# generated using pymatgen
data_Sm3Ga2RuRh
_symmetry_space_group_name_H-M   'P 1'
_cell_length_a   5.65983700
_cell_length_b   7.97363900
_cell_length_c   13.75299200
_cell_angle_alpha   90.00000000
_cell_angle_beta   90.00000000
_cell_angle_gamma   90.00000000
_symmetry_Int_Tables_number   1
_chemical_formula_structural   Sm3Ga2RuRh
_chemical_formula_sum   'Sm12 Ga8 Ru4 Rh4'
_cell_volume   620.66561171
_cell_formula_units_Z   4
loop_
 _symmetry_equiv_pos_site_id
 _symmetry_equiv_pos_as_xyz
  1  'x, y, z'
loop_
 _atom_site_type_symbol
 _atom_site_label
 _atom_site_symmetry_multiplicity
 _atom_site_fract_x
 _atom_site_fract_y
 _atom_site_fract_z
 _atom_site_occupancy
  Sm  Sm0  1  0.150149  0.405893  0.597134  1
  Sm  Sm1  1  0.849851  0.594107  0.097134  1
  Sm  Sm2  1  0.150149  0.094107  0.402866  1
  Sm  Sm3  1  0.849851  0.905893  0.902866  1
  Sm  Sm4  1  0.848435  0.599577  0.404163  1
  Sm  Sm5  1  0.151565  0.400423  0.904163  1
  Sm  Sm6  1  0.848435  0.900423  0.595837  1
  Sm  Sm7  1  0.151565  0.099577  0.095837  1
  Sm  Sm8  1  0.625889  0.266121  0.748740  1
  Sm  Sm9  1  0.374111  0.733879  0.248740  1
  Sm  Sm10  1  0.625889  0.233879  0.251260  1
  Sm  Sm11  1  0.374111  0.766121  0.751260  1
  Ga  Ga12  1  0.128238  0.110834  0.750041  1
  Ga  Ga13  1  0.871762  0.889166  0.250041  1
  Ga  Ga14  1  0.128238  0.389166  0.249959  1
  Ga  Ga15  1  0.871762  0.610834  0.749959  1
  Ga  Ga16  1  0.634824  0.250000  0.500000  1
  Ga  Ga17  1  0.365176  0.750000  0.000000  1
  Ga  Ga18  1  0.372023  0.750000  0.500000  1
  Ga  Ga19  1  0.627977  0.250000  0.000000  1
  Ru  Ru20  1  0.647148  0.970558  0.407413  1
  Ru  Ru21  1  0.352852  0.029442  0.907413  1
  Ru  Ru22  1  0.647148  0.529442  0.592587  1
  Ru  Ru23  1  0.352852  0.470558  0.092587  1
  Rh  Rh24  1  0.353423  0.035133  0.593293  1
  Rh  Rh25  1  0.646577  0.964867  0.093293  1
  Rh  Rh26  1  0.353423  0.464867  0.406707  1
  Rh  Rh27  1  0.646577  0.535133  0.906707  1
