# generated using pymatgen
data_Ta4VB4Mo
_symmetry_space_group_name_H-M   'P 1'
_cell_length_a   6.07690400
_cell_length_b   6.07690400
_cell_length_c   3.26632500
_cell_angle_alpha   90.00000000
_cell_angle_beta   90.00000000
_cell_angle_gamma   90.00000000
_symmetry_Int_Tables_number   1
_chemical_formula_structural   Ta4VB4Mo
_chemical_formula_sum   'Ta4 V1 B4 Mo1'
_cell_volume   120.62133928
_cell_formula_units_Z   1
loop_
 _symmetry_equiv_pos_site_id
 _symmetry_equiv_pos_as_xyz
  1  'x, y, z'
loop_
 _atom_site_type_symbol
 _atom_site_label
 _atom_site_symmetry_multiplicity
 _atom_site_fract_x
 _atom_site_fract_y
 _atom_site_fract_z
 _atom_site_occupancy
  Ta  Ta0  1  0.682179  0.177053  0.500000  1
  Ta  Ta1  1  0.317821  0.822947  0.500000  1
  Ta  Ta2  1  0.177053  0.317821  0.500000  1
  Ta  Ta3  1  0.822947  0.682179  0.500000  1
  V  V4  1  0.000000  0.000000  0.000000  1
  B  B5  1  0.108184  0.610358  0.000000  1
  B  B6  1  0.891816  0.389642  0.000000  1
  B  B7  1  0.610358  0.891816  0.000000  1
  B  B8  1  0.389642  0.108184  0.000000  1
  Mo  Mo9  1  0.500000  0.500000  0.000000  1
