# generated using pymatgen
data_LaLu2SbO7
_symmetry_space_group_name_H-M   'P 1'
_cell_length_a   6.42852700
_cell_length_b   6.42852850
_cell_length_c   7.55060500
_cell_angle_alpha   90.00000000
_cell_angle_beta   90.00000000
_cell_angle_gamma   109.16208738
_symmetry_Int_Tables_number   1
_chemical_formula_structural   LaLu2SbO7
_chemical_formula_sum   'La2 Lu4 Sb2 O14'
_cell_volume   294.74732762
_cell_formula_units_Z   2
loop_
 _symmetry_equiv_pos_site_id
 _symmetry_equiv_pos_as_xyz
  1  'x, y, z'
loop_
 _atom_site_type_symbol
 _atom_site_label
 _atom_site_symmetry_multiplicity
 _atom_site_fract_x
 _atom_site_fract_y
 _atom_site_fract_z
 _atom_site_occupancy
  La  La0  1  0.500000  0.500000  0.500000  1
  La  La1  1  0.500000  0.500000  0.000000  1
  Lu  Lu2  1  0.529817  0.001884  0.750000  1
  Lu  Lu3  1  0.001884  0.529817  0.250000  1
  Lu  Lu4  1  0.470183  0.998116  0.250000  1
  Lu  Lu5  1  0.998116  0.470183  0.750000  1
  Sb  Sb6  1  0.000000  0.000000  0.500000  1
  Sb  Sb7  1  0.000000  0.000000  0.000000  1
  O  O8  1  0.676541  0.934199  0.468806  1
  O  O9  1  0.934199  0.676541  0.531194  1
  O  O10  1  0.676541  0.934199  0.031194  1
  O  O11  1  0.934199  0.676541  0.968806  1
  O  O12  1  0.323459  0.065801  0.531194  1
  O  O13  1  0.065801  0.323459  0.468806  1
  O  O14  1  0.323459  0.065801  0.968806  1
  O  O15  1  0.065801  0.323459  0.031194  1
  O  O16  1  0.928515  0.071485  0.750000  1
  O  O17  1  0.071485  0.928515  0.250000  1
  O  O18  1  0.357895  0.642105  0.750000  1
  O  O19  1  0.642105  0.357895  0.250000  1
  O  O20  1  0.647390  0.352610  0.750000  1
  O  O21  1  0.352610  0.647390  0.250000  1
