# generated using pymatgen
data_SmDyHo3(CoB3)2
_symmetry_space_group_name_H-M   'P 1'
_cell_length_a   5.39978959
_cell_length_b   5.39978930
_cell_length_c   8.36945976
_cell_angle_alpha   71.18045312
_cell_angle_beta   71.18045787
_cell_angle_gamma   59.99999536
_symmetry_Int_Tables_number   1
_chemical_formula_structural   SmDyHo3(CoB3)2
_chemical_formula_sum   'Sm1 Dy1 Ho3 Co2 B6'
_cell_volume   196.13089237
_cell_formula_units_Z   1
loop_
 _symmetry_equiv_pos_site_id
 _symmetry_equiv_pos_as_xyz
  1  'x, y, z'
loop_
 _atom_site_type_symbol
 _atom_site_label
 _atom_site_symmetry_multiplicity
 _atom_site_fract_x
 _atom_site_fract_y
 _atom_site_fract_z
 _atom_site_occupancy
  Sm  Sm0  1  0.000114  0.000114  0.999657  1
  Dy  Dy1  1  0.583428  0.583428  0.249717  1
  Ho  Ho2  1  0.250716  0.250716  0.247850  1
  Ho  Ho3  1  0.749281  0.749281  0.752159  1
  Ho  Ho4  1  0.416935  0.416935  0.749193  1
  Co  Co5  1  0.119981  0.119981  0.640055  1
  Co  Co6  1  0.879969  0.879969  0.360093  1
  B  B7  1  0.168323  0.831458  0.500213  1
  B  B8  1  0.831458  0.500007  0.500213  1
  B  B9  1  0.500007  0.168323  0.500213  1
  B  B10  1  0.168323  0.500007  0.500213  1
  B  B11  1  0.500007  0.831458  0.500213  1
  B  B12  1  0.831458  0.168323  0.500213  1
