# generated using pymatgen
data_Dy2Y6CdHgIr2
_symmetry_space_group_name_H-M   'P 1'
_cell_length_a   9.64177900
_cell_length_b   9.64177816
_cell_length_c   9.64396000
_cell_angle_alpha   59.99251411
_cell_angle_beta   59.99251699
_cell_angle_gamma   60.01420363
_symmetry_Int_Tables_number   1
_chemical_formula_structural   Dy2Y6CdHgIr2
_chemical_formula_sum   'Dy4 Y12 Cd2 Hg2 Ir4'
_cell_volume   633.94584131
_cell_formula_units_Z   2
loop_
 _symmetry_equiv_pos_site_id
 _symmetry_equiv_pos_as_xyz
  1  'x, y, z'
loop_
 _atom_site_type_symbol
 _atom_site_label
 _atom_site_symmetry_multiplicity
 _atom_site_fract_x
 _atom_site_fract_y
 _atom_site_fract_z
 _atom_site_occupancy
  Dy  Dy0  1  0.349526  0.349526  0.348043  1
  Dy  Dy1  1  0.349526  0.349526  0.952905  1
  Dy  Dy2  1  0.351155  0.949643  0.349601  1
  Dy  Dy3  1  0.949643  0.351155  0.349601  1
  Y  Y4  1  0.809237  0.188973  0.191235  1
  Y  Y5  1  0.188973  0.809237  0.810555  1
  Y  Y6  1  0.188973  0.809237  0.191235  1
  Y  Y7  1  0.809237  0.188973  0.810555  1
  Y  Y8  1  0.189445  0.189445  0.810555  1
  Y  Y9  1  0.809009  0.809009  0.190991  1
  Y  Y10  1  0.937814  0.561302  0.562181  1
  Y  Y11  1  0.561302  0.937814  0.938703  1
  Y  Y12  1  0.561302  0.937814  0.562181  1
  Y  Y13  1  0.937814  0.561302  0.938703  1
  Y  Y14  1  0.561438  0.561438  0.938562  1
  Y  Y15  1  0.938044  0.938044  0.561956  1
  Cd  Cd16  1  0.579946  0.258729  0.580663  1
  Cd  Cd17  1  0.258729  0.579946  0.580663  1
  Hg  Hg18  1  0.583643  0.583643  0.585780  1
  Hg  Hg19  1  0.583643  0.583643  0.246936  1
  Ir  Ir20  1  0.142637  0.142637  0.141756  1
  Ir  Ir21  1  0.142637  0.142637  0.572970  1
  Ir  Ir22  1  0.142743  0.573584  0.141836  1
  Ir  Ir23  1  0.573584  0.142743  0.141836  1
