# generated using pymatgen
data_TbNdSbTe
_symmetry_space_group_name_H-M   'P 1'
_cell_length_a   7.75671023
_cell_length_b   7.75671084
_cell_length_c   7.75670909
_cell_angle_alpha   33.31508012
_cell_angle_beta   33.31507658
_cell_angle_gamma   33.31507907
_symmetry_Int_Tables_number   1
_chemical_formula_structural   TbNdSbTe
_chemical_formula_sum   'Tb1 Nd1 Sb1 Te1'
_cell_volume   125.35216991
_cell_formula_units_Z   1
loop_
 _symmetry_equiv_pos_site_id
 _symmetry_equiv_pos_as_xyz
  1  'x, y, z'
loop_
 _atom_site_type_symbol
 _atom_site_label
 _atom_site_symmetry_multiplicity
 _atom_site_fract_x
 _atom_site_fract_y
 _atom_site_fract_z
 _atom_site_occupancy
  Tb  Tb0  1  0.746330  0.746330  0.746330  1
  Nd  Nd1  1  0.253967  0.253967  0.253967  1
  Sb  Sb2  1  0.002879  0.002879  0.002879  1
  Te  Te3  1  0.496824  0.496824  0.496824  1
