# generated using pymatgen
data_Er20Ir7Os3Pt2
_symmetry_space_group_name_H-M   'P 1'
_cell_length_a   10.79147428
_cell_length_b   10.77954708
_cell_length_c   6.38060716
_cell_angle_alpha   90.00898228
_cell_angle_beta   90.02375591
_cell_angle_gamma   89.98967197
_symmetry_Int_Tables_number   1
_chemical_formula_structural   Er20Ir7Os3Pt2
_chemical_formula_sum   'Er20 Ir7 Os3 Pt2'
_cell_volume   742.23811167
_cell_formula_units_Z   1
loop_
 _symmetry_equiv_pos_site_id
 _symmetry_equiv_pos_as_xyz
  1  'x, y, z'
loop_
 _atom_site_type_symbol
 _atom_site_label
 _atom_site_symmetry_multiplicity
 _atom_site_fract_x
 _atom_site_fract_y
 _atom_site_fract_z
 _atom_site_occupancy
  Er  Er0  1  0.293920  0.086182  0.376491  1
  Er  Er1  1  0.294007  0.914198  0.876744  1
  Er  Er2  1  0.702887  0.087350  0.874234  1
  Er  Er3  1  0.702991  0.912194  0.373823  1
  Er  Er4  1  0.582848  0.793579  0.877570  1
  Er  Er5  1  0.583132  0.206558  0.377138  1
  Er  Er6  1  0.413203  0.793630  0.377071  1
  Er  Er7  1  0.413556  0.206281  0.877473  1
  Er  Er8  1  0.208508  0.412792  0.624536  1
  Er  Er9  1  0.207723  0.587345  0.120559  1
  Er  Er10  1  0.792065  0.415876  0.120399  1
  Er  Er11  1  0.791433  0.584062  0.624576  1
  Er  Er12  1  0.914255  0.705751  0.125181  1
  Er  Er13  1  0.914397  0.293536  0.629337  1
  Er  Er14  1  0.089985  0.706347  0.624245  1
  Er  Er15  1  0.090110  0.294314  0.120281  1
  Er  Er16  1  0.003002  0.999636  0.499017  1
  Er  Er17  1  0.002986  0.000333  0.999119  1
  Er  Er18  1  0.499721  0.499978  0.998980  1
  Er  Er19  1  0.499753  0.500022  0.498873  1
  Ir  Ir20  1  0.150851  0.152733  0.749603  1
  Ir  Ir21  1  0.150471  0.847092  0.249872  1
  Ir  Ir22  1  0.653850  0.347221  0.749906  1
  Ir  Ir23  1  0.654125  0.652358  0.250314  1
  Ir  Ir24  1  0.346709  0.348201  0.250137  1
  Ir  Ir25  1  0.346914  0.652191  0.749669  1
  Ir  Ir26  1  0.999869  0.499830  0.378166  1
  Os  Os27  1  0.500759  0.000006  0.125196  1
  Os  Os28  1  0.500792  0.000026  0.624925  1
  Os  Os29  1  0.999754  0.500065  0.876169  1
  Pt  Pt30  1  0.847916  0.153005  0.250295  1
  Pt  Pt31  1  0.847508  0.847308  0.750102  1
