# generated using pymatgen
data_Lu2Co3Si6PRu9
_symmetry_space_group_name_H-M   'P 1'
_cell_length_a   9.41661247
_cell_length_b   9.42931648
_cell_length_c   3.83013100
_cell_angle_alpha   90.00000000
_cell_angle_beta   90.00000000
_cell_angle_gamma   119.72217497
_symmetry_Int_Tables_number   1
_chemical_formula_structural   Lu2Co3Si6PRu9
_chemical_formula_sum   'Lu2 Co3 Si6 P1 Ru9'
_cell_volume   295.34403498
_cell_formula_units_Z   1
loop_
 _symmetry_equiv_pos_site_id
 _symmetry_equiv_pos_as_xyz
  1  'x, y, z'
loop_
 _atom_site_type_symbol
 _atom_site_label
 _atom_site_symmetry_multiplicity
 _atom_site_fract_x
 _atom_site_fract_y
 _atom_site_fract_z
 _atom_site_occupancy
  Lu  Lu0  1  0.332972  0.668368  0.000000  1
  Lu  Lu1  1  0.997025  0.997739  0.500000  1
  Co  Co2  1  0.941603  0.456946  0.000000  1
  Co  Co3  1  0.518273  0.064189  0.000000  1
  Co  Co4  1  0.541221  0.481763  0.000000  1
  Si  Si5  1  0.960156  0.225079  0.000000  1
  Si  Si6  1  0.263771  0.038347  0.000000  1
  Si  Si7  1  0.770911  0.731543  0.000000  1
  Si  Si8  1  0.061644  0.619305  0.500000  1
  Si  Si9  1  0.560638  0.942099  0.500000  1
  Si  Si10  1  0.669048  0.334745  0.000000  1
  P  P11  1  0.381441  0.440084  0.500000  1
  Ru  Ru12  1  0.725202  0.962625  0.000000  1
  Ru  Ru13  1  0.241144  0.276417  0.000000  1
  Ru  Ru14  1  0.034358  0.760669  0.000000  1
  Ru  Ru15  1  0.108372  0.391067  0.500000  1
  Ru  Ru16  1  0.288125  0.898001  0.500000  1
  Ru  Ru17  1  0.601787  0.706424  0.500000  1
  Ru  Ru18  1  0.766792  0.227441  0.500000  1
  Ru  Ru19  1  0.461035  0.239804  0.500000  1
  Ru  Ru20  1  0.774478  0.537349  0.500000  1
