# generated using pymatgen
data_Na2Zr3Si12Ir19
_symmetry_space_group_name_H-M   'P 1'
_cell_length_a   12.74127939
_cell_length_b   12.75738345
_cell_length_c   3.95647400
_cell_angle_alpha   90.00000000
_cell_angle_beta   90.00000000
_cell_angle_gamma   120.04181774
_symmetry_Int_Tables_number   1
_chemical_formula_structural   Na2Zr3Si12Ir19
_chemical_formula_sum   'Na2 Zr3 Si12 Ir19'
_cell_volume   556.71181417
_cell_formula_units_Z   1
loop_
 _symmetry_equiv_pos_site_id
 _symmetry_equiv_pos_as_xyz
  1  'x, y, z'
loop_
 _atom_site_type_symbol
 _atom_site_label
 _atom_site_symmetry_multiplicity
 _atom_site_fract_x
 _atom_site_fract_y
 _atom_site_fract_z
 _atom_site_occupancy
  Na  Na0  1  0.184263  0.184584  0.500000  1
  Na  Na1  1  0.815737  0.000322  0.500000  1
  Zr  Zr2  1  0.000000  0.819443  0.500000  1
  Zr  Zr3  1  0.332926  0.667295  0.000000  1
  Zr  Zr4  1  0.667074  0.334368  0.000000  1
  Si  Si5  1  0.000000  0.181261  0.000000  1
  Si  Si6  1  0.818659  0.818862  0.000000  1
  Si  Si7  1  0.181341  0.000203  0.000000  1
  Si  Si8  1  0.520230  0.690467  0.500000  1
  Si  Si9  1  0.311768  0.830132  0.500000  1
  Si  Si10  1  0.169957  0.480289  0.500000  1
  Si  Si11  1  0.479770  0.170238  0.500000  1
  Si  Si12  1  0.688232  0.518363  0.500000  1
  Si  Si13  1  0.830043  0.310332  0.500000  1
  Si  Si14  1  0.000000  0.634886  0.000000  1
  Si  Si15  1  0.365385  0.365204  0.000000  1
  Si  Si16  1  0.634615  0.999819  0.000000  1
  Ir  Ir17  1  0.000000  0.281939  0.500000  1
  Ir  Ir18  1  0.719946  0.716890  0.500000  1
  Ir  Ir19  1  0.280054  0.996944  0.500000  1
  Ir  Ir20  1  0.619744  0.803513  0.000000  1
  Ir  Ir21  1  0.190974  0.816392  0.000000  1
  Ir  Ir22  1  0.185717  0.382530  0.000000  1
  Ir  Ir23  1  0.380256  0.183769  0.000000  1
  Ir  Ir24  1  0.809026  0.625418  0.000000  1
  Ir  Ir25  1  0.814283  0.196813  0.000000  1
  Ir  Ir26  1  0.509776  0.872326  0.500000  1
  Ir  Ir27  1  0.128713  0.637835  0.500000  1
  Ir  Ir28  1  0.365221  0.492237  0.500000  1
  Ir  Ir29  1  0.490224  0.362551  0.500000  1
  Ir  Ir30  1  0.871287  0.509123  0.500000  1
  Ir  Ir31  1  0.634779  0.127017  0.500000  1
  Ir  Ir32  1  0.000000  0.994666  0.000000  1
  Ir  Ir33  1  0.000000  0.449936  0.000000  1
  Ir  Ir34  1  0.554823  0.549429  0.000000  1
  Ir  Ir35  1  0.445177  0.994605  0.000000  1
