# generated using pymatgen
data_KPr2Sb3Se8
_symmetry_space_group_name_H-M   'P 1'
_cell_length_a   17.22656100
_cell_length_b   4.13572400
_cell_length_c   22.23476700
_cell_angle_alpha   90.00000000
_cell_angle_beta   90.00000000
_cell_angle_gamma   90.00000000
_symmetry_Int_Tables_number   1
_chemical_formula_structural   KPr2Sb3Se8
_chemical_formula_sum   'K4 Pr8 Sb12 Se32'
_cell_volume   1584.10044983
_cell_formula_units_Z   4
loop_
 _symmetry_equiv_pos_site_id
 _symmetry_equiv_pos_as_xyz
  1  'x, y, z'
loop_
 _atom_site_type_symbol
 _atom_site_label
 _atom_site_symmetry_multiplicity
 _atom_site_fract_x
 _atom_site_fract_y
 _atom_site_fract_z
 _atom_site_occupancy
  K  K0  1  0.300847  0.750002  0.242024  1
  K  K1  1  0.800847  0.750002  0.257975  1
  K  K2  1  0.199153  0.250000  0.742024  1
  K  K3  1  0.699153  0.250000  0.757976  1
  Pr  Pr4  1  0.208093  0.750002  0.044063  1
  Pr  Pr5  1  0.962237  0.750002  0.091745  1
  Pr  Pr6  1  0.462237  0.750002  0.408255  1
  Pr  Pr7  1  0.708093  0.750002  0.455937  1
  Pr  Pr8  1  0.291907  0.250000  0.544063  1
  Pr  Pr9  1  0.537763  0.250000  0.591746  1
  Pr  Pr10  1  0.037763  0.250000  0.908254  1
  Pr  Pr11  1  0.791907  0.250000  0.955937  1
  Sb  Sb12  1  0.422011  0.250000  0.083834  1
  Sb  Sb13  1  0.646908  0.750002  0.102297  1
  Sb  Sb14  1  0.037124  0.250000  0.245291  1
  Sb  Sb15  1  0.537125  0.250000  0.254709  1
  Sb  Sb16  1  0.146908  0.750002  0.397703  1
  Sb  Sb17  1  0.922010  0.250000  0.416166  1
  Sb  Sb18  1  0.077990  0.750002  0.583834  1
  Sb  Sb19  1  0.853092  0.250000  0.602297  1
  Sb  Sb20  1  0.462876  0.750002  0.745291  1
  Sb  Sb21  1  0.962876  0.750002  0.754709  1
  Sb  Sb22  1  0.353092  0.250000  0.897703  1
  Sb  Sb23  1  0.577989  0.750002  0.916166  1
  Se  Se24  1  0.618830  0.250000  0.001453  1
  Se  Se25  1  0.074359  0.250000  0.043532  1
  Se  Se26  1  0.790109  0.750002  0.056067  1
  Se  Se27  1  0.279669  0.250000  0.126678  1
  Se  Se28  1  0.473980  0.750002  0.166119  1
  Se  Se29  1  0.906691  0.250000  0.174541  1
  Se  Se30  1  0.104137  0.750002  0.179341  1
  Se  Se31  1  0.682021  0.250000  0.179232  1
  Se  Se32  1  0.182021  0.250000  0.320769  1
  Se  Se33  1  0.604137  0.750002  0.320659  1
  Se  Se34  1  0.406691  0.250000  0.325459  1
  Se  Se35  1  0.973980  0.750002  0.333881  1
  Se  Se36  1  0.779669  0.250000  0.373321  1
  Se  Se37  1  0.290109  0.750002  0.443934  1
  Se  Se38  1  0.574358  0.250000  0.456468  1
  Se  Se39  1  0.118830  0.250000  0.498547  1
  Se  Se40  1  0.881170  0.750002  0.501453  1
  Se  Se41  1  0.425642  0.750002  0.543532  1
  Se  Se42  1  0.709891  0.250000  0.556066  1
  Se  Se43  1  0.220331  0.750002  0.626678  1
  Se  Se44  1  0.026020  0.250000  0.666119  1
  Se  Se45  1  0.593309  0.750002  0.674541  1
  Se  Se46  1  0.395863  0.250000  0.679341  1
  Se  Se47  1  0.817979  0.750002  0.679231  1
  Se  Se48  1  0.317979  0.750002  0.820769  1
  Se  Se49  1  0.895863  0.250000  0.820660  1
  Se  Se50  1  0.093309  0.750002  0.825459  1
  Se  Se51  1  0.526020  0.250000  0.833881  1
  Se  Se52  1  0.720331  0.750002  0.873322  1
  Se  Se53  1  0.209890  0.250000  0.943933  1
  Se  Se54  1  0.925641  0.750002  0.956468  1
  Se  Se55  1  0.381170  0.750002  0.998547  1
