# generated using pymatgen
data_Tb7LuC10
_symmetry_space_group_name_H-M   'P 1'
_cell_length_a   3.70201000
_cell_length_b   6.60675265
_cell_length_c   11.92133572
_cell_angle_alpha   89.80329134
_cell_angle_beta   90.00000000
_cell_angle_gamma   90.00000000
_symmetry_Int_Tables_number   1
_chemical_formula_structural   Tb7LuC10
_chemical_formula_sum   'Tb7 Lu1 C10'
_cell_volume   291.57346232
_cell_formula_units_Z   1
loop_
 _symmetry_equiv_pos_site_id
 _symmetry_equiv_pos_as_xyz
  1  'x, y, z'
loop_
 _atom_site_type_symbol
 _atom_site_label
 _atom_site_symmetry_multiplicity
 _atom_site_fract_x
 _atom_site_fract_y
 _atom_site_fract_z
 _atom_site_occupancy
  Tb  Tb0  1  0.000000  0.751761  0.457163  1
  Tb  Tb1  1  0.000000  0.747201  0.954570  1
  Tb  Tb2  1  0.000000  0.236189  0.041769  1
  Tb  Tb3  1  0.500000  0.108194  0.800822  1
  Tb  Tb4  1  0.500000  0.892848  0.196944  1
  Tb  Tb5  1  0.500000  0.603600  0.697857  1
  Tb  Tb6  1  0.500000  0.390711  0.304120  1
  Lu  Lu7  1  0.000000  0.268565  0.542156  1
  C  C8  1  0.500000  0.509146  0.502268  1
  C  C9  1  0.500000  0.985114  0.000668  1
  C  C10  1  0.000000  0.362853  0.732832  1
  C  C11  1  0.000000  0.644137  0.261816  1
  C  C12  1  0.000000  0.857422  0.757108  1
  C  C13  1  0.000000  0.133158  0.240115  1
  C  C14  1  0.000000  0.381262  0.844535  1
  C  C15  1  0.000000  0.569219  0.158554  1
  C  C16  1  0.000000  0.119993  0.351937  1
  C  C17  1  0.000000  0.938627  0.654766  1
