# generated using pymatgen
data_Li3HgO2F
_symmetry_space_group_name_H-M   'P 1'
_cell_length_a   9.10401600
_cell_length_b   11.31334400
_cell_length_c   3.46109000
_cell_angle_alpha   90.00009524
_cell_angle_beta   90.00008113
_cell_angle_gamma   89.99982580
_symmetry_Int_Tables_number   1
_chemical_formula_structural   Li3HgO2F
_chemical_formula_sum   'Li12 Hg4 O8 F4'
_cell_volume   356.48141875
_cell_formula_units_Z   4
loop_
 _symmetry_equiv_pos_site_id
 _symmetry_equiv_pos_as_xyz
  1  'x, y, z'
loop_
 _atom_site_type_symbol
 _atom_site_label
 _atom_site_symmetry_multiplicity
 _atom_site_fract_x
 _atom_site_fract_y
 _atom_site_fract_z
 _atom_site_occupancy
  Li  Li0  1  0.097672  0.358013  0.500009  1
  Li  Li1  1  0.182481  0.556930  0.000036  1
  Li  Li2  1  0.193339  0.200688  0.999996  1
  Li  Li3  1  0.306654  0.700702  0.500028  1
  Li  Li4  1  0.317518  0.056933  0.499987  1
  Li  Li5  1  0.402340  0.858009  0.999993  1
  Li  Li6  1  0.597673  0.141997  0.999984  1
  Li  Li7  1  0.682482  0.943079  0.499975  1
  Li  Li8  1  0.693338  0.299292  0.499990  1
  Li  Li9  1  0.806672  0.799304  0.999978  1
  Li  Li10  1  0.817498  0.443058  0.999991  1
  Li  Li11  1  0.902344  0.641979  0.500008  1
  Hg  Hg12  1  0.087473  0.873902  0.499990  1
  Hg  Hg13  1  0.412515  0.373916  0.000002  1
  Hg  Hg14  1  0.587440  0.626094  0.000015  1
  Hg  Hg15  1  0.912489  0.126099  0.499990  1
  O  O16  1  0.130339  0.156731  0.499995  1
  O  O17  1  0.190345  0.383653  0.000009  1
  O  O18  1  0.309689  0.883637  0.499997  1
  O  O19  1  0.369661  0.656739  0.000026  1
  O  O20  1  0.630344  0.343245  0.999992  1
  O  O21  1  0.690327  0.116360  0.499982  1
  O  O22  1  0.809670  0.616352  0.000006  1
  O  O23  1  0.869676  0.843289  0.499980  1
  F  F24  1  0.112520  0.614302  0.500027  1
  F  F25  1  0.387514  0.114319  0.000010  1
  F  F26  1  0.612500  0.885693  0.999987  1
  F  F27  1  0.887489  0.385681  0.500013  1
