# generated using pymatgen
data_Ho4ZrPt14Rh
_symmetry_space_group_name_H-M   'P 1'
_cell_length_a   4.09853700
_cell_length_b   4.09853700
_cell_length_c   20.49013500
_cell_angle_alpha   90.00000000
_cell_angle_beta   90.00000000
_cell_angle_gamma   90.00000000
_symmetry_Int_Tables_number   1
_chemical_formula_structural   Ho4ZrPt14Rh
_chemical_formula_sum   'Ho4 Zr1 Pt14 Rh1'
_cell_volume   344.19340125
_cell_formula_units_Z   1
loop_
 _symmetry_equiv_pos_site_id
 _symmetry_equiv_pos_as_xyz
  1  'x, y, z'
loop_
 _atom_site_type_symbol
 _atom_site_label
 _atom_site_symmetry_multiplicity
 _atom_site_fract_x
 _atom_site_fract_y
 _atom_site_fract_z
 _atom_site_occupancy
  Ho  Ho0  1  0.000000  0.000000  0.199219  1
  Ho  Ho1  1  0.000000  0.000000  0.399688  1
  Ho  Ho2  1  0.000000  0.000000  0.600312  1
  Ho  Ho3  1  0.000000  0.000000  0.800781  1
  Zr  Zr4  1  0.000000  0.000000  0.000000  1
  Pt  Pt5  1  0.500000  0.500000  0.197645  1
  Pt  Pt6  1  0.500000  0.500000  0.399523  1
  Pt  Pt7  1  0.500000  0.500000  0.600477  1
  Pt  Pt8  1  0.500000  0.500000  0.802355  1
  Pt  Pt9  1  0.500000  0.000000  0.095684  1
  Pt  Pt10  1  0.500000  0.000000  0.298895  1
  Pt  Pt11  1  0.500000  0.000000  0.500000  1
  Pt  Pt12  1  0.500000  0.000000  0.701105  1
  Pt  Pt13  1  0.500000  0.000000  0.904316  1
  Pt  Pt14  1  0.000000  0.500000  0.095684  1
  Pt  Pt15  1  0.000000  0.500000  0.298895  1
  Pt  Pt16  1  0.000000  0.500000  0.500000  1
  Pt  Pt17  1  0.000000  0.500000  0.701105  1
  Pt  Pt18  1  0.000000  0.500000  0.904316  1
  Rh  Rh19  1  0.500000  0.500000  0.000000  1
