# generated using pymatgen
data_Li3MgTa2(SbPt)6
_symmetry_space_group_name_H-M   'P 1'
_cell_length_a   7.70019329
_cell_length_b   7.69823107
_cell_length_c   7.68165675
_cell_angle_alpha   99.71382414
_cell_angle_beta   99.52928093
_cell_angle_gamma   119.96866015
_symmetry_Int_Tables_number   1
_chemical_formula_structural   Li3MgTa2(SbPt)6
_chemical_formula_sum   'Li3 Mg1 Ta2 Sb6 Pt6'
_cell_volume   371.80025292
_cell_formula_units_Z   1
loop_
 _symmetry_equiv_pos_site_id
 _symmetry_equiv_pos_as_xyz
  1  'x, y, z'
loop_
 _atom_site_type_symbol
 _atom_site_label
 _atom_site_symmetry_multiplicity
 _atom_site_fract_x
 _atom_site_fract_y
 _atom_site_fract_z
 _atom_site_occupancy
  Li  Li0  1  0.331491  0.165150  0.498908  1
  Li  Li1  1  0.998188  0.503671  0.500303  1
  Li  Li2  1  0.165849  0.330992  0.999510  1
  Mg  Mg3  1  0.503652  0.997974  0.000616  1
  Ta  Ta4  1  0.668273  0.830527  0.499052  1
  Ta  Ta5  1  0.831002  0.669629  0.000184  1
  Sb  Sb6  1  0.930130  0.107047  0.249137  1
  Sb  Sb7  1  0.251521  0.745590  0.252131  1
  Sb  Sb8  1  0.571308  0.402033  0.258645  1
  Sb  Sb9  1  0.100610  0.922921  0.743634  1
  Sb  Sb10  1  0.752019  0.258492  0.745686  1
  Sb  Sb11  1  0.395583  0.565579  0.753406  1
  Pt  Pt12  1  0.192587  0.021915  0.116164  1
  Pt  Pt13  1  0.868415  0.387501  0.117658  1
  Pt  Pt14  1  0.561704  0.715337  0.135979  1
  Pt  Pt15  1  0.022349  0.189112  0.617580  1
  Pt  Pt16  1  0.393248  0.874214  0.623137  1
  Pt  Pt17  1  0.712027  0.562277  0.638270  1
