# generated using pymatgen
data_Tb2ThZnPt5
_symmetry_space_group_name_H-M   'P 1'
_cell_length_a   8.28900788
_cell_length_b   8.28900936
_cell_length_c   13.19651300
_cell_angle_alpha   90.00000000
_cell_angle_beta   90.00000000
_cell_angle_gamma   127.33864800
_symmetry_Int_Tables_number   1
_chemical_formula_structural   Tb2ThZnPt5
_chemical_formula_sum   'Tb8 Th4 Zn4 Pt20'
_cell_volume   720.88627445
_cell_formula_units_Z   4
loop_
 _symmetry_equiv_pos_site_id
 _symmetry_equiv_pos_as_xyz
  1  'x, y, z'
loop_
 _atom_site_type_symbol
 _atom_site_label
 _atom_site_symmetry_multiplicity
 _atom_site_fract_x
 _atom_site_fract_y
 _atom_site_fract_z
 _atom_site_occupancy
  Tb  Tb0  1  0.629988  0.370012  0.460678  1
  Tb  Tb1  1  0.370012  0.629988  0.539322  1
  Tb  Tb2  1  0.629988  0.370012  0.039322  1
  Tb  Tb3  1  0.370012  0.629988  0.960678  1
  Tb  Tb4  1  0.880877  0.119123  0.948181  1
  Tb  Tb5  1  0.119123  0.880877  0.051819  1
  Tb  Tb6  1  0.880877  0.119123  0.551819  1
  Tb  Tb7  1  0.119123  0.880877  0.448181  1
  Th  Th8  1  0.932632  0.067368  0.250000  1
  Th  Th9  1  0.067368  0.932632  0.750000  1
  Th  Th10  1  0.316435  0.683565  0.250000  1
  Th  Th11  1  0.683565  0.316435  0.750000  1
  Zn  Zn12  1  0.719274  0.280726  0.250000  1
  Zn  Zn13  1  0.280726  0.719274  0.750000  1
  Zn  Zn14  1  0.533824  0.466176  0.250000  1
  Zn  Zn15  1  0.466176  0.533824  0.750000  1
  Pt  Pt16  1  0.321323  0.068477  0.250000  1
  Pt  Pt17  1  0.068477  0.321323  0.750000  1
  Pt  Pt18  1  0.678677  0.931523  0.750000  1
  Pt  Pt19  1  0.931523  0.678677  0.250000  1
  Pt  Pt20  1  0.564351  0.998271  0.395998  1
  Pt  Pt21  1  0.998271  0.564351  0.604002  1
  Pt  Pt22  1  0.564351  0.998271  0.104002  1
  Pt  Pt23  1  0.998271  0.564351  0.895998  1
  Pt  Pt24  1  0.435649  0.001729  0.604002  1
  Pt  Pt25  1  0.001729  0.435649  0.395998  1
  Pt  Pt26  1  0.435649  0.001729  0.895998  1
  Pt  Pt27  1  0.001729  0.435649  0.104002  1
  Pt  Pt28  1  0.690852  0.746851  0.394091  1
  Pt  Pt29  1  0.746851  0.690852  0.605909  1
  Pt  Pt30  1  0.690852  0.746851  0.105909  1
  Pt  Pt31  1  0.746851  0.690852  0.894091  1
  Pt  Pt32  1  0.309148  0.253149  0.605909  1
  Pt  Pt33  1  0.253149  0.309148  0.394091  1
  Pt  Pt34  1  0.309148  0.253149  0.894091  1
  Pt  Pt35  1  0.253149  0.309148  0.105909  1
