# generated using pymatgen
data_Ho8Zr11TiSi15Pb
_symmetry_space_group_name_H-M   'P 1'
_cell_length_a   7.36860945
_cell_length_b   7.33014241
_cell_length_c   13.49621724
_cell_angle_alpha   90.11081641
_cell_angle_beta   89.63196973
_cell_angle_gamma   89.89928450
_symmetry_Int_Tables_number   1
_chemical_formula_structural   Ho8Zr11TiSi15Pb
_chemical_formula_sum   'Ho8 Zr11 Ti1 Si15 Pb1'
_cell_volume   728.95305176
_cell_formula_units_Z   1
loop_
 _symmetry_equiv_pos_site_id
 _symmetry_equiv_pos_as_xyz
  1  'x, y, z'
loop_
 _atom_site_type_symbol
 _atom_site_label
 _atom_site_symmetry_multiplicity
 _atom_site_fract_x
 _atom_site_fract_y
 _atom_site_fract_z
 _atom_site_occupancy
  Ho  Ho0  1  0.349366  0.000017  0.459076  1
  Ho  Ho1  1  0.506166  0.838708  0.716233  1
  Ho  Ho2  1  0.504409  0.154949  0.214417  1
  Ho  Ho3  1  0.846429  0.496746  0.285851  1
  Ho  Ho4  1  0.153192  0.510953  0.787443  1
  Ho  Ho5  1  0.658294  0.994019  0.965875  1
  Ho  Ho6  1  0.991706  0.355104  0.529242  1
  Ho  Ho7  1  0.998110  0.653354  0.037238  1
  Zr  Zr8  1  0.324993  0.324900  0.000905  1
  Zr  Zr9  1  0.175596  0.824846  0.250651  1
  Zr  Zr10  1  0.817553  0.173150  0.751337  1
  Zr  Zr11  1  0.674474  0.677758  0.500092  1
  Zr  Zr12  1  0.147934  0.003732  0.881094  1
  Zr  Zr13  1  0.497333  0.646218  0.125543  1
  Zr  Zr14  1  0.511502  0.360379  0.626519  1
  Zr  Zr15  1  0.650545  0.498636  0.875803  1
  Zr  Zr16  1  0.351089  0.506702  0.375859  1
  Zr  Zr17  1  0.851534  0.998854  0.374713  1
  Zr  Zr18  1  0.004883  0.147538  0.125228  1
  Ti  Ti19  1  0.975043  0.836434  0.618862  1
  Si  Si20  1  0.361487  0.704963  0.934404  1
  Si  Si21  1  0.636238  0.294157  0.432571  1
  Si  Si22  1  0.707374  0.359815  0.067435  1
  Si  Si23  1  0.287659  0.643199  0.569115  1
  Si  Si24  1  0.794401  0.860121  0.183406  1
  Si  Si25  1  0.139904  0.207044  0.316813  1
  Si  Si26  1  0.863934  0.797140  0.813511  1
  Si  Si27  1  0.298331  0.949185  0.065055  1
  Si  Si28  1  0.552557  0.794816  0.312091  1
  Si  Si29  1  0.458122  0.203858  0.818862  1
  Si  Si30  1  0.800127  0.552772  0.687105  1
  Si  Si31  1  0.205084  0.449422  0.187618  1
  Si  Si32  1  0.705898  0.049043  0.564123  1
  Si  Si33  1  0.950149  0.296522  0.936755  1
  Si  Si34  1  0.050125  0.710594  0.438424  1
  Pb  Pb35  1  0.198457  0.124349  0.670730  1
