# generated using pymatgen
data_CsPrTiSe4
_symmetry_space_group_name_H-M   'P 1'
_cell_length_a   6.99188100
_cell_length_b   7.21591800
_cell_length_c   19.01224200
_cell_angle_alpha   90.00000000
_cell_angle_beta   90.00000000
_cell_angle_gamma   90.00000000
_symmetry_Int_Tables_number   1
_chemical_formula_structural   CsPrTiSe4
_chemical_formula_sum   'Cs4 Pr4 Ti4 Se16'
_cell_volume   959.22160294
_cell_formula_units_Z   4
loop_
 _symmetry_equiv_pos_site_id
 _symmetry_equiv_pos_as_xyz
  1  'x, y, z'
loop_
 _atom_site_type_symbol
 _atom_site_label
 _atom_site_symmetry_multiplicity
 _atom_site_fract_x
 _atom_site_fract_y
 _atom_site_fract_z
 _atom_site_occupancy
  Cs  Cs0  1  0.992648  0.007209  0.032951  1
  Cs  Cs1  1  0.007352  0.507210  0.467049  1
  Cs  Cs2  1  0.507352  0.992790  0.532951  1
  Cs  Cs3  1  0.492648  0.492791  0.967048  1
  Pr  Pr4  1  0.296249  0.476923  0.227493  1
  Pr  Pr5  1  0.703753  0.976924  0.272507  1
  Pr  Pr6  1  0.203752  0.523076  0.727493  1
  Pr  Pr7  1  0.796248  0.023077  0.772507  1
  Ti  Ti8  1  0.793921  0.515142  0.166259  1
  Ti  Ti9  1  0.206079  0.015141  0.333741  1
  Ti  Ti10  1  0.706080  0.484858  0.666259  1
  Ti  Ti11  1  0.293920  0.984859  0.833741  1
  Se  Se12  1  0.066098  0.511551  0.091276  1
  Se  Se13  1  0.562074  0.751834  0.144427  1
  Se  Se14  1  0.596616  0.241636  0.153633  1
  Se  Se15  1  0.103676  0.075382  0.216964  1
  Se  Se16  1  0.896324  0.575383  0.283036  1
  Se  Se17  1  0.403384  0.741635  0.346367  1
  Se  Se18  1  0.437926  0.251833  0.355574  1
  Se  Se19  1  0.933902  0.011550  0.408724  1
  Se  Se20  1  0.433903  0.488449  0.591276  1
  Se  Se21  1  0.937925  0.248167  0.644427  1
  Se  Se22  1  0.903385  0.758365  0.653633  1
  Se  Se23  1  0.396323  0.924618  0.716964  1
  Se  Se24  1  0.603677  0.424617  0.783036  1
  Se  Se25  1  0.096615  0.258365  0.846367  1
  Se  Se26  1  0.062075  0.748166  0.855574  1
  Se  Se27  1  0.566097  0.988449  0.908724  1
