# generated using pymatgen
data_LuPaF8
_symmetry_space_group_name_H-M   'P 1'
_cell_length_a   8.16184824
_cell_length_b   8.25853484
_cell_length_c   8.02303533
_cell_angle_alpha   63.68152782
_cell_angle_beta   64.43751826
_cell_angle_gamma   80.68043879
_symmetry_Int_Tables_number   1
_chemical_formula_structural   LuPaF8
_chemical_formula_sum   'Lu3 Pa3 F24'
_cell_volume   436.99869865
_cell_formula_units_Z   3
loop_
 _symmetry_equiv_pos_site_id
 _symmetry_equiv_pos_as_xyz
  1  'x, y, z'
loop_
 _atom_site_type_symbol
 _atom_site_label
 _atom_site_symmetry_multiplicity
 _atom_site_fract_x
 _atom_site_fract_y
 _atom_site_fract_z
 _atom_site_occupancy
  Lu  Lu0  1  0.368049  0.240693  0.334734  1
  Lu  Lu1  1  0.221648  0.359735  0.845763  1
  Lu  Lu2  1  0.782459  0.613184  0.164797  1
  Pa  Pa3  1  0.624399  0.775336  0.660207  1
  Pa  Pa4  1  0.787798  0.205440  0.759629  1
  Pa  Pa5  1  0.214021  0.787057  0.260725  1
  F  F6  1  0.312349  0.268479  0.608375  1
  F  F7  1  0.685006  0.740612  0.386428  1
  F  F8  1  0.728467  0.684672  0.890320  1
  F  F9  1  0.272186  0.316914  0.103445  1
  F  F10  1  0.826356  0.928355  0.949917  1
  F  F11  1  0.180169  0.056502  0.045915  1
  F  F12  1  0.057344  0.172542  0.550856  1
  F  F13  1  0.928829  0.832843  0.460996  1
  F  F14  1  0.405901  0.596384  0.743162  1
  F  F15  1  0.599662  0.404913  0.245083  1
  F  F16  1  0.498510  0.000898  0.494908  1
  F  F17  1  0.004090  0.505601  0.993443  1
  F  F18  1  0.509650  0.246742  0.790375  1
  F  F19  1  0.499808  0.753073  0.200497  1
  F  F20  1  0.745518  0.500365  0.711803  1
  F  F21  1  0.254488  0.511611  0.285537  1
  F  F22  1  0.396832  0.813438  0.915082  1
  F  F23  1  0.612217  0.181154  0.070548  1
  F  F24  1  0.180636  0.607302  0.574323  1
  F  F25  1  0.813140  0.395630  0.437400  1
  F  F26  1  0.721758  0.026014  0.643054  1
  F  F27  1  0.273238  0.972120  0.354208  1
  F  F28  1  0.970878  0.275988  0.852522  1
  F  F29  1  0.024597  0.726400  0.165950  1
