# generated using pymatgen
data_TbEr3(Ga3Rh)6
_symmetry_space_group_name_H-M   'P 1'
_cell_length_a   7.55958443
_cell_length_b   7.55845565
_cell_length_c   9.50203700
_cell_angle_alpha   90.00067157
_cell_angle_beta   90.00102459
_cell_angle_gamma   119.85459284
_symmetry_Int_Tables_number   1
_chemical_formula_structural   TbEr3(Ga3Rh)6
_chemical_formula_sum   'Tb1 Er3 Ga18 Rh6'
_cell_volume   470.88278508
_cell_formula_units_Z   1
loop_
 _symmetry_equiv_pos_site_id
 _symmetry_equiv_pos_as_xyz
  1  'x, y, z'
loop_
 _atom_site_type_symbol
 _atom_site_label
 _atom_site_symmetry_multiplicity
 _atom_site_fract_x
 _atom_site_fract_y
 _atom_site_fract_z
 _atom_site_occupancy
  Tb  Tb0  1  0.332035  0.003072  0.750001  1
  Er  Er1  1  0.996932  0.667892  0.249987  1
  Er  Er2  1  0.003047  0.332099  0.750011  1
  Er  Er3  1  0.667885  0.996894  0.249990  1
  Ga  Ga4  1  0.124704  0.124702  0.250006  1
  Ga  Ga5  1  0.874994  0.875217  0.749999  1
  Ga  Ga6  1  0.999913  0.334352  0.080254  1
  Ga  Ga7  1  0.999700  0.665248  0.919932  1
  Ga  Ga8  1  0.999702  0.665257  0.580055  1
  Ga  Ga9  1  0.334347  0.999944  0.419498  1
  Ga  Ga10  1  0.999892  0.334332  0.419759  1
  Ga  Ga11  1  0.666089  0.000104  0.580056  1
  Ga  Ga12  1  0.666069  0.000085  0.919936  1
  Ga  Ga13  1  0.334351  0.999936  0.080502  1
  Ga  Ga14  1  0.332574  0.332917  0.564606  1
  Ga  Ga15  1  0.667417  0.667411  0.435167  1
  Ga  Ga16  1  0.667411  0.667409  0.064826  1
  Ga  Ga17  1  0.332565  0.332929  0.935401  1
  Ga  Ga18  1  0.338615  0.547963  0.249999  1
  Ga  Ga19  1  0.661686  0.452325  0.750001  1
  Ga  Ga20  1  0.548039  0.338656  0.250002  1
  Ga  Ga21  1  0.452077  0.661208  0.750006  1
  Rh  Rh22  1  0.671748  0.328422  0.000063  1
  Rh  Rh23  1  0.328349  0.671583  0.000065  1
  Rh  Rh24  1  0.328338  0.671582  0.499938  1
  Rh  Rh25  1  0.671766  0.328435  0.499938  1
  Rh  Rh26  1  0.999869  0.000019  0.000066  1
  Rh  Rh27  1  0.999882  0.000007  0.499937  1
