# generated using pymatgen
data_Dy3Ho5Re2(B12Rh)2
_symmetry_space_group_name_H-M   'P 1'
_cell_length_a   3.67426300
_cell_length_b   9.13904495
_cell_length_c   11.53038612
_cell_angle_alpha   90.45598874
_cell_angle_beta   90.00000000
_cell_angle_gamma   90.00000000
_symmetry_Int_Tables_number   1
_chemical_formula_structural   Dy3Ho5Re2(B12Rh)2
_chemical_formula_sum   'Dy3 Ho5 Re2 B24 Rh2'
_cell_volume   387.16951084
_cell_formula_units_Z   1
loop_
 _symmetry_equiv_pos_site_id
 _symmetry_equiv_pos_as_xyz
  1  'x, y, z'
loop_
 _atom_site_type_symbol
 _atom_site_label
 _atom_site_symmetry_multiplicity
 _atom_site_fract_x
 _atom_site_fract_y
 _atom_site_fract_z
 _atom_site_occupancy
  Dy  Dy0  1  0.000000  0.318624  0.410791  1
  Dy  Dy1  1  0.000000  0.681388  0.589210  1
  Dy  Dy2  1  0.000000  0.826258  0.082859  1
  Ho  Ho3  1  0.000000  0.173680  0.917295  1
  Ho  Ho4  1  0.000000  0.945187  0.371848  1
  Ho  Ho5  1  0.000000  0.054878  0.628169  1
  Ho  Ho6  1  0.000000  0.442276  0.126575  1
  Ho  Ho7  1  0.000000  0.557620  0.873353  1
  Re  Re8  1  0.000000  0.138859  0.179392  1
  Re  Re9  1  0.000000  0.861344  0.820530  1
  B  B10  1  0.500000  0.554364  0.433940  1
  B  B11  1  0.500000  0.445634  0.566055  1
  B  B12  1  0.500000  0.053126  0.067477  1
  B  B13  1  0.500000  0.947141  0.932389  1
  B  B14  1  0.500000  0.748869  0.421208  1
  B  B15  1  0.500000  0.251136  0.578810  1
  B  B16  1  0.500000  0.248213  0.081242  1
  B  B17  1  0.500000  0.751803  0.918525  1
  B  B18  1  0.500000  0.791004  0.265509  1
  B  B19  1  0.500000  0.208897  0.734661  1
  B  B20  1  0.500000  0.292591  0.234412  1
  B  B21  1  0.500000  0.707426  0.765551  1
  B  B22  1  0.500000  0.632389  0.183749  1
  B  B23  1  0.500000  0.367397  0.816374  1
  B  B24  1  0.500000  0.131862  0.314631  1
  B  B25  1  0.500000  0.868190  0.685384  1
  B  B26  1  0.500000  0.983215  0.213091  1
  B  B27  1  0.500000  0.017055  0.786975  1
  B  B28  1  0.500000  0.483643  0.287604  1
  B  B29  1  0.500000  0.516315  0.712402  1
  B  B30  1  0.500000  0.606548  0.029563  1
  B  B31  1  0.500000  0.393149  0.970358  1
  B  B32  1  0.500000  0.107814  0.470909  1
  B  B33  1  0.500000  0.892193  0.529102  1
  Rh  Rh34  1  0.000000  0.637919  0.321217  1
  Rh  Rh35  1  0.000000  0.361990  0.678837  1
