# generated using pymatgen
data_Ac2Cu(SeO3)4
_symmetry_space_group_name_H-M   'P 1'
_cell_length_a   7.38943400
_cell_length_b   8.65713805
_cell_length_c   10.94898132
_cell_angle_alpha   69.49363100
_cell_angle_beta   90.00000000
_cell_angle_gamma   90.00000000
_symmetry_Int_Tables_number   1
_chemical_formula_structural   Ac2Cu(SeO3)4
_chemical_formula_sum   'Ac4 Cu2 Se8 O24'
_cell_volume   656.03771260
_cell_formula_units_Z   2
loop_
 _symmetry_equiv_pos_site_id
 _symmetry_equiv_pos_as_xyz
  1  'x, y, z'
loop_
 _atom_site_type_symbol
 _atom_site_label
 _atom_site_symmetry_multiplicity
 _atom_site_fract_x
 _atom_site_fract_y
 _atom_site_fract_z
 _atom_site_occupancy
  Ac  Ac0  1  0.831881  0.740848  0.409748  1
  Ac  Ac1  1  0.331881  0.759152  0.590252  1
  Ac  Ac2  1  0.168119  0.259152  0.590252  1
  Ac  Ac3  1  0.668119  0.240848  0.409748  1
  Cu  Cu4  1  0.000000  0.000000  0.000000  1
  Cu  Cu5  1  0.500000  0.500000  0.000000  1
  Se  Se6  1  0.817374  0.871735  0.682339  1
  Se  Se7  1  0.171516  0.365053  0.881198  1
  Se  Se8  1  0.682626  0.371735  0.682339  1
  Se  Se9  1  0.328484  0.865053  0.881198  1
  Se  Se10  1  0.317374  0.628265  0.317661  1
  Se  Se11  1  0.182626  0.128265  0.317661  1
  Se  Se12  1  0.828484  0.634947  0.118802  1
  Se  Se13  1  0.671516  0.134947  0.118802  1
  O  O14  1  0.710961  0.034359  0.282730  1
  O  O15  1  0.840631  0.409517  0.554470  1
  O  O16  1  0.159369  0.590483  0.445530  1
  O  O17  1  0.513715  0.287886  0.615728  1
  O  O18  1  0.210961  0.465641  0.717270  1
  O  O19  1  0.789039  0.534359  0.282730  1
  O  O20  1  0.659369  0.909517  0.554470  1
  O  O21  1  0.865529  0.827956  0.135644  1
  O  O22  1  0.120591  0.927908  0.348072  1
  O  O23  1  0.289039  0.965641  0.717270  1
  O  O24  1  0.114835  0.829180  0.950253  1
  O  O25  1  0.385165  0.329180  0.950253  1
  O  O26  1  0.879409  0.072092  0.651928  1
  O  O27  1  0.134471  0.172044  0.864356  1
  O  O28  1  0.365529  0.672044  0.864356  1
  O  O29  1  0.340631  0.090483  0.445530  1
  O  O30  1  0.634471  0.327956  0.135644  1
  O  O31  1  0.486285  0.712114  0.384272  1
  O  O32  1  0.013715  0.212114  0.384272  1
  O  O33  1  0.986285  0.787886  0.615728  1
  O  O34  1  0.620591  0.572092  0.651928  1
  O  O35  1  0.614835  0.670820  0.049747  1
  O  O36  1  0.885165  0.170820  0.049747  1
  O  O37  1  0.379409  0.427908  0.348072  1
