# generated using pymatgen
data_SmGd2Er(WN3)4
_symmetry_space_group_name_H-M   'P 1'
_cell_length_a   7.38161227
_cell_length_b   7.38161308
_cell_length_c   6.31759423
_cell_angle_alpha   74.06901297
_cell_angle_beta   74.06900254
_cell_angle_gamma   82.41160398
_symmetry_Int_Tables_number   1
_chemical_formula_structural   SmGd2Er(WN3)4
_chemical_formula_sum   'Sm1 Gd2 Er1 W4 N12'
_cell_volume   317.70078147
_cell_formula_units_Z   1
loop_
 _symmetry_equiv_pos_site_id
 _symmetry_equiv_pos_as_xyz
  1  'x, y, z'
loop_
 _atom_site_type_symbol
 _atom_site_label
 _atom_site_symmetry_multiplicity
 _atom_site_fract_x
 _atom_site_fract_y
 _atom_site_fract_z
 _atom_site_occupancy
  Sm  Sm0  1  0.707032  0.292968  0.750000  1
  Gd  Gd1  1  0.291200  0.708800  0.250000  1
  Gd  Gd2  1  0.911109  0.088891  0.250000  1
  Er  Er3  1  0.091121  0.908879  0.750000  1
  W  W4  1  0.378766  0.200937  0.234679  1
  W  W5  1  0.619356  0.799259  0.768411  1
  W  W6  1  0.799063  0.621234  0.265321  1
  W  W7  1  0.200741  0.380644  0.731589  1
  N  N8  1  0.621389  0.112286  0.162647  1
  N  N9  1  0.349821  0.363184  0.440285  1
  N  N10  1  0.005526  0.215487  0.844426  1
  N  N11  1  0.376108  0.888442  0.837046  1
  N  N12  1  0.784513  0.994474  0.655574  1
  N  N13  1  0.111558  0.623892  0.662954  1
  N  N14  1  0.887714  0.378611  0.337353  1
  N  N15  1  0.652548  0.642266  0.556332  1
  N  N16  1  0.636816  0.650179  0.059715  1
  N  N17  1  0.357734  0.347452  0.943668  1
  N  N18  1  0.999066  0.781189  0.147017  1
  N  N19  1  0.218811  0.000934  0.352983  1
