# generated using pymatgen
data_Ca4Si10NiPt5
_symmetry_space_group_name_H-M   'P 1'
_cell_length_a   8.23536803
_cell_length_b   8.23536790
_cell_length_c   8.23536726
_cell_angle_alpha   138.38900807
_cell_angle_beta   104.41331384
_cell_angle_gamma   90.19562615
_symmetry_Int_Tables_number   1
_chemical_formula_structural   Ca4Si10NiPt5
_chemical_formula_sum   'Ca4 Si10 Ni1 Pt5'
_cell_volume   343.28095086
_cell_formula_units_Z   1
loop_
 _symmetry_equiv_pos_site_id
 _symmetry_equiv_pos_as_xyz
  1  'x, y, z'
loop_
 _atom_site_type_symbol
 _atom_site_label
 _atom_site_symmetry_multiplicity
 _atom_site_fract_x
 _atom_site_fract_y
 _atom_site_fract_z
 _atom_site_occupancy
  Ca  Ca0  1  0.635610  0.373627  0.268417  1
  Ca  Ca1  1  0.364390  0.632807  0.738017  1
  Ca  Ca2  1  0.105210  0.867193  0.231583  1
  Ca  Ca3  1  0.894790  0.126373  0.761983  1
  Si  Si4  1  0.459678  0.121068  0.365918  1
  Si  Si5  1  0.540322  0.906239  0.661389  1
  Si  Si6  1  0.755150  0.593761  0.134082  1
  Si  Si7  1  0.244850  0.378932  0.838611  1
  Si  Si8  1  0.273886  0.523886  0.250000  1
  Si  Si9  1  0.726673  0.476673  0.750000  1
  Si  Si10  1  0.726114  0.976114  0.250000  1
  Si  Si11  1  0.273327  0.023327  0.750000  1
  Si  Si12  1  0.000000  0.250000  0.250000  1
  Si  Si13  1  0.000000  0.750000  0.750000  1
  Ni  Ni14  1  0.500000  0.250000  0.750000  1
  Pt  Pt15  1  0.500000  0.750000  0.250000  1
  Pt  Pt16  1  0.252675  0.138854  0.118037  1
  Pt  Pt17  1  0.747325  0.865362  0.886179  1
  Pt  Pt18  1  0.020818  0.634638  0.381963  1
  Pt  Pt19  1  0.979182  0.361146  0.613821  1
