# generated using pymatgen
data_Lu2AlB2IrRh4
_symmetry_space_group_name_H-M   'P 1'
_cell_length_a   9.45249926
_cell_length_b   9.45352229
_cell_length_c   3.14927100
_cell_angle_alpha   90.00000000
_cell_angle_beta   90.00000000
_cell_angle_gamma   90.23141350
_symmetry_Int_Tables_number   1
_chemical_formula_structural   Lu2AlB2IrRh4
_chemical_formula_sum   'Lu4 Al2 B4 Ir2 Rh8'
_cell_volume   281.41471089
_cell_formula_units_Z   2
loop_
 _symmetry_equiv_pos_site_id
 _symmetry_equiv_pos_as_xyz
  1  'x, y, z'
loop_
 _atom_site_type_symbol
 _atom_site_label
 _atom_site_symmetry_multiplicity
 _atom_site_fract_x
 _atom_site_fract_y
 _atom_site_fract_z
 _atom_site_occupancy
  Lu  Lu0  1  0.824212  0.324971  0.000000  1
  Lu  Lu1  1  0.323807  0.176627  0.000000  1
  Lu  Lu2  1  0.677267  0.822526  0.000000  1
  Lu  Lu3  1  0.175072  0.675283  0.000000  1
  Al  Al4  1  0.999957  0.999786  0.000000  1
  Al  Al5  1  0.499868  0.500146  0.000000  1
  B  B6  1  0.622637  0.122412  0.000000  1
  B  B7  1  0.121027  0.376137  0.000000  1
  B  B8  1  0.878710  0.621944  0.000000  1
  B  B9  1  0.377664  0.877921  0.000000  1
  Ir  Ir10  1  0.069057  0.218726  0.500000  1
  Ir  Ir11  1  0.500657  0.999682  0.500000  1
  Rh  Rh12  1  0.217444  0.929878  0.500000  1
  Rh  Rh13  1  0.782571  0.070256  0.500000  1
  Rh  Rh14  1  0.930608  0.782375  0.500000  1
  Rh  Rh15  1  0.429070  0.717409  0.500000  1
  Rh  Rh16  1  0.570343  0.282344  0.500000  1
  Rh  Rh17  1  0.717992  0.569197  0.500000  1
  Rh  Rh18  1  0.282300  0.431626  0.500000  1
  Rh  Rh19  1  0.999735  0.500755  0.500000  1
