# generated using pymatgen
data_TaTeF9
_symmetry_space_group_name_H-M   'P 1'
_cell_length_a   5.68428790
_cell_length_b   7.79741016
_cell_length_c   9.80754900
_cell_angle_alpha   103.93958107
_cell_angle_beta   107.88446689
_cell_angle_gamma   88.15997459
_symmetry_Int_Tables_number   1
_chemical_formula_structural   TaTeF9
_chemical_formula_sum   'Ta2 Te2 F18'
_cell_volume   401.09586145
_cell_formula_units_Z   2
loop_
 _symmetry_equiv_pos_site_id
 _symmetry_equiv_pos_as_xyz
  1  'x, y, z'
loop_
 _atom_site_type_symbol
 _atom_site_label
 _atom_site_symmetry_multiplicity
 _atom_site_fract_x
 _atom_site_fract_y
 _atom_site_fract_z
 _atom_site_occupancy
  Ta  Ta0  1  0.421186  0.744989  0.305573  1
  Ta  Ta1  1  0.578814  0.255011  0.694427  1
  Te  Te2  1  0.839741  0.338137  0.163932  1
  Te  Te3  1  0.160259  0.661863  0.836068  1
  F  F4  1  0.107113  0.595659  0.200380  1
  F  F5  1  0.420850  0.489222  0.702452  1
  F  F6  1  0.380394  0.744200  0.487632  1
  F  F7  1  0.738019  0.854979  0.381067  1
  F  F8  1  0.945337  0.659368  0.646938  1
  F  F9  1  0.054663  0.340632  0.353062  1
  F  F10  1  0.437671  0.710823  0.100318  1
  F  F11  1  0.579150  0.510778  0.297548  1
  F  F12  1  0.064611  0.208361  0.076584  1
  F  F13  1  0.322929  0.869990  0.839564  1
  F  F14  1  0.935389  0.791639  0.923416  1
  F  F15  1  0.250476  0.951871  0.288897  1
  F  F16  1  0.562329  0.289177  0.899682  1
  F  F17  1  0.677071  0.130010  0.160436  1
  F  F18  1  0.892887  0.404341  0.799620  1
  F  F19  1  0.749524  0.048129  0.711103  1
  F  F20  1  0.619606  0.255800  0.512368  1
  F  F21  1  0.261981  0.145021  0.618933  1
