# generated using pymatgen
data_Er4ZnPt11
_symmetry_space_group_name_H-M   'P 1'
_cell_length_a   4.13455800
_cell_length_b   5.78291990
_cell_length_c   11.56382760
_cell_angle_alpha   88.17441206
_cell_angle_beta   90.00000000
_cell_angle_gamma   90.00000000
_symmetry_Int_Tables_number   1
_chemical_formula_structural   Er4ZnPt11
_chemical_formula_sum   'Er4 Zn1 Pt11'
_cell_volume   276.34867356
_cell_formula_units_Z   1
loop_
 _symmetry_equiv_pos_site_id
 _symmetry_equiv_pos_as_xyz
  1  'x, y, z'
loop_
 _atom_site_type_symbol
 _atom_site_label
 _atom_site_symmetry_multiplicity
 _atom_site_fract_x
 _atom_site_fract_y
 _atom_site_fract_z
 _atom_site_occupancy
  Er  Er0  1  0.500000  0.753711  0.373884  1
  Er  Er1  1  0.500000  0.727481  0.867569  1
  Er  Er2  1  0.500000  0.272519  0.132431  1
  Er  Er3  1  0.500000  0.246289  0.626116  1
  Zn  Zn4  1  0.000000  0.000000  0.000000  1
  Pt  Pt5  1  0.000000  0.010552  0.246500  1
  Pt  Pt6  1  0.000000  0.989448  0.753500  1
  Pt  Pt7  1  0.000000  0.500000  0.000000  1
  Pt  Pt8  1  0.000000  0.500000  0.500000  1
  Pt  Pt9  1  0.000000  0.513531  0.249225  1
  Pt  Pt10  1  0.000000  0.486469  0.750775  1
  Pt  Pt11  1  0.500000  0.251178  0.377211  1
  Pt  Pt12  1  0.500000  0.227692  0.883044  1
  Pt  Pt13  1  0.500000  0.772308  0.116956  1
  Pt  Pt14  1  0.500000  0.748822  0.622789  1
  Pt  Pt15  1  0.000000  0.000000  0.500000  1
