# generated using pymatgen
data_ThBeRe2C
_symmetry_space_group_name_H-M   'P 1'
_cell_length_a   5.66851469
_cell_length_b   5.66851386
_cell_length_c   7.39184400
_cell_angle_alpha   90.00000000
_cell_angle_beta   90.00000000
_cell_angle_gamma   139.39887747
_symmetry_Int_Tables_number   1
_chemical_formula_structural   ThBeRe2C
_chemical_formula_sum   'Th2 Be2 Re4 C2'
_cell_volume   154.57225684
_cell_formula_units_Z   2
loop_
 _symmetry_equiv_pos_site_id
 _symmetry_equiv_pos_as_xyz
  1  'x, y, z'
loop_
 _atom_site_type_symbol
 _atom_site_label
 _atom_site_symmetry_multiplicity
 _atom_site_fract_x
 _atom_site_fract_y
 _atom_site_fract_z
 _atom_site_occupancy
  Th  Th0  1  0.536236  0.463764  0.250000  1
  Th  Th1  1  0.463764  0.536236  0.750000  1
  Be  Be2  1  0.258463  0.741537  0.250000  1
  Be  Be3  1  0.741537  0.258463  0.750000  1
  Re  Re4  1  0.816521  0.183479  0.062271  1
  Re  Re5  1  0.183479  0.816521  0.937729  1
  Re  Re6  1  0.183479  0.816521  0.562271  1
  Re  Re7  1  0.816521  0.183479  0.437729  1
  C  C8  1  0.000000  0.000000  0.000000  1
  C  C9  1  0.000000  0.000000  0.500000  1
