# generated using pymatgen
data_DyHoB8PtRh
_symmetry_space_group_name_H-M   'P 1'
_cell_length_a   7.01605489
_cell_length_b   7.01601972
_cell_length_c   7.01605340
_cell_angle_alpha   111.84120100
_cell_angle_beta   111.57522655
_cell_angle_gamma   105.08461189
_symmetry_Int_Tables_number   1
_chemical_formula_structural   DyHoB8PtRh
_chemical_formula_sum   'Dy2 Ho2 B16 Pt2 Rh2'
_cell_volume   264.70186450
_cell_formula_units_Z   2
loop_
 _symmetry_equiv_pos_site_id
 _symmetry_equiv_pos_as_xyz
  1  'x, y, z'
loop_
 _atom_site_type_symbol
 _atom_site_label
 _atom_site_symmetry_multiplicity
 _atom_site_fract_x
 _atom_site_fract_y
 _atom_site_fract_z
 _atom_site_occupancy
  Dy  Dy0  1  0.788536  0.788536  0.000000  1
  Dy  Dy1  1  0.211464  0.211464  0.000000  1
  Ho  Ho2  1  0.742961  0.242963  0.500002  1
  Ho  Ho3  1  0.257039  0.757037  0.499998  1
  B  B4  1  0.266640  0.107573  0.374215  1
  B  B5  1  0.733360  0.892427  0.625785  1
  B  B6  1  0.266641  0.892427  0.159067  1
  B  B7  1  0.733359  0.107573  0.840933  1
  B  B8  1  0.106639  0.737441  0.844082  1
  B  B9  1  0.893361  0.262559  0.155918  1
  B  B10  1  0.106641  0.262559  0.369198  1
  B  B11  1  0.893359  0.737441  0.630802  1
  B  B12  1  0.109932  0.107552  0.522159  1
  B  B13  1  0.585392  0.587771  0.477840  1
  B  B14  1  0.109931  0.587771  0.002379  1
  B  B15  1  0.585392  0.107552  0.997620  1
  B  B16  1  0.890068  0.892448  0.477841  1
  B  B17  1  0.414608  0.412229  0.522160  1
  B  B18  1  0.890069  0.412229  0.997621  1
  B  B19  1  0.414608  0.892448  0.002380  1
  Pt  Pt20  1  0.255892  0.500000  0.755892  1
  Pt  Pt21  1  0.744108  0.500000  0.244108  1
  Rh  Rh22  1  0.499997  0.739046  0.239049  1
  Rh  Rh23  1  0.500003  0.260954  0.760951  1
