# generated using pymatgen
data_Sc3AlO6
_symmetry_space_group_name_H-M   'P 1'
_cell_length_a   6.09110917
_cell_length_b   6.09110931
_cell_length_c   6.09111010
_cell_angle_alpha   91.91969459
_cell_angle_beta   91.91969573
_cell_angle_gamma   91.91968888
_symmetry_Int_Tables_number   1
_chemical_formula_structural   Sc3AlO6
_chemical_formula_sum   'Sc6 Al2 O12'
_cell_volume   225.60077567
_cell_formula_units_Z   2
loop_
 _symmetry_equiv_pos_site_id
 _symmetry_equiv_pos_as_xyz
  1  'x, y, z'
loop_
 _atom_site_type_symbol
 _atom_site_label
 _atom_site_symmetry_multiplicity
 _atom_site_fract_x
 _atom_site_fract_y
 _atom_site_fract_z
 _atom_site_occupancy
  Sc  Sc0  1  0.747349  0.930949  0.437415  1
  Sc  Sc1  1  0.069051  0.562585  0.252651  1
  Sc  Sc2  1  0.562585  0.252651  0.069051  1
  Sc  Sc3  1  0.437415  0.747349  0.930949  1
  Sc  Sc4  1  0.930949  0.437415  0.747349  1
  Sc  Sc5  1  0.252651  0.069051  0.562585  1
  Al  Al6  1  0.000000  0.000000  0.000000  1
  Al  Al7  1  0.500000  0.500000  0.500000  1
  O  O8  1  0.698770  0.927976  0.076564  1
  O  O9  1  0.072024  0.923436  0.301230  1
  O  O10  1  0.411466  0.541995  0.199654  1
  O  O11  1  0.923436  0.301230  0.072024  1
  O  O12  1  0.458005  0.800346  0.588534  1
  O  O13  1  0.800346  0.588534  0.458005  1
  O  O14  1  0.199654  0.411466  0.541995  1
  O  O15  1  0.541995  0.199654  0.411466  1
  O  O16  1  0.076564  0.698770  0.927976  1
  O  O17  1  0.588534  0.458005  0.800346  1
  O  O18  1  0.927976  0.076564  0.698770  1
  O  O19  1  0.301230  0.072024  0.923436  1
