# generated using pymatgen
data_Sc3Al3SiGeRh
_symmetry_space_group_name_H-M   'P 1'
_cell_length_a   6.66895900
_cell_length_b   6.66895796
_cell_length_c   4.06974300
_cell_angle_alpha   90.00000000
_cell_angle_beta   90.00000000
_cell_angle_gamma   120.00000019
_symmetry_Int_Tables_number   1
_chemical_formula_structural   Sc3Al3SiGeRh
_chemical_formula_sum   'Sc3 Al3 Si1 Ge1 Rh1'
_cell_volume   156.75219932
_cell_formula_units_Z   1
loop_
 _symmetry_equiv_pos_site_id
 _symmetry_equiv_pos_as_xyz
  1  'x, y, z'
loop_
 _atom_site_type_symbol
 _atom_site_label
 _atom_site_symmetry_multiplicity
 _atom_site_fract_x
 _atom_site_fract_y
 _atom_site_fract_z
 _atom_site_occupancy
  Sc  Sc0  1  0.416119  0.996812  0.000000  1
  Sc  Sc1  1  0.003188  0.419307  0.000000  1
  Sc  Sc2  1  0.580693  0.583881  0.000000  1
  Al  Al3  1  0.759717  0.996455  0.500000  1
  Al  Al4  1  0.236738  0.240282  0.500000  1
  Al  Al5  1  0.003545  0.763262  0.500000  1
  Si  Si6  1  0.333333  0.666666  0.500000  1
  Ge  Ge7  1  0.666667  0.333333  0.500000  1
  Rh  Rh8  1  0.000000  0.000000  0.000000  1
