# generated using pymatgen
data_La13ThIr6
_symmetry_space_group_name_H-M   'P 1'
_cell_length_a   6.51431100
_cell_length_b   10.24098147
_cell_length_c   10.24098122
_cell_angle_alpha   119.99727905
_cell_angle_beta   89.99726025
_cell_angle_gamma   90.00274328
_symmetry_Int_Tables_number   1
_chemical_formula_structural   La13ThIr6
_chemical_formula_sum   'La13 Th1 Ir6'
_cell_volume   591.68992794
_cell_formula_units_Z   1
loop_
 _symmetry_equiv_pos_site_id
 _symmetry_equiv_pos_as_xyz
  1  'x, y, z'
loop_
 _atom_site_type_symbol
 _atom_site_label
 _atom_site_symmetry_multiplicity
 _atom_site_fract_x
 _atom_site_fract_y
 _atom_site_fract_z
 _atom_site_occupancy
  La  La0  1  0.972850  0.666674  0.333326  1
  La  La1  1  0.249541  0.126175  0.873825  1
  La  La2  1  0.249583  0.747597  0.873811  1
  La  La3  1  0.249583  0.126189  0.252403  1
  La  La4  1  0.749028  0.874229  0.125771  1
  La  La5  1  0.749056  0.251614  0.125798  1
  La  La6  1  0.749056  0.874202  0.748386  1
  La  La7  1  0.436865  0.538849  0.461151  1
  La  La8  1  0.436709  0.922306  0.461189  1
  La  La9  1  0.436709  0.538811  0.077694  1
  La  La10  1  0.940543  0.460088  0.539912  1
  La  La11  1  0.940436  0.079800  0.539862  1
  La  La12  1  0.940436  0.460138  0.920200  1
  Th  Th13  1  0.478923  0.333330  0.666670  1
  Ir  Ir14  1  0.189147  0.811390  0.188610  1
  Ir  Ir15  1  0.189158  0.377213  0.188627  1
  Ir  Ir16  1  0.189158  0.811373  0.622787  1
  Ir  Ir17  1  0.685070  0.191563  0.808437  1
  Ir  Ir18  1  0.685072  0.616880  0.808422  1
  Ir  Ir19  1  0.685072  0.191578  0.383120  1
