# generated using pymatgen
data_TaIrSe4
_symmetry_space_group_name_H-M   'P 1'
_cell_length_a   3.64316900
_cell_length_b   11.81517300
_cell_length_c   13.47799000
_cell_angle_alpha   90.00000000
_cell_angle_beta   90.00000000
_cell_angle_gamma   90.00000000
_symmetry_Int_Tables_number   1
_chemical_formula_structural   TaIrSe4
_chemical_formula_sum   'Ta4 Ir4 Se16'
_cell_volume   580.15565881
_cell_formula_units_Z   4
loop_
 _symmetry_equiv_pos_site_id
 _symmetry_equiv_pos_as_xyz
  1  'x, y, z'
loop_
 _atom_site_type_symbol
 _atom_site_label
 _atom_site_symmetry_multiplicity
 _atom_site_fract_x
 _atom_site_fract_y
 _atom_site_fract_z
 _atom_site_occupancy
  Ta  Ta0  1  0.000000  0.048782  0.001295  1
  Ta  Ta1  1  0.500000  0.951218  0.501295  1
  Ta  Ta2  1  0.000000  0.266673  0.493143  1
  Ta  Ta3  1  0.500000  0.733327  0.993143  1
  Ir  Ir4  1  0.000000  0.532066  0.999016  1
  Ir  Ir5  1  0.500000  0.467934  0.499016  1
  Ir  Ir6  1  0.000000  0.750696  0.494055  1
  Ir  Ir7  1  0.500000  0.249304  0.994055  1
  Se  Se8  1  0.500000  0.100301  0.130395  1
  Se  Se9  1  0.000000  0.899699  0.630395  1
  Se  Se10  1  0.500000  0.155464  0.598172  1
  Se  Se11  1  0.000000  0.844536  0.098172  1
  Se  Se12  1  0.500000  0.317641  0.363931  1
  Se  Se13  1  0.000000  0.682359  0.863931  1
  Se  Se14  1  0.500000  0.436530  0.901215  1
  Se  Se15  1  0.000000  0.563470  0.401215  1
  Se  Se16  1  0.000000  0.062685  0.397029  1
  Se  Se17  1  0.500000  0.937315  0.897029  1
  Se  Se18  1  0.000000  0.194639  0.869308  1
  Se  Se19  1  0.500000  0.805361  0.369308  1
  Se  Se20  1  0.000000  0.345214  0.091711  1
  Se  Se21  1  0.500000  0.654786  0.591711  1
  Se  Se22  1  0.000000  0.414187  0.623788  1
  Se  Se23  1  0.500000  0.585813  0.123788  1
