# generated using pymatgen
data_Ta4Tc3B4Rh
_symmetry_space_group_name_H-M   'P 1'
_cell_length_a   3.18787500
_cell_length_b   9.04953392
_cell_length_c   15.62438267
_cell_angle_alpha   89.83622872
_cell_angle_beta   90.00000000
_cell_angle_gamma   90.00000000
_symmetry_Int_Tables_number   1
_chemical_formula_structural   Ta4Tc3B4Rh
_chemical_formula_sum   'Ta12 Tc9 B12 Rh3'
_cell_volume   450.74258334
_cell_formula_units_Z   3
loop_
 _symmetry_equiv_pos_site_id
 _symmetry_equiv_pos_as_xyz
  1  'x, y, z'
loop_
 _atom_site_type_symbol
 _atom_site_label
 _atom_site_symmetry_multiplicity
 _atom_site_fract_x
 _atom_site_fract_y
 _atom_site_fract_z
 _atom_site_occupancy
  Ta  Ta0  1  0.000000  0.803056  0.493310  1
  Ta  Ta1  1  0.000000  0.195461  0.506197  1
  Ta  Ta2  1  0.000000  0.303836  0.007481  1
  Ta  Ta3  1  0.000000  0.696289  0.993068  1
  Ta  Ta4  1  0.000000  0.514860  0.594899  1
  Ta  Ta5  1  0.000000  0.483570  0.404522  1
  Ta  Ta6  1  0.000000  0.016552  0.905524  1
  Ta  Ta7  1  0.000000  0.984531  0.094928  1
  Ta  Ta8  1  0.000000  0.681463  0.204521  1
  Ta  Ta9  1  0.000000  0.324678  0.793865  1
  Ta  Ta10  1  0.000000  0.181527  0.295657  1
  Ta  Ta11  1  0.000000  0.813361  0.704247  1
  Tc  Tc12  1  0.500000  0.717004  0.355873  1
  Tc  Tc13  1  0.500000  0.280652  0.642584  1
  Tc  Tc14  1  0.500000  0.217409  0.144787  1
  Tc  Tc15  1  0.500000  0.785744  0.857664  1
  Tc  Tc16  1  0.500000  0.519520  0.097697  1
  Tc  Tc17  1  0.500000  0.481687  0.906183  1
  Tc  Tc18  1  0.500000  0.018440  0.402897  1
  Tc  Tc19  1  0.500000  0.980873  0.596030  1
  Tc  Tc20  1  0.500000  0.569071  0.732598  1
  B  B21  1  0.500000  0.604111  0.494145  1
  B  B22  1  0.500000  0.393648  0.504068  1
  B  B23  1  0.500000  0.105211  0.005189  1
  B  B24  1  0.500000  0.896073  0.995864  1
  B  B25  1  0.000000  0.611021  0.833416  1
  B  B26  1  0.000000  0.387864  0.166407  1
  B  B27  1  0.000000  0.112378  0.663285  1
  B  B28  1  0.000000  0.887241  0.334537  1
  B  B29  1  0.500000  0.714338  0.600660  1
  B  B30  1  0.500000  0.283176  0.400117  1
  B  B31  1  0.500000  0.218441  0.900275  1
  B  B32  1  0.500000  0.784336  0.099816  1
  Rh  Rh33  1  0.500000  0.431944  0.267456  1
  Rh  Rh34  1  0.500000  0.068801  0.767316  1
  Rh  Rh35  1  0.500000  0.931835  0.232921  1
