# generated using pymatgen
data_Sr8Yb5Y7Pt16
_symmetry_space_group_name_H-M   'P 1'
_cell_length_a   7.72871034
_cell_length_b   7.84099648
_cell_length_c   14.93387828
_cell_angle_alpha   90.02163583
_cell_angle_beta   89.99493790
_cell_angle_gamma   90.03384846
_symmetry_Int_Tables_number   1
_chemical_formula_structural   Sr8Yb5Y7Pt16
_chemical_formula_sum   'Sr8 Yb5 Y7 Pt16'
_cell_volume   905.00460490
_cell_formula_units_Z   1
loop_
 _symmetry_equiv_pos_site_id
 _symmetry_equiv_pos_as_xyz
  1  'x, y, z'
loop_
 _atom_site_type_symbol
 _atom_site_label
 _atom_site_symmetry_multiplicity
 _atom_site_fract_x
 _atom_site_fract_y
 _atom_site_fract_z
 _atom_site_occupancy
  Sr  Sr0  1  0.499654  0.325012  0.903535  1
  Sr  Sr1  1  0.997626  0.176311  0.597125  1
  Sr  Sr2  1  0.501720  0.676797  0.403638  1
  Sr  Sr3  1  0.001094  0.822568  0.094539  1
  Sr  Sr4  1  0.501632  0.676640  0.095811  1
  Sr  Sr5  1  0.001585  0.823216  0.403714  1
  Sr  Sr6  1  0.498843  0.323466  0.597475  1
  Sr  Sr7  1  0.998184  0.177680  0.903293  1
  Yb  Yb8  1  0.839726  0.666453  0.876788  1
  Yb  Yb9  1  0.175977  0.493049  0.751127  1
  Yb  Yb10  1  0.679214  0.006357  0.750923  1
  Yb  Yb11  1  0.822023  0.508344  0.249470  1
  Yb  Yb12  1  0.321764  0.991623  0.249503  1
  Y  Y13  1  0.340148  0.833473  0.876182  1
  Y  Y14  1  0.840339  0.666763  0.623980  1
  Y  Y15  1  0.659203  0.167391  0.376088  1
  Y  Y16  1  0.159882  0.332217  0.123933  1
  Y  Y17  1  0.660633  0.167187  0.123570  1
  Y  Y18  1  0.159654  0.332460  0.376126  1
  Y  Y19  1  0.340123  0.831796  0.624120  1
  Pt  Pt20  1  0.333794  0.044639  0.044125  1
  Pt  Pt21  1  0.835914  0.454953  0.456152  1
  Pt  Pt22  1  0.663683  0.954307  0.543504  1
  Pt  Pt23  1  0.167299  0.543355  0.957444  1
  Pt  Pt24  1  0.661719  0.961452  0.956899  1
  Pt  Pt25  1  0.163454  0.544593  0.543247  1
  Pt  Pt26  1  0.336336  0.045061  0.456330  1
  Pt  Pt27  1  0.838293  0.453507  0.045231  1
  Pt  Pt28  1  0.542824  0.634228  0.749413  1
  Pt  Pt29  1  0.046502  0.866396  0.747089  1
  Pt  Pt30  1  0.456160  0.365915  0.249903  1
  Pt  Pt31  1  0.956189  0.132963  0.250546  1
  Pt  Pt32  1  0.304815  0.119284  0.751064  1
  Pt  Pt33  1  0.800771  0.380732  0.748329  1
  Pt  Pt34  1  0.696653  0.882150  0.249892  1
  Pt  Pt35  1  0.196568  0.617663  0.249893  1
