# generated using pymatgen
data_Y4Cu3Sb8
_symmetry_space_group_name_H-M   'P 1'
_cell_length_a   10.64878072
_cell_length_b   10.64878070
_cell_length_c   10.64878129
_cell_angle_alpha   146.61218551
_cell_angle_beta   146.61218200
_cell_angle_gamma   47.93835475
_symmetry_Int_Tables_number   1
_chemical_formula_structural   Y4Cu3Sb8
_chemical_formula_sum   'Y4 Cu3 Sb8'
_cell_volume   364.20012594
_cell_formula_units_Z   1
loop_
 _symmetry_equiv_pos_site_id
 _symmetry_equiv_pos_as_xyz
  1  'x, y, z'
loop_
 _atom_site_type_symbol
 _atom_site_label
 _atom_site_symmetry_multiplicity
 _atom_site_fract_x
 _atom_site_fract_y
 _atom_site_fract_z
 _atom_site_occupancy
  Y  Y0  1  0.632713  0.632713  0.506262  1
  Y  Y1  1  0.126450  0.126450  0.493738  1
  Y  Y2  1  0.367287  0.873550  0.000000  1
  Y  Y3  1  0.873550  0.367287  0.000000  1
  Cu  Cu4  1  0.000000  0.000000  0.000000  1
  Cu  Cu5  1  0.000000  0.500000  0.500000  1
  Cu  Cu6  1  0.500000  0.000000  0.500000  1
  Sb  Sb7  1  0.333487  0.333487  0.515634  1
  Sb  Sb8  1  0.817853  0.817853  0.484366  1
  Sb  Sb9  1  0.666513  0.182147  0.000000  1
  Sb  Sb10  1  0.182147  0.666513  0.000000  1
  Sb  Sb11  1  0.249847  0.249847  0.000000  1
  Sb  Sb12  1  0.750153  0.750153  0.000000  1
  Sb  Sb13  1  0.750000  0.250000  0.500000  1
  Sb  Sb14  1  0.250000  0.750000  0.500000  1
