# generated using pymatgen
data_TaGa(SeO3)4
_symmetry_space_group_name_H-M   'P 1'
_cell_length_a   8.28194100
_cell_length_b   8.25216254
_cell_length_c   8.33449687
_cell_angle_alpha   89.32351666
_cell_angle_beta   90.00000000
_cell_angle_gamma   90.00000000
_symmetry_Int_Tables_number   1
_chemical_formula_structural   TaGa(SeO3)4
_chemical_formula_sum   'Ta2 Ga2 Se8 O24'
_cell_volume   569.57251282
_cell_formula_units_Z   2
loop_
 _symmetry_equiv_pos_site_id
 _symmetry_equiv_pos_as_xyz
  1  'x, y, z'
loop_
 _atom_site_type_symbol
 _atom_site_label
 _atom_site_symmetry_multiplicity
 _atom_site_fract_x
 _atom_site_fract_y
 _atom_site_fract_z
 _atom_site_occupancy
  Ta  Ta0  1  0.000000  0.000000  0.500000  1
  Ta  Ta1  1  0.500000  0.000000  0.000000  1
  Ga  Ga2  1  0.000000  0.500000  0.000000  1
  Ga  Ga3  1  0.500000  0.500000  0.500000  1
  Se  Se4  1  0.315048  0.653198  0.184209  1
  Se  Se5  1  0.815048  0.346802  0.315791  1
  Se  Se6  1  0.668781  0.802559  0.666795  1
  Se  Se7  1  0.168781  0.197441  0.833205  1
  Se  Se8  1  0.684952  0.346802  0.815791  1
  Se  Se9  1  0.184952  0.653198  0.684209  1
  Se  Se10  1  0.331219  0.197441  0.333205  1
  Se  Se11  1  0.831219  0.802559  0.166795  1
  O  O12  1  0.236522  0.529766  0.040486  1
  O  O13  1  0.736522  0.470234  0.459514  1
  O  O14  1  0.769378  0.954428  0.556361  1
  O  O15  1  0.269378  0.045572  0.943639  1
  O  O16  1  0.541918  0.931391  0.774172  1
  O  O17  1  0.459275  0.526914  0.264886  1
  O  O18  1  0.959275  0.473086  0.235114  1
  O  O19  1  0.041918  0.068609  0.725828  1
  O  O20  1  0.942859  0.224963  0.440705  1
  O  O21  1  0.537204  0.739492  0.524440  1
  O  O22  1  0.442859  0.775037  0.059295  1
  O  O23  1  0.037204  0.260508  0.975560  1
  O  O24  1  0.763478  0.470234  0.959514  1
  O  O25  1  0.263478  0.529766  0.540486  1
  O  O26  1  0.230622  0.045572  0.443639  1
  O  O27  1  0.730622  0.954428  0.056361  1
  O  O28  1  0.458082  0.068609  0.225828  1
  O  O29  1  0.540725  0.473086  0.735114  1
  O  O30  1  0.040725  0.526914  0.764886  1
  O  O31  1  0.958082  0.931391  0.274172  1
  O  O32  1  0.057141  0.775037  0.559295  1
  O  O33  1  0.462796  0.260508  0.475560  1
  O  O34  1  0.557141  0.224963  0.940705  1
  O  O35  1  0.962796  0.739492  0.024440  1
