# generated using pymatgen
data_YHo(Lu2Os)2
_symmetry_space_group_name_H-M   'P 1'
_cell_length_a   6.21259100
_cell_length_b   7.39249700
_cell_length_c   8.83274900
_cell_angle_alpha   90.00000000
_cell_angle_beta   90.00000000
_cell_angle_gamma   90.00000000
_symmetry_Int_Tables_number   1
_chemical_formula_structural   YHo(Lu2Os)2
_chemical_formula_sum   'Y2 Ho2 Lu8 Os4'
_cell_volume   405.65777983
_cell_formula_units_Z   2
loop_
 _symmetry_equiv_pos_site_id
 _symmetry_equiv_pos_as_xyz
  1  'x, y, z'
loop_
 _atom_site_type_symbol
 _atom_site_label
 _atom_site_symmetry_multiplicity
 _atom_site_fract_x
 _atom_site_fract_y
 _atom_site_fract_z
 _atom_site_occupancy
  Y  Y0  1  0.873891  0.538859  0.250000  1
  Y  Y1  1  0.626109  0.038859  0.250000  1
  Ho  Ho2  1  0.127594  0.460526  0.750000  1
  Ho  Ho3  1  0.372406  0.960526  0.750000  1
  Lu  Lu4  1  0.336368  0.673813  0.062046  1
  Lu  Lu5  1  0.163632  0.173813  0.437954  1
  Lu  Lu6  1  0.663612  0.326056  0.563131  1
  Lu  Lu7  1  0.836388  0.826056  0.936869  1
  Lu  Lu8  1  0.663612  0.326056  0.936869  1
  Lu  Lu9  1  0.836388  0.826056  0.563131  1
  Lu  Lu10  1  0.336368  0.673813  0.437954  1
  Lu  Lu11  1  0.163632  0.173813  0.062046  1
  Os  Os12  1  0.046728  0.882847  0.250000  1
  Os  Os13  1  0.453272  0.382847  0.250000  1
  Os  Os14  1  0.956964  0.118031  0.750000  1
  Os  Os15  1  0.543036  0.618031  0.750000  1
