# generated using pymatgen
data_Gd7Y3Sn5Sb
_symmetry_space_group_name_H-M   'P 1'
_cell_length_a   8.91738000
_cell_length_b   8.92284551
_cell_length_c   6.47392800
_cell_angle_alpha   90.00000000
_cell_angle_beta   90.00000000
_cell_angle_gamma   119.97973974
_symmetry_Int_Tables_number   1
_chemical_formula_structural   Gd7Y3Sn5Sb
_chemical_formula_sum   'Gd7 Y3 Sn5 Sb1'
_cell_volume   446.19815677
_cell_formula_units_Z   1
loop_
 _symmetry_equiv_pos_site_id
 _symmetry_equiv_pos_as_xyz
  1  'x, y, z'
loop_
 _atom_site_type_symbol
 _atom_site_label
 _atom_site_symmetry_multiplicity
 _atom_site_fract_x
 _atom_site_fract_y
 _atom_site_fract_z
 _atom_site_occupancy
  Gd  Gd0  1  0.000836  0.238680  0.250000  1
  Gd  Gd1  1  0.762156  0.761320  0.250000  1
  Gd  Gd2  1  0.239107  0.000000  0.250000  1
  Gd  Gd3  1  0.333389  0.666025  0.499770  1
  Gd  Gd4  1  0.667365  0.333975  0.000230  1
  Gd  Gd5  1  0.667365  0.333975  0.499770  1
  Gd  Gd6  1  0.333389  0.666025  0.000230  1
  Y  Y7  1  0.997697  0.760042  0.750000  1
  Y  Y8  1  0.761624  0.000000  0.750000  1
  Y  Y9  1  0.237654  0.239958  0.750000  1
  Sn  Sn10  1  0.396190  0.395198  0.250000  1
  Sn  Sn11  1  0.000991  0.604802  0.250000  1
  Sn  Sn12  1  0.999645  0.395292  0.750000  1
  Sn  Sn13  1  0.604354  0.604708  0.750000  1
  Sn  Sn14  1  0.605284  0.000000  0.250000  1
  Sb  Sb15  1  0.392952  0.000000  0.750000  1
