# generated using pymatgen
data_Tb2Nb3P7IrRh8
_symmetry_space_group_name_H-M   'P 1'
_cell_length_a   3.94624800
_cell_length_b   9.63971408
_cell_length_c   9.64146277
_cell_angle_alpha   119.93102829
_cell_angle_beta   90.00001493
_cell_angle_gamma   90.00004285
_symmetry_Int_Tables_number   1
_chemical_formula_structural   Tb2Nb3P7IrRh8
_chemical_formula_sum   'Tb2 Nb3 P7 Ir1 Rh8'
_cell_volume   317.85094380
_cell_formula_units_Z   1
loop_
 _symmetry_equiv_pos_site_id
 _symmetry_equiv_pos_as_xyz
  1  'x, y, z'
loop_
 _atom_site_type_symbol
 _atom_site_label
 _atom_site_symmetry_multiplicity
 _atom_site_fract_x
 _atom_site_fract_y
 _atom_site_fract_z
 _atom_site_occupancy
  Tb  Tb0  1  0.261513  0.666757  0.333249  1
  Tb  Tb1  1  0.762081  0.333568  0.666811  1
  Nb  Nb2  1  0.761942  0.094848  0.873438  1
  Nb  Nb3  1  0.761930  0.126717  0.221861  1
  Nb  Nb4  1  0.761936  0.777145  0.904639  1
  P  P5  1  0.262268  0.000681  0.999026  1
  P  P6  1  0.761719  0.877543  0.591509  1
  P  P7  1  0.761718  0.409528  0.286873  1
  P  P8  1  0.761726  0.713023  0.123096  1
  P  P9  1  0.261959  0.117764  0.416590  1
  P  P10  1  0.261962  0.583960  0.700488  1
  P  P11  1  0.261946  0.298628  0.882883  1
  Ir  Ir12  1  0.261879  0.884493  0.161371  1
  Rh  Rh13  1  0.261906  0.838085  0.722210  1
  Rh  Rh14  1  0.261902  0.278280  0.116226  1
  Rh  Rh15  1  0.761919  0.610145  0.556558  1
  Rh  Rh16  1  0.761923  0.444194  0.054191  1
  Rh  Rh17  1  0.761918  0.945619  0.390388  1
  Rh  Rh18  1  0.261943  0.368059  0.438673  1
  Rh  Rh19  1  0.261950  0.560345  0.928176  1
  Rh  Rh20  1  0.261958  0.070621  0.631740  1
