# generated using pymatgen
data_Er3MgAl2Ga2Ag
_symmetry_space_group_name_H-M   'P 1'
_cell_length_a   4.39601400
_cell_length_b   7.10858576
_cell_length_c   6.98944648
_cell_angle_alpha   120.56549241
_cell_angle_beta   90.00000000
_cell_angle_gamma   90.00000000
_symmetry_Int_Tables_number   1
_chemical_formula_structural   Er3MgAl2Ga2Ag
_chemical_formula_sum   'Er3 Mg1 Al2 Ga2 Ag1'
_cell_volume   188.06702229
_cell_formula_units_Z   1
loop_
 _symmetry_equiv_pos_site_id
 _symmetry_equiv_pos_as_xyz
  1  'x, y, z'
loop_
 _atom_site_type_symbol
 _atom_site_label
 _atom_site_symmetry_multiplicity
 _atom_site_fract_x
 _atom_site_fract_y
 _atom_site_fract_z
 _atom_site_occupancy
  Er  Er0  1  0.000000  0.431900  0.428904  1
  Er  Er1  1  0.000000  0.002996  0.571096  1
  Er  Er2  1  0.000000  0.576467  0.000000  1
  Mg  Mg3  1  0.500000  0.239709  0.000000  1
  Al  Al4  1  0.500000  0.753009  0.757863  1
  Al  Al5  1  0.500000  0.995146  0.242137  1
  Ga  Ga6  1  0.500000  0.675378  0.339418  1
  Ga  Ga7  1  0.500000  0.335957  0.660582  1
  Ag  Ag8  1  0.000000  0.989439  0.000000  1
