# generated using pymatgen
data_Sr2La2Pt6O19
_symmetry_space_group_name_H-M   'P 1'
_cell_length_a   8.00606134
_cell_length_b   8.00942180
_cell_length_c   8.00942028
_cell_angle_alpha   109.33066000
_cell_angle_beta   109.57501556
_cell_angle_gamma   109.52514086
_symmetry_Int_Tables_number   1
_chemical_formula_structural   Sr2La2Pt6O19
_chemical_formula_sum   'Sr2 La2 Pt6 O19'
_cell_volume   395.28072683
_cell_formula_units_Z   1
loop_
 _symmetry_equiv_pos_site_id
 _symmetry_equiv_pos_as_xyz
  1  'x, y, z'
loop_
 _atom_site_type_symbol
 _atom_site_label
 _atom_site_symmetry_multiplicity
 _atom_site_fract_x
 _atom_site_fract_y
 _atom_site_fract_z
 _atom_site_occupancy
  Sr  Sr0  1  0.000095  0.999940  0.318487  1
  Sr  Sr1  1  0.999905  0.318392  0.999844  1
  La  La2  1  0.694068  0.691604  0.691741  1
  La  La3  1  0.305932  0.997673  0.997536  1
  Pt  Pt4  1  0.340525  0.500695  0.840404  1
  Pt  Pt5  1  0.840083  0.339954  0.499742  1
  Pt  Pt6  1  0.500000  0.161027  0.661027  1
  Pt  Pt7  1  0.159917  0.659659  0.499871  1
  Pt  Pt8  1  0.500000  0.841297  0.341297  1
  Pt  Pt9  1  0.659475  0.499880  0.160170  1
  O  O10  1  0.349506  0.001106  0.348217  1
  O  O11  1  0.348748  0.347383  0.999959  1
  O  O12  1  0.000000  0.653318  0.653318  1
  O  O13  1  0.651252  0.651210  0.998635  1
  O  O14  1  0.000000  0.350724  0.350724  1
  O  O15  1  0.650494  0.998711  0.651600  1
  O  O16  1  0.000000  0.972906  0.972906  1
  O  O17  1  0.354492  0.314699  0.616837  1
  O  O18  1  0.041280  0.307857  0.691000  1
  O  O19  1  0.733346  0.386828  0.692936  1
  O  O20  1  0.388897  0.699058  0.738477  1
  O  O21  1  0.266654  0.959590  0.653484  1
  O  O22  1  0.611103  0.349580  0.310160  1
  O  O23  1  0.313575  0.615767  0.354360  1
  O  O24  1  0.686425  0.040786  0.302191  1
  O  O25  1  0.958720  0.649721  0.266578  1
  O  O26  1  0.693572  0.734080  0.387784  1
  O  O27  1  0.645508  0.262344  0.960206  1
  O  O28  1  0.306428  0.694213  0.040509  1
