# generated using pymatgen
data_LiHo16Cd3Pt3Rh
_symmetry_space_group_name_H-M   'P 1'
_cell_length_a   9.65255477
_cell_length_b   9.65255662
_cell_length_c   9.65255536
_cell_angle_alpha   59.74537921
_cell_angle_beta   59.74537007
_cell_angle_gamma   59.74537800
_symmetry_Int_Tables_number   1
_chemical_formula_structural   LiHo16Cd3Pt3Rh
_chemical_formula_sum   'Li1 Ho16 Cd3 Pt3 Rh1'
_cell_volume   632.25677884
_cell_formula_units_Z   1
loop_
 _symmetry_equiv_pos_site_id
 _symmetry_equiv_pos_as_xyz
  1  'x, y, z'
loop_
 _atom_site_type_symbol
 _atom_site_label
 _atom_site_symmetry_multiplicity
 _atom_site_fract_x
 _atom_site_fract_y
 _atom_site_fract_z
 _atom_site_occupancy
  Li  Li0  1  0.821148  0.821148  0.821148  1
  Ho  Ho1  1  0.602369  0.602369  0.602369  1
  Ho  Ho2  1  0.600027  0.600027  0.197312  1
  Ho  Ho3  1  0.600027  0.197312  0.600027  1
  Ho  Ho4  1  0.197312  0.600027  0.600027  1
  Ho  Ho5  1  0.062295  0.440764  0.440764  1
  Ho  Ho6  1  0.437892  0.062444  0.062444  1
  Ho  Ho7  1  0.440764  0.062295  0.440764  1
  Ho  Ho8  1  0.062444  0.437892  0.062444  1
  Ho  Ho9  1  0.440764  0.440764  0.062295  1
  Ho  Ho10  1  0.062444  0.062444  0.437892  1
  Ho  Ho11  1  0.186191  0.815763  0.815763  1
  Ho  Ho12  1  0.814399  0.185661  0.185661  1
  Ho  Ho13  1  0.815763  0.186191  0.815763  1
  Ho  Ho14  1  0.185661  0.814399  0.185661  1
  Ho  Ho15  1  0.815763  0.815763  0.186191  1
  Ho  Ho16  1  0.185661  0.185661  0.814399  1
  Cd  Cd17  1  0.832182  0.832182  0.503588  1
  Cd  Cd18  1  0.832182  0.503588  0.832182  1
  Cd  Cd19  1  0.503588  0.832182  0.832182  1
  Pt  Pt20  1  0.393539  0.393539  0.820579  1
  Pt  Pt21  1  0.393539  0.820579  0.393539  1
  Pt  Pt22  1  0.820579  0.393539  0.393539  1
  Rh  Rh23  1  0.393468  0.393468  0.393468  1
