# generated using pymatgen
data_Ho12Co2CuNi2Bi
_symmetry_space_group_name_H-M   'P 1'
_cell_length_a   8.33494774
_cell_length_b   8.33522478
_cell_length_c   8.33494909
_cell_angle_alpha   111.72799300
_cell_angle_beta   109.09762355
_cell_angle_gamma   107.61373905
_symmetry_Int_Tables_number   1
_chemical_formula_structural   Ho12Co2CuNi2Bi
_chemical_formula_sum   'Ho12 Co2 Cu1 Ni2 Bi1'
_cell_volume   445.17479358
_cell_formula_units_Z   1
loop_
 _symmetry_equiv_pos_site_id
 _symmetry_equiv_pos_as_xyz
  1  'x, y, z'
loop_
 _atom_site_type_symbol
 _atom_site_label
 _atom_site_symmetry_multiplicity
 _atom_site_fract_x
 _atom_site_fract_y
 _atom_site_fract_z
 _atom_site_occupancy
  Ho  Ho0  1  0.819423  0.711511  0.530930  1
  Ho  Ho1  1  0.180577  0.288489  0.469070  1
  Ho  Ho2  1  0.180581  0.711511  0.892088  1
  Ho  Ho3  1  0.819419  0.288489  0.107912  1
  Ho  Ho4  1  0.683797  0.373772  0.689975  1
  Ho  Ho5  1  0.316203  0.626228  0.310025  1
  Ho  Ho6  1  0.683795  0.993823  0.310028  1
  Ho  Ho7  1  0.316205  0.006177  0.689972  1
  Ho  Ho8  1  0.585167  0.784204  0.800979  1
  Ho  Ho9  1  0.414833  0.215796  0.199021  1
  Ho  Ho10  1  0.983225  0.784204  0.199037  1
  Ho  Ho11  1  0.016775  0.215796  0.800963  1
  Co  Co12  1  0.113788  0.613799  0.500010  1
  Co  Co13  1  0.886212  0.386201  0.499990  1
  Cu  Cu14  1  0.000000  0.000000  0.000000  1
  Ni  Ni15  1  0.634410  0.000000  0.634410  1
  Ni  Ni16  1  0.365590  0.000000  0.365590  1
  Bi  Bi17  1  0.500000  0.500000  0.000000  1
