# generated using pymatgen
data_Nb3Bi(PO4)6
_symmetry_space_group_name_H-M   'P 1'
_cell_length_a   8.87249566
_cell_length_b   9.14334882
_cell_length_c   8.87243000
_cell_angle_alpha   89.99766890
_cell_angle_beta   59.99932017
_cell_angle_gamma   119.02264180
_symmetry_Int_Tables_number   1
_chemical_formula_structural   Nb3Bi(PO4)6
_chemical_formula_sum   'Nb3 Bi1 P6 O24'
_cell_volume   516.32861759
_cell_formula_units_Z   1
loop_
 _symmetry_equiv_pos_site_id
 _symmetry_equiv_pos_as_xyz
  1  'x, y, z'
loop_
 _atom_site_type_symbol
 _atom_site_label
 _atom_site_symmetry_multiplicity
 _atom_site_fract_x
 _atom_site_fract_y
 _atom_site_fract_z
 _atom_site_occupancy
  Nb  Nb0  1  0.282907  0.924247  0.358532  1
  Nb  Nb1  1  0.283523  0.425171  0.858233  1
  Nb  Nb2  1  0.717175  0.575668  0.141358  1
  Bi  Bi3  1  0.724577  0.086804  0.637644  1
  P  P4  1  0.787479  0.746478  0.750186  1
  P  P5  1  0.479108  0.252254  0.534260  1
  P  P6  1  0.496829  0.746509  0.462242  1
  P  P7  1  0.238993  0.252333  0.226741  1
  P  P8  1  0.786638  0.252264  0.986573  1
  P  P9  1  0.208882  0.746495  0.040855  1
  O  O10  1  0.666292  0.906413  0.462254  1
  O  O11  1  0.987359  0.707013  0.116383  1
  O  O12  1  0.214687  0.582123  0.003577  1
  O  O13  1  0.238008  0.778780  0.200605  1
  O  O14  1  0.986955  0.267622  0.946358  1
  O  O15  1  0.803653  0.416745  0.041031  1
  O  O16  1  0.782288  0.255263  0.819444  1
  O  O17  1  0.823605  0.707142  0.896172  1
  O  O18  1  0.979477  0.778700  0.561309  1
  O  O19  1  0.653722  0.255454  0.526840  1
  O  O20  1  0.777708  0.906289  0.759812  1
  O  O21  1  0.585802  0.582058  0.781765  1
  O  O22  1  0.592114  0.083340  0.153994  1
  O  O23  1  0.571895  0.416634  0.386785  1
  O  O24  1  0.213992  0.267536  0.066703  1
  O  O25  1  0.334344  0.267582  0.719238  1
  O  O26  1  0.603449  0.707086  0.280191  1
  O  O27  1  0.337358  0.083230  0.508728  1
  O  O28  1  0.368728  0.906309  0.871276  1
  O  O29  1  0.364054  0.582164  0.632414  1
  O  O30  1  0.237515  0.083436  0.253941  1
  O  O31  1  0.457977  0.416857  0.155079  1
  O  O32  1  0.340111  0.778621  0.459112  1
  O  O33  1  0.074926  0.255388  0.398232  1
