# generated using pymatgen
data_Zr3Sc(Ga3Rh)6
_symmetry_space_group_name_H-M   'P 1'
_cell_length_a   7.47784966
_cell_length_b   7.47408344
_cell_length_c   9.36845300
_cell_angle_alpha   90.00000000
_cell_angle_beta   90.00000000
_cell_angle_gamma   120.00822205
_symmetry_Int_Tables_number   1
_chemical_formula_structural   Zr3Sc(Ga3Rh)6
_chemical_formula_sum   'Zr3 Sc1 Ga18 Rh6'
_cell_volume   453.41637222
_cell_formula_units_Z   1
loop_
 _symmetry_equiv_pos_site_id
 _symmetry_equiv_pos_as_xyz
  1  'x, y, z'
loop_
 _atom_site_type_symbol
 _atom_site_label
 _atom_site_symmetry_multiplicity
 _atom_site_fract_x
 _atom_site_fract_y
 _atom_site_fract_z
 _atom_site_occupancy
  Zr  Zr0  1  0.996003  0.670976  0.250000  1
  Zr  Zr1  1  0.004870  0.330492  0.750000  1
  Zr  Zr2  1  0.669490  0.995221  0.250000  1
  Sc  Sc3  1  0.329438  0.004710  0.750000  1
  Ga  Ga4  1  0.123248  0.124522  0.250000  1
  Ga  Ga5  1  0.875458  0.876407  0.750000  1
  Ga  Ga6  1  0.996205  0.334241  0.079564  1
  Ga  Ga7  1  0.004392  0.665995  0.919202  1
  Ga  Ga8  1  0.004392  0.665995  0.580798  1
  Ga  Ga9  1  0.334388  0.996855  0.418511  1
  Ga  Ga10  1  0.996205  0.334241  0.420436  1
  Ga  Ga11  1  0.665502  0.003632  0.581055  1
  Ga  Ga12  1  0.665502  0.003632  0.918945  1
  Ga  Ga13  1  0.334388  0.996855  0.081489  1
  Ga  Ga14  1  0.330694  0.330203  0.568461  1
  Ga  Ga15  1  0.669094  0.669051  0.431831  1
  Ga  Ga16  1  0.669094  0.669051  0.068169  1
  Ga  Ga17  1  0.330694  0.330203  0.931539  1
  Ga  Ga18  1  0.337984  0.551282  0.250000  1
  Ga  Ga19  1  0.662882  0.448027  0.750000  1
  Ga  Ga20  1  0.553247  0.339218  0.250000  1
  Ga  Ga21  1  0.446401  0.659512  0.750000  1
  Rh  Rh22  1  0.672079  0.328303  0.000578  1
  Rh  Rh23  1  0.328708  0.672362  0.001125  1
  Rh  Rh24  1  0.328708  0.672362  0.498875  1
  Rh  Rh25  1  0.672079  0.328303  0.499422  1
  Rh  Rh26  1  0.999427  0.999175  0.000791  1
  Rh  Rh27  1  0.999427  0.999175  0.499209  1
