# generated using pymatgen
data_Dy2Ho8GaBi5
_symmetry_space_group_name_H-M   'P 1'
_cell_length_a   8.16322200
_cell_length_b   9.43169000
_cell_length_c   11.99245900
_cell_angle_alpha   90.00000000
_cell_angle_beta   90.00000000
_cell_angle_gamma   90.00000000
_symmetry_Int_Tables_number   1
_chemical_formula_structural   Dy2Ho8GaBi5
_chemical_formula_sum   'Dy4 Ho16 Ga2 Bi10'
_cell_volume   923.33514761
_cell_formula_units_Z   2
loop_
 _symmetry_equiv_pos_site_id
 _symmetry_equiv_pos_as_xyz
  1  'x, y, z'
loop_
 _atom_site_type_symbol
 _atom_site_label
 _atom_site_symmetry_multiplicity
 _atom_site_fract_x
 _atom_site_fract_y
 _atom_site_fract_z
 _atom_site_occupancy
  Dy  Dy0  1  0.312328  0.250000  0.219427  1
  Dy  Dy1  1  0.812328  0.250000  0.280573  1
  Dy  Dy2  1  0.678818  0.750000  0.784701  1
  Dy  Dy3  1  0.178818  0.750000  0.715299  1
  Ho  Ho4  1  0.354008  0.750000  0.206488  1
  Ho  Ho5  1  0.854008  0.750000  0.293512  1
  Ho  Ho6  1  0.651416  0.250000  0.784476  1
  Ho  Ho7  1  0.151416  0.250000  0.715524  1
  Ho  Ho8  1  0.684981  0.570079  0.055548  1
  Ho  Ho9  1  0.184981  0.929921  0.444452  1
  Ho  Ho10  1  0.308416  0.049870  0.940821  1
  Ho  Ho11  1  0.808416  0.450130  0.559179  1
  Ho  Ho12  1  0.308416  0.450130  0.940821  1
  Ho  Ho13  1  0.808416  0.049870  0.559179  1
  Ho  Ho14  1  0.684981  0.929921  0.055548  1
  Ho  Ho15  1  0.184981  0.570079  0.444452  1
  Ho  Ho16  1  0.478180  0.250000  0.489588  1
  Ho  Ho17  1  0.978180  0.250000  0.010412  1
  Ho  Ho18  1  0.535967  0.750000  0.510232  1
  Ho  Ho19  1  0.035967  0.750000  0.989768  1
  Ga  Ga20  1  0.410014  0.750000  0.960135  1
  Ga  Ga21  1  0.910014  0.750000  0.539865  1
  Bi  Bi22  1  0.592481  0.250000  0.042245  1
  Bi  Bi23  1  0.092481  0.250000  0.457755  1
  Bi  Bi24  1  0.562514  0.995929  0.324525  1
  Bi  Bi25  1  0.062514  0.504071  0.175475  1
  Bi  Bi26  1  0.437483  0.497283  0.676256  1
  Bi  Bi27  1  0.937483  0.002717  0.823744  1
  Bi  Bi28  1  0.437483  0.002717  0.676256  1
  Bi  Bi29  1  0.937483  0.497283  0.823744  1
  Bi  Bi30  1  0.562514  0.504071  0.324525  1
  Bi  Bi31  1  0.062514  0.995929  0.175475  1
