# generated using pymatgen
data_Y4Ho6InSb5
_symmetry_space_group_name_H-M   'P 1'
_cell_length_a   6.36425600
_cell_length_b   8.98406595
_cell_length_c   8.95379000
_cell_angle_alpha   120.11193128
_cell_angle_beta   90.00001801
_cell_angle_gamma   89.99997183
_symmetry_Int_Tables_number   1
_chemical_formula_structural   Y4Ho6InSb5
_chemical_formula_sum   'Y4 Ho6 In1 Sb5'
_cell_volume   442.86072227
_cell_formula_units_Z   1
loop_
 _symmetry_equiv_pos_site_id
 _symmetry_equiv_pos_as_xyz
  1  'x, y, z'
loop_
 _atom_site_type_symbol
 _atom_site_label
 _atom_site_symmetry_multiplicity
 _atom_site_fract_x
 _atom_site_fract_y
 _atom_site_fract_z
 _atom_site_occupancy
  Y  Y0  1  0.750001  0.754430  0.757945  1
  Y  Y1  1  0.750001  0.996484  0.242055  1
  Y  Y2  1  0.250001  0.246317  0.244414  1
  Y  Y3  1  0.250001  0.001903  0.755586  1
  Ho  Ho4  1  0.499128  0.334880  0.668696  1
  Ho  Ho5  1  0.499128  0.666184  0.331304  1
  Ho  Ho6  1  0.000871  0.666185  0.331304  1
  Ho  Ho7  1  0.000871  0.334881  0.668696  1
  Ho  Ho8  1  0.750001  0.243999  0.000000  1
  Ho  Ho9  1  0.249999  0.756775  0.000000  1
  In  In10  1  0.749999  0.604804  0.000000  1
  Sb  Sb11  1  0.750001  0.389543  0.389913  1
  Sb  Sb12  1  0.750001  0.999630  0.610087  1
  Sb  Sb13  1  0.250000  0.391801  0.000000  1
  Sb  Sb14  1  0.250000  0.611175  0.610170  1
  Sb  Sb15  1  0.250000  0.001006  0.389830  1
