# generated using pymatgen
data_LiLu2Co8ReP6
_symmetry_space_group_name_H-M   'P 1'
_cell_length_a   3.65904800
_cell_length_b   10.27311800
_cell_length_c   11.72922900
_cell_angle_alpha   90.00000000
_cell_angle_beta   90.00000000
_cell_angle_gamma   90.00000000
_symmetry_Int_Tables_number   1
_chemical_formula_structural   LiLu2Co8ReP6
_chemical_formula_sum   'Li2 Lu4 Co16 Re2 P12'
_cell_volume   440.89974609
_cell_formula_units_Z   2
loop_
 _symmetry_equiv_pos_site_id
 _symmetry_equiv_pos_as_xyz
  1  'x, y, z'
loop_
 _atom_site_type_symbol
 _atom_site_label
 _atom_site_symmetry_multiplicity
 _atom_site_fract_x
 _atom_site_fract_y
 _atom_site_fract_z
 _atom_site_occupancy
  Li  Li0  1  0.750000  0.296536  0.009744  1
  Li  Li1  1  0.750000  0.203464  0.509744  1
  Lu  Lu2  1  0.250000  0.581379  0.703060  1
  Lu  Lu3  1  0.250000  0.918621  0.203060  1
  Lu  Lu4  1  0.750000  0.417180  0.294879  1
  Lu  Lu5  1  0.750000  0.082820  0.794879  1
  Co  Co6  1  0.250000  0.408381  0.486268  1
  Co  Co7  1  0.250000  0.091619  0.986268  1
  Co  Co8  1  0.750000  0.593645  0.512067  1
  Co  Co9  1  0.750000  0.906355  0.012067  1
  Co  Co10  1  0.250000  0.217878  0.176107  1
  Co  Co11  1  0.250000  0.282122  0.676107  1
  Co  Co12  1  0.750000  0.776072  0.822931  1
  Co  Co13  1  0.750000  0.723928  0.322931  1
  Co  Co14  1  0.250000  0.885604  0.702534  1
  Co  Co15  1  0.250000  0.614396  0.202534  1
  Co  Co16  1  0.750000  0.116639  0.300242  1
  Co  Co17  1  0.750000  0.383361  0.800242  1
  Co  Co18  1  0.250000  0.464069  0.932761  1
  Co  Co19  1  0.250000  0.035931  0.432761  1
  Co  Co20  1  0.750000  0.534401  0.070495  1
  Co  Co21  1  0.750000  0.965599  0.570495  1
  Re  Re22  1  0.250000  0.709369  0.989983  1
  Re  Re23  1  0.250000  0.790631  0.489983  1
  P  P24  1  0.250000  0.417582  0.115861  1
  P  P25  1  0.250000  0.082418  0.615861  1
  P  P26  1  0.750000  0.576397  0.886357  1
  P  P27  1  0.750000  0.923603  0.386357  1
  P  P28  1  0.250000  0.267564  0.864263  1
  P  P29  1  0.250000  0.232436  0.364263  1
  P  P30  1  0.750000  0.732634  0.133762  1
  P  P31  1  0.750000  0.767366  0.633762  1
  P  P32  1  0.250000  0.594900  0.390702  1
  P  P33  1  0.250000  0.905100  0.890702  1
  P  P34  1  0.750000  0.399468  0.607982  1
  P  P35  1  0.750000  0.100532  0.107982  1
