# generated using pymatgen
data_V9Re(B2P)2
_symmetry_space_group_name_H-M   'P 1'
_cell_length_a   6.68606738
_cell_length_b   6.69057362
_cell_length_c   6.69659958
_cell_angle_alpha   129.16834493
_cell_angle_beta   129.15006513
_cell_angle_gamma   74.66169947
_symmetry_Int_Tables_number   1
_chemical_formula_structural   V9Re(B2P)2
_chemical_formula_sum   'V9 Re1 B4 P2'
_cell_volume   175.56118139
_cell_formula_units_Z   1
loop_
 _symmetry_equiv_pos_site_id
 _symmetry_equiv_pos_as_xyz
  1  'x, y, z'
loop_
 _atom_site_type_symbol
 _atom_site_label
 _atom_site_symmetry_multiplicity
 _atom_site_fract_x
 _atom_site_fract_y
 _atom_site_fract_z
 _atom_site_occupancy
  V  V0  1  0.029476  0.529152  0.838422  1
  V  V1  1  0.691053  0.190730  0.161578  1
  V  V2  1  0.971531  0.470349  0.163113  1
  V  V3  1  0.190905  0.030021  0.500000  1
  V  V4  1  0.470929  0.308346  0.500000  1
  V  V5  1  0.807869  0.971415  0.500000  1
  V  V6  1  0.308417  0.807236  0.836887  1
  V  V7  1  0.002263  0.002464  0.002875  1
  V  V8  1  0.499388  0.499588  0.997125  1
  Re  Re9  1  0.528588  0.692082  0.500000  1
  B  B10  1  0.617585  0.120363  0.734903  1
  B  B11  1  0.114719  0.384096  0.500000  1
  B  B12  1  0.885899  0.615145  0.500000  1
  B  B13  1  0.382682  0.885460  0.265097  1
  P  P14  1  0.246041  0.243468  0.993384  1
  P  P15  1  0.752656  0.750084  0.006616  1
