# generated using pymatgen
data_TbDy4Sc3(P3Ir4)4
_symmetry_space_group_name_H-M   'P 1'
_cell_length_a   12.86377900
_cell_length_b   12.86377977
_cell_length_c   3.96581600
_cell_angle_alpha   90.00000000
_cell_angle_beta   90.00000000
_cell_angle_gamma   120.00000060
_symmetry_Int_Tables_number   1
_chemical_formula_structural   TbDy4Sc3(P3Ir4)4
_chemical_formula_sum   'Tb1 Dy4 Sc3 P12 Ir16'
_cell_volume   568.32970518
_cell_formula_units_Z   1
loop_
 _symmetry_equiv_pos_site_id
 _symmetry_equiv_pos_as_xyz
  1  'x, y, z'
loop_
 _atom_site_type_symbol
 _atom_site_label
 _atom_site_symmetry_multiplicity
 _atom_site_fract_x
 _atom_site_fract_y
 _atom_site_fract_z
 _atom_site_occupancy
  Tb  Tb0  1  0.333333  0.666667  0.500000  1
  Dy  Dy1  1  0.666667  0.333333  0.500000  1
  Dy  Dy2  1  0.000010  0.811768  0.000000  1
  Dy  Dy3  1  0.188232  0.188242  0.000000  1
  Dy  Dy4  1  0.811758  0.999990  0.000000  1
  Sc  Sc5  1  0.000011  0.444852  0.500000  1
  Sc  Sc6  1  0.555148  0.555159  0.500000  1
  Sc  Sc7  1  0.444841  0.999989  0.500000  1
  P  P8  1  0.000025  0.645628  0.500000  1
  P  P9  1  0.354372  0.354397  0.500000  1
  P  P10  1  0.645603  0.999975  0.500000  1
  P  P11  1  0.517097  0.686635  0.000000  1
  P  P12  1  0.313365  0.830463  0.000000  1
  P  P13  1  0.169537  0.482903  0.000000  1
  P  P14  1  0.483079  0.169700  0.000000  1
  P  P15  1  0.686620  0.516921  0.000000  1
  P  P16  1  0.830300  0.313380  0.000000  1
  P  P17  1  0.000000  0.176936  0.500000  1
  P  P18  1  0.823064  0.823064  0.500000  1
  P  P19  1  0.176936  0.000000  0.500000  1
  Ir  Ir20  1  0.510262  0.868093  0.000000  1
  Ir  Ir21  1  0.131907  0.642169  0.000000  1
  Ir  Ir22  1  0.357831  0.489738  0.000000  1
  Ir  Ir23  1  0.490025  0.357772  0.000000  1
  Ir  Ir24  1  0.867748  0.509975  0.000000  1
  Ir  Ir25  1  0.642228  0.132252  0.000000  1
  Ir  Ir26  1  0.999972  0.277879  0.000000  1
  Ir  Ir27  1  0.722121  0.722093  0.000000  1
  Ir  Ir28  1  0.277907  0.000028  0.000000  1
  Ir  Ir29  1  0.627952  0.806798  0.500000  1
  Ir  Ir30  1  0.193202  0.821154  0.500000  1
  Ir  Ir31  1  0.178846  0.372048  0.500000  1
  Ir  Ir32  1  0.372104  0.178895  0.500000  1
  Ir  Ir33  1  0.806791  0.627896  0.500000  1
  Ir  Ir34  1  0.821105  0.193209  0.500000  1
  Ir  Ir35  1  0.000000  0.000000  0.500000  1
