# generated using pymatgen
data_Tm12TlInFeTc2
_symmetry_space_group_name_H-M   'P 1'
_cell_length_a   8.31991809
_cell_length_b   8.31991826
_cell_length_c   8.31991931
_cell_angle_alpha   108.90080873
_cell_angle_beta   108.54685068
_cell_angle_gamma   110.97675429
_symmetry_Int_Tables_number   1
_chemical_formula_structural   Tm12TlInFeTc2
_chemical_formula_sum   'Tm12 Tl1 In1 Fe1 Tc2'
_cell_volume   443.10403555
_cell_formula_units_Z   1
loop_
 _symmetry_equiv_pos_site_id
 _symmetry_equiv_pos_as_xyz
  1  'x, y, z'
loop_
 _atom_site_type_symbol
 _atom_site_label
 _atom_site_symmetry_multiplicity
 _atom_site_fract_x
 _atom_site_fract_y
 _atom_site_fract_z
 _atom_site_occupancy
  Tm  Tm0  1  0.189894  0.430489  0.240595  1
  Tm  Tm1  1  0.807198  0.569521  0.762322  1
  Tm  Tm2  1  0.189894  0.949300  0.759405  1
  Tm  Tm3  1  0.949981  0.189377  0.760603  1
  Tm  Tm4  1  0.807198  0.044875  0.237678  1
  Tm  Tm5  1  0.044126  0.807775  0.236352  1
  Tm  Tm6  1  0.428774  0.189377  0.239397  1
  Tm  Tm7  1  0.571424  0.807775  0.763648  1
  Tm  Tm8  1  0.305117  0.303934  0.611729  1
  Tm  Tm9  1  0.692206  0.693388  0.388271  1
  Tm  Tm10  1  0.692206  0.303934  0.998818  1
  Tm  Tm11  1  0.305117  0.693388  0.001182  1
  Tl  Tl12  1  0.998370  0.498370  0.500000  1
  In  In13  1  0.498237  0.998237  0.500000  1
  Fe  Fe14  1  0.632277  0.632277  0.000000  1
  Tc  Tc15  1  0.387438  0.387438  0.000000  1
  Tc  Tc16  1  0.000544  0.000544  0.000000  1
