# generated using pymatgen
data_SmDyLu(Ga2Ni3)3
_symmetry_space_group_name_H-M   'P 1'
_cell_length_a   8.76527000
_cell_length_b   8.76526957
_cell_length_c   4.10287900
_cell_angle_alpha   90.00000000
_cell_angle_beta   90.00000000
_cell_angle_gamma   120.00000160
_symmetry_Int_Tables_number   1
_chemical_formula_structural   SmDyLu(Ga2Ni3)3
_chemical_formula_sum   'Sm1 Dy1 Lu1 Ga6 Ni9'
_cell_volume   272.99199324
_cell_formula_units_Z   1
loop_
 _symmetry_equiv_pos_site_id
 _symmetry_equiv_pos_as_xyz
  1  'x, y, z'
loop_
 _atom_site_type_symbol
 _atom_site_label
 _atom_site_symmetry_multiplicity
 _atom_site_fract_x
 _atom_site_fract_y
 _atom_site_fract_z
 _atom_site_occupancy
  Sm  Sm0  1  0.333333  0.666667  0.500000  1
  Dy  Dy1  1  0.666667  0.333333  0.500000  1
  Lu  Lu2  1  0.000000  0.000000  0.000000  1
  Ga  Ga3  1  0.268319  0.267727  0.500000  1
  Ga  Ga4  1  0.732273  0.000592  0.500000  1
  Ga  Ga5  1  0.999408  0.731681  0.500000  1
  Ga  Ga6  1  0.519068  0.517954  0.000000  1
  Ga  Ga7  1  0.482046  0.001114  0.000000  1
  Ga  Ga8  1  0.998886  0.480932  0.000000  1
  Ni  Ni9  1  0.803742  0.172668  0.000000  1
  Ni  Ni10  1  0.827332  0.631073  0.000000  1
  Ni  Ni11  1  0.368927  0.196258  0.000000  1
  Ni  Ni12  1  0.171689  0.804893  0.000000  1
  Ni  Ni13  1  0.633203  0.828311  0.000000  1
  Ni  Ni14  1  0.195107  0.366797  0.000000  1
  Ni  Ni15  1  0.709194  0.708427  0.500000  1
  Ni  Ni16  1  0.291573  0.000766  0.500000  1
  Ni  Ni17  1  0.999234  0.290806  0.500000  1
