# generated using pymatgen
data_Pr20Ir3Ru4Au5
_symmetry_space_group_name_H-M   'P 1'
_cell_length_a   11.57573834
_cell_length_b   11.57573834
_cell_length_c   6.64850541
_cell_angle_alpha   89.97415548
_cell_angle_beta   89.97415548
_cell_angle_gamma   89.74305155
_symmetry_Int_Tables_number   1
_chemical_formula_structural   Pr20Ir3Ru4Au5
_chemical_formula_sum   'Pr20 Ir3 Ru4 Au5'
_cell_volume   890.87541437
_cell_formula_units_Z   1
loop_
 _symmetry_equiv_pos_site_id
 _symmetry_equiv_pos_as_xyz
  1  'x, y, z'
loop_
 _atom_site_type_symbol
 _atom_site_label
 _atom_site_symmetry_multiplicity
 _atom_site_fract_x
 _atom_site_fract_y
 _atom_site_fract_z
 _atom_site_occupancy
  Pr  Pr0  1  0.301178  0.090253  0.365414  1
  Pr  Pr1  1  0.303310  0.907938  0.863693  1
  Pr  Pr2  1  0.694459  0.080613  0.860045  1
  Pr  Pr3  1  0.696276  0.904968  0.362477  1
  Pr  Pr4  1  0.581806  0.786472  0.881485  1
  Pr  Pr5  1  0.578253  0.202516  0.364846  1
  Pr  Pr6  1  0.416316  0.791206  0.381643  1
  Pr  Pr7  1  0.410262  0.206716  0.882233  1
  Pr  Pr8  1  0.213528  0.418194  0.618515  1
  Pr  Pr9  1  0.208794  0.583684  0.118357  1
  Pr  Pr10  1  0.797484  0.421747  0.135154  1
  Pr  Pr11  1  0.793284  0.589738  0.617767  1
  Pr  Pr12  1  0.909747  0.698822  0.134586  1
  Pr  Pr13  1  0.919387  0.305541  0.639955  1
  Pr  Pr14  1  0.092062  0.696690  0.636307  1
  Pr  Pr15  1  0.095032  0.303724  0.137523  1
  Pr  Pr16  1  0.998022  0.999928  0.498948  1
  Pr  Pr17  1  0.000072  0.001978  0.001052  1
  Pr  Pr18  1  0.496814  0.502145  0.001612  1
  Pr  Pr19  1  0.497855  0.503186  0.498388  1
  Ir  Ir20  1  0.651979  0.651443  0.250780  1
  Ir  Ir21  1  0.348557  0.348021  0.249220  1
  Ir  Ir22  1  0.345641  0.654359  0.750000  1
  Ru  Ru23  1  0.499808  0.000317  0.113450  1
  Ru  Ru24  1  0.499559  0.001543  0.614588  1
  Ru  Ru25  1  0.998457  0.500441  0.885412  1
  Ru  Ru26  1  0.999683  0.500192  0.386550  1
  Au  Au27  1  0.842670  0.157330  0.250000  1
  Au  Au28  1  0.843577  0.845782  0.751477  1
  Au  Au29  1  0.154218  0.156423  0.748523  1
  Au  Au30  1  0.155805  0.844195  0.250000  1
  Au  Au31  1  0.656106  0.343894  0.750000  1
