# generated using pymatgen
data_CsUPaO6
_symmetry_space_group_name_H-M   'P 1'
_cell_length_a   7.97221810
_cell_length_b   7.97221841
_cell_length_c   7.97221800
_cell_angle_alpha   121.99799903
_cell_angle_beta   118.61572685
_cell_angle_gamma   89.49450595
_symmetry_Int_Tables_number   1
_chemical_formula_structural   CsUPaO6
_chemical_formula_sum   'Cs2 U2 Pa2 O12'
_cell_volume   356.21044348
_cell_formula_units_Z   2
loop_
 _symmetry_equiv_pos_site_id
 _symmetry_equiv_pos_as_xyz
  1  'x, y, z'
loop_
 _atom_site_type_symbol
 _atom_site_label
 _atom_site_symmetry_multiplicity
 _atom_site_fract_x
 _atom_site_fract_y
 _atom_site_fract_z
 _atom_site_occupancy
  Cs  Cs0  1  0.622981  0.872981  0.750000  1
  Cs  Cs1  1  0.377019  0.127019  0.250000  1
  U  U2  1  0.000000  0.500000  0.000000  1
  U  U3  1  0.000000  0.000000  0.500000  1
  Pa  Pa4  1  0.500000  0.500000  0.000000  1
  Pa  Pa5  1  0.000000  0.500000  0.500000  1
  O  O6  1  0.069148  0.819148  0.250000  1
  O  O7  1  0.684778  0.434778  0.250000  1
  O  O8  1  0.062125  0.826699  0.632452  1
  O  O9  1  0.694246  0.429673  0.867548  1
  O  O10  1  0.694246  0.826699  0.264573  1
  O  O11  1  0.062125  0.429673  0.235427  1
  O  O12  1  0.930852  0.180852  0.750000  1
  O  O13  1  0.315222  0.565222  0.750000  1
  O  O14  1  0.937875  0.173301  0.367548  1
  O  O15  1  0.305754  0.570327  0.132452  1
  O  O16  1  0.305754  0.173301  0.735427  1
  O  O17  1  0.937875  0.570327  0.764573  1
