# generated using pymatgen
data_Ce4Nd5Tm(Bi3Cl)2
_symmetry_space_group_name_H-M   'P 1'
_cell_length_a   9.66010300
_cell_length_b   9.66010265
_cell_length_c   6.65894500
_cell_angle_alpha   90.00000000
_cell_angle_beta   90.00000000
_cell_angle_gamma   119.99286165
_symmetry_Int_Tables_number   1
_chemical_formula_structural   Ce4Nd5Tm(Bi3Cl)2
_chemical_formula_sum   'Ce4 Nd5 Tm1 Bi6 Cl2'
_cell_volume   538.18401293
_cell_formula_units_Z   1
loop_
 _symmetry_equiv_pos_site_id
 _symmetry_equiv_pos_as_xyz
  1  'x, y, z'
loop_
 _atom_site_type_symbol
 _atom_site_label
 _atom_site_symmetry_multiplicity
 _atom_site_fract_x
 _atom_site_fract_y
 _atom_site_fract_z
 _atom_site_occupancy
  Ce  Ce0  1  0.333012  0.665687  0.500071  1
  Ce  Ce1  1  0.665687  0.333012  0.500071  1
  Ce  Ce2  1  0.665687  0.333012  0.999929  1
  Ce  Ce3  1  0.333012  0.665687  0.999929  1
  Nd  Nd4  1  0.268729  0.000117  0.750000  1
  Nd  Nd5  1  0.728583  0.999021  0.250000  1
  Nd  Nd6  1  0.000117  0.268729  0.750000  1
  Nd  Nd7  1  0.999021  0.728583  0.250000  1
  Nd  Nd8  1  0.730511  0.730511  0.750000  1
  Tm  Tm9  1  0.274181  0.274181  0.250000  1
  Bi  Bi10  1  0.615781  0.999849  0.750000  1
  Bi  Bi11  1  0.381635  0.004062  0.250000  1
  Bi  Bi12  1  0.999849  0.615781  0.750000  1
  Bi  Bi13  1  0.004062  0.381635  0.250000  1
  Bi  Bi14  1  0.383263  0.383263  0.750000  1
  Bi  Bi15  1  0.611539  0.611539  0.250000  1
  Cl  Cl16  1  0.002666  0.002666  0.497186  1
  Cl  Cl17  1  0.002666  0.002666  0.002814  1
