# generated using pymatgen
data_Zr6Ga6PdRu4Pt
_symmetry_space_group_name_H-M   'P 1'
_cell_length_a   7.39816000
_cell_length_b   7.39816007
_cell_length_c   6.59739100
_cell_angle_alpha   90.00000000
_cell_angle_beta   90.00000000
_cell_angle_gamma   120.00000090
_symmetry_Int_Tables_number   1
_chemical_formula_structural   Zr6Ga6PdRu4Pt
_chemical_formula_sum   'Zr6 Ga6 Pd1 Ru4 Pt1'
_cell_volume   312.71613832
_cell_formula_units_Z   1
loop_
 _symmetry_equiv_pos_site_id
 _symmetry_equiv_pos_as_xyz
  1  'x, y, z'
loop_
 _atom_site_type_symbol
 _atom_site_label
 _atom_site_symmetry_multiplicity
 _atom_site_fract_x
 _atom_site_fract_y
 _atom_site_fract_z
 _atom_site_occupancy
  Zr  Zr0  1  0.392864  0.381946  0.750533  1
  Zr  Zr1  1  0.989081  0.607136  0.750533  1
  Zr  Zr2  1  0.618054  0.010919  0.750533  1
  Zr  Zr3  1  0.619421  0.012269  0.249447  1
  Zr  Zr4  1  0.987731  0.607152  0.249447  1
  Zr  Zr5  1  0.392848  0.380579  0.249447  1
  Ga  Ga6  1  0.276149  0.999136  0.000139  1
  Ga  Ga7  1  0.722986  0.723851  0.000139  1
  Ga  Ga8  1  0.000864  0.277014  0.000139  1
  Ga  Ga9  1  0.722360  0.724014  0.499973  1
  Ga  Ga10  1  0.275986  0.998347  0.499973  1
  Ga  Ga11  1  0.001653  0.277640  0.499973  1
  Pd  Pd12  1  0.333333  0.666667  0.498069  1
  Ru  Ru13  1  0.666667  0.333333  0.999716  1
  Ru  Ru14  1  0.000000  0.000000  0.750517  1
  Ru  Ru15  1  0.666667  0.333333  0.500292  1
  Ru  Ru16  1  0.000000  0.000000  0.249610  1
  Pt  Pt17  1  0.333333  0.666667  0.001516  1
