# generated using pymatgen
data_BaNaInF6
_symmetry_space_group_name_H-M   'P 1'
_cell_length_a   5.82266800
_cell_length_b   9.97980800
_cell_length_c   11.03498100
_cell_angle_alpha   90.00000000
_cell_angle_beta   90.00000000
_cell_angle_gamma   90.00000000
_symmetry_Int_Tables_number   1
_chemical_formula_structural   BaNaInF6
_chemical_formula_sum   'Ba4 Na4 In4 F24'
_cell_volume   641.23291030
_cell_formula_units_Z   4
loop_
 _symmetry_equiv_pos_site_id
 _symmetry_equiv_pos_as_xyz
  1  'x, y, z'
loop_
 _atom_site_type_symbol
 _atom_site_label
 _atom_site_symmetry_multiplicity
 _atom_site_fract_x
 _atom_site_fract_y
 _atom_site_fract_z
 _atom_site_occupancy
  Ba  Ba0  1  0.501459  0.312287  0.182193  1
  Ba  Ba1  1  0.998541  0.687713  0.682193  1
  Ba  Ba2  1  0.498541  0.812287  0.317807  1
  Ba  Ba3  1  0.001459  0.187713  0.817807  1
  Na  Na4  1  0.041564  0.646673  0.087128  1
  Na  Na5  1  0.458436  0.353327  0.587127  1
  Na  Na6  1  0.958436  0.146673  0.412873  1
  Na  Na7  1  0.541564  0.853327  0.912873  1
  In  In8  1  0.036571  0.998218  0.123479  1
  In  In9  1  0.463429  0.001782  0.623479  1
  In  In10  1  0.963429  0.498218  0.376521  1
  In  In11  1  0.536571  0.501782  0.876521  1
  F  F12  1  0.203461  0.146389  0.583148  1
  F  F13  1  0.296539  0.853611  0.083148  1
  F  F14  1  0.796539  0.646389  0.916852  1
  F  F15  1  0.703461  0.353611  0.416852  1
  F  F16  1  0.213187  0.616419  0.288438  1
  F  F17  1  0.286813  0.383581  0.788438  1
  F  F18  1  0.786813  0.116419  0.211562  1
  F  F19  1  0.713187  0.883581  0.711562  1
  F  F20  1  0.215434  0.160459  0.043324  1
  F  F21  1  0.284566  0.839541  0.543324  1
  F  F22  1  0.784566  0.660459  0.456676  1
  F  F23  1  0.715434  0.339541  0.956676  1
  F  F24  1  0.147272  0.326375  0.321880  1
  F  F25  1  0.352728  0.673625  0.821880  1
  F  F26  1  0.852728  0.826375  0.178120  1
  F  F27  1  0.647272  0.173625  0.678120  1
  F  F28  1  0.343215  0.505391  0.037178  1
  F  F29  1  0.156785  0.494609  0.537178  1
  F  F30  1  0.656785  0.005391  0.462822  1
  F  F31  1  0.843215  0.994609  0.962822  1
  F  F32  1  0.219208  0.022343  0.287457  1
  F  F33  1  0.280792  0.977657  0.787457  1
  F  F34  1  0.780792  0.522343  0.212543  1
  F  F35  1  0.719208  0.477657  0.712543  1
