# generated using pymatgen
data_La5Pu2O12
_symmetry_space_group_name_H-M   'P 1'
_cell_length_a   6.85833299
_cell_length_b   6.94072419
_cell_length_c   6.84994800
_cell_angle_alpha   99.75694212
_cell_angle_beta   98.58873589
_cell_angle_gamma   98.57777543
_symmetry_Int_Tables_number   1
_chemical_formula_structural   La5Pu2O12
_chemical_formula_sum   'La5 Pu2 O12'
_cell_volume   312.61607090
_cell_formula_units_Z   1
loop_
 _symmetry_equiv_pos_site_id
 _symmetry_equiv_pos_as_xyz
  1  'x, y, z'
loop_
 _atom_site_type_symbol
 _atom_site_label
 _atom_site_symmetry_multiplicity
 _atom_site_fract_x
 _atom_site_fract_y
 _atom_site_fract_z
 _atom_site_occupancy
  La  La0  1  0.601438  0.141053  0.302564  1
  La  La1  1  0.396921  0.863447  0.694294  1
  La  La2  1  0.700936  0.395973  0.862556  1
  La  La3  1  0.854782  0.696907  0.391152  1
  La  La4  1  0.139204  0.300605  0.605840  1
  Pu  Pu5  1  0.297225  0.595751  0.136992  1
  Pu  Pu6  1  0.005799  0.998745  0.003079  1
  O  O7  1  0.441296  0.180807  0.599221  1
  O  O8  1  0.945986  0.686710  0.057935  1
  O  O9  1  0.189811  0.579695  0.414149  1
  O  O10  1  0.824850  0.416804  0.562434  1
  O  O11  1  0.549309  0.818804  0.388397  1
  O  O12  1  0.563840  0.438235  0.176722  1
  O  O13  1  0.397400  0.575807  0.846168  1
  O  O14  1  0.950816  0.063195  0.304789  1
  O  O15  1  0.051874  0.932849  0.695881  1
  O  O16  1  0.704969  0.051177  0.929801  1
  O  O17  1  0.082977  0.315918  0.959591  1
  O  O18  1  0.300562  0.947520  0.068435  1
