# generated using pymatgen
data_Sc4Zn4Ir5Pt3
_symmetry_space_group_name_H-M   'P 1'
_cell_length_a   5.86504204
_cell_length_b   5.86527204
_cell_length_c   7.26677600
_cell_angle_alpha   90.00005933
_cell_angle_beta   90.00120114
_cell_angle_gamma   89.86552212
_symmetry_Int_Tables_number   1
_chemical_formula_structural   Sc4Zn4Ir5Pt3
_chemical_formula_sum   'Sc4 Zn4 Ir5 Pt3'
_cell_volume   249.97689326
_cell_formula_units_Z   1
loop_
 _symmetry_equiv_pos_site_id
 _symmetry_equiv_pos_as_xyz
  1  'x, y, z'
loop_
 _atom_site_type_symbol
 _atom_site_label
 _atom_site_symmetry_multiplicity
 _atom_site_fract_x
 _atom_site_fract_y
 _atom_site_fract_z
 _atom_site_occupancy
  Sc  Sc0  1  0.753029  0.247168  0.007871  1
  Sc  Sc1  1  0.246969  0.752836  0.007856  1
  Sc  Sc2  1  0.247348  0.752832  0.492139  1
  Sc  Sc3  1  0.752649  0.247166  0.492124  1
  Zn  Zn4  1  0.248928  0.248868  0.004814  1
  Zn  Zn5  1  0.751066  0.751131  0.004840  1
  Zn  Zn6  1  0.751183  0.751133  0.495154  1
  Zn  Zn7  1  0.248814  0.248867  0.495193  1
  Ir  Ir8  1  0.499981  0.999999  0.249926  1
  Ir  Ir9  1  0.499978  0.499995  0.249923  1
  Ir  Ir10  1  0.999996  0.000003  0.250077  1
  Ir  Ir11  1  0.999998  0.500000  0.250066  1
  Ir  Ir12  1  0.000007  0.999998  0.749911  1
  Pt  Pt13  1  0.000008  0.500000  0.749884  1
  Pt  Pt14  1  0.500024  0.999997  0.750105  1
  Pt  Pt15  1  0.500024  0.500008  0.750119  1
