# generated using pymatgen
data_SmLu(ScSb)2
_symmetry_space_group_name_H-M   'P 1'
_cell_length_a   4.35787200
_cell_length_b   4.35787200
_cell_length_c   8.15056000
_cell_angle_alpha   90.00000000
_cell_angle_beta   90.00000000
_cell_angle_gamma   90.00000000
_symmetry_Int_Tables_number   1
_chemical_formula_structural   SmLu(ScSb)2
_chemical_formula_sum   'Sm1 Lu1 Sc2 Sb2'
_cell_volume   154.78767919
_cell_formula_units_Z   1
loop_
 _symmetry_equiv_pos_site_id
 _symmetry_equiv_pos_as_xyz
  1  'x, y, z'
loop_
 _atom_site_type_symbol
 _atom_site_label
 _atom_site_symmetry_multiplicity
 _atom_site_fract_x
 _atom_site_fract_y
 _atom_site_fract_z
 _atom_site_occupancy
  Sm  Sm0  1  0.500000  0.000000  0.349033  1
  Lu  Lu1  1  0.000000  0.500000  0.656448  1
  Sc  Sc2  1  0.000000  0.000000  0.997042  1
  Sc  Sc3  1  0.500000  0.500000  0.997042  1
  Sb  Sb4  1  0.000000  0.500000  0.265663  1
  Sb  Sb5  1  0.500000  0.000000  0.734774  1
