# generated using pymatgen
data_Hf13Ge3(Rh2N)4
_symmetry_space_group_name_H-M   'P 1'
_cell_length_a   8.53049006
_cell_length_b   8.55698773
_cell_length_c   8.55699000
_cell_angle_alpha   59.99999897
_cell_angle_beta   59.89719235
_cell_angle_gamma   59.89719004
_symmetry_Int_Tables_number   1
_chemical_formula_structural   Hf13Ge3(Rh2N)4
_chemical_formula_sum   'Hf13 Ge3 Rh8 N4'
_cell_volume   440.98547904
_cell_formula_units_Z   1
loop_
 _symmetry_equiv_pos_site_id
 _symmetry_equiv_pos_as_xyz
  1  'x, y, z'
loop_
 _atom_site_type_symbol
 _atom_site_label
 _atom_site_symmetry_multiplicity
 _atom_site_fract_x
 _atom_site_fract_y
 _atom_site_fract_z
 _atom_site_occupancy
  Hf  Hf0  1  0.125000  0.625000  0.625000  1
  Hf  Hf1  1  0.813042  0.811128  0.187915  1
  Hf  Hf2  1  0.191848  0.183249  0.812452  1
  Hf  Hf3  1  0.813042  0.187915  0.811128  1
  Hf  Hf4  1  0.191848  0.812452  0.183249  1
  Hf  Hf5  1  0.191848  0.812452  0.812452  1
  Hf  Hf6  1  0.813042  0.187915  0.187915  1
  Hf  Hf7  1  0.436958  0.438872  0.062085  1
  Hf  Hf8  1  0.058152  0.066751  0.437548  1
  Hf  Hf9  1  0.436958  0.062085  0.438872  1
  Hf  Hf10  1  0.058152  0.437548  0.066751  1
  Hf  Hf11  1  0.058152  0.437548  0.437548  1
  Hf  Hf12  1  0.436958  0.062085  0.062085  1
  Ge  Ge13  1  0.625000  0.125000  0.625000  1
  Ge  Ge14  1  0.625000  0.625000  0.125000  1
  Ge  Ge15  1  0.625000  0.625000  0.625000  1
  Rh  Rh16  1  0.761437  0.412854  0.412854  1
  Rh  Rh17  1  0.411499  0.765079  0.411711  1
  Rh  Rh18  1  0.411499  0.411711  0.765079  1
  Rh  Rh19  1  0.411499  0.411711  0.411711  1
  Rh  Rh20  1  0.488563  0.837146  0.837146  1
  Rh  Rh21  1  0.838501  0.484921  0.838289  1
  Rh  Rh22  1  0.838501  0.838289  0.484921  1
  Rh  Rh23  1  0.838501  0.838289  0.838289  1
  N  N24  1  0.625000  0.125000  0.125000  1
  N  N25  1  0.125000  0.625000  0.125000  1
  N  N26  1  0.125000  0.125000  0.625000  1
  N  N27  1  0.125000  0.125000  0.125000  1
