# generated using pymatgen
data_Sm4Gd2WO12
_symmetry_space_group_name_H-M   'P 1'
_cell_length_a   6.62203520
_cell_length_b   6.63481695
_cell_length_c   6.62048332
_cell_angle_alpha   98.53554362
_cell_angle_beta   98.59361264
_cell_angle_gamma   98.69837352
_symmetry_Int_Tables_number   1
_chemical_formula_structural   Sm4Gd2WO12
_chemical_formula_sum   'Sm4 Gd2 W1 O12'
_cell_volume   279.91776721
_cell_formula_units_Z   1
loop_
 _symmetry_equiv_pos_site_id
 _symmetry_equiv_pos_as_xyz
  1  'x, y, z'
loop_
 _atom_site_type_symbol
 _atom_site_label
 _atom_site_symmetry_multiplicity
 _atom_site_fract_x
 _atom_site_fract_y
 _atom_site_fract_z
 _atom_site_occupancy
  Sm  Sm0  1  0.856972  0.389435  0.688473  1
  Sm  Sm1  1  0.611449  0.312602  0.143629  1
  Sm  Sm2  1  0.311446  0.143107  0.611299  1
  Sm  Sm3  1  0.687525  0.855936  0.388283  1
  Gd  Gd4  1  0.389509  0.685892  0.855325  1
  Gd  Gd5  1  0.144921  0.609982  0.313991  1
  W  W6  1  0.000296  0.999445  0.000223  1
  O  O7  1  0.927283  0.033147  0.707796  1
  O  O8  1  0.967809  0.292111  0.073311  1
  O  O9  1  0.591273  0.177364  0.436366  1
  O  O10  1  0.825171  0.564816  0.407263  1
  O  O11  1  0.292225  0.073284  0.967493  1
  O  O12  1  0.563344  0.410971  0.822499  1
  O  O13  1  0.432392  0.592157  0.176057  1
  O  O14  1  0.706976  0.926676  0.031966  1
  O  O15  1  0.178654  0.437282  0.590941  1
  O  O16  1  0.407487  0.820342  0.565847  1
  O  O17  1  0.032704  0.708547  0.926873  1
  O  O18  1  0.072563  0.966903  0.292365  1
