# generated using pymatgen
data_Ce2IrI
_symmetry_space_group_name_H-M   'P 1'
_cell_length_a   4.18891000
_cell_length_b   4.18890959
_cell_length_c   16.01048200
_cell_angle_alpha   90.00000000
_cell_angle_beta   90.00000000
_cell_angle_gamma   120.00000324
_symmetry_Int_Tables_number   1
_chemical_formula_structural   Ce2IrI
_chemical_formula_sum   'Ce4 Ir2 I2'
_cell_volume   243.29716066
_cell_formula_units_Z   2
loop_
 _symmetry_equiv_pos_site_id
 _symmetry_equiv_pos_as_xyz
  1  'x, y, z'
loop_
 _atom_site_type_symbol
 _atom_site_label
 _atom_site_symmetry_multiplicity
 _atom_site_fract_x
 _atom_site_fract_y
 _atom_site_fract_z
 _atom_site_occupancy
  Ce  Ce0  1  0.333333  0.666667  0.408767  1
  Ce  Ce1  1  0.666667  0.333333  0.908767  1
  Ce  Ce2  1  0.666667  0.333333  0.591233  1
  Ce  Ce3  1  0.333333  0.666667  0.091233  1
  Ir  Ir4  1  0.000000  0.000000  0.500000  1
  Ir  Ir5  1  0.000000  0.000000  0.000000  1
  I  I6  1  0.666667  0.333333  0.250000  1
  I  I7  1  0.333333  0.666667  0.750000  1
