# generated using pymatgen
data_Zr2TaSi2
_symmetry_space_group_name_H-M   'P 1'
_cell_length_a   6.87296700
_cell_length_b   6.87296700
_cell_length_c   3.77209200
_cell_angle_alpha   90.00000000
_cell_angle_beta   90.00000000
_cell_angle_gamma   90.00000000
_symmetry_Int_Tables_number   1
_chemical_formula_structural   Zr2TaSi2
_chemical_formula_sum   'Zr4 Ta2 Si4'
_cell_volume   178.18485741
_cell_formula_units_Z   2
loop_
 _symmetry_equiv_pos_site_id
 _symmetry_equiv_pos_as_xyz
  1  'x, y, z'
loop_
 _atom_site_type_symbol
 _atom_site_label
 _atom_site_symmetry_multiplicity
 _atom_site_fract_x
 _atom_site_fract_y
 _atom_site_fract_z
 _atom_site_occupancy
  Zr  Zr0  1  0.675849  0.175849  0.500000  1
  Zr  Zr1  1  0.324151  0.824151  0.500000  1
  Zr  Zr2  1  0.175849  0.324151  0.500000  1
  Zr  Zr3  1  0.824151  0.675849  0.500000  1
  Ta  Ta4  1  0.000000  0.000000  0.000000  1
  Ta  Ta5  1  0.500000  0.500000  0.000000  1
  Si  Si6  1  0.125357  0.625357  0.000000  1
  Si  Si7  1  0.874643  0.374643  0.000000  1
  Si  Si8  1  0.625357  0.874643  0.000000  1
  Si  Si9  1  0.374643  0.125357  0.000000  1
