# generated using pymatgen
data_Sm8SnIrPt23
_symmetry_space_group_name_H-M   'P 1'
_cell_length_a   8.50284700
_cell_length_b   8.50284700
_cell_length_c   8.51211200
_cell_angle_alpha   90.00000000
_cell_angle_beta   90.00000000
_cell_angle_gamma   90.00000000
_symmetry_Int_Tables_number   1
_chemical_formula_structural   Sm8SnIrPt23
_chemical_formula_sum   'Sm8 Sn1 Ir1 Pt23'
_cell_volume   615.41213870
_cell_formula_units_Z   1
loop_
 _symmetry_equiv_pos_site_id
 _symmetry_equiv_pos_as_xyz
  1  'x, y, z'
loop_
 _atom_site_type_symbol
 _atom_site_label
 _atom_site_symmetry_multiplicity
 _atom_site_fract_x
 _atom_site_fract_y
 _atom_site_fract_z
 _atom_site_occupancy
  Sm  Sm0  1  0.251191  0.251191  0.251035  1
  Sm  Sm1  1  0.747391  0.747391  0.748647  1
  Sm  Sm2  1  0.748809  0.748809  0.251035  1
  Sm  Sm3  1  0.747391  0.252609  0.748647  1
  Sm  Sm4  1  0.252609  0.252609  0.748647  1
  Sm  Sm5  1  0.251191  0.748809  0.251035  1
  Sm  Sm6  1  0.252609  0.747391  0.748647  1
  Sm  Sm7  1  0.748809  0.251191  0.251035  1
  Sn  Sn8  1  0.000000  0.000000  0.999827  1
  Ir  Ir9  1  0.500000  0.500000  0.745648  1
  Pt  Pt10  1  0.268447  0.500000  0.999197  1
  Pt  Pt11  1  0.731553  0.500000  0.999197  1
  Pt  Pt12  1  0.000000  0.268061  0.499686  1
  Pt  Pt13  1  0.500000  0.268447  0.999197  1
  Pt  Pt14  1  0.000000  0.731939  0.499686  1
  Pt  Pt15  1  0.500000  0.731553  0.999197  1
  Pt  Pt16  1  0.500000  0.000000  0.268004  1
  Pt  Pt17  1  0.268061  0.000000  0.499686  1
  Pt  Pt18  1  0.500000  0.000000  0.732037  1
  Pt  Pt19  1  0.731939  0.000000  0.499686  1
  Pt  Pt20  1  0.000000  0.500000  0.268004  1
  Pt  Pt21  1  0.000000  0.500000  0.732037  1
  Pt  Pt22  1  0.256318  0.500000  0.500835  1
  Pt  Pt23  1  0.743682  0.500000  0.500835  1
  Pt  Pt24  1  0.500000  0.256318  0.500835  1
  Pt  Pt25  1  0.500000  0.743682  0.500835  1
  Pt  Pt26  1  0.500000  0.500000  0.255938  1
  Pt  Pt27  1  0.316098  0.000000  0.000244  1
  Pt  Pt28  1  0.683902  0.000000  0.000244  1
  Pt  Pt29  1  0.000000  0.316098  0.000244  1
  Pt  Pt30  1  0.000000  0.683902  0.000244  1
  Pt  Pt31  1  0.000000  0.000000  0.315827  1
  Pt  Pt32  1  0.000000  0.000000  0.684098  1
