# generated using pymatgen
data_Ho8Lu11ScSi15Sn
_symmetry_space_group_name_H-M   'P 1'
_cell_length_a   7.28457908
_cell_length_b   7.59287452
_cell_length_c   14.38012718
_cell_angle_alpha   90.17423063
_cell_angle_beta   89.14744593
_cell_angle_gamma   90.02224414
_symmetry_Int_Tables_number   1
_chemical_formula_structural   Ho8Lu11ScSi15Sn
_chemical_formula_sum   'Ho8 Lu11 Sc1 Si15 Sn1'
_cell_volume   795.28592776
_cell_formula_units_Z   1
loop_
 _symmetry_equiv_pos_site_id
 _symmetry_equiv_pos_as_xyz
  1  'x, y, z'
loop_
 _atom_site_type_symbol
 _atom_site_label
 _atom_site_symmetry_multiplicity
 _atom_site_fract_x
 _atom_site_fract_y
 _atom_site_fract_z
 _atom_site_occupancy
  Ho  Ho0  1  0.014659  0.177319  0.097182  1
  Ho  Ho1  1  0.986269  0.822926  0.905571  1
  Ho  Ho2  1  0.484994  0.679719  0.903990  1
  Ho  Ho3  1  0.989713  0.827839  0.598757  1
  Ho  Ho4  1  0.513971  0.320756  0.097002  1
  Ho  Ho5  1  0.005622  0.171541  0.398179  1
  Ho  Ho6  1  0.513968  0.317819  0.398999  1
  Ho  Ho7  1  0.500116  0.687190  0.600076  1
  Lu  Lu8  1  0.163495  0.508156  0.754035  1
  Lu  Lu9  1  0.835524  0.491761  0.249263  1
  Lu  Lu10  1  0.334769  0.008278  0.248574  1
  Lu  Lu11  1  0.668009  0.990673  0.751537  1
  Lu  Lu12  1  0.342984  0.162848  0.628640  1
  Lu  Lu13  1  0.662029  0.824467  0.373965  1
  Lu  Lu14  1  0.161509  0.684927  0.369537  1
  Lu  Lu15  1  0.668120  0.821491  0.121864  1
  Lu  Lu16  1  0.825830  0.323791  0.625541  1
  Lu  Lu17  1  0.330056  0.178077  0.878748  1
  Lu  Lu18  1  0.829155  0.322711  0.878007  1
  Sc  Sc19  1  0.169488  0.677688  0.125623  1
  Si  Si20  1  0.037363  0.112219  0.752215  1
  Si  Si21  1  0.962541  0.889950  0.244958  1
  Si  Si22  1  0.462320  0.608193  0.245353  1
  Si  Si23  1  0.533034  0.393542  0.753151  1
  Si  Si24  1  0.284584  0.869038  0.753511  1
  Si  Si25  1  0.715671  0.127865  0.246527  1
  Si  Si26  1  0.214924  0.372405  0.247099  1
  Si  Si27  1  0.786212  0.630586  0.752400  1
  Si  Si28  1  0.825637  0.536206  0.458937  1
  Si  Si29  1  0.330306  0.967463  0.458891  1
  Si  Si30  1  0.850721  0.532641  0.041130  1
  Si  Si31  1  0.671093  0.034148  0.538589  1
  Si  Si32  1  0.156548  0.470698  0.964859  1
  Si  Si33  1  0.657358  0.032256  0.961091  1
  Si  Si34  1  0.334985  0.962181  0.040275  1
  Sn  Sn35  1  0.176426  0.460636  0.535923  1
