# generated using pymatgen
data_Ac3ThAu4
_symmetry_space_group_name_H-M   'P 1'
_cell_length_a   4.92293600
_cell_length_b   6.13340315
_cell_length_c   7.87683985
_cell_angle_alpha   87.67414947
_cell_angle_beta   90.00000000
_cell_angle_gamma   90.00000000
_symmetry_Int_Tables_number   1
_chemical_formula_structural   Ac3ThAu4
_chemical_formula_sum   'Ac3 Th1 Au4'
_cell_volume   237.64013616
_cell_formula_units_Z   1
loop_
 _symmetry_equiv_pos_site_id
 _symmetry_equiv_pos_as_xyz
  1  'x, y, z'
loop_
 _atom_site_type_symbol
 _atom_site_label
 _atom_site_symmetry_multiplicity
 _atom_site_fract_x
 _atom_site_fract_y
 _atom_site_fract_z
 _atom_site_occupancy
  Ac  Ac0  1  0.250000  0.352072  0.684923  1
  Ac  Ac1  1  0.250000  0.144466  0.181837  1
  Ac  Ac2  1  0.750000  0.645540  0.314452  1
  Th  Th3  1  0.750000  0.854137  0.816291  1
  Au  Au4  1  0.250000  0.848078  0.564248  1
  Au  Au5  1  0.250000  0.667910  0.023187  1
  Au  Au6  1  0.750000  0.141196  0.465209  1
  Au  Au7  1  0.750000  0.346600  0.949854  1
