# generated using pymatgen
data_Lu4Ge2As4Ir6Ru
_symmetry_space_group_name_H-M   'P 1'
_cell_length_a   7.21075176
_cell_length_b   7.21075151
_cell_length_c   7.20943829
_cell_angle_alpha   109.32527815
_cell_angle_beta   109.32528178
_cell_angle_gamma   109.77084338
_symmetry_Int_Tables_number   1
_chemical_formula_structural   Lu4Ge2As4Ir6Ru
_chemical_formula_sum   'Lu4 Ge2 As4 Ir6 Ru1'
_cell_volume   288.53103899
_cell_formula_units_Z   1
loop_
 _symmetry_equiv_pos_site_id
 _symmetry_equiv_pos_as_xyz
  1  'x, y, z'
loop_
 _atom_site_type_symbol
 _atom_site_label
 _atom_site_symmetry_multiplicity
 _atom_site_fract_x
 _atom_site_fract_y
 _atom_site_fract_z
 _atom_site_occupancy
  Lu  Lu0  1  0.999378  0.999378  0.500998  1
  Lu  Lu1  1  0.999211  0.499211  0.998423  1
  Lu  Lu2  1  0.499211  0.999211  0.998423  1
  Lu  Lu3  1  0.501620  0.501620  0.500998  1
  Ge  Ge4  1  0.686189  0.998949  0.685138  1
  Ge  Ge5  1  0.998949  0.686189  0.685138  1
  As  As6  1  0.684501  0.684501  0.998355  1
  As  As7  1  0.318290  0.998977  0.317268  1
  As  As8  1  0.998977  0.318290  0.317268  1
  As  As9  1  0.313854  0.313854  0.998355  1
  Ir  Ir10  1  0.750268  0.250268  0.500536  1
  Ir  Ir11  1  0.748500  0.500219  0.248720  1
  Ir  Ir12  1  0.500087  0.249502  0.749589  1
  Ir  Ir13  1  0.249502  0.500087  0.749589  1
  Ir  Ir14  1  0.250268  0.750268  0.500536  1
  Ir  Ir15  1  0.500219  0.748500  0.248720  1
  Ru  Ru16  1  0.000974  0.000974  0.001948  1
