# generated using pymatgen
data_Tb3Sc3Ge2Os
_symmetry_space_group_name_H-M   'P 1'
_cell_length_a   7.47837200
_cell_length_b   7.47837052
_cell_length_c   4.28012500
_cell_angle_alpha   90.00000000
_cell_angle_beta   90.00000000
_cell_angle_gamma   119.99999770
_symmetry_Int_Tables_number   1
_chemical_formula_structural   Tb3Sc3Ge2Os
_chemical_formula_sum   'Tb3 Sc3 Ge2 Os1'
_cell_volume   207.30087625
_cell_formula_units_Z   1
loop_
 _symmetry_equiv_pos_site_id
 _symmetry_equiv_pos_as_xyz
  1  'x, y, z'
loop_
 _atom_site_type_symbol
 _atom_site_label
 _atom_site_symmetry_multiplicity
 _atom_site_fract_x
 _atom_site_fract_y
 _atom_site_fract_z
 _atom_site_occupancy
  Tb  Tb0  1  0.415247  0.000000  0.000000  1
  Tb  Tb1  1  0.000000  0.415247  0.000000  1
  Tb  Tb2  1  0.584753  0.584753  0.000000  1
  Sc  Sc3  1  0.762748  0.000000  0.500001  1
  Sc  Sc4  1  0.237252  0.237253  0.500001  1
  Sc  Sc5  1  0.000000  0.762747  0.500001  1
  Ge  Ge6  1  0.666666  0.333333  0.500001  1
  Ge  Ge7  1  0.333334  0.666667  0.500001  1
  Os  Os8  1  0.000000  0.000000  0.000000  1
