# generated using pymatgen
data_YbNi2O3
_symmetry_space_group_name_H-M   'P 1'
_cell_length_a   5.39742846
_cell_length_b   5.39241636
_cell_length_c   10.12899580
_cell_angle_alpha   95.07202064
_cell_angle_beta   100.17499828
_cell_angle_gamma   59.96894519
_symmetry_Int_Tables_number   1
_chemical_formula_structural   YbNi2O3
_chemical_formula_sum   'Yb4 Ni8 O12'
_cell_volume   251.21572740
_cell_formula_units_Z   4
loop_
 _symmetry_equiv_pos_site_id
 _symmetry_equiv_pos_as_xyz
  1  'x, y, z'
loop_
 _atom_site_type_symbol
 _atom_site_label
 _atom_site_symmetry_multiplicity
 _atom_site_fract_x
 _atom_site_fract_y
 _atom_site_fract_z
 _atom_site_occupancy
  Yb  Yb0  1  0.917902  0.664209  0.749998  1
  Yb  Yb1  1  0.249680  0.000643  0.750002  1
  Yb  Yb2  1  0.415432  0.669135  0.250002  1
  Yb  Yb3  1  0.083629  0.332748  0.250001  1
  Ni  Ni4  1  0.583191  0.333668  0.750005  1
  Ni  Ni5  1  0.828970  0.330009  0.499829  1
  Ni  Ni6  1  0.504309  0.003253  0.500204  1
  Ni  Ni7  1  0.166553  0.666734  0.500026  1
  Ni  Ni8  1  0.750129  0.999674  0.249993  1
  Ni  Ni9  1  0.666738  0.666678  0.999968  1
  Ni  Ni10  1  0.341059  0.330007  0.000173  1
  Ni  Ni11  1  0.992402  0.003235  0.999799  1
  O  O12  1  0.944053  0.333668  0.885182  1
  O  O13  1  0.626804  0.018470  0.880259  1
  O  O14  1  0.312157  0.649579  0.884462  1
  O  O15  1  0.538266  0.649586  0.615539  1
  O  O16  1  0.854719  0.018482  0.619741  1
  O  O17  1  0.222274  0.333685  0.614819  1
  O  O18  1  0.794979  0.683805  0.384469  1
  O  O19  1  0.478638  0.314771  0.380288  1
  O  O20  1  0.111059  0.999702  0.385205  1
  O  O21  1  0.706596  0.314774  0.119714  1
  O  O22  1  0.389246  0.999693  0.114791  1
  O  O23  1  0.021216  0.683794  0.115532  1
