# generated using pymatgen
data_Cs6Sc(RhBr6)3
_symmetry_space_group_name_H-M   'P 1'
_cell_length_a   7.81903100
_cell_length_b   7.81903070
_cell_length_c   19.55168900
_cell_angle_alpha   90.00000000
_cell_angle_beta   90.00000000
_cell_angle_gamma   119.99998857
_symmetry_Int_Tables_number   1
_chemical_formula_structural   Cs6Sc(RhBr6)3
_chemical_formula_sum   'Cs6 Sc1 Rh3 Br18'
_cell_volume   1035.19178179
_cell_formula_units_Z   1
loop_
 _symmetry_equiv_pos_site_id
 _symmetry_equiv_pos_as_xyz
  1  'x, y, z'
loop_
 _atom_site_type_symbol
 _atom_site_label
 _atom_site_symmetry_multiplicity
 _atom_site_fract_x
 _atom_site_fract_y
 _atom_site_fract_z
 _atom_site_occupancy
  Cs  Cs0  1  0.333333  0.666667  0.071780  1
  Cs  Cs1  1  0.666667  0.333333  0.931883  1
  Cs  Cs2  1  0.666667  0.333333  0.571258  1
  Cs  Cs3  1  0.333333  0.666667  0.431170  1
  Cs  Cs4  1  0.000000  0.000000  0.250488  1
  Cs  Cs5  1  0.000000  0.000000  0.746370  1
  Sc  Sc6  1  0.333333  0.666667  0.839592  1
  Rh  Rh7  1  0.333333  0.666667  0.666780  1
  Rh  Rh8  1  0.666667  0.333333  0.333653  1
  Rh  Rh9  1  0.666667  0.333333  0.166243  1
  Br  Br10  1  0.182537  0.365074  0.593832  1
  Br  Br11  1  0.818116  0.636233  0.405616  1
  Br  Br12  1  0.634926  0.817463  0.593832  1
  Br  Br13  1  0.818066  0.636132  0.094179  1
  Br  Br14  1  0.363767  0.181884  0.405616  1
  Br  Br15  1  0.171169  0.342338  0.908852  1
  Br  Br16  1  0.182537  0.817463  0.593832  1
  Br  Br17  1  0.363868  0.181934  0.094179  1
  Br  Br18  1  0.818116  0.181884  0.405616  1
  Br  Br19  1  0.657662  0.828831  0.908852  1
  Br  Br20  1  0.818066  0.181934  0.094179  1
  Br  Br21  1  0.171169  0.828831  0.908852  1
  Br  Br22  1  0.521371  0.042743  0.249893  1
  Br  Br23  1  0.485668  0.971336  0.744556  1
  Br  Br24  1  0.957257  0.478629  0.249893  1
  Br  Br25  1  0.028664  0.514332  0.744556  1
  Br  Br26  1  0.521371  0.478629  0.249893  1
  Br  Br27  1  0.485668  0.514332  0.744556  1
