# generated using pymatgen
data_NaTa8SnSe16
_symmetry_space_group_name_H-M   'P 1'
_cell_length_a   7.05674000
_cell_length_b   7.05674041
_cell_length_c   15.16257200
_cell_angle_alpha   90.00000000
_cell_angle_beta   90.00000000
_cell_angle_gamma   120.00000747
_symmetry_Int_Tables_number   1
_chemical_formula_structural   NaTa8SnSe16
_chemical_formula_sum   'Na1 Ta8 Sn1 Se16'
_cell_volume   653.90059593
_cell_formula_units_Z   1
loop_
 _symmetry_equiv_pos_site_id
 _symmetry_equiv_pos_as_xyz
  1  'x, y, z'
loop_
 _atom_site_type_symbol
 _atom_site_label
 _atom_site_symmetry_multiplicity
 _atom_site_fract_x
 _atom_site_fract_y
 _atom_site_fract_z
 _atom_site_occupancy
  Na  Na0  1  0.000000  0.000000  0.000000  1
  Ta  Ta1  1  0.507032  0.492968  0.749266  1
  Ta  Ta2  1  0.014063  0.507032  0.250734  1
  Ta  Ta3  1  0.492968  0.985937  0.250734  1
  Ta  Ta4  1  0.507032  0.014063  0.749266  1
  Ta  Ta5  1  0.985937  0.492968  0.749266  1
  Ta  Ta6  1  0.492968  0.507032  0.250734  1
  Ta  Ta7  1  0.000000  0.000000  0.750050  1
  Ta  Ta8  1  0.000000  0.000000  0.249950  1
  Sn  Sn9  1  0.000000  0.000000  0.500000  1
  Se  Se10  1  0.831589  0.168411  0.358001  1
  Se  Se11  1  0.831589  0.663176  0.358001  1
  Se  Se12  1  0.336824  0.168411  0.358001  1
  Se  Se13  1  0.662989  0.831494  0.856660  1
  Se  Se14  1  0.168411  0.336824  0.641999  1
  Se  Se15  1  0.168506  0.831494  0.856660  1
  Se  Se16  1  0.168506  0.337011  0.856660  1
  Se  Se17  1  0.831494  0.168506  0.143340  1
  Se  Se18  1  0.337011  0.168506  0.143340  1
  Se  Se19  1  0.663176  0.831589  0.641999  1
  Se  Se20  1  0.333333  0.666667  0.138024  1
  Se  Se21  1  0.666667  0.333333  0.636383  1
  Se  Se22  1  0.666667  0.333333  0.861976  1
  Se  Se23  1  0.333333  0.666667  0.363617  1
  Se  Se24  1  0.831494  0.662989  0.143340  1
  Se  Se25  1  0.168411  0.831589  0.641999  1
