# generated using pymatgen
data_Tm20Ir8Pt3Au
_symmetry_space_group_name_H-M   'P 1'
_cell_length_a   10.87311148
_cell_length_b   10.87298597
_cell_length_c   6.30582608
_cell_angle_alpha   90.13999359
_cell_angle_beta   90.01512916
_cell_angle_gamma   90.92418193
_symmetry_Int_Tables_number   1
_chemical_formula_structural   Tm20Ir8Pt3Au
_chemical_formula_sum   'Tm20 Ir8 Pt3 Au1'
_cell_volume   745.39562858
_cell_formula_units_Z   1
loop_
 _symmetry_equiv_pos_site_id
 _symmetry_equiv_pos_as_xyz
  1  'x, y, z'
loop_
 _atom_site_type_symbol
 _atom_site_label
 _atom_site_symmetry_multiplicity
 _atom_site_fract_x
 _atom_site_fract_y
 _atom_site_fract_z
 _atom_site_occupancy
  Tm  Tm0  1  0.293398  0.086887  0.372246  1
  Tm  Tm1  1  0.293038  0.908936  0.879463  1
  Tm  Tm2  1  0.703734  0.091012  0.875774  1
  Tm  Tm3  1  0.703792  0.920325  0.374264  1
  Tm  Tm4  1  0.579465  0.796497  0.865465  1
  Tm  Tm5  1  0.583804  0.210088  0.376957  1
  Tm  Tm6  1  0.404197  0.795484  0.381680  1
  Tm  Tm7  1  0.413965  0.206702  0.876106  1
  Tm  Tm8  1  0.206992  0.415211  0.623105  1
  Tm  Tm9  1  0.210429  0.588595  0.122729  1
  Tm  Tm10  1  0.795793  0.408019  0.118583  1
  Tm  Tm11  1  0.796820  0.580785  0.635522  1
  Tm  Tm12  1  0.924071  0.706963  0.128163  1
  Tm  Tm13  1  0.910943  0.295105  0.623265  1
  Tm  Tm14  1  0.092702  0.705726  0.621319  1
  Tm  Tm15  1  0.091123  0.296606  0.125602  1
  Tm  Tm16  1  0.000978  0.997204  0.500573  1
  Tm  Tm17  1  0.001806  0.999684  0.999593  1
  Tm  Tm18  1  0.496770  0.494996  0.998674  1
  Tm  Tm19  1  0.495821  0.496758  0.501158  1
  Ir  Ir20  1  0.151415  0.847575  0.249141  1
  Ir  Ir21  1  0.653601  0.347249  0.749814  1
  Ir  Ir22  1  0.344890  0.343520  0.250879  1
  Ir  Ir23  1  0.348243  0.652459  0.749912  1
  Ir  Ir24  1  0.499912  0.999589  0.122426  1
  Ir  Ir25  1  0.499896  0.000605  0.620552  1
  Ir  Ir26  1  0.000711  0.500047  0.879464  1
  Ir  Ir27  1  0.999697  0.499740  0.377439  1
  Pt  Pt28  1  0.846925  0.151984  0.250854  1
  Pt  Pt29  1  0.844169  0.845058  0.750454  1
  Pt  Pt30  1  0.153902  0.154716  0.749589  1
  Au  Au31  1  0.657003  0.655868  0.249235  1
