# generated using pymatgen
data_Hf2ZrTaAl3MoN
_symmetry_space_group_name_H-M   'P 1'
_cell_length_a   7.93066600
_cell_length_b   7.93066674
_cell_length_c   5.35647500
_cell_angle_alpha   90.00000000
_cell_angle_beta   90.00000000
_cell_angle_gamma   120.15865975
_symmetry_Int_Tables_number   1
_chemical_formula_structural   Hf2ZrTaAl3MoN
_chemical_formula_sum   'Hf4 Zr2 Ta2 Al6 Mo2 N2'
_cell_volume   291.29465693
_cell_formula_units_Z   2
loop_
 _symmetry_equiv_pos_site_id
 _symmetry_equiv_pos_as_xyz
  1  'x, y, z'
loop_
 _atom_site_type_symbol
 _atom_site_label
 _atom_site_symmetry_multiplicity
 _atom_site_fract_x
 _atom_site_fract_y
 _atom_site_fract_z
 _atom_site_occupancy
  Hf  Hf0  1  0.770028  0.770028  0.248106  1
  Hf  Hf1  1  0.768124  0.998989  0.751682  1
  Hf  Hf2  1  0.998989  0.768124  0.751682  1
  Hf  Hf3  1  0.228556  0.228556  0.751672  1
  Zr  Zr4  1  0.233057  0.000519  0.248543  1
  Zr  Zr5  1  0.000519  0.233057  0.248543  1
  Ta  Ta6  1  0.667408  0.334732  0.999522  1
  Ta  Ta7  1  0.334732  0.667408  0.999522  1
  Al  Al8  1  0.588095  0.000946  0.260684  1
  Al  Al9  1  0.000946  0.588095  0.260684  1
  Al  Al10  1  0.413732  0.413732  0.260726  1
  Al  Al11  1  0.413049  0.000596  0.739487  1
  Al  Al12  1  0.000596  0.413049  0.739487  1
  Al  Al13  1  0.585868  0.585868  0.739383  1
  Mo  Mo14  1  0.667675  0.335221  0.499893  1
  Mo  Mo15  1  0.335221  0.667675  0.499893  1
  N  N16  1  0.997030  0.997030  0.997265  1
  N  N17  1  0.996373  0.996373  0.503226  1
