# generated using pymatgen
data_DyHoB6MoW
_symmetry_space_group_name_H-M   'P 1'
_cell_length_a   3.16861200
_cell_length_b   5.45594490
_cell_length_c   6.83989097
_cell_angle_alpha   77.93272046
_cell_angle_beta   90.00000000
_cell_angle_gamma   90.00000000
_symmetry_Int_Tables_number   1
_chemical_formula_structural   DyHoB6MoW
_chemical_formula_sum   'Dy1 Ho1 B6 Mo1 W1'
_cell_volume   115.63356133
_cell_formula_units_Z   1
loop_
 _symmetry_equiv_pos_site_id
 _symmetry_equiv_pos_as_xyz
  1  'x, y, z'
loop_
 _atom_site_type_symbol
 _atom_site_label
 _atom_site_symmetry_multiplicity
 _atom_site_fract_x
 _atom_site_fract_y
 _atom_site_fract_z
 _atom_site_occupancy
  Dy  Dy0  1  0.250000  0.324754  0.708267  1
  Ho  Ho1  1  0.750000  0.676272  0.290206  1
  B  B2  1  0.250000  0.917719  0.523944  1
  B  B3  1  0.750000  0.080917  0.474560  1
  B  B4  1  0.250000  0.912570  0.005217  1
  B  B5  1  0.750000  0.087208  0.996160  1
  B  B6  1  0.250000  0.583221  0.007580  1
  B  B7  1  0.750000  0.416812  0.993765  1
  Mo  Mo8  1  0.750000  0.812119  0.780163  1
  W  W9  1  0.250000  0.188407  0.220139  1
