# generated using pymatgen
data_Dy3Er5Cd2IrRu
_symmetry_space_group_name_H-M   'P 1'
_cell_length_a   9.58441782
_cell_length_b   9.58441761
_cell_length_c   9.62100600
_cell_angle_alpha   59.87363798
_cell_angle_beta   59.87363873
_cell_angle_gamma   59.72744232
_symmetry_Int_Tables_number   1
_chemical_formula_structural   Dy3Er5Cd2IrRu
_chemical_formula_sum   'Dy6 Er10 Cd4 Ir2 Ru2'
_cell_volume   622.45171197
_cell_formula_units_Z   2
loop_
 _symmetry_equiv_pos_site_id
 _symmetry_equiv_pos_as_xyz
  1  'x, y, z'
loop_
 _atom_site_type_symbol
 _atom_site_label
 _atom_site_symmetry_multiplicity
 _atom_site_fract_x
 _atom_site_fract_y
 _atom_site_fract_z
 _atom_site_occupancy
  Dy  Dy0  1  0.188481  0.809974  0.812506  1
  Dy  Dy1  1  0.809974  0.188481  0.189040  1
  Dy  Dy2  1  0.809974  0.188481  0.812506  1
  Dy  Dy3  1  0.188481  0.809974  0.189040  1
  Dy  Dy4  1  0.811409  0.811409  0.188591  1
  Dy  Dy5  1  0.189111  0.189111  0.810889  1
  Er  Er6  1  0.597905  0.597905  0.597535  1
  Er  Er7  1  0.597905  0.597905  0.206655  1
  Er  Er8  1  0.597016  0.209257  0.596864  1
  Er  Er9  1  0.209257  0.597016  0.596864  1
  Er  Er10  1  0.062152  0.437874  0.439411  1
  Er  Er11  1  0.437874  0.062152  0.060562  1
  Er  Er12  1  0.437874  0.062152  0.439411  1
  Er  Er13  1  0.062152  0.437874  0.060562  1
  Er  Er14  1  0.437803  0.437803  0.062197  1
  Er  Er15  1  0.060049  0.060049  0.439951  1
  Cd  Cd16  1  0.830216  0.830216  0.830519  1
  Cd  Cd17  1  0.830216  0.830216  0.509049  1
  Cd  Cd18  1  0.830396  0.507957  0.830824  1
  Cd  Cd19  1  0.507957  0.830396  0.830824  1
  Ir  Ir20  1  0.393347  0.827271  0.389691  1
  Ir  Ir21  1  0.827271  0.393347  0.389691  1
  Ru  Ru22  1  0.391590  0.391590  0.388011  1
  Ru  Ru23  1  0.391590  0.391590  0.828808  1
