# generated using pymatgen
data_Ce2MnCoSi2C
_symmetry_space_group_name_H-M   'P 1'
_cell_length_a   5.77752942
_cell_length_b   5.77752901
_cell_length_c   7.02521540
_cell_angle_alpha   128.23381587
_cell_angle_beta   128.23380949
_cell_angle_gamma   40.36266895
_symmetry_Int_Tables_number   1
_chemical_formula_structural   Ce2MnCoSi2C
_chemical_formula_sum   'Ce2 Mn1 Co1 Si2 C1'
_cell_volume   114.17957549
_cell_formula_units_Z   1
loop_
 _symmetry_equiv_pos_site_id
 _symmetry_equiv_pos_as_xyz
  1  'x, y, z'
loop_
 _atom_site_type_symbol
 _atom_site_label
 _atom_site_symmetry_multiplicity
 _atom_site_fract_x
 _atom_site_fract_y
 _atom_site_fract_z
 _atom_site_occupancy
  Ce  Ce0  1  0.563459  0.563459  0.297535  1
  Ce  Ce1  1  0.438713  0.438713  0.703851  1
  Mn  Mn2  1  0.803782  0.803782  0.918071  1
  Co  Co3  1  0.199212  0.199212  0.084920  1
  Si  Si4  1  0.837209  0.837209  0.284317  1
  Si  Si5  1  0.161633  0.161633  0.717098  1
  C  C6  1  0.995990  0.995990  0.994206  1
