# generated using pymatgen
data_RbAsPRuRh
_symmetry_space_group_name_H-M   'P 1'
_cell_length_a   7.55293636
_cell_length_b   7.55293592
_cell_length_c   7.55293637
_cell_angle_alpha   149.16485143
_cell_angle_beta   148.94186416
_cell_angle_gamma   44.33304170
_symmetry_Int_Tables_number   1
_chemical_formula_structural   RbAsPRuRh
_chemical_formula_sum   'Rb1 As1 P1 Ru1 Rh1'
_cell_volume   113.60393473
_cell_formula_units_Z   1
loop_
 _symmetry_equiv_pos_site_id
 _symmetry_equiv_pos_as_xyz
  1  'x, y, z'
loop_
 _atom_site_type_symbol
 _atom_site_label
 _atom_site_symmetry_multiplicity
 _atom_site_fract_x
 _atom_site_fract_y
 _atom_site_fract_z
 _atom_site_occupancy
  Rb  Rb0  1  0.003684  0.003684  0.000000  1
  As  As1  1  0.344788  0.344788  0.000000  1
  P  P2  1  0.661893  0.661893  0.000000  1
  Ru  Ru3  1  0.745431  0.245431  0.500000  1
  Rh  Rh4  1  0.244203  0.744203  0.500000  1
