# generated using pymatgen
data_HoEr9Ru4
_symmetry_space_group_name_H-M   'P 1'
_cell_length_a   6.27156243
_cell_length_b   7.24947413
_cell_length_c   8.39069473
_cell_angle_alpha   96.78397978
_cell_angle_beta   112.03826439
_cell_angle_gamma   89.99864412
_symmetry_Int_Tables_number   1
_chemical_formula_structural   HoEr9Ru4
_chemical_formula_sum   'Ho1 Er9 Ru4'
_cell_volume   350.73069388
_cell_formula_units_Z   1
loop_
 _symmetry_equiv_pos_site_id
 _symmetry_equiv_pos_as_xyz
  1  'x, y, z'
loop_
 _atom_site_type_symbol
 _atom_site_label
 _atom_site_symmetry_multiplicity
 _atom_site_fract_x
 _atom_site_fract_y
 _atom_site_fract_z
 _atom_site_occupancy
  Ho  Ho0  1  0.791245  0.584347  0.813380  1
  Er  Er1  1  0.978128  0.915783  0.186401  1
  Er  Er2  1  0.208523  0.415682  0.186660  1
  Er  Er3  1  0.022220  0.084273  0.813867  1
  Er  Er4  1  0.205570  0.684741  0.564970  1
  Er  Er5  1  0.640732  0.815151  0.435090  1
  Er  Er6  1  0.794098  0.315102  0.434757  1
  Er  Er7  1  0.359250  0.184804  0.564845  1
  Er  Er8  1  0.419293  0.749817  0.999919  1
  Er  Er9  1  0.580696  0.250197  0.000161  1
  Ru  Ru10  1  0.602490  0.924189  0.779388  1
  Ru  Ru11  1  0.823303  0.576696  0.220478  1
  Ru  Ru12  1  0.397261  0.076029  0.220454  1
  Ru  Ru13  1  0.177192  0.423190  0.779628  1
