# generated using pymatgen
data_LiBeB14
_symmetry_space_group_name_H-M   'P 1'
_cell_length_a   7.11126224
_cell_length_b   7.11126349
_cell_length_c   7.11126280
_cell_angle_alpha   132.27365381
_cell_angle_beta   110.81264612
_cell_angle_gamma   88.39633236
_symmetry_Int_Tables_number   1
_chemical_formula_structural   LiBeB14
_chemical_formula_sum   'Li2 Be2 B28'
_cell_volume   236.87238114
_cell_formula_units_Z   2
loop_
 _symmetry_equiv_pos_site_id
 _symmetry_equiv_pos_as_xyz
  1  'x, y, z'
loop_
 _atom_site_type_symbol
 _atom_site_label
 _atom_site_symmetry_multiplicity
 _atom_site_fract_x
 _atom_site_fract_y
 _atom_site_fract_z
 _atom_site_occupancy
  Li  Li0  1  0.900310  0.250000  0.650310  1
  Li  Li1  1  0.099690  0.750000  0.349690  1
  Be  Be2  1  0.500000  0.500000  0.500000  1
  Be  Be3  1  0.500000  0.000000  0.000000  1
  B  B4  1  0.727026  0.723786  0.324592  1
  B  B5  1  0.713071  0.338889  0.374183  1
  B  B6  1  0.872790  0.668097  0.703566  1
  B  B7  1  0.127210  0.830775  0.795306  1
  B  B8  1  0.535469  0.831903  0.204694  1
  B  B9  1  0.464531  0.669225  0.296434  1
  B  B10  1  0.127210  0.331903  0.296434  1
  B  B11  1  0.872790  0.169225  0.204694  1
  B  B12  1  0.464531  0.168097  0.795306  1
  B  B13  1  0.535469  0.330775  0.703566  1
  B  B14  1  0.100807  0.776214  0.003240  1
  B  B15  1  0.899193  0.902434  0.675408  1
  B  B16  1  0.899193  0.223786  0.996760  1
  B  B17  1  0.272974  0.597566  0.996760  1
  B  B18  1  0.100807  0.097566  0.324592  1
  B  B19  1  0.535293  0.161111  0.374183  1
  B  B20  1  0.272974  0.276214  0.675408  1
  B  B21  1  0.727026  0.402434  0.003240  1
  B  B22  1  0.742517  0.912008  0.830508  1
  B  B23  1  0.257483  0.087992  0.169492  1
  B  B24  1  0.418500  0.587992  0.830508  1
  B  B25  1  0.581500  0.412008  0.169492  1
  B  B26  1  0.864340  0.832459  0.031881  1
  B  B27  1  0.135660  0.167541  0.968119  1
  B  B28  1  0.699422  0.667541  0.031881  1
  B  B29  1  0.300578  0.332459  0.968119  1
  B  B30  1  0.464707  0.838889  0.625817  1
  B  B31  1  0.286929  0.661111  0.625817  1
