# generated using pymatgen
data_Tb17Dy3(Bi2Rh)4
_symmetry_space_group_name_H-M   'P 1'
_cell_length_a   8.06382804
_cell_length_b   9.03862307
_cell_length_c   12.51625510
_cell_angle_alpha   90.01224995
_cell_angle_beta   89.99203171
_cell_angle_gamma   89.99277772
_symmetry_Int_Tables_number   1
_chemical_formula_structural   Tb17Dy3(Bi2Rh)4
_chemical_formula_sum   'Tb17 Dy3 Bi8 Rh4'
_cell_volume   912.25850722
_cell_formula_units_Z   1
loop_
 _symmetry_equiv_pos_site_id
 _symmetry_equiv_pos_as_xyz
  1  'x, y, z'
loop_
 _atom_site_type_symbol
 _atom_site_label
 _atom_site_symmetry_multiplicity
 _atom_site_fract_x
 _atom_site_fract_y
 _atom_site_fract_z
 _atom_site_occupancy
  Tb  Tb0  1  0.841309  0.749961  0.793815  1
  Tb  Tb1  1  0.158689  0.250021  0.206177  1
  Tb  Tb2  1  0.341296  0.250027  0.706216  1
  Tb  Tb3  1  0.658753  0.749977  0.293791  1
  Tb  Tb4  1  0.374959  0.749981  0.694045  1
  Tb  Tb5  1  0.625108  0.250025  0.305964  1
  Tb  Tb6  1  0.874950  0.250041  0.805997  1
  Tb  Tb7  1  0.125048  0.749956  0.193991  1
  Tb  Tb8  1  0.953992  0.749977  0.501263  1
  Tb  Tb9  1  0.045929  0.250017  0.498747  1
  Tb  Tb10  1  0.454018  0.250045  0.998741  1
  Tb  Tb11  1  0.545991  0.749955  0.001260  1
  Tb  Tb12  1  0.678143  0.040780  0.566036  1
  Tb  Tb13  1  0.321848  0.959261  0.433969  1
  Tb  Tb14  1  0.178133  0.959240  0.933966  1
  Tb  Tb15  1  0.321921  0.540735  0.433991  1
  Tb  Tb16  1  0.821872  0.040754  0.066032  1
  Dy  Dy17  1  0.677936  0.459233  0.566010  1
  Dy  Dy18  1  0.822161  0.459249  0.065976  1
  Dy  Dy19  1  0.177841  0.540755  0.934028  1
  Bi  Bi20  1  0.569337  0.491631  0.826316  1
  Bi  Bi21  1  0.430690  0.508351  0.173650  1
  Bi  Bi22  1  0.069353  0.508358  0.673688  1
  Bi  Bi23  1  0.430605  0.991631  0.173688  1
  Bi  Bi24  1  0.930597  0.491623  0.326290  1
  Bi  Bi25  1  0.569401  0.008365  0.826319  1
  Bi  Bi26  1  0.930607  0.008367  0.326312  1
  Bi  Bi27  1  0.069397  0.991626  0.673686  1
  Rh  Rh28  1  0.570335  0.749953  0.510223  1
  Rh  Rh29  1  0.429817  0.250080  0.489802  1
  Rh  Rh30  1  0.070231  0.250194  0.989803  1
  Rh  Rh31  1  0.929732  0.749831  0.010210  1
