# generated using pymatgen
data_Mg4TaTi(NbN2)6
_symmetry_space_group_name_H-M   'P 1'
_cell_length_a   5.26491600
_cell_length_b   5.26491686
_cell_length_c   10.44715000
_cell_angle_alpha   90.00000000
_cell_angle_beta   90.00000000
_cell_angle_gamma   119.99999458
_symmetry_Int_Tables_number   1
_chemical_formula_structural   Mg4TaTi(NbN2)6
_chemical_formula_sum   'Mg4 Ta1 Ti1 Nb6 N12'
_cell_volume   250.79071288
_cell_formula_units_Z   1
loop_
 _symmetry_equiv_pos_site_id
 _symmetry_equiv_pos_as_xyz
  1  'x, y, z'
loop_
 _atom_site_type_symbol
 _atom_site_label
 _atom_site_symmetry_multiplicity
 _atom_site_fract_x
 _atom_site_fract_y
 _atom_site_fract_z
 _atom_site_occupancy
  Mg  Mg0  1  0.333333  0.666667  0.000000  1
  Mg  Mg1  1  0.333333  0.666667  0.500000  1
  Mg  Mg2  1  0.666667  0.333333  0.500000  1
  Mg  Mg3  1  0.666667  0.333333  0.000000  1
  Ta  Ta4  1  0.000000  0.000000  0.000000  1
  Ti  Ti5  1  0.000000  0.000000  0.500000  1
  Nb  Nb6  1  0.000000  0.338627  0.251148  1
  Nb  Nb7  1  0.661373  0.000000  0.748852  1
  Nb  Nb8  1  0.338627  0.338627  0.748852  1
  Nb  Nb9  1  0.661373  0.661373  0.251148  1
  Nb  Nb10  1  0.338627  0.000000  0.251148  1
  Nb  Nb11  1  0.000000  0.661373  0.748852  1
  N  N12  1  0.674981  0.674981  0.620673  1
  N  N13  1  0.672404  0.672404  0.879987  1
  N  N14  1  0.327596  0.327596  0.120013  1
  N  N15  1  0.325019  0.325019  0.379327  1
  N  N16  1  0.327596  0.000000  0.879987  1
  N  N17  1  0.325019  0.000000  0.620673  1
  N  N18  1  0.000000  0.674981  0.379327  1
  N  N19  1  0.000000  0.672404  0.120013  1
  N  N20  1  0.672404  0.000000  0.120013  1
  N  N21  1  0.674981  0.000000  0.379327  1
  N  N22  1  0.000000  0.327596  0.879987  1
  N  N23  1  0.000000  0.325019  0.620673  1
