# generated using pymatgen
data_La2B4Ru2Rh3
_symmetry_space_group_name_H-M   'P 1'
_cell_length_a   7.58240218
_cell_length_b   6.40062714
_cell_length_c   5.68082953
_cell_angle_alpha   77.49423488
_cell_angle_beta   55.49880389
_cell_angle_gamma   47.00697234
_symmetry_Int_Tables_number   1
_chemical_formula_structural   La2B4Ru2Rh3
_chemical_formula_sum   'La2 B4 Ru2 Rh3'
_cell_volume   159.46746382
_cell_formula_units_Z   1
loop_
 _symmetry_equiv_pos_site_id
 _symmetry_equiv_pos_as_xyz
  1  'x, y, z'
loop_
 _atom_site_type_symbol
 _atom_site_label
 _atom_site_symmetry_multiplicity
 _atom_site_fract_x
 _atom_site_fract_y
 _atom_site_fract_z
 _atom_site_occupancy
  La  La0  1  0.857618  0.857618  0.142382  1
  La  La1  1  0.142382  0.142382  0.857618  1
  B  B2  1  0.796232  0.468377  0.531623  1
  B  B3  1  0.203768  0.531623  0.468377  1
  B  B4  1  0.531623  0.203768  0.796232  1
  B  B5  1  0.468377  0.796232  0.203768  1
  Ru  Ru6  1  0.750000  0.750000  0.750000  1
  Ru  Ru7  1  0.250000  0.250000  0.250000  1
  Rh  Rh8  1  0.500000  0.500000  0.000000  1
  Rh  Rh9  1  0.500000  0.500000  0.500000  1
  Rh  Rh10  1  0.000000  0.000000  0.500000  1
