# generated using pymatgen
data_Yb4Sc4B24IrOs3
_symmetry_space_group_name_H-M   'P 1'
_cell_length_a   3.53736200
_cell_length_b   8.97927051
_cell_length_c   11.36108107
_cell_angle_alpha   90.02703973
_cell_angle_beta   90.00000000
_cell_angle_gamma   90.00000000
_symmetry_Int_Tables_number   1
_chemical_formula_structural   Yb4Sc4B24IrOs3
_chemical_formula_sum   'Yb4 Sc4 B24 Ir1 Os3'
_cell_volume   360.86118567
_cell_formula_units_Z   1
loop_
 _symmetry_equiv_pos_site_id
 _symmetry_equiv_pos_as_xyz
  1  'x, y, z'
loop_
 _atom_site_type_symbol
 _atom_site_label
 _atom_site_symmetry_multiplicity
 _atom_site_fract_x
 _atom_site_fract_y
 _atom_site_fract_z
 _atom_site_occupancy
  Yb  Yb0  1  0.500000  0.320955  0.415612  1
  Yb  Yb1  1  0.500000  0.678042  0.587031  1
  Yb  Yb2  1  0.500000  0.177151  0.914330  1
  Yb  Yb3  1  0.500000  0.824136  0.083246  1
  Sc  Sc4  1  0.500000  0.440770  0.128744  1
  Sc  Sc5  1  0.500000  0.556791  0.869481  1
  Sc  Sc6  1  0.500000  0.056306  0.630891  1
  Sc  Sc7  1  0.500000  0.946051  0.369745  1
  B  B8  1  0.000000  0.095018  0.474380  1
  B  B9  1  0.000000  0.904295  0.525760  1
  B  B10  1  0.000000  0.404499  0.974248  1
  B  B11  1  0.000000  0.595519  0.025861  1
  B  B12  1  0.000000  0.129860  0.317373  1
  B  B13  1  0.000000  0.870113  0.683160  1
  B  B14  1  0.000000  0.370467  0.816732  1
  B  B15  1  0.000000  0.630032  0.182343  1
  B  B16  1  0.000000  0.054487  0.067068  1
  B  B17  1  0.000000  0.945771  0.932545  1
  B  B18  1  0.000000  0.445428  0.567410  1
  B  B19  1  0.000000  0.554722  0.433382  1
  B  B20  1  0.000000  0.482063  0.287259  1
  B  B21  1  0.000000  0.518408  0.713119  1
  B  B22  1  0.000000  0.018156  0.786903  1
  B  B23  1  0.000000  0.982141  0.212989  1
  B  B24  1  0.000000  0.252489  0.082337  1
  B  B25  1  0.000000  0.747373  0.917572  1
  B  B26  1  0.000000  0.246668  0.582531  1
  B  B27  1  0.000000  0.752385  0.418104  1
  B  B28  1  0.000000  0.294130  0.236278  1
  B  B29  1  0.000000  0.705753  0.764229  1
  B  B30  1  0.000000  0.205736  0.735914  1
  B  B31  1  0.000000  0.793880  0.263499  1
  Ir  Ir32  1  0.500000  0.640764  0.317826  1
  Os  Os33  1  0.500000  0.140637  0.182693  1
  Os  Os34  1  0.500000  0.859335  0.817913  1
  Os  Os35  1  0.500000  0.359670  0.681491  1
