# generated using pymatgen
data_DyEr(NiC)2
_symmetry_space_group_name_H-M   'P 1'
_cell_length_a   3.62048000
_cell_length_b   3.62048000
_cell_length_c   6.84226400
_cell_angle_alpha   90.00000000
_cell_angle_beta   90.00000000
_cell_angle_gamma   90.00000000
_symmetry_Int_Tables_number   1
_chemical_formula_structural   DyEr(NiC)2
_chemical_formula_sum   'Dy1 Er1 Ni2 C2'
_cell_volume   89.68754417
_cell_formula_units_Z   1
loop_
 _symmetry_equiv_pos_site_id
 _symmetry_equiv_pos_as_xyz
  1  'x, y, z'
loop_
 _atom_site_type_symbol
 _atom_site_label
 _atom_site_symmetry_multiplicity
 _atom_site_fract_x
 _atom_site_fract_y
 _atom_site_fract_z
 _atom_site_occupancy
  Dy  Dy0  1  0.000000  0.000000  0.750000  1
  Er  Er1  1  0.000000  0.000000  0.250000  1
  Ni  Ni2  1  0.500000  0.500000  0.004900  1
  Ni  Ni3  1  0.500000  0.500000  0.495100  1
  C  C4  1  0.500000  0.000000  0.496771  1
  C  C5  1  0.000000  0.500000  0.003229  1
