# generated using pymatgen
data_Sr2Sc3Si7Pt9
_symmetry_space_group_name_H-M   'P 1'
_cell_length_a   10.19908700
_cell_length_b   10.19908637
_cell_length_c   3.98510700
_cell_angle_alpha   90.00000000
_cell_angle_beta   90.00000000
_cell_angle_gamma   119.99999880
_symmetry_Int_Tables_number   1
_chemical_formula_structural   Sr2Sc3Si7Pt9
_chemical_formula_sum   'Sr2 Sc3 Si7 Pt9'
_cell_volume   358.99895937
_cell_formula_units_Z   1
loop_
 _symmetry_equiv_pos_site_id
 _symmetry_equiv_pos_as_xyz
  1  'x, y, z'
loop_
 _atom_site_type_symbol
 _atom_site_label
 _atom_site_symmetry_multiplicity
 _atom_site_fract_x
 _atom_site_fract_y
 _atom_site_fract_z
 _atom_site_occupancy
  Sr  Sr0  1  0.000000  0.000000  0.000000  1
  Sr  Sr1  1  0.333333  0.666667  0.500000  1
  Sc  Sc2  1  0.892686  0.454060  0.500000  1
  Sc  Sc3  1  0.561374  0.107314  0.500000  1
  Sc  Sc4  1  0.545940  0.438626  0.500000  1
  Si  Si5  1  0.251856  0.204372  0.500000  1
  Si  Si6  1  0.795628  0.047485  0.500000  1
  Si  Si7  1  0.952515  0.748144  0.500000  1
  Si  Si8  1  0.559057  0.647868  0.000000  1
  Si  Si9  1  0.352132  0.911188  0.000000  1
  Si  Si10  1  0.088812  0.440943  0.000000  1
  Si  Si11  1  0.666667  0.333333  0.000000  1
  Pt  Pt12  1  0.223020  0.939299  0.500000  1
  Pt  Pt13  1  0.060701  0.283722  0.500000  1
  Pt  Pt14  1  0.716278  0.776980  0.500000  1
  Pt  Pt15  1  0.312269  0.404532  0.000000  1
  Pt  Pt16  1  0.595468  0.907737  0.000000  1
  Pt  Pt17  1  0.092263  0.687731  0.000000  1
  Pt  Pt18  1  0.390166  0.173632  0.000000  1
  Pt  Pt19  1  0.826368  0.216534  0.000000  1
  Pt  Pt20  1  0.783466  0.609834  0.000000  1
