# generated using pymatgen
data_Y6Er10Cd3AgIr4
_symmetry_space_group_name_H-M   'P 1'
_cell_length_a   9.59370124
_cell_length_b   9.59370084
_cell_length_c   9.59370158
_cell_angle_alpha   59.80464534
_cell_angle_beta   59.80464948
_cell_angle_gamma   59.80465488
_symmetry_Int_Tables_number   1
_chemical_formula_structural   Y6Er10Cd3AgIr4
_chemical_formula_sum   'Y6 Er10 Cd3 Ag1 Ir4'
_cell_volume   621.60344494
_cell_formula_units_Z   1
loop_
 _symmetry_equiv_pos_site_id
 _symmetry_equiv_pos_as_xyz
  1  'x, y, z'
loop_
 _atom_site_type_symbol
 _atom_site_label
 _atom_site_symmetry_multiplicity
 _atom_site_fract_x
 _atom_site_fract_y
 _atom_site_fract_z
 _atom_site_occupancy
  Y  Y0  1  0.937657  0.560432  0.560432  1
  Y  Y1  1  0.560951  0.937417  0.937417  1
  Y  Y2  1  0.560432  0.937657  0.560432  1
  Y  Y3  1  0.937417  0.560951  0.937417  1
  Y  Y4  1  0.560432  0.560432  0.937657  1
  Y  Y5  1  0.937417  0.937417  0.560951  1
  Er  Er6  1  0.348816  0.348816  0.348816  1
  Er  Er7  1  0.349360  0.349360  0.954364  1
  Er  Er8  1  0.349360  0.954364  0.349360  1
  Er  Er9  1  0.954364  0.349360  0.349360  1
  Er  Er10  1  0.810263  0.189089  0.189089  1
  Er  Er11  1  0.186947  0.810106  0.810106  1
  Er  Er12  1  0.189089  0.810263  0.189089  1
  Er  Er13  1  0.810106  0.186947  0.810106  1
  Er  Er14  1  0.189089  0.189089  0.810263  1
  Er  Er15  1  0.810106  0.810106  0.186947  1
  Cd  Cd16  1  0.581300  0.581300  0.259106  1
  Cd  Cd17  1  0.581300  0.259106  0.581300  1
  Cd  Cd18  1  0.259106  0.581300  0.581300  1
  Ag  Ag19  1  0.582512  0.582512  0.582512  1
  Ir  Ir20  1  0.141722  0.141722  0.141722  1
  Ir  Ir21  1  0.142980  0.142980  0.576297  1
  Ir  Ir22  1  0.142980  0.576297  0.142980  1
  Ir  Ir23  1  0.576297  0.142980  0.142980  1
