# generated using pymatgen
data_Dy9ErIn8(IrPt)2
_symmetry_space_group_name_H-M   'P 1'
_cell_length_a   3.63945900
_cell_length_b   8.13444387
_cell_length_c   18.27529778
_cell_angle_alpha   89.95190981
_cell_angle_beta   90.00000000
_cell_angle_gamma   90.00000000
_symmetry_Int_Tables_number   1
_chemical_formula_structural   Dy9ErIn8(IrPt)2
_chemical_formula_sum   'Dy9 Er1 In8 Ir2 Pt2'
_cell_volume   541.03954248
_cell_formula_units_Z   1
loop_
 _symmetry_equiv_pos_site_id
 _symmetry_equiv_pos_as_xyz
  1  'x, y, z'
loop_
 _atom_site_type_symbol
 _atom_site_label
 _atom_site_symmetry_multiplicity
 _atom_site_fract_x
 _atom_site_fract_y
 _atom_site_fract_z
 _atom_site_occupancy
  Dy  Dy0  1  0.000000  0.884762  0.587718  1
  Dy  Dy1  1  0.000000  0.383117  0.913716  1
  Dy  Dy2  1  0.000000  0.616851  0.086294  1
  Dy  Dy3  1  0.000000  0.236905  0.222000  1
  Dy  Dy4  1  0.000000  0.763054  0.778130  1
  Dy  Dy5  1  0.000000  0.248252  0.720391  1
  Dy  Dy6  1  0.000000  0.751877  0.279715  1
  Dy  Dy7  1  0.000000  0.000015  0.999994  1
  Dy  Dy8  1  0.000000  0.499891  0.499954  1
  Er  Er9  1  0.000000  0.114759  0.411514  1
  In  In10  1  0.500000  0.423148  0.351518  1
  In  In11  1  0.500000  0.575658  0.648787  1
  In  In12  1  0.500000  0.072953  0.851137  1
  In  In13  1  0.500000  0.927065  0.148958  1
  In  In14  1  0.500000  0.292287  0.066770  1
  In  In15  1  0.500000  0.707672  0.933218  1
  In  In16  1  0.500000  0.206563  0.567419  1
  In  In17  1  0.500000  0.794452  0.432287  1
  Ir  Ir18  1  0.500000  0.022104  0.304377  1
  Ir  Ir19  1  0.500000  0.978583  0.696117  1
  Pt  Pt20  1  0.500000  0.477315  0.802967  1
  Pt  Pt21  1  0.500000  0.522717  0.197018  1
