# generated using pymatgen
data_Sm5GeRhO12
_symmetry_space_group_name_H-M   'P 1'
_cell_length_a   6.96767580
_cell_length_b   6.96767502
_cell_length_c   7.45189000
_cell_angle_alpha   74.46583914
_cell_angle_beta   74.46583240
_cell_angle_gamma   50.57817995
_symmetry_Int_Tables_number   1
_chemical_formula_structural   Sm5GeRhO12
_chemical_formula_sum   'Sm5 Ge1 Rh1 O12'
_cell_volume   266.92966248
_cell_formula_units_Z   1
loop_
 _symmetry_equiv_pos_site_id
 _symmetry_equiv_pos_as_xyz
  1  'x, y, z'
loop_
 _atom_site_type_symbol
 _atom_site_label
 _atom_site_symmetry_multiplicity
 _atom_site_fract_x
 _atom_site_fract_y
 _atom_site_fract_z
 _atom_site_occupancy
  Sm  Sm0  1  0.299060  0.310099  0.358239  1
  Sm  Sm1  1  0.689901  0.700940  0.641761  1
  Sm  Sm2  1  0.694392  0.691565  0.166659  1
  Sm  Sm3  1  0.308435  0.305608  0.833341  1
  Sm  Sm4  1  0.999731  0.000269  0.500000  1
  Ge  Ge5  1  0.246557  0.753443  0.000000  1
  Rh  Rh6  1  0.757897  0.242103  0.000000  1
  O  O7  1  0.093550  0.596940  0.577814  1
  O  O8  1  0.009519  0.989228  0.175767  1
  O  O9  1  0.403060  0.906450  0.422186  1
  O  O10  1  0.493386  0.506793  0.176755  1
  O  O11  1  0.101346  0.581451  0.078564  1
  O  O12  1  0.902013  0.402626  0.424573  1
  O  O13  1  0.010772  0.990481  0.824233  1
  O  O14  1  0.597374  0.097986  0.575427  1
  O  O15  1  0.493207  0.506614  0.823245  1
  O  O16  1  0.579853  0.098601  0.080230  1
  O  O17  1  0.418549  0.898654  0.921436  1
  O  O18  1  0.901399  0.420147  0.919770  1
