# generated using pymatgen
data_Sr8Sb5I
_symmetry_space_group_name_H-M   'P 1'
_cell_length_a   8.74140973
_cell_length_b   8.74140995
_cell_length_c   8.74140892
_cell_angle_alpha   109.40495593
_cell_angle_beta   109.40495511
_cell_angle_gamma   109.60383310
_symmetry_Int_Tables_number   1
_chemical_formula_structural   Sr8Sb5I
_chemical_formula_sum   'Sr8 Sb5 I1'
_cell_volume   514.18660834
_cell_formula_units_Z   1
loop_
 _symmetry_equiv_pos_site_id
 _symmetry_equiv_pos_as_xyz
  1  'x, y, z'
loop_
 _atom_site_type_symbol
 _atom_site_label
 _atom_site_symmetry_multiplicity
 _atom_site_fract_x
 _atom_site_fract_y
 _atom_site_fract_z
 _atom_site_occupancy
  Sr  Sr0  1  0.744416  0.360403  0.240933  1
  Sr  Sr1  1  0.971616  0.729234  0.091378  1
  Sr  Sr2  1  0.637856  0.880238  0.908622  1
  Sr  Sr3  1  0.119469  0.503483  0.759067  1
  Sr  Sr4  1  0.639597  0.880531  0.384014  1
  Sr  Sr5  1  0.496517  0.255584  0.615986  1
  Sr  Sr6  1  0.270766  0.362144  0.242382  1
  Sr  Sr7  1  0.119762  0.028384  0.757618  1
  Sb  Sb8  1  0.749051  0.633219  0.619463  1
  Sb  Sb9  1  0.366781  0.986244  0.115832  1
  Sb  Sb10  1  0.013756  0.129588  0.380537  1
  Sb  Sb11  1  0.500000  0.500000  0.000000  1
  Sb  Sb12  1  0.870412  0.250949  0.884168  1
  I  I13  1  0.250000  0.750000  0.500000  1
