# generated using pymatgen
data_Ac2ZnO4
_symmetry_space_group_name_H-M   'P 1'
_cell_length_a   4.00735300
_cell_length_b   11.33267900
_cell_length_c   11.81069300
_cell_angle_alpha   90.00000000
_cell_angle_beta   90.00000000
_cell_angle_gamma   90.00000000
_symmetry_Int_Tables_number   1
_chemical_formula_structural   Ac2ZnO4
_chemical_formula_sum   'Ac8 Zn4 O16'
_cell_volume   536.37134561
_cell_formula_units_Z   4
loop_
 _symmetry_equiv_pos_site_id
 _symmetry_equiv_pos_as_xyz
  1  'x, y, z'
loop_
 _atom_site_type_symbol
 _atom_site_label
 _atom_site_symmetry_multiplicity
 _atom_site_fract_x
 _atom_site_fract_y
 _atom_site_fract_z
 _atom_site_occupancy
  Ac  Ac0  1  0.250000  0.307975  0.907477  1
  Ac  Ac1  1  0.250000  0.909685  0.883722  1
  Ac  Ac2  1  0.750000  0.409685  0.616278  1
  Ac  Ac3  1  0.750000  0.807975  0.592523  1
  Ac  Ac4  1  0.250000  0.192025  0.407477  1
  Ac  Ac5  1  0.250000  0.590315  0.383722  1
  Ac  Ac6  1  0.750000  0.090315  0.116278  1
  Ac  Ac7  1  0.750000  0.692025  0.092523  1
  Zn  Zn8  1  0.250000  0.619727  0.807478  1
  Zn  Zn9  1  0.750000  0.119727  0.692522  1
  Zn  Zn10  1  0.250000  0.880273  0.307478  1
  Zn  Zn11  1  0.750000  0.380273  0.192522  1
  O  O12  1  0.250000  0.106946  0.986455  1
  O  O13  1  0.250000  0.674519  0.961269  1
  O  O14  1  0.750000  0.259958  0.784252  1
  O  O15  1  0.250000  0.466052  0.748980  1
  O  O16  1  0.750000  0.966052  0.751020  1
  O  O17  1  0.250000  0.759958  0.715748  1
  O  O18  1  0.750000  0.174519  0.538731  1
  O  O19  1  0.750000  0.606946  0.513545  1
  O  O20  1  0.250000  0.393054  0.486455  1
  O  O21  1  0.250000  0.825481  0.461269  1
  O  O22  1  0.750000  0.240042  0.284252  1
  O  O23  1  0.250000  0.033948  0.248980  1
  O  O24  1  0.750000  0.533948  0.251020  1
  O  O25  1  0.250000  0.740042  0.215748  1
  O  O26  1  0.750000  0.325481  0.038731  1
  O  O27  1  0.750000  0.893054  0.013545  1
