# generated using pymatgen
data_La2Tb4SbRuO14
_symmetry_space_group_name_H-M   'P 1'
_cell_length_a   6.54577583
_cell_length_b   6.54577705
_cell_length_c   7.62932609
_cell_angle_alpha   90.28246085
_cell_angle_beta   89.71753489
_cell_angle_gamma   108.96688485
_symmetry_Int_Tables_number   1
_chemical_formula_structural   La2Tb4SbRuO14
_chemical_formula_sum   'La2 Tb4 Sb1 Ru1 O14'
_cell_volume   309.14125267
_cell_formula_units_Z   1
loop_
 _symmetry_equiv_pos_site_id
 _symmetry_equiv_pos_as_xyz
  1  'x, y, z'
loop_
 _atom_site_type_symbol
 _atom_site_label
 _atom_site_symmetry_multiplicity
 _atom_site_fract_x
 _atom_site_fract_y
 _atom_site_fract_z
 _atom_site_occupancy
  La  La0  1  0.500000  0.500000  0.500000  1
  La  La1  1  0.500000  0.500000  0.000000  1
  Tb  Tb2  1  0.533857  0.000366  0.748630  1
  Tb  Tb3  1  0.000366  0.533857  0.251370  1
  Tb  Tb4  1  0.466143  0.999634  0.251370  1
  Tb  Tb5  1  0.999634  0.466143  0.748630  1
  Sb  Sb6  1  0.000000  0.000000  0.000000  1
  Ru  Ru7  1  0.000000  0.000000  0.500000  1
  O  O8  1  0.685133  0.934660  0.469614  1
  O  O9  1  0.934660  0.685133  0.530386  1
  O  O10  1  0.680603  0.934480  0.028461  1
  O  O11  1  0.934480  0.680603  0.971539  1
  O  O12  1  0.314867  0.065340  0.530386  1
  O  O13  1  0.065340  0.314867  0.469614  1
  O  O14  1  0.319397  0.065520  0.971539  1
  O  O15  1  0.065520  0.319397  0.028461  1
  O  O16  1  0.932485  0.067515  0.748091  1
  O  O17  1  0.067515  0.932485  0.251909  1
  O  O18  1  0.362735  0.637265  0.749900  1
  O  O19  1  0.637265  0.362735  0.250100  1
  O  O20  1  0.642068  0.357932  0.748403  1
  O  O21  1  0.357932  0.642068  0.251597  1
