# generated using pymatgen
data_Pr4GaI6
_symmetry_space_group_name_H-M   'P 1'
_cell_length_a   4.38861600
_cell_length_b   14.68083000
_cell_length_c   15.47789300
_cell_angle_alpha   90.00000000
_cell_angle_beta   90.00000000
_cell_angle_gamma   90.00000000
_symmetry_Int_Tables_number   1
_chemical_formula_structural   Pr4GaI6
_chemical_formula_sum   'Pr8 Ga2 I12'
_cell_volume   997.21782277
_cell_formula_units_Z   2
loop_
 _symmetry_equiv_pos_site_id
 _symmetry_equiv_pos_as_xyz
  1  'x, y, z'
loop_
 _atom_site_type_symbol
 _atom_site_label
 _atom_site_symmetry_multiplicity
 _atom_site_fract_x
 _atom_site_fract_y
 _atom_site_fract_z
 _atom_site_occupancy
  Pr  Pr0  1  0.500000  0.116037  0.343683  1
  Pr  Pr1  1  0.500000  0.883963  0.656317  1
  Pr  Pr2  1  0.500000  0.616037  0.156317  1
  Pr  Pr3  1  0.500000  0.383963  0.843683  1
  Pr  Pr4  1  0.000000  0.116569  0.578229  1
  Pr  Pr5  1  0.000000  0.883431  0.421771  1
  Pr  Pr6  1  0.000000  0.616569  0.921771  1
  Pr  Pr7  1  0.000000  0.383431  0.078229  1
  Ga  Ga8  1  0.500000  0.000000  0.500000  1
  Ga  Ga9  1  0.500000  0.500000  0.000000  1
  I  I10  1  0.500000  0.244789  0.164715  1
  I  I11  1  0.500000  0.755211  0.835285  1
  I  I12  1  0.500000  0.744789  0.335285  1
  I  I13  1  0.500000  0.255211  0.664715  1
  I  I14  1  0.000000  0.258269  0.414944  1
  I  I15  1  0.000000  0.741731  0.585056  1
  I  I16  1  0.000000  0.758269  0.085056  1
  I  I17  1  0.000000  0.241731  0.914944  1
  I  I18  1  0.000000  0.997677  0.240262  1
  I  I19  1  0.000000  0.002323  0.759738  1
  I  I20  1  0.000000  0.497677  0.259738  1
  I  I21  1  0.000000  0.502323  0.740262  1
