# generated using pymatgen
data_Li3GePt
_symmetry_space_group_name_H-M   'P 1'
_cell_length_a   6.71204600
_cell_length_b   6.71204600
_cell_length_c   6.71204600
_cell_angle_alpha   90.00000000
_cell_angle_beta   90.00000000
_cell_angle_gamma   90.00000000
_symmetry_Int_Tables_number   1
_chemical_formula_structural   Li3GePt
_chemical_formula_sum   'Li12 Ge4 Pt4'
_cell_volume   302.38815320
_cell_formula_units_Z   4
loop_
 _symmetry_equiv_pos_site_id
 _symmetry_equiv_pos_as_xyz
  1  'x, y, z'
loop_
 _atom_site_type_symbol
 _atom_site_label
 _atom_site_symmetry_multiplicity
 _atom_site_fract_x
 _atom_site_fract_y
 _atom_site_fract_z
 _atom_site_occupancy
  Li  Li0  1  0.124513  0.197752  0.454710  1
  Li  Li1  1  0.454710  0.124513  0.197752  1
  Li  Li2  1  0.197752  0.454710  0.124513  1
  Li  Li3  1  0.302248  0.545290  0.624513  1
  Li  Li4  1  0.954710  0.375487  0.802248  1
  Li  Li5  1  0.802248  0.954710  0.375487  1
  Li  Li6  1  0.045290  0.875487  0.697752  1
  Li  Li7  1  0.545290  0.624513  0.302248  1
  Li  Li8  1  0.697752  0.045290  0.875487  1
  Li  Li9  1  0.624513  0.302248  0.545290  1
  Li  Li10  1  0.875487  0.697752  0.045290  1
  Li  Li11  1  0.375487  0.802248  0.954710  1
  Ge  Ge12  1  0.939210  0.560790  0.439210  1
  Ge  Ge13  1  0.560790  0.439210  0.939210  1
  Ge  Ge14  1  0.439210  0.939210  0.560790  1
  Ge  Ge15  1  0.060790  0.060790  0.060790  1
  Pt  Pt16  1  0.314827  0.185173  0.814827  1
  Pt  Pt17  1  0.185173  0.814827  0.314827  1
  Pt  Pt18  1  0.814827  0.314827  0.185173  1
  Pt  Pt19  1  0.685173  0.685173  0.685173  1
