# generated using pymatgen
data_Er8Co2CuSi12Rh
_symmetry_space_group_name_H-M   'P 1'
_cell_length_a   8.02958900
_cell_length_b   8.02959007
_cell_length_c   7.83129900
_cell_angle_alpha   90.00000000
_cell_angle_beta   90.00000000
_cell_angle_gamma   119.99999972
_symmetry_Int_Tables_number   1
_chemical_formula_structural   Er8Co2CuSi12Rh
_chemical_formula_sum   'Er8 Co2 Cu1 Si12 Rh1'
_cell_volume   437.27145614
_cell_formula_units_Z   1
loop_
 _symmetry_equiv_pos_site_id
 _symmetry_equiv_pos_as_xyz
  1  'x, y, z'
loop_
 _atom_site_type_symbol
 _atom_site_label
 _atom_site_symmetry_multiplicity
 _atom_site_fract_x
 _atom_site_fract_y
 _atom_site_fract_z
 _atom_site_occupancy
  Er  Er0  1  0.981499  0.490751  0.252281  1
  Er  Er1  1  0.509249  0.490751  0.252281  1
  Er  Er2  1  0.497820  0.995640  0.747736  1
  Er  Er3  1  0.004360  0.502180  0.747736  1
  Er  Er4  1  0.497820  0.502180  0.747736  1
  Er  Er5  1  0.509249  0.018501  0.252281  1
  Er  Er6  1  0.000000  0.000000  0.750140  1
  Er  Er7  1  0.000000  0.000000  0.248999  1
  Co  Co8  1  0.666667  0.333333  0.963732  1
  Co  Co9  1  0.666667  0.333333  0.535414  1
  Cu  Cu10  1  0.333333  0.666667  0.018853  1
  Si  Si11  1  0.166119  0.833881  0.499595  1
  Si  Si12  1  0.166119  0.332238  0.499595  1
  Si  Si13  1  0.667762  0.833881  0.499595  1
  Si  Si14  1  0.344983  0.172492  0.999759  1
  Si  Si15  1  0.827978  0.655956  0.500905  1
  Si  Si16  1  0.827508  0.172492  0.999759  1
  Si  Si17  1  0.827508  0.655017  0.999759  1
  Si  Si18  1  0.166534  0.333068  0.000582  1
  Si  Si19  1  0.666932  0.833466  0.000582  1
  Si  Si20  1  0.344044  0.172022  0.500905  1
  Si  Si21  1  0.827978  0.172022  0.500905  1
  Si  Si22  1  0.166534  0.833466  0.000582  1
  Rh  Rh23  1  0.333333  0.666667  0.480288  1
