# generated using pymatgen
data_YCrClO4
_symmetry_space_group_name_H-M   'P 1'
_cell_length_a   6.16758464
_cell_length_b   6.16758336
_cell_length_c   6.69901187
_cell_angle_alpha   102.49006005
_cell_angle_beta   102.49005347
_cell_angle_gamma   71.63059338
_symmetry_Int_Tables_number   1
_chemical_formula_structural   YCrClO4
_chemical_formula_sum   'Y2 Cr2 Cl2 O8'
_cell_volume   233.07998892
_cell_formula_units_Z   2
loop_
 _symmetry_equiv_pos_site_id
 _symmetry_equiv_pos_as_xyz
  1  'x, y, z'
loop_
 _atom_site_type_symbol
 _atom_site_label
 _atom_site_symmetry_multiplicity
 _atom_site_fract_x
 _atom_site_fract_y
 _atom_site_fract_z
 _atom_site_occupancy
  Y  Y0  1  0.776691  0.776691  0.386051  1
  Y  Y1  1  0.223310  0.223310  0.613950  1
  Cr  Cr2  1  0.359654  0.359654  0.231412  1
  Cr  Cr3  1  0.640346  0.640346  0.768589  1
  Cl  Cl4  1  0.012972  0.012972  0.262757  1
  Cl  Cl5  1  0.987029  0.987029  0.737244  1
  O  O6  1  0.711883  0.711883  0.018781  1
  O  O7  1  0.529169  0.529169  0.275356  1
  O  O8  1  0.489463  0.124150  0.350483  1
  O  O9  1  0.124150  0.489463  0.350483  1
  O  O10  1  0.875851  0.510537  0.649516  1
  O  O11  1  0.510537  0.875851  0.649516  1
  O  O12  1  0.470831  0.470831  0.724645  1
  O  O13  1  0.288116  0.288116  0.981219  1
