# generated using pymatgen
data_Zr8Mn6Fe2Si13As
_symmetry_space_group_name_H-M   'P 1'
_cell_length_a   9.61952792
_cell_length_b   9.61933168
_cell_length_c   9.64129012
_cell_angle_alpha   94.02630485
_cell_angle_beta   94.02877026
_cell_angle_gamma   149.22420918
_symmetry_Int_Tables_number   1
_chemical_formula_structural   Zr8Mn6Fe2Si13As
_chemical_formula_sum   'Zr8 Mn6 Fe2 Si13 As1'
_cell_volume   440.20962500
_cell_formula_units_Z   1
loop_
 _symmetry_equiv_pos_site_id
 _symmetry_equiv_pos_as_xyz
  1  'x, y, z'
loop_
 _atom_site_type_symbol
 _atom_site_label
 _atom_site_symmetry_multiplicity
 _atom_site_fract_x
 _atom_site_fract_y
 _atom_site_fract_z
 _atom_site_occupancy
  Zr  Zr0  1  0.697248  0.498391  0.199820  1
  Zr  Zr1  1  0.497640  0.696303  0.198519  1
  Zr  Zr2  1  0.497250  0.298405  0.800172  1
  Zr  Zr3  1  0.298791  0.497448  0.801467  1
  Zr  Zr4  1  0.862828  0.863089  0.722103  1
  Zr  Zr5  1  0.140987  0.862119  0.000002  1
  Zr  Zr6  1  0.862256  0.141046  0.000001  1
  Zr  Zr7  1  0.140330  0.140590  0.277889  1
  Mn  Mn8  1  0.102294  0.898207  0.500485  1
  Mn  Mn9  1  0.897767  0.397185  0.795394  1
  Mn  Mn10  1  0.602344  0.102815  0.204583  1
  Mn  Mn11  1  0.102347  0.601827  0.204552  1
  Mn  Mn12  1  0.601778  0.397709  0.499520  1
  Mn  Mn13  1  0.397743  0.898313  0.795481  1
  Fe  Fe14  1  0.897697  0.102946  0.500494  1
  Fe  Fe15  1  0.397219  0.602439  0.499513  1
  Si  Si16  1  0.250265  0.250273  0.999998  1
  Si  Si17  1  0.092033  0.500952  0.591223  1
  Si  Si18  1  0.501992  0.090521  0.590319  1
  Si  Si19  1  0.500897  0.909810  0.408785  1
  Si  Si20  1  0.912111  0.500639  0.409686  1
  Si  Si21  1  0.699513  0.998206  0.699879  1
  Si  Si22  1  0.998830  0.700338  0.701810  1
  Si  Si23  1  0.710923  0.712117  0.420740  1
  Si  Si24  1  0.290477  0.710413  0.999997  1
  Si  Si25  1  0.296515  0.998022  0.298178  1
  Si  Si26  1  0.710976  0.291002  0.000005  1
  Si  Si27  1  0.289396  0.290588  0.579264  1
  Si  Si28  1  0.999263  0.297949  0.300125  1
  As  As29  1  0.750291  0.750341  0.999997  1
