# generated using pymatgen
data_MgV4Cu5(SeO3)12
_symmetry_space_group_name_H-M   'P 1'
_cell_length_a   7.79381183
_cell_length_b   8.34416261
_cell_length_c   12.68822336
_cell_angle_alpha   90.08409449
_cell_angle_beta   95.89133883
_cell_angle_gamma   90.08119046
_symmetry_Int_Tables_number   1
_chemical_formula_structural   MgV4Cu5(SeO3)12
_chemical_formula_sum   'Mg1 V4 Cu5 Se12 O36'
_cell_volume   820.79104691
_cell_formula_units_Z   1
loop_
 _symmetry_equiv_pos_site_id
 _symmetry_equiv_pos_as_xyz
  1  'x, y, z'
loop_
 _atom_site_type_symbol
 _atom_site_label
 _atom_site_symmetry_multiplicity
 _atom_site_fract_x
 _atom_site_fract_y
 _atom_site_fract_z
 _atom_site_occupancy
  Mg  Mg0  1  0.119730  0.607947  0.376633  1
  V  V1  1  0.863232  0.496186  0.176053  1
  V  V2  1  0.369866  0.007452  0.178584  1
  V  V3  1  0.130362  0.507415  0.821672  1
  V  V4  1  0.630510  0.994540  0.820300  1
  Cu  Cu5  1  0.639381  0.870667  0.379473  1
  Cu  Cu6  1  0.002346  0.996965  0.498816  1
  Cu  Cu7  1  0.499710  0.498800  0.501451  1
  Cu  Cu8  1  0.864211  0.371178  0.622009  1
  Cu  Cu9  1  0.363270  0.128760  0.620880  1
  Se  Se10  1  0.636958  0.201069  0.042324  1
  Se  Se11  1  0.136248  0.301617  0.043744  1
  Se  Se12  1  0.445957  0.598431  0.216742  1
  Se  Se13  1  0.943509  0.907653  0.214086  1
  Se  Se14  1  0.312282  0.190747  0.396250  1
  Se  Se15  1  0.811593  0.310168  0.396341  1
  Se  Se16  1  0.691393  0.807078  0.604321  1
  Se  Se17  1  0.194777  0.687591  0.603900  1
  Se  Se18  1  0.054922  0.096510  0.783804  1
  Se  Se19  1  0.556635  0.403083  0.785219  1
  Se  Se20  1  0.860174  0.700031  0.956312  1
  Se  Se21  1  0.361891  0.800966  0.956759  1
  O  O22  1  0.743715  0.609690  0.050497  1
  O  O23  1  0.250824  0.889571  0.054439  1
  O  O24  1  0.590235  0.030776  0.112111  1
  O  O25  1  0.088729  0.472799  0.113015  1
  O  O26  1  0.309609  0.231230  0.127759  1
  O  O27  1  0.810279  0.272040  0.127472  1
  O  O28  1  0.975870  0.703092  0.248611  1
  O  O29  1  0.492108  0.802292  0.251824  1
  O  O30  1  0.643253  0.510756  0.252064  1
  O  O31  1  0.145080  0.984300  0.253429  1
  O  O32  1  0.842797  0.973001  0.321438  1
  O  O33  1  0.343161  0.539403  0.322697  1
  O  O34  1  0.461463  0.095321  0.328197  1
  O  O35  1  0.962599  0.413912  0.331113  1
  O  O36  1  0.749038  0.456997  0.485666  1
  O  O37  1  0.249581  0.041935  0.484964  1
  O  O38  1  0.549959  0.730402  0.495994  1
  O  O39  1  0.056070  0.765650  0.496627  1
  O  O40  1  0.950713  0.230152  0.502702  1
  O  O41  1  0.455077  0.265808  0.503673  1
  O  O42  1  0.253237  0.532350  0.520797  1
  O  O43  1  0.753919  0.955302  0.514661  1
  O  O44  1  0.541098  0.904259  0.670650  1
  O  O45  1  0.042215  0.594931  0.672400  1
  O  O46  1  0.657894  0.468900  0.678531  1
  O  O47  1  0.157214  0.030683  0.677716  1
  O  O48  1  0.360313  0.490326  0.751992  1
  O  O49  1  0.856528  0.011634  0.747719  1
  O  O50  1  0.512854  0.198681  0.747190  1
  O  O51  1  0.013273  0.300499  0.747449  1
  O  O52  1  0.187161  0.731408  0.873950  1
  O  O53  1  0.688917  0.772005  0.871455  1
  O  O54  1  0.410011  0.971684  0.887471  1
  O  O55  1  0.908334  0.530145  0.886038  1
  O  O56  1  0.749764  0.113668  0.945616  1
  O  O57  1  0.248141  0.389549  0.946402  1
