# generated using pymatgen
data_Dy5Zr3(Si3Ir4)4
_symmetry_space_group_name_H-M   'P 1'
_cell_length_a   13.04175500
_cell_length_b   13.04175599
_cell_length_c   4.02953800
_cell_angle_alpha   90.00000000
_cell_angle_beta   90.00000000
_cell_angle_gamma   120.00000001
_symmetry_Int_Tables_number   1
_chemical_formula_structural   Dy5Zr3(Si3Ir4)4
_chemical_formula_sum   'Dy5 Zr3 Si12 Ir16'
_cell_volume   593.55093738
_cell_formula_units_Z   1
loop_
 _symmetry_equiv_pos_site_id
 _symmetry_equiv_pos_as_xyz
  1  'x, y, z'
loop_
 _atom_site_type_symbol
 _atom_site_label
 _atom_site_symmetry_multiplicity
 _atom_site_fract_x
 _atom_site_fract_y
 _atom_site_fract_z
 _atom_site_occupancy
  Dy  Dy0  1  0.333333  0.666667  0.500000  1
  Dy  Dy1  1  0.666667  0.333333  0.500000  1
  Dy  Dy2  1  0.000000  0.814949  0.000000  1
  Dy  Dy3  1  0.185051  0.185051  0.000000  1
  Dy  Dy4  1  0.814949  0.000000  0.000000  1
  Zr  Zr5  1  0.000000  0.440516  0.500000  1
  Zr  Zr6  1  0.559484  0.559484  0.500000  1
  Zr  Zr7  1  0.440516  0.000000  0.500000  1
  Si  Si8  1  0.000000  0.643924  0.500000  1
  Si  Si9  1  0.356076  0.356076  0.500000  1
  Si  Si10  1  0.643924  0.000000  0.500000  1
  Si  Si11  1  0.519195  0.695347  0.000000  1
  Si  Si12  1  0.304653  0.823848  0.000000  1
  Si  Si13  1  0.176152  0.480805  0.000000  1
  Si  Si14  1  0.480805  0.176152  0.000000  1
  Si  Si15  1  0.695347  0.519195  0.000000  1
  Si  Si16  1  0.823848  0.304653  0.000000  1
  Si  Si17  1  0.000000  0.181346  0.500000  1
  Si  Si18  1  0.818654  0.818654  0.500000  1
  Si  Si19  1  0.181346  0.000000  0.500000  1
  Ir  Ir20  1  0.509819  0.875068  0.000000  1
  Ir  Ir21  1  0.124932  0.634752  0.000000  1
  Ir  Ir22  1  0.365248  0.490181  0.000000  1
  Ir  Ir23  1  0.490181  0.365248  0.000000  1
  Ir  Ir24  1  0.875068  0.509819  0.000000  1
  Ir  Ir25  1  0.634752  0.124932  0.000000  1
  Ir  Ir26  1  0.000000  0.278193  0.000000  1
  Ir  Ir27  1  0.721807  0.721807  0.000000  1
  Ir  Ir28  1  0.278193  0.000000  0.000000  1
  Ir  Ir29  1  0.627293  0.807957  0.500000  1
  Ir  Ir30  1  0.192043  0.819336  0.500000  1
  Ir  Ir31  1  0.180664  0.372707  0.500000  1
  Ir  Ir32  1  0.372707  0.180664  0.500000  1
  Ir  Ir33  1  0.807957  0.627293  0.500000  1
  Ir  Ir34  1  0.819336  0.192043  0.500000  1
  Ir  Ir35  1  0.000000  0.000000  0.500000  1
