# generated using pymatgen
data_Dy2Ta3Si4
_symmetry_space_group_name_H-M   'P 1'
_cell_length_a   6.85908100
_cell_length_b   7.04563200
_cell_length_c   13.38610900
_cell_angle_alpha   90.00000000
_cell_angle_beta   90.00000000
_cell_angle_gamma   90.00000000
_symmetry_Int_Tables_number   1
_chemical_formula_structural   Dy2Ta3Si4
_chemical_formula_sum   'Dy8 Ta12 Si16'
_cell_volume   646.90460758
_cell_formula_units_Z   4
loop_
 _symmetry_equiv_pos_site_id
 _symmetry_equiv_pos_as_xyz
  1  'x, y, z'
loop_
 _atom_site_type_symbol
 _atom_site_label
 _atom_site_symmetry_multiplicity
 _atom_site_fract_x
 _atom_site_fract_y
 _atom_site_fract_z
 _atom_site_occupancy
  Dy  Dy0  1  0.502206  0.329204  0.095443  1
  Dy  Dy1  1  0.002206  0.170796  0.404557  1
  Dy  Dy2  1  0.497794  0.670796  0.595443  1
  Dy  Dy3  1  0.997794  0.829204  0.904557  1
  Dy  Dy4  1  0.497794  0.670796  0.904557  1
  Dy  Dy5  1  0.997794  0.829204  0.595443  1
  Dy  Dy6  1  0.502206  0.329204  0.404557  1
  Dy  Dy7  1  0.002206  0.170796  0.095443  1
  Ta  Ta8  1  0.664392  0.009871  0.750000  1
  Ta  Ta9  1  0.164392  0.490129  0.750000  1
  Ta  Ta10  1  0.335608  0.990129  0.250000  1
  Ta  Ta11  1  0.835608  0.509871  0.250000  1
  Ta  Ta12  1  0.838250  0.324703  0.625216  1
  Ta  Ta13  1  0.338250  0.175297  0.874784  1
  Ta  Ta14  1  0.161750  0.675297  0.125216  1
  Ta  Ta15  1  0.661750  0.824703  0.374784  1
  Ta  Ta16  1  0.161750  0.675297  0.374784  1
  Ta  Ta17  1  0.661750  0.824703  0.125216  1
  Ta  Ta18  1  0.838250  0.324703  0.874784  1
  Ta  Ta19  1  0.338250  0.175297  0.625216  1
  Si  Si20  1  0.797086  0.627126  0.750000  1
  Si  Si21  1  0.297086  0.872874  0.750000  1
  Si  Si22  1  0.202914  0.372874  0.250000  1
  Si  Si23  1  0.702914  0.127126  0.250000  1
  Si  Si24  1  0.543094  0.376971  0.750000  1
  Si  Si25  1  0.043094  0.123029  0.750000  1
  Si  Si26  1  0.456906  0.623029  0.250000  1
  Si  Si27  1  0.956906  0.876971  0.250000  1
  Si  Si28  1  0.664608  0.036859  0.540710  1
  Si  Si29  1  0.164608  0.463141  0.959290  1
  Si  Si30  1  0.335392  0.963141  0.040710  1
  Si  Si31  1  0.835392  0.536859  0.459290  1
  Si  Si32  1  0.335392  0.963141  0.459290  1
  Si  Si33  1  0.835392  0.536859  0.040710  1
  Si  Si34  1  0.664608  0.036859  0.959290  1
  Si  Si35  1  0.164608  0.463141  0.540710  1
