# generated using pymatgen
data_Se2I2O11
_symmetry_space_group_name_H-M   'P 1'
_cell_length_a   10.02793900
_cell_length_b   10.64029056
_cell_length_c   11.11436200
_cell_angle_alpha   74.58519974
_cell_angle_beta   90.00000000
_cell_angle_gamma   90.00000000
_symmetry_Int_Tables_number   1
_chemical_formula_structural   Se2I2O11
_chemical_formula_sum   'Se8 I8 O44'
_cell_volume   1143.24367007
_cell_formula_units_Z   4
loop_
 _symmetry_equiv_pos_site_id
 _symmetry_equiv_pos_as_xyz
  1  'x, y, z'
loop_
 _atom_site_type_symbol
 _atom_site_label
 _atom_site_symmetry_multiplicity
 _atom_site_fract_x
 _atom_site_fract_y
 _atom_site_fract_z
 _atom_site_occupancy
  Se  Se0  1  0.927534  0.284597  0.093700  1
  Se  Se1  1  0.427534  0.215403  0.906300  1
  Se  Se2  1  0.072466  0.715403  0.906300  1
  Se  Se3  1  0.572466  0.784597  0.093700  1
  Se  Se4  1  0.779637  0.431620  0.480618  1
  Se  Se5  1  0.279637  0.068380  0.519382  1
  Se  Se6  1  0.220363  0.568380  0.519382  1
  Se  Se7  1  0.720363  0.931620  0.480618  1
  I  I8  1  0.119534  0.367297  0.331766  1
  I  I9  1  0.619534  0.132703  0.668234  1
  I  I10  1  0.880466  0.632703  0.668234  1
  I  I11  1  0.380466  0.867297  0.331766  1
  I  I12  1  0.873963  0.615624  0.175165  1
  I  I13  1  0.373963  0.884376  0.824835  1
  I  I14  1  0.126037  0.384376  0.824835  1
  I  I15  1  0.626037  0.115624  0.175165  1
  O  O16  1  0.927236  0.366140  0.512647  1
  O  O17  1  0.427236  0.133860  0.487353  1
  O  O18  1  0.072764  0.633860  0.487353  1
  O  O19  1  0.572764  0.866140  0.512647  1
  O  O20  1  0.756469  0.493305  0.322650  1
  O  O21  1  0.256469  0.006695  0.677350  1
  O  O22  1  0.243531  0.506695  0.677350  1
  O  O23  1  0.743531  0.993305  0.322650  1
  O  O24  1  0.751892  0.557656  0.548039  1
  O  O25  1  0.251892  0.942344  0.451961  1
  O  O26  1  0.248108  0.442344  0.451961  1
  O  O27  1  0.748108  0.057656  0.548039  1
  O  O28  1  0.648519  0.333971  0.521158  1
  O  O29  1  0.148519  0.166029  0.478842  1
  O  O30  1  0.859941  0.428848  0.043976  1
  O  O31  1  0.351481  0.666029  0.478842  1
  O  O32  1  0.615683  0.249704  0.239289  1
  O  O33  1  0.115683  0.250296  0.760711  1
  O  O34  1  0.384317  0.750296  0.760711  1
  O  O35  1  0.884317  0.749704  0.239289  1
  O  O36  1  0.242957  0.855841  0.236981  1
  O  O37  1  0.742957  0.644159  0.763019  1
  O  O38  1  0.757043  0.144159  0.763019  1
  O  O39  1  0.257043  0.355841  0.236981  1
  O  O40  1  0.442610  0.040379  0.237379  1
  O  O41  1  0.942610  0.459621  0.762621  1
  O  O42  1  0.557390  0.959621  0.762621  1
  O  O43  1  0.057390  0.540379  0.237379  1
  O  O44  1  0.673276  0.659298  0.087554  1
  O  O45  1  0.173276  0.840702  0.912446  1
  O  O46  1  0.326724  0.340702  0.912446  1
  O  O47  1  0.826724  0.159298  0.087554  1
  O  O48  1  0.437633  0.761863  0.008417  1
  O  O49  1  0.937633  0.738137  0.991583  1
  O  O50  1  0.562367  0.238137  0.991583  1
  O  O51  1  0.062367  0.261863  0.008417  1
  O  O52  1  0.521986  0.753918  0.245431  1
  O  O53  1  0.021986  0.746082  0.754569  1
  O  O54  1  0.478014  0.246082  0.754569  1
  O  O55  1  0.978014  0.253918  0.245431  1
  O  O56  1  0.640059  0.928848  0.043976  1
  O  O57  1  0.140059  0.571152  0.956024  1
  O  O58  1  0.359941  0.071152  0.956024  1
  O  O59  1  0.851481  0.833971  0.521158  1
