# generated using pymatgen
data_Sm5Y(CoSn6)2
_symmetry_space_group_name_H-M   'P 1'
_cell_length_a   8.57050800
_cell_length_b   8.57050836
_cell_length_c   13.28058100
_cell_angle_alpha   90.00000000
_cell_angle_beta   90.00000000
_cell_angle_gamma   148.87450890
_symmetry_Int_Tables_number   1
_chemical_formula_structural   Sm5Y(CoSn6)2
_chemical_formula_sum   'Sm5 Y1 Co2 Sn12'
_cell_volume   504.25325899
_cell_formula_units_Z   1
loop_
 _symmetry_equiv_pos_site_id
 _symmetry_equiv_pos_as_xyz
  1  'x, y, z'
loop_
 _atom_site_type_symbol
 _atom_site_label
 _atom_site_symmetry_multiplicity
 _atom_site_fract_x
 _atom_site_fract_y
 _atom_site_fract_z
 _atom_site_occupancy
  Sm  Sm0  1  0.899458  0.100542  0.092012  1
  Sm  Sm1  1  0.100455  0.899545  0.592368  1
  Sm  Sm2  1  0.100455  0.899545  0.907632  1
  Sm  Sm3  1  0.100378  0.899622  0.250000  1
  Sm  Sm4  1  0.899458  0.100542  0.407988  1
  Y  Y5  1  0.899158  0.100842  0.750000  1
  Co  Co6  1  0.299354  0.700646  0.250000  1
  Co  Co7  1  0.701177  0.298823  0.750000  1
  Sn  Sn8  1  0.754617  0.245383  0.571821  1
  Sn  Sn9  1  0.429060  0.570940  0.578262  1
  Sn  Sn10  1  0.570665  0.429335  0.422852  1
  Sn  Sn11  1  0.735724  0.264276  0.250000  1
  Sn  Sn12  1  0.265322  0.734678  0.750000  1
  Sn  Sn13  1  0.245551  0.754449  0.071535  1
  Sn  Sn14  1  0.245551  0.754449  0.428465  1
  Sn  Sn15  1  0.570665  0.429335  0.077148  1
  Sn  Sn16  1  0.452792  0.547208  0.250000  1
  Sn  Sn17  1  0.546482  0.453518  0.750000  1
  Sn  Sn18  1  0.754617  0.245383  0.928179  1
  Sn  Sn19  1  0.429060  0.570940  0.921738  1
