# generated using pymatgen
data_Tb2SmWO7
_symmetry_space_group_name_H-M   'P 1'
_cell_length_a   6.51785445
_cell_length_b   6.51785428
_cell_length_c   7.59204700
_cell_angle_alpha   90.00000000
_cell_angle_beta   90.00000000
_cell_angle_gamma   109.21650207
_symmetry_Int_Tables_number   1
_chemical_formula_structural   Tb2SmWO7
_chemical_formula_sum   'Tb4 Sm2 W2 O14'
_cell_volume   304.55779909
_cell_formula_units_Z   2
loop_
 _symmetry_equiv_pos_site_id
 _symmetry_equiv_pos_as_xyz
  1  'x, y, z'
loop_
 _atom_site_type_symbol
 _atom_site_label
 _atom_site_symmetry_multiplicity
 _atom_site_fract_x
 _atom_site_fract_y
 _atom_site_fract_z
 _atom_site_occupancy
  Tb  Tb0  1  0.533599  0.001014  0.750000  1
  Tb  Tb1  1  0.001014  0.533599  0.250000  1
  Tb  Tb2  1  0.466401  0.998986  0.250000  1
  Tb  Tb3  1  0.998986  0.466401  0.750000  1
  Sm  Sm4  1  0.500000  0.500000  0.500000  1
  Sm  Sm5  1  0.500000  0.500000  0.000000  1
  W  W6  1  0.000000  0.000000  0.500000  1
  W  W7  1  0.000000  0.000000  0.000000  1
  O  O8  1  0.678839  0.926159  0.471384  1
  O  O9  1  0.926159  0.678839  0.528616  1
  O  O10  1  0.678839  0.926159  0.028616  1
  O  O11  1  0.926159  0.678839  0.971384  1
  O  O12  1  0.321161  0.073841  0.528616  1
  O  O13  1  0.073841  0.321161  0.471384  1
  O  O14  1  0.321161  0.073841  0.971384  1
  O  O15  1  0.073841  0.321161  0.028616  1
  O  O16  1  0.928091  0.071909  0.750000  1
  O  O17  1  0.071909  0.928091  0.250000  1
  O  O18  1  0.366269  0.633731  0.750000  1
  O  O19  1  0.633731  0.366269  0.250000  1
  O  O20  1  0.638550  0.361450  0.750000  1
  O  O21  1  0.361450  0.638550  0.250000  1
