# generated using pymatgen
data_Nd2AlZnPt8
_symmetry_space_group_name_H-M   'P 1'
_cell_length_a   5.24794431
_cell_length_b   5.24794335
_cell_length_c   8.92455800
_cell_angle_alpha   90.00000000
_cell_angle_beta   90.00000000
_cell_angle_gamma   115.94876706
_symmetry_Int_Tables_number   1
_chemical_formula_structural   Nd2AlZnPt8
_chemical_formula_sum   'Nd2 Al1 Zn1 Pt8'
_cell_volume   221.01128520
_cell_formula_units_Z   1
loop_
 _symmetry_equiv_pos_site_id
 _symmetry_equiv_pos_as_xyz
  1  'x, y, z'
loop_
 _atom_site_type_symbol
 _atom_site_label
 _atom_site_symmetry_multiplicity
 _atom_site_fract_x
 _atom_site_fract_y
 _atom_site_fract_z
 _atom_site_occupancy
  Nd  Nd0  1  0.000000  0.000000  0.755251  1
  Nd  Nd1  1  0.000000  0.000000  0.244749  1
  Al  Al2  1  0.500000  0.500000  0.500000  1
  Zn  Zn3  1  0.500000  0.500000  0.000000  1
  Pt  Pt4  1  0.662206  0.337794  0.748517  1
  Pt  Pt5  1  0.662206  0.337794  0.251483  1
  Pt  Pt6  1  0.337794  0.662206  0.748517  1
  Pt  Pt7  1  0.500000  0.000000  0.500000  1
  Pt  Pt8  1  0.000000  0.500000  0.000000  1
  Pt  Pt9  1  0.500000  0.000000  0.000000  1
  Pt  Pt10  1  0.337794  0.662206  0.251483  1
  Pt  Pt11  1  0.000000  0.500000  0.500000  1
