# generated using pymatgen
data_Dy16NiAg4Ir3
_symmetry_space_group_name_H-M   'P 1'
_cell_length_a   9.45128284
_cell_length_b   9.45128260
_cell_length_c   9.45128228
_cell_angle_alpha   61.00282594
_cell_angle_beta   61.00282686
_cell_angle_gamma   61.00282449
_symmetry_Int_Tables_number   1
_chemical_formula_structural   Dy16NiAg4Ir3
_chemical_formula_sum   'Dy16 Ni1 Ag4 Ir3'
_cell_volume   610.46107494
_cell_formula_units_Z   1
loop_
 _symmetry_equiv_pos_site_id
 _symmetry_equiv_pos_as_xyz
  1  'x, y, z'
loop_
 _atom_site_type_symbol
 _atom_site_label
 _atom_site_symmetry_multiplicity
 _atom_site_fract_x
 _atom_site_fract_y
 _atom_site_fract_z
 _atom_site_occupancy
  Dy  Dy0  1  0.602431  0.602431  0.602431  1
  Dy  Dy1  1  0.600598  0.600598  0.193414  1
  Dy  Dy2  1  0.600598  0.193414  0.600598  1
  Dy  Dy3  1  0.193414  0.600598  0.600598  1
  Dy  Dy4  1  0.063356  0.438612  0.438612  1
  Dy  Dy5  1  0.437887  0.061273  0.061273  1
  Dy  Dy6  1  0.438612  0.063356  0.438612  1
  Dy  Dy7  1  0.061273  0.437887  0.061273  1
  Dy  Dy8  1  0.438612  0.438612  0.063356  1
  Dy  Dy9  1  0.061273  0.061273  0.437887  1
  Dy  Dy10  1  0.186781  0.812549  0.812549  1
  Dy  Dy11  1  0.816072  0.186174  0.186174  1
  Dy  Dy12  1  0.812549  0.186781  0.812549  1
  Dy  Dy13  1  0.186174  0.816072  0.186174  1
  Dy  Dy14  1  0.812549  0.812549  0.186781  1
  Dy  Dy15  1  0.186174  0.186174  0.816072  1
  Ni  Ni16  1  0.391960  0.391960  0.391960  1
  Ag  Ag17  1  0.832311  0.832311  0.832311  1
  Ag  Ag18  1  0.832993  0.832993  0.504067  1
  Ag  Ag19  1  0.832993  0.504067  0.832993  1
  Ag  Ag20  1  0.504067  0.832993  0.832993  1
  Ir  Ir21  1  0.393159  0.393159  0.821001  1
  Ir  Ir22  1  0.393159  0.821001  0.393159  1
  Ir  Ir23  1  0.821001  0.393159  0.393159  1
