# generated using pymatgen
data_Er4Al22GaSiPt9
_symmetry_space_group_name_H-M   'P 1'
_cell_length_a   7.52166320
_cell_length_b   7.51910950
_cell_length_c   13.11056774
_cell_angle_alpha   84.50134829
_cell_angle_beta   100.96958656
_cell_angle_gamma   119.88354034
_symmetry_Int_Tables_number   1
_chemical_formula_structural   Er4Al22GaSiPt9
_chemical_formula_sum   'Er4 Al22 Ga1 Si1 Pt9'
_cell_volume   631.14899969
_cell_formula_units_Z   1
loop_
 _symmetry_equiv_pos_site_id
 _symmetry_equiv_pos_as_xyz
  1  'x, y, z'
loop_
 _atom_site_type_symbol
 _atom_site_label
 _atom_site_symmetry_multiplicity
 _atom_site_fract_x
 _atom_site_fract_y
 _atom_site_fract_z
 _atom_site_occupancy
  Er  Er0  1  0.733509  0.999084  0.192653  1
  Er  Er1  1  0.262266  0.001805  0.807909  1
  Er  Er2  1  0.062365  0.669166  0.192498  1
  Er  Er3  1  0.938763  0.326507  0.807953  1
  Al  Al4  1  0.982161  0.665137  0.943229  1
  Al  Al5  1  0.018546  0.333975  0.055638  1
  Al  Al6  1  0.399547  0.669086  0.816060  1
  Al  Al7  1  0.601679  0.334080  0.183470  1
  Al  Al8  1  0.883553  0.663043  0.671273  1
  Al  Al9  1  0.116668  0.334221  0.329534  1
  Al  Al10  1  0.607795  0.459397  0.815558  1
  Al  Al11  1  0.394981  0.541564  0.183773  1
  Al  Al12  1  0.231370  0.340998  0.670110  1
  Al  Al13  1  0.769610  0.659968  0.329899  1
  Al  Al14  1  0.852972  0.332821  0.559052  1
  Al  Al15  1  0.185797  0.999848  0.559166  1
  Al  Al16  1  0.813976  0.999883  0.442399  1
  Al  Al17  1  0.352394  0.999790  0.055777  1
  Al  Al18  1  0.646382  0.001448  0.943027  1
  Al  Al19  1  0.553964  0.993947  0.671608  1
  Al  Al20  1  0.443530  0.005947  0.329230  1
  Al  Al21  1  0.520438  0.667026  0.561252  1
  Al  Al22  1  0.478943  0.332388  0.438060  1
  Al  Al23  1  0.685628  0.668939  0.050801  1
  Al  Al24  1  0.319796  0.335493  0.952198  1
  Al  Al25  1  0.146684  0.666678  0.440968  1
  Ga  Ga26  1  0.193588  0.132740  0.183312  1
  Si  Si27  1  0.804099  0.865215  0.815589  1
  Pt  Pt28  1  0.330060  0.672887  0.999042  1
  Pt  Pt29  1  0.546307  0.325332  0.637798  1
  Pt  Pt30  1  0.454072  0.675258  0.362269  1
  Pt  Pt31  1  0.887116  0.006052  0.643255  1
  Pt  Pt32  1  0.111255  0.990766  0.362442  1
  Pt  Pt33  1  0.672451  0.330293  0.998988  1
  Pt  Pt34  1  0.204977  0.667288  0.639301  1
  Pt  Pt35  1  0.795572  0.332609  0.361147  1
  Pt  Pt36  1  0.997184  0.999324  0.993764  1
