# generated using pymatgen
data_Zr10Ga2SnBiPb4
_symmetry_space_group_name_H-M   'P 1'
_cell_length_a   8.82197407
_cell_length_b   8.82395305
_cell_length_c   5.97974000
_cell_angle_alpha   90.00000000
_cell_angle_beta   90.00000000
_cell_angle_gamma   119.97784023
_symmetry_Int_Tables_number   1
_chemical_formula_structural   Zr10Ga2SnBiPb4
_chemical_formula_sum   'Zr10 Ga2 Sn1 Bi1 Pb4'
_cell_volume   403.21699782
_cell_formula_units_Z   1
loop_
 _symmetry_equiv_pos_site_id
 _symmetry_equiv_pos_as_xyz
  1  'x, y, z'
loop_
 _atom_site_type_symbol
 _atom_site_label
 _atom_site_symmetry_multiplicity
 _atom_site_fract_x
 _atom_site_fract_y
 _atom_site_fract_z
 _atom_site_occupancy
  Zr  Zr0  1  0.002522  0.267294  0.250000  1
  Zr  Zr1  1  0.735861  0.000210  0.750000  1
  Zr  Zr2  1  0.739924  0.733788  0.250000  1
  Zr  Zr3  1  0.669576  0.336820  0.499787  1
  Zr  Zr4  1  0.999047  0.734047  0.750000  1
  Zr  Zr5  1  0.263620  0.264613  0.750000  1
  Zr  Zr6  1  0.330044  0.664884  0.000102  1
  Zr  Zr7  1  0.669576  0.336820  0.000213  1
  Zr  Zr8  1  0.330044  0.664884  0.499898  1
  Zr  Zr9  1  0.260400  0.996583  0.250000  1
  Ga  Ga10  1  0.000241  0.000234  0.998993  1
  Ga  Ga11  1  0.000241  0.000234  0.501007  1
  Sn  Sn12  1  0.000777  0.611088  0.250000  1
  Bi  Bi13  1  0.611153  0.999956  0.250000  1
  Pb  Pb14  1  0.387537  0.000713  0.750000  1
  Pb  Pb15  1  0.388684  0.387520  0.250000  1
  Pb  Pb16  1  0.999412  0.387746  0.750000  1
  Pb  Pb17  1  0.611340  0.612566  0.750000  1
