# generated using pymatgen
data_YHo9Si6O
_symmetry_space_group_name_H-M   'P 1'
_cell_length_a   8.38491492
_cell_length_b   8.38312585
_cell_length_c   6.25502769
_cell_angle_alpha   90.02689374
_cell_angle_beta   89.94621715
_cell_angle_gamma   120.00705197
_symmetry_Int_Tables_number   1
_chemical_formula_structural   YHo9Si6O
_chemical_formula_sum   'Y1 Ho9 Si6 O1'
_cell_volume   380.74434177
_cell_formula_units_Z   1
loop_
 _symmetry_equiv_pos_site_id
 _symmetry_equiv_pos_as_xyz
  1  'x, y, z'
loop_
 _atom_site_type_symbol
 _atom_site_label
 _atom_site_symmetry_multiplicity
 _atom_site_fract_x
 _atom_site_fract_y
 _atom_site_fract_z
 _atom_site_occupancy
  Y  Y0  1  0.236659  0.000000  0.741547  1
  Ho  Ho1  1  0.333372  0.666469  0.499940  1
  Ho  Ho2  1  0.666905  0.333531  0.499940  1
  Ho  Ho3  1  0.666904  0.333553  0.000061  1
  Ho  Ho4  1  0.333350  0.666447  0.000061  1
  Ho  Ho5  1  0.999774  0.763718  0.259715  1
  Ho  Ho6  1  0.236055  0.236282  0.259715  1
  Ho  Ho7  1  0.764007  0.000000  0.259586  1
  Ho  Ho8  1  0.999897  0.236233  0.740313  1
  Ho  Ho9  1  0.763664  0.763767  0.740313  1
  Si  Si10  1  0.000044  0.396979  0.249577  1
  Si  Si11  1  0.603066  0.603021  0.249577  1
  Si  Si12  1  0.397029  0.000000  0.249553  1
  Si  Si13  1  0.999628  0.602402  0.750414  1
  Si  Si14  1  0.397227  0.397598  0.750414  1
  Si  Si15  1  0.603530  0.000000  0.750316  1
  O  O16  1  0.998887  0.000000  0.498953  1
