# generated using pymatgen
data_VPd5Au2
_symmetry_space_group_name_H-M   'P 1'
_cell_length_a   8.36001590
_cell_length_b   8.36001570
_cell_length_c   8.36001806
_cell_angle_alpha   152.22899376
_cell_angle_beta   152.22899168
_cell_angle_gamma   39.67899077
_symmetry_Int_Tables_number   1
_chemical_formula_structural   VPd5Au2
_chemical_formula_sum   'V1 Pd5 Au2'
_cell_volume   126.60970844
_cell_formula_units_Z   1
loop_
 _symmetry_equiv_pos_site_id
 _symmetry_equiv_pos_as_xyz
  1  'x, y, z'
loop_
 _atom_site_type_symbol
 _atom_site_label
 _atom_site_symmetry_multiplicity
 _atom_site_fract_x
 _atom_site_fract_y
 _atom_site_fract_z
 _atom_site_occupancy
  V  V0  1  0.000000  0.000000  0.000000  1
  Pd  Pd1  1  0.500000  0.500000  0.000000  1
  Pd  Pd2  1  0.883511  0.383511  0.500000  1
  Pd  Pd3  1  0.383511  0.883511  0.500000  1
  Pd  Pd4  1  0.116489  0.616489  0.500000  1
  Pd  Pd5  1  0.616489  0.116489  0.500000  1
  Au  Au6  1  0.748359  0.748359  0.000000  1
  Au  Au7  1  0.251641  0.251641  0.000000  1
