# generated using pymatgen
data_CaTm(Si2Ir)2
_symmetry_space_group_name_H-M   'P 1'
_cell_length_a   4.24616567
_cell_length_b   8.68823497
_cell_length_c   9.28158700
_cell_angle_alpha   117.90688632
_cell_angle_beta   103.22298568
_cell_angle_gamma   89.99999742
_symmetry_Int_Tables_number   1
_chemical_formula_structural   CaTm(Si2Ir)2
_chemical_formula_sum   'Ca2 Tm2 Si8 Ir4'
_cell_volume   292.28139434
_cell_formula_units_Z   2
loop_
 _symmetry_equiv_pos_site_id
 _symmetry_equiv_pos_as_xyz
  1  'x, y, z'
loop_
 _atom_site_type_symbol
 _atom_site_label
 _atom_site_symmetry_multiplicity
 _atom_site_fract_x
 _atom_site_fract_y
 _atom_site_fract_z
 _atom_site_occupancy
  Ca  Ca0  1  0.000000  0.255451  0.000000  1
  Ca  Ca1  1  0.000000  0.744549  0.000000  1
  Tm  Tm2  1  0.206700  0.706699  0.413400  1
  Tm  Tm3  1  0.793300  0.293300  0.586599  1
  Si  Si4  1  0.580870  0.080870  0.161742  1
  Si  Si5  1  0.577490  0.577490  0.154982  1
  Si  Si6  1  0.199298  0.047948  0.398596  1
  Si  Si7  1  0.199298  0.350648  0.398596  1
  Si  Si8  1  0.800702  0.649351  0.601403  1
  Si  Si9  1  0.800702  0.952052  0.601403  1
  Si  Si10  1  0.422510  0.422510  0.845019  1
  Si  Si11  1  0.419129  0.919129  0.838258  1
  Ir  Ir12  1  0.648556  0.398413  0.297112  1
  Ir  Ir13  1  0.648556  0.898700  0.297112  1
  Ir  Ir14  1  0.351444  0.101301  0.702888  1
  Ir  Ir15  1  0.351444  0.601587  0.702888  1
