# generated using pymatgen
data_K2YbGdB24
_symmetry_space_group_name_H-M   'P 1'
_cell_length_a   4.17308400
_cell_length_b   4.17308400
_cell_length_c   16.70800500
_cell_angle_alpha   90.00000000
_cell_angle_beta   90.00000000
_cell_angle_gamma   90.00000000
_symmetry_Int_Tables_number   1
_chemical_formula_structural   K2YbGdB24
_chemical_formula_sum   'K2 Yb1 Gd1 B24'
_cell_volume   290.96372630
_cell_formula_units_Z   1
loop_
 _symmetry_equiv_pos_site_id
 _symmetry_equiv_pos_as_xyz
  1  'x, y, z'
loop_
 _atom_site_type_symbol
 _atom_site_label
 _atom_site_symmetry_multiplicity
 _atom_site_fract_x
 _atom_site_fract_y
 _atom_site_fract_z
 _atom_site_occupancy
  K  K0  1  0.000000  0.000000  0.252218  1
  K  K1  1  0.000000  0.000000  0.747782  1
  Yb  Yb2  1  0.000000  0.000000  0.500000  1
  Gd  Gd3  1  0.000000  0.000000  0.000000  1
  B  B4  1  0.201502  0.500000  0.122388  1
  B  B5  1  0.200161  0.500000  0.377012  1
  B  B6  1  0.200161  0.500000  0.622988  1
  B  B7  1  0.201502  0.500000  0.877612  1
  B  B8  1  0.500000  0.500000  0.198611  1
  B  B9  1  0.500000  0.500000  0.450852  1
  B  B10  1  0.500000  0.500000  0.698728  1
  B  B11  1  0.500000  0.500000  0.950959  1
  B  B12  1  0.500000  0.201502  0.122388  1
  B  B13  1  0.500000  0.200161  0.377012  1
  B  B14  1  0.500000  0.200161  0.622988  1
  B  B15  1  0.500000  0.201502  0.877612  1
  B  B16  1  0.500000  0.500000  0.049041  1
  B  B17  1  0.500000  0.500000  0.301272  1
  B  B18  1  0.500000  0.500000  0.549148  1
  B  B19  1  0.500000  0.500000  0.801389  1
  B  B20  1  0.500000  0.798498  0.122388  1
  B  B21  1  0.500000  0.799839  0.377012  1
  B  B22  1  0.500000  0.799839  0.622988  1
  B  B23  1  0.500000  0.798498  0.877612  1
  B  B24  1  0.798498  0.500000  0.122388  1
  B  B25  1  0.799839  0.500000  0.377012  1
  B  B26  1  0.799839  0.500000  0.622988  1
  B  B27  1  0.798498  0.500000  0.877612  1
