# generated using pymatgen
data_CdAg2(PSe3)2
_symmetry_space_group_name_H-M   'P 1'
_cell_length_a   6.78623400
_cell_length_b   6.78623426
_cell_length_c   15.09182991
_cell_angle_alpha   86.28032447
_cell_angle_beta   86.28032338
_cell_angle_gamma   119.94067424
_symmetry_Int_Tables_number   1
_chemical_formula_structural   CdAg2(PSe3)2
_chemical_formula_sum   'Cd2 Ag4 P4 Se12'
_cell_volume   597.18566534
_cell_formula_units_Z   2
loop_
 _symmetry_equiv_pos_site_id
 _symmetry_equiv_pos_as_xyz
  1  'x, y, z'
loop_
 _atom_site_type_symbol
 _atom_site_label
 _atom_site_symmetry_multiplicity
 _atom_site_fract_x
 _atom_site_fract_y
 _atom_site_fract_z
 _atom_site_occupancy
  Cd  Cd0  1  0.424583  0.575417  0.250000  1
  Cd  Cd1  1  0.575417  0.424583  0.750000  1
  Ag  Ag2  1  0.058861  0.877577  0.351659  1
  Ag  Ag3  1  0.941139  0.122423  0.648341  1
  Ag  Ag4  1  0.122423  0.941139  0.148341  1
  Ag  Ag5  1  0.877577  0.058861  0.851659  1
  P  P6  1  0.218045  0.733292  0.828080  1
  P  P7  1  0.781955  0.266708  0.171920  1
  P  P8  1  0.266708  0.781955  0.671920  1
  P  P9  1  0.733292  0.218045  0.328080  1
  Se  Se10  1  0.488956  0.672809  0.876173  1
  Se  Se11  1  0.511044  0.327191  0.123827  1
  Se  Se12  1  0.327191  0.511044  0.623827  1
  Se  Se13  1  0.672809  0.488956  0.376173  1
  Se  Se14  1  0.049501  0.249938  0.376912  1
  Se  Se15  1  0.950499  0.750062  0.623088  1
  Se  Se16  1  0.750062  0.950499  0.123088  1
  Se  Se17  1  0.249938  0.049501  0.876912  1
  Se  Se18  1  0.126356  0.565151  0.124904  1
  Se  Se19  1  0.873644  0.434849  0.875096  1
  Se  Se20  1  0.434849  0.873644  0.375096  1
  Se  Se21  1  0.565151  0.126356  0.624904  1
