# generated using pymatgen
data_BaIrPbO6
_symmetry_space_group_name_H-M   'P 1'
_cell_length_a   5.62251017
_cell_length_b   5.62256564
_cell_length_c   5.68937923
_cell_angle_alpha   89.97226373
_cell_angle_beta   89.99868739
_cell_angle_gamma   120.02778576
_symmetry_Int_Tables_number   1
_chemical_formula_structural   BaIrPbO6
_chemical_formula_sum   'Ba1 Ir1 Pb1 O6'
_cell_volume   155.71790844
_cell_formula_units_Z   1
loop_
 _symmetry_equiv_pos_site_id
 _symmetry_equiv_pos_as_xyz
  1  'x, y, z'
loop_
 _atom_site_type_symbol
 _atom_site_label
 _atom_site_symmetry_multiplicity
 _atom_site_fract_x
 _atom_site_fract_y
 _atom_site_fract_z
 _atom_site_occupancy
  Ba  Ba0  1  0.999997  0.999981  0.000010  1
  Ir  Ir1  1  0.666469  0.333436  0.499894  1
  Pb  Pb2  1  0.333333  0.666638  0.500131  1
  O  O3  1  0.644965  0.040221  0.303468  1
  O  O4  1  0.395457  0.355027  0.303437  1
  O  O5  1  0.959493  0.604518  0.303491  1
  O  O6  1  0.395529  0.040587  0.696511  1
  O  O7  1  0.959722  0.354975  0.696552  1
  O  O8  1  0.645036  0.604619  0.696504  1
