# generated using pymatgen
data_Zr6Ti16Re5Os2
_symmetry_space_group_name_H-M   'P 1'
_cell_length_a   8.99271006
_cell_length_b   8.99270970
_cell_length_c   9.04380000
_cell_angle_alpha   59.81188542
_cell_angle_beta   59.81188675
_cell_angle_gamma   60.37623926
_symmetry_Int_Tables_number   1
_chemical_formula_structural   Zr6Ti16Re5Os2
_chemical_formula_sum   'Zr6 Ti16 Re5 Os2'
_cell_volume   517.11716820
_cell_formula_units_Z   1
loop_
 _symmetry_equiv_pos_site_id
 _symmetry_equiv_pos_as_xyz
  1  'x, y, z'
loop_
 _atom_site_type_symbol
 _atom_site_label
 _atom_site_symmetry_multiplicity
 _atom_site_fract_x
 _atom_site_fract_y
 _atom_site_fract_z
 _atom_site_occupancy
  Zr  Zr0  1  0.690580  0.690580  0.309420  1
  Zr  Zr1  1  0.306848  0.693152  0.306848  1
  Zr  Zr2  1  0.693152  0.306848  0.306848  1
  Zr  Zr3  1  0.309420  0.309420  0.690580  1
  Zr  Zr4  1  0.693152  0.306848  0.693152  1
  Zr  Zr5  1  0.306848  0.693152  0.693152  1
  Ti  Ti6  1  0.881937  0.881937  0.351453  1
  Ti  Ti7  1  0.884675  0.351453  0.881937  1
  Ti  Ti8  1  0.351453  0.884675  0.881937  1
  Ti  Ti9  1  0.881937  0.881937  0.884675  1
  Ti  Ti10  1  0.118063  0.118063  0.648547  1
  Ti  Ti11  1  0.115325  0.648547  0.118063  1
  Ti  Ti12  1  0.648547  0.115325  0.118063  1
  Ti  Ti13  1  0.118063  0.118063  0.115325  1
  Ti  Ti14  1  0.666872  0.666872  0.995272  1
  Ti  Ti15  1  0.670980  0.995272  0.666872  1
  Ti  Ti16  1  0.995272  0.670980  0.666872  1
  Ti  Ti17  1  0.666872  0.666872  0.670980  1
  Ti  Ti18  1  0.333128  0.333128  0.004728  1
  Ti  Ti19  1  0.329020  0.004728  0.333128  1
  Ti  Ti20  1  0.004728  0.329020  0.333128  1
  Ti  Ti21  1  0.333128  0.333128  0.329020  1
  Re  Re22  1  0.000000  0.000000  0.000000  1
  Re  Re23  1  0.500000  0.000000  0.500000  1
  Re  Re24  1  0.000000  0.500000  0.500000  1
  Re  Re25  1  0.000000  0.500000  0.000000  1
  Re  Re26  1  0.500000  0.000000  0.000000  1
  Os  Os27  1  0.000000  0.000000  0.500000  1
  Os  Os28  1  0.500000  0.500000  0.000000  1
