# generated using pymatgen
data_Gd3Ga2Si3
_symmetry_space_group_name_H-M   'P 1'
_cell_length_a   5.97416770
_cell_length_b   9.44661800
_cell_length_c   11.57340700
_cell_angle_alpha   90.00000000
_cell_angle_beta   89.92810894
_cell_angle_gamma   90.00000000
_symmetry_Int_Tables_number   1
_chemical_formula_structural   Gd3Ga2Si3
_chemical_formula_sum   'Gd12 Ga8 Si12'
_cell_volume   653.15258162
_cell_formula_units_Z   4
loop_
 _symmetry_equiv_pos_site_id
 _symmetry_equiv_pos_as_xyz
  1  'x, y, z'
loop_
 _atom_site_type_symbol
 _atom_site_label
 _atom_site_symmetry_multiplicity
 _atom_site_fract_x
 _atom_site_fract_y
 _atom_site_fract_z
 _atom_site_occupancy
  Gd  Gd0  1  0.864863  0.750000  0.080468  1
  Gd  Gd1  1  0.634006  0.750000  0.580133  1
  Gd  Gd2  1  0.134405  0.250000  0.919811  1
  Gd  Gd3  1  0.366080  0.250000  0.419512  1
  Gd  Gd4  1  0.876476  0.498864  0.349732  1
  Gd  Gd5  1  0.623199  0.000147  0.849989  1
  Gd  Gd6  1  0.123740  0.998959  0.650678  1
  Gd  Gd7  1  0.376498  0.500173  0.149894  1
  Gd  Gd8  1  0.123740  0.501041  0.650678  1
  Gd  Gd9  1  0.376498  0.999827  0.149894  1
  Gd  Gd10  1  0.876476  0.001136  0.349732  1
  Gd  Gd11  1  0.623199  0.499853  0.849989  1
  Ga  Ga12  1  0.865620  0.055360  0.089345  1
  Ga  Ga13  1  0.634838  0.444445  0.589240  1
  Ga  Ga14  1  0.133694  0.555690  0.911525  1
  Ga  Ga15  1  0.364983  0.944365  0.409930  1
  Ga  Ga16  1  0.133694  0.944310  0.911525  1
  Ga  Ga17  1  0.364983  0.555635  0.409930  1
  Ga  Ga18  1  0.865620  0.444640  0.089345  1
  Ga  Ga19  1  0.634838  0.055555  0.589240  1
  Si  Si20  1  0.338508  0.750000  0.777440  1
  Si  Si21  1  0.838482  0.250000  0.723171  1
  Si  Si22  1  0.661784  0.250000  0.222511  1
  Si  Si23  1  0.393774  0.750000  0.992246  1
  Si  Si24  1  0.105954  0.750000  0.491568  1
  Si  Si25  1  0.607144  0.250000  0.007463  1
  Si  Si26  1  0.894893  0.250000  0.508436  1
  Si  Si27  1  0.582560  0.750000  0.298562  1
  Si  Si28  1  0.917425  0.750000  0.799348  1
  Si  Si29  1  0.417625  0.250000  0.701193  1
  Si  Si30  1  0.082781  0.250000  0.200628  1
  Si  Si31  1  0.161620  0.750000  0.276842  1
