# generated using pymatgen
data_Li2LaP2Au
_symmetry_space_group_name_H-M   'P 1'
_cell_length_a   4.15940600
_cell_length_b   4.15940627
_cell_length_c   6.91618100
_cell_angle_alpha   90.00000000
_cell_angle_beta   90.00000000
_cell_angle_gamma   120.00001372
_symmetry_Int_Tables_number   1
_chemical_formula_structural   Li2LaP2Au
_chemical_formula_sum   'Li2 La1 P2 Au1'
_cell_volume   103.62381535
_cell_formula_units_Z   1
loop_
 _symmetry_equiv_pos_site_id
 _symmetry_equiv_pos_as_xyz
  1  'x, y, z'
loop_
 _atom_site_type_symbol
 _atom_site_label
 _atom_site_symmetry_multiplicity
 _atom_site_fract_x
 _atom_site_fract_y
 _atom_site_fract_z
 _atom_site_occupancy
  Li  Li0  1  0.000000  0.000000  0.510771  1
  Li  Li1  1  0.333333  0.666667  0.639778  1
  La  La2  1  0.000000  0.000000  0.004014  1
  P  P3  1  0.333333  0.666667  0.251760  1
  P  P4  1  0.666667  0.333333  0.738697  1
  Au  Au5  1  0.666667  0.333333  0.354981  1
