# generated using pymatgen
data_ThP2(SeS)3
_symmetry_space_group_name_H-M   'P 1'
_cell_length_a   7.20543818
_cell_length_b   7.20554550
_cell_length_c   10.22681092
_cell_angle_alpha   90.29450693
_cell_angle_beta   89.50808501
_cell_angle_gamma   90.00223485
_symmetry_Int_Tables_number   1
_chemical_formula_structural   ThP2(SeS)3
_chemical_formula_sum   'Th2 P4 Se6 S6'
_cell_volume   530.94036533
_cell_formula_units_Z   2
loop_
 _symmetry_equiv_pos_site_id
 _symmetry_equiv_pos_as_xyz
  1  'x, y, z'
loop_
 _atom_site_type_symbol
 _atom_site_label
 _atom_site_symmetry_multiplicity
 _atom_site_fract_x
 _atom_site_fract_y
 _atom_site_fract_z
 _atom_site_occupancy
  Th  Th0  1  0.999715  0.994943  0.750715  1
  Th  Th1  1  0.002598  0.997621  0.250664  1
  P  P2  1  0.646841  0.055148  0.997633  1
  P  P3  1  0.349215  0.941026  0.998231  1
  P  P4  1  0.056685  0.352444  0.497236  1
  P  P5  1  0.942469  0.650034  0.498635  1
  Se  Se6  1  0.220391  0.325617  0.675460  1
  Se  Se7  1  0.674304  0.220539  0.176391  1
  Se  Se8  1  0.170023  0.192629  0.000552  1
  Se  Se9  1  0.807094  0.170398  0.502102  1
  Se  Se10  1  0.195891  0.827156  0.499250  1
  Se  Se11  1  0.826850  0.803705  0.000847  1
  S  S12  1  0.200619  0.320327  0.327705  1
  S  S13  1  0.680564  0.197949  0.828900  1
  S  S14  1  0.317515  0.792738  0.831363  1
  S  S15  1  0.795347  0.683326  0.332529  1
  S  S16  1  0.794175  0.680199  0.666344  1
  S  S17  1  0.319704  0.794201  0.165445  1
