# generated using pymatgen
data_KGd(TcH9)2
_symmetry_space_group_name_H-M   'P 1'
_cell_length_a   5.13110391
_cell_length_b   5.13087498
_cell_length_c   8.85487200
_cell_angle_alpha   93.45840019
_cell_angle_beta   86.55412674
_cell_angle_gamma   125.00979547
_symmetry_Int_Tables_number   1
_chemical_formula_structural   KGd(TcH9)2
_chemical_formula_sum   'K1 Gd1 Tc2 H18'
_cell_volume   190.49962300
_cell_formula_units_Z   1
loop_
 _symmetry_equiv_pos_site_id
 _symmetry_equiv_pos_as_xyz
  1  'x, y, z'
loop_
 _atom_site_type_symbol
 _atom_site_label
 _atom_site_symmetry_multiplicity
 _atom_site_fract_x
 _atom_site_fract_y
 _atom_site_fract_z
 _atom_site_occupancy
  K  K0  1  0.000000  0.000000  0.000000  1
  Gd  Gd1  1  0.000000  0.000000  0.500000  1
  Tc  Tc2  1  0.333204  0.666740  0.715965  1
  Tc  Tc3  1  0.666796  0.333260  0.284035  1
  H  H4  1  0.386425  0.613615  0.527174  1
  H  H5  1  0.613575  0.386385  0.472826  1
  H  H6  1  0.407840  0.592216  0.879672  1
  H  H7  1  0.592160  0.407784  0.120328  1
  H  H8  1  0.472110  0.965498  0.843683  1
  H  H9  1  0.965409  0.472003  0.156324  1
  H  H10  1  0.589386  0.026500  0.645470  1
  H  H11  1  0.026506  0.589368  0.354647  1
  H  H12  1  0.527890  0.034502  0.156317  1
  H  H13  1  0.034591  0.527997  0.843676  1
  H  H14  1  0.410614  0.973500  0.354530  1
  H  H15  1  0.973494  0.410632  0.645353  1
  H  H16  1  0.698396  0.732570  0.715751  1
  H  H17  1  0.732479  0.698401  0.284268  1
  H  H18  1  0.301604  0.267430  0.284249  1
  H  H19  1  0.267521  0.301599  0.715732  1
  H  H20  1  0.149726  0.850504  0.699403  1
  H  H21  1  0.850274  0.149496  0.300597  1
