# generated using pymatgen
data_DyY12Th3(MgRh)4
_symmetry_space_group_name_H-M   'P 1'
_cell_length_a   9.79599459
_cell_length_b   9.80381094
_cell_length_c   9.80381000
_cell_angle_alpha   59.99999643
_cell_angle_beta   59.97359816
_cell_angle_gamma   59.97359193
_symmetry_Int_Tables_number   1
_chemical_formula_structural   DyY12Th3(MgRh)4
_chemical_formula_sum   'Dy1 Y12 Th3 Mg4 Rh4'
_cell_volume   665.50280998
_cell_formula_units_Z   1
loop_
 _symmetry_equiv_pos_site_id
 _symmetry_equiv_pos_as_xyz
  1  'x, y, z'
loop_
 _atom_site_type_symbol
 _atom_site_label
 _atom_site_symmetry_multiplicity
 _atom_site_fract_x
 _atom_site_fract_y
 _atom_site_fract_z
 _atom_site_occupancy
  Dy  Dy0  1  0.202038  0.599321  0.599321  1
  Y  Y1  1  0.062476  0.437948  0.437948  1
  Y  Y2  1  0.437388  0.063000  0.063000  1
  Y  Y3  1  0.437388  0.063000  0.436611  1
  Y  Y4  1  0.062476  0.437948  0.061627  1
  Y  Y5  1  0.437388  0.436611  0.063000  1
  Y  Y6  1  0.062476  0.061627  0.437948  1
  Y  Y7  1  0.185477  0.814841  0.814841  1
  Y  Y8  1  0.815234  0.184567  0.184567  1
  Y  Y9  1  0.815234  0.184567  0.815632  1
  Y  Y10  1  0.185477  0.814841  0.184840  1
  Y  Y11  1  0.815234  0.815632  0.184567  1
  Y  Y12  1  0.185477  0.184840  0.814841  1
  Th  Th13  1  0.595780  0.598315  0.598315  1
  Th  Th14  1  0.595780  0.598315  0.207590  1
  Th  Th15  1  0.595780  0.207590  0.598315  1
  Mg  Mg16  1  0.830545  0.830002  0.830002  1
  Mg  Mg17  1  0.830545  0.830002  0.509450  1
  Mg  Mg18  1  0.830545  0.509450  0.830002  1
  Mg  Mg19  1  0.507892  0.830703  0.830703  1
  Rh  Rh20  1  0.397682  0.392220  0.392220  1
  Rh  Rh21  1  0.397682  0.392220  0.817879  1
  Rh  Rh22  1  0.397682  0.817879  0.392220  1
  Rh  Rh23  1  0.816325  0.394558  0.394558  1
