# generated using pymatgen
data_Y11Lu5(ScBi3)4
_symmetry_space_group_name_H-M   'P 1'
_cell_length_a   8.09713673
_cell_length_b   9.35606330
_cell_length_c   11.95668615
_cell_angle_alpha   90.00228480
_cell_angle_beta   90.06882622
_cell_angle_gamma   89.97080240
_symmetry_Int_Tables_number   1
_chemical_formula_structural   Y11Lu5(ScBi3)4
_chemical_formula_sum   'Y11 Lu5 Sc4 Bi12'
_cell_volume   905.80577280
_cell_formula_units_Z   1
loop_
 _symmetry_equiv_pos_site_id
 _symmetry_equiv_pos_as_xyz
  1  'x, y, z'
loop_
 _atom_site_type_symbol
 _atom_site_label
 _atom_site_symmetry_multiplicity
 _atom_site_fract_x
 _atom_site_fract_y
 _atom_site_fract_z
 _atom_site_occupancy
  Y  Y0  1  0.183842  0.750101  0.720312  1
  Y  Y1  1  0.684315  0.749129  0.780261  1
  Y  Y2  1  0.815953  0.250108  0.279835  1
  Y  Y3  1  0.315216  0.249220  0.220057  1
  Y  Y4  1  0.195531  0.939155  0.440291  1
  Y  Y5  1  0.306061  0.061674  0.941710  1
  Y  Y6  1  0.803770  0.439334  0.559589  1
  Y  Y7  1  0.355747  0.750532  0.214868  1
  Y  Y8  1  0.853038  0.747395  0.284067  1
  Y  Y9  1  0.645119  0.250226  0.785007  1
  Y  Y10  1  0.145411  0.247609  0.715644  1
  Lu  Lu11  1  0.304647  0.430206  0.941234  1
  Lu  Lu12  1  0.805446  0.070121  0.558858  1
  Lu  Lu13  1  0.694167  0.931277  0.058272  1
  Lu  Lu14  1  0.194928  0.570031  0.441085  1
  Lu  Lu15  1  0.696429  0.565361  0.058403  1
  Sc  Sc16  1  0.022651  0.749330  0.988435  1
  Sc  Sc17  1  0.524257  0.750327  0.511376  1
  Sc  Sc18  1  0.976269  0.248909  0.011827  1
  Sc  Sc19  1  0.476288  0.249290  0.487720  1
  Bi  Bi20  1  0.435231  0.003439  0.668222  1
  Bi  Bi21  1  0.934828  0.495099  0.832426  1
  Bi  Bi22  1  0.565053  0.503641  0.331708  1
  Bi  Bi23  1  0.064899  0.994947  0.168094  1
  Bi  Bi24  1  0.567844  0.995675  0.332570  1
  Bi  Bi25  1  0.066498  0.503617  0.166676  1
  Bi  Bi26  1  0.432366  0.495464  0.667378  1
  Bi  Bi27  1  0.932440  0.003383  0.833260  1
  Bi  Bi28  1  0.402272  0.743531  0.957068  1
  Bi  Bi29  1  0.902174  0.756066  0.542518  1
  Bi  Bi30  1  0.599567  0.249629  0.043945  1
  Bi  Bi31  1  0.097741  0.256175  0.457285  1
