# generated using pymatgen
data_La2Y(H6Ru)2
_symmetry_space_group_name_H-M   'P 1'
_cell_length_a   4.93693100
_cell_length_b   4.93693018
_cell_length_c   8.54307700
_cell_angle_alpha   90.00000000
_cell_angle_beta   90.00000000
_cell_angle_gamma   119.99999882
_symmetry_Int_Tables_number   1
_chemical_formula_structural   La2Y(H6Ru)2
_chemical_formula_sum   'La2 Y1 H12 Ru2'
_cell_volume   180.32627019
_cell_formula_units_Z   1
loop_
 _symmetry_equiv_pos_site_id
 _symmetry_equiv_pos_as_xyz
  1  'x, y, z'
loop_
 _atom_site_type_symbol
 _atom_site_label
 _atom_site_symmetry_multiplicity
 _atom_site_fract_x
 _atom_site_fract_y
 _atom_site_fract_z
 _atom_site_occupancy
  La  La0  1  0.000000  0.000000  0.000703  1
  La  La1  1  0.333333  0.666667  0.633142  1
  Y  Y2  1  0.666667  0.333333  0.353174  1
  H  H3  1  0.169412  0.830588  0.365648  1
  H  H4  1  0.661175  0.830588  0.365648  1
  H  H5  1  0.169412  0.338825  0.365648  1
  H  H6  1  0.827304  0.172696  0.630140  1
  H  H7  1  0.345392  0.172696  0.630140  1
  H  H8  1  0.827304  0.654608  0.630140  1
  H  H9  1  0.504423  0.008847  0.874061  1
  H  H10  1  0.504423  0.495577  0.874061  1
  H  H11  1  0.991153  0.495577  0.874061  1
  H  H12  1  0.500640  0.001280  0.133873  1
  H  H13  1  0.500640  0.499360  0.133873  1
  H  H14  1  0.998720  0.499360  0.133873  1
  Ru  Ru15  1  0.666667  0.333333  0.753719  1
  Ru  Ru16  1  0.333333  0.666667  0.248096  1
