# generated using pymatgen
data_Ni8Rh(Se3S)2
_symmetry_space_group_name_H-M   'P 1'
_cell_length_a   7.38289025
_cell_length_b   7.38289073
_cell_length_c   7.38289000
_cell_angle_alpha   59.99999433
_cell_angle_beta   59.99999214
_cell_angle_gamma   60.00000212
_symmetry_Int_Tables_number   1
_chemical_formula_structural   Ni8Rh(Se3S)2
_chemical_formula_sum   'Ni8 Rh1 Se6 S2'
_cell_volume   284.55368606
_cell_formula_units_Z   1
loop_
 _symmetry_equiv_pos_site_id
 _symmetry_equiv_pos_as_xyz
  1  'x, y, z'
loop_
 _atom_site_type_symbol
 _atom_site_label
 _atom_site_symmetry_multiplicity
 _atom_site_fract_x
 _atom_site_fract_y
 _atom_site_fract_z
 _atom_site_occupancy
  Ni  Ni0  1  0.611273  0.129576  0.129576  1
  Ni  Ni1  1  0.129576  0.611273  0.129576  1
  Ni  Ni2  1  0.129576  0.129576  0.611273  1
  Ni  Ni3  1  0.129576  0.129576  0.129576  1
  Ni  Ni4  1  0.388727  0.870424  0.870424  1
  Ni  Ni5  1  0.870424  0.388727  0.870424  1
  Ni  Ni6  1  0.870424  0.870424  0.388727  1
  Ni  Ni7  1  0.870424  0.870424  0.870424  1
  Rh  Rh8  1  0.500000  0.500000  0.500000  1
  Se  Se9  1  0.741436  0.258564  0.258564  1
  Se  Se10  1  0.741436  0.258564  0.741436  1
  Se  Se11  1  0.741436  0.741436  0.258564  1
  Se  Se12  1  0.258564  0.741436  0.741436  1
  Se  Se13  1  0.258564  0.741436  0.258564  1
  Se  Se14  1  0.258564  0.258564  0.741436  1
  S  S15  1  0.250000  0.250000  0.250000  1
  S  S16  1  0.750000  0.750000  0.750000  1
