# generated using pymatgen
data_K4AlSb7Au8
_symmetry_space_group_name_H-M   'P 1'
_cell_length_a   4.77524600
_cell_length_b   8.92681846
_cell_length_c   12.47859941
_cell_angle_alpha   89.55836061
_cell_angle_beta   90.00000000
_cell_angle_gamma   90.00000000
_symmetry_Int_Tables_number   1
_chemical_formula_structural   K4AlSb7Au8
_chemical_formula_sum   'K4 Al1 Sb7 Au8'
_cell_volume   531.91886563
_cell_formula_units_Z   1
loop_
 _symmetry_equiv_pos_site_id
 _symmetry_equiv_pos_as_xyz
  1  'x, y, z'
loop_
 _atom_site_type_symbol
 _atom_site_label
 _atom_site_symmetry_multiplicity
 _atom_site_fract_x
 _atom_site_fract_y
 _atom_site_fract_z
 _atom_site_occupancy
  K  K0  1  0.750000  0.742500  0.329665  1
  K  K1  1  0.250000  0.765399  0.839594  1
  K  K2  1  0.250000  0.259960  0.665685  1
  K  K3  1  0.750000  0.238025  0.166573  1
  Al  Al4  1  0.250000  0.388047  0.953118  1
  Sb  Sb5  1  0.250000  0.399105  0.343330  1
  Sb  Sb6  1  0.250000  0.909525  0.153984  1
  Sb  Sb7  1  0.750000  0.604453  0.037273  1
  Sb  Sb8  1  0.750000  0.595838  0.658818  1
  Sb  Sb9  1  0.750000  0.103248  0.847153  1
  Sb  Sb10  1  0.250000  0.891530  0.550235  1
  Sb  Sb11  1  0.750000  0.110290  0.455091  1
  Au  Au12  1  0.250000  0.103437  0.971858  1
  Au  Au13  1  0.750000  0.429277  0.852467  1
  Au  Au14  1  0.750000  0.931998  0.662254  1
  Au  Au15  1  0.250000  0.537643  0.139986  1
  Au  Au16  1  0.250000  0.066977  0.343726  1
  Au  Au17  1  0.750000  0.916487  0.031995  1
  Au  Au18  1  0.250000  0.584092  0.532420  1
  Au  Au19  1  0.750000  0.422171  0.464774  1
