# generated using pymatgen
data_Dy7Y3Si5P
_symmetry_space_group_name_H-M   'P 1'
_cell_length_a   8.41919600
_cell_length_b   8.42554819
_cell_length_c   6.31981200
_cell_angle_alpha   90.00000000
_cell_angle_beta   90.00000000
_cell_angle_gamma   119.97507149
_symmetry_Int_Tables_number   1
_chemical_formula_structural   Dy7Y3Si5P
_chemical_formula_sum   'Dy7 Y3 Si5 P1'
_cell_volume   388.34043830
_cell_formula_units_Z   1
loop_
 _symmetry_equiv_pos_site_id
 _symmetry_equiv_pos_as_xyz
  1  'x, y, z'
loop_
 _atom_site_type_symbol
 _atom_site_label
 _atom_site_symmetry_multiplicity
 _atom_site_fract_x
 _atom_site_fract_y
 _atom_site_fract_z
 _atom_site_occupancy
  Dy  Dy0  1  0.001052  0.756812  0.750000  1
  Dy  Dy1  1  0.754947  0.000000  0.750000  1
  Dy  Dy2  1  0.244239  0.243188  0.750000  1
  Dy  Dy3  1  0.666295  0.332538  0.999518  1
  Dy  Dy4  1  0.333756  0.667462  0.500482  1
  Dy  Dy5  1  0.333756  0.667462  0.999518  1
  Dy  Dy6  1  0.666295  0.332538  0.500482  1
  Y  Y7  1  0.000900  0.244396  0.250000  1
  Y  Y8  1  0.756503  0.755604  0.250000  1
  Y  Y9  1  0.243904  0.000000  0.250000  1
  Si  Si10  1  0.394136  0.393639  0.250000  1
  Si  Si11  1  0.000498  0.606361  0.250000  1
  Si  Si12  1  0.000119  0.393474  0.750000  1
  Si  Si13  1  0.606645  0.606526  0.750000  1
  Si  Si14  1  0.607196  0.000000  0.250000  1
  P  P15  1  0.389759  0.000000  0.750000  1
