# generated using pymatgen
data_Nb9FeSe16
_symmetry_space_group_name_H-M   'P 1'
_cell_length_a   6.97033900
_cell_length_b   6.97033682
_cell_length_c   12.93691200
_cell_angle_alpha   90.00000000
_cell_angle_beta   90.00000000
_cell_angle_gamma   119.99999609
_symmetry_Int_Tables_number   1
_chemical_formula_structural   Nb9FeSe16
_chemical_formula_sum   'Nb9 Fe1 Se16'
_cell_volume   544.33835677
_cell_formula_units_Z   1
loop_
 _symmetry_equiv_pos_site_id
 _symmetry_equiv_pos_as_xyz
  1  'x, y, z'
loop_
 _atom_site_type_symbol
 _atom_site_label
 _atom_site_symmetry_multiplicity
 _atom_site_fract_x
 _atom_site_fract_y
 _atom_site_fract_z
 _atom_site_occupancy
  Nb  Nb0  1  0.000000  0.000000  0.500000  1
  Nb  Nb1  1  0.000000  0.000000  0.244011  1
  Nb  Nb2  1  0.000000  0.000000  0.755989  1
  Nb  Nb3  1  0.492358  0.984717  0.756539  1
  Nb  Nb4  1  0.015283  0.507642  0.756539  1
  Nb  Nb5  1  0.492358  0.507642  0.756539  1
  Nb  Nb6  1  0.507642  0.015283  0.243461  1
  Nb  Nb7  1  0.984717  0.492358  0.243461  1
  Nb  Nb8  1  0.507642  0.492358  0.243461  1
  Fe  Fe9  1  0.000000  0.000000  0.000000  1
  Se  Se10  1  0.333333  0.666667  0.890204  1
  Se  Se11  1  0.666667  0.333333  0.109796  1
  Se  Se12  1  0.666667  0.333333  0.378048  1
  Se  Se13  1  0.333333  0.666667  0.621952  1
  Se  Se14  1  0.831576  0.663154  0.884500  1
  Se  Se15  1  0.336846  0.168424  0.884500  1
  Se  Se16  1  0.831576  0.168424  0.884500  1
  Se  Se17  1  0.168424  0.336846  0.115500  1
  Se  Se18  1  0.663154  0.831576  0.115500  1
  Se  Se19  1  0.168424  0.831576  0.115500  1
  Se  Se20  1  0.168661  0.337324  0.372731  1
  Se  Se21  1  0.662676  0.831339  0.372731  1
  Se  Se22  1  0.168661  0.831339  0.372731  1
  Se  Se23  1  0.831339  0.662676  0.627269  1
  Se  Se24  1  0.337324  0.168661  0.627269  1
  Se  Se25  1  0.831339  0.168661  0.627269  1
