# generated using pymatgen
data_NdErSiPdI2
_symmetry_space_group_name_H-M   'P 1'
_cell_length_a   4.25659000
_cell_length_b   4.25658894
_cell_length_c   11.74653500
_cell_angle_alpha   90.00000000
_cell_angle_beta   90.00000000
_cell_angle_gamma   119.99997718
_symmetry_Int_Tables_number   1
_chemical_formula_structural   NdErSiPdI2
_chemical_formula_sum   'Nd1 Er1 Si1 Pd1 I2'
_cell_volume   184.31642613
_cell_formula_units_Z   1
loop_
 _symmetry_equiv_pos_site_id
 _symmetry_equiv_pos_as_xyz
  1  'x, y, z'
loop_
 _atom_site_type_symbol
 _atom_site_label
 _atom_site_symmetry_multiplicity
 _atom_site_fract_x
 _atom_site_fract_y
 _atom_site_fract_z
 _atom_site_occupancy
  Nd  Nd0  1  0.000000  0.000000  0.156576  1
  Er  Er1  1  0.000000  0.000000  0.843144  1
  Si  Si2  1  0.666667  0.333333  0.986966  1
  Pd  Pd3  1  0.333333  0.666667  0.999041  1
  I  I4  1  0.333333  0.666667  0.673574  1
  I  I5  1  0.666667  0.333333  0.340696  1
