# generated using pymatgen
data_Nd5YZn4Pt13
_symmetry_space_group_name_H-M   'P 1'
_cell_length_a   8.37628224
_cell_length_b   8.37628243
_cell_length_c   8.37628264
_cell_angle_alpha   109.50706753
_cell_angle_beta   109.50706350
_cell_angle_gamma   109.39955210
_symmetry_Int_Tables_number   1
_chemical_formula_structural   Nd5YZn4Pt13
_chemical_formula_sum   'Nd5 Y1 Zn4 Pt13'
_cell_volume   452.40932880
_cell_formula_units_Z   1
loop_
 _symmetry_equiv_pos_site_id
 _symmetry_equiv_pos_as_xyz
  1  'x, y, z'
loop_
 _atom_site_type_symbol
 _atom_site_label
 _atom_site_symmetry_multiplicity
 _atom_site_fract_x
 _atom_site_fract_y
 _atom_site_fract_z
 _atom_site_occupancy
  Nd  Nd0  1  0.300495  0.999831  0.300664  1
  Nd  Nd1  1  0.999831  0.300495  0.300664  1
  Nd  Nd2  1  0.299386  0.299386  0.000000  1
  Nd  Nd3  1  0.699167  0.999831  0.699336  1
  Nd  Nd4  1  0.999831  0.699167  0.699336  1
  Y  Y5  1  0.695418  0.695418  0.000000  1
  Zn  Zn6  1  0.000641  0.000641  0.499090  1
  Zn  Zn7  1  0.000641  0.501551  0.000000  1
  Zn  Zn8  1  0.501551  0.000641  0.000000  1
  Zn  Zn9  1  0.501551  0.501551  0.500910  1
  Pt  Pt10  1  0.332640  0.332640  0.663569  1
  Pt  Pt11  1  0.671760  0.999191  0.327431  1
  Pt  Pt12  1  0.999191  0.671760  0.327431  1
  Pt  Pt13  1  0.669070  0.332640  0.000000  1
  Pt  Pt14  1  0.329422  0.659230  0.329808  1
  Pt  Pt15  1  0.999614  0.329422  0.670192  1
  Pt  Pt16  1  0.332640  0.669070  0.000000  1
  Pt  Pt17  1  0.329422  0.999614  0.670192  1
  Pt  Pt18  1  0.659230  0.329422  0.329808  1
  Pt  Pt19  1  0.669070  0.669070  0.336431  1
  Pt  Pt20  1  0.671760  0.344330  0.672569  1
  Pt  Pt21  1  0.344330  0.671760  0.672569  1
  Pt  Pt22  1  0.993341  0.993341  0.000000  1
