# generated using pymatgen
data_Pr2Sm2Ga18(PdRu)3
_symmetry_space_group_name_H-M   'P 1'
_cell_length_a   7.67190650
_cell_length_b   7.67763659
_cell_length_c   9.69283194
_cell_angle_alpha   89.97350740
_cell_angle_beta   89.91103171
_cell_angle_gamma   119.64242121
_symmetry_Int_Tables_number   1
_chemical_formula_structural   Pr2Sm2Ga18(PdRu)3
_chemical_formula_sum   'Pr2 Sm2 Ga18 Pd3 Ru3'
_cell_volume   496.20919644
_cell_formula_units_Z   1
loop_
 _symmetry_equiv_pos_site_id
 _symmetry_equiv_pos_as_xyz
  1  'x, y, z'
loop_
 _atom_site_type_symbol
 _atom_site_label
 _atom_site_symmetry_multiplicity
 _atom_site_fract_x
 _atom_site_fract_y
 _atom_site_fract_z
 _atom_site_occupancy
  Pr  Pr0  1  0.994866  0.669672  0.250690  1
  Pr  Pr1  1  0.002020  0.328276  0.749170  1
  Sm  Sm2  1  0.671250  0.998525  0.251114  1
  Sm  Sm3  1  0.330668  0.004228  0.749076  1
  Ga  Ga4  1  0.133542  0.131924  0.249959  1
  Ga  Ga5  1  0.868957  0.865618  0.750006  1
  Ga  Ga6  1  0.008586  0.338285  0.079428  1
  Ga  Ga7  1  0.002059  0.665914  0.920610  1
  Ga  Ga8  1  0.997895  0.661475  0.577067  1
  Ga  Ga9  1  0.340962  0.002342  0.424525  1
  Ga  Ga10  1  0.003999  0.338765  0.421846  1
  Ga  Ga11  1  0.658745  0.995538  0.576826  1
  Ga  Ga12  1  0.659216  0.990584  0.921849  1
  Ga  Ga13  1  0.336674  0.999261  0.078215  1
  Ga  Ga14  1  0.342496  0.341262  0.559586  1
  Ga  Ga15  1  0.657605  0.658850  0.440208  1
  Ga  Ga16  1  0.657373  0.664493  0.063485  1
  Ga  Ga17  1  0.337166  0.341830  0.936424  1
  Ga  Ga18  1  0.337963  0.551097  0.250706  1
  Ga  Ga19  1  0.664274  0.455295  0.746044  1
  Ga  Ga20  1  0.542973  0.333089  0.253879  1
  Ga  Ga21  1  0.450578  0.664249  0.749365  1
  Pd  Pd22  1  0.671182  0.328368  0.999894  1
  Pd  Pd23  1  0.000995  0.999362  0.999904  1
  Pd  Pd24  1  0.999726  0.000312  0.499926  1
  Ru  Ru25  1  0.328097  0.672188  0.000117  1
  Ru  Ru26  1  0.327653  0.672335  0.500151  1
  Ru  Ru27  1  0.672484  0.326864  0.499931  1
