# generated using pymatgen
data_La3PrZn10SiSn
_symmetry_space_group_name_H-M   'P 1'
_cell_length_a   8.54850450
_cell_length_b   8.54850426
_cell_length_c   9.04760200
_cell_angle_alpha   90.00000000
_cell_angle_beta   90.00000000
_cell_angle_gamma   149.31274976
_symmetry_Int_Tables_number   1
_chemical_formula_structural   La3PrZn10SiSn
_chemical_formula_sum   'La3 Pr1 Zn10 Si1 Sn1'
_cell_volume   337.42963093
_cell_formula_units_Z   1
loop_
 _symmetry_equiv_pos_site_id
 _symmetry_equiv_pos_as_xyz
  1  'x, y, z'
loop_
 _atom_site_type_symbol
 _atom_site_label
 _atom_site_symmetry_multiplicity
 _atom_site_fract_x
 _atom_site_fract_y
 _atom_site_fract_z
 _atom_site_occupancy
  La  La0  1  0.204241  0.795759  0.250000  1
  La  La1  1  0.000886  0.999114  0.486985  1
  La  La2  1  0.000886  0.999114  0.013015  1
  Pr  Pr3  1  0.792974  0.207026  0.750000  1
  Zn  Zn4  1  0.814094  0.185906  0.391145  1
  Zn  Zn5  1  0.185231  0.814769  0.608109  1
  Zn  Zn6  1  0.814094  0.185906  0.108855  1
  Zn  Zn7  1  0.185231  0.814769  0.891891  1
  Zn  Zn8  1  0.651146  0.348854  0.476840  1
  Zn  Zn9  1  0.344000  0.656000  0.513590  1
  Zn  Zn10  1  0.651146  0.348854  0.023160  1
  Zn  Zn11  1  0.344000  0.656000  0.986410  1
  Zn  Zn12  1  0.406564  0.593436  0.250000  1
  Zn  Zn13  1  0.603015  0.396985  0.750000  1
  Si  Si14  1  0.559642  0.440358  0.250000  1
  Sn  Sn15  1  0.442848  0.557152  0.750000  1
