# generated using pymatgen
data_N3O8
_symmetry_space_group_name_H-M   'P 1'
_cell_length_a   4.89199553
_cell_length_b   4.31560830
_cell_length_c   8.67678406
_cell_angle_alpha   77.02206062
_cell_angle_beta   81.24755899
_cell_angle_gamma   67.23802196
_symmetry_Int_Tables_number   1
_chemical_formula_structural   N3O8
_chemical_formula_sum   'N3 O8'
_cell_volume   164.16776095
_cell_formula_units_Z   1
loop_
 _symmetry_equiv_pos_site_id
 _symmetry_equiv_pos_as_xyz
  1  'x, y, z'
loop_
 _atom_site_type_symbol
 _atom_site_label
 _atom_site_symmetry_multiplicity
 _atom_site_fract_x
 _atom_site_fract_y
 _atom_site_fract_z
 _atom_site_occupancy
  N  N0  1  0.018991  0.448044  0.856785  1
  N  N1  1  0.577976  0.006479  0.446670  1
  N  N2  1  0.179065  0.911888  0.089719  1
  O  O3  1  0.944364  0.161028  0.977611  1
  O  O4  1  0.275858  0.396468  0.814320  1
  O  O5  1  0.096774  0.681417  0.154736  1
  O  O6  1  0.315009  0.045428  0.497080  1
  O  O7  1  0.789077  0.677922  0.821880  1
  O  O8  1  0.390478  0.979679  0.101087  1
  O  O9  1  0.634907  0.243936  0.353218  1
  O  O10  1  0.783324  0.729510  0.489761  1
