# generated using pymatgen
data_ThZn10Pd
_symmetry_space_group_name_H-M   'P 1'
_cell_length_a   8.29942869
_cell_length_b   8.29942919
_cell_length_c   8.27244496
_cell_angle_alpha   99.95555083
_cell_angle_beta   99.95555570
_cell_angle_gamma   131.02358007
_symmetry_Int_Tables_number   1
_chemical_formula_structural   ThZn10Pd
_chemical_formula_sum   'Th2 Zn20 Pd2'
_cell_volume   390.71072527
_cell_formula_units_Z   2
loop_
 _symmetry_equiv_pos_site_id
 _symmetry_equiv_pos_as_xyz
  1  'x, y, z'
loop_
 _atom_site_type_symbol
 _atom_site_label
 _atom_site_symmetry_multiplicity
 _atom_site_fract_x
 _atom_site_fract_y
 _atom_site_fract_z
 _atom_site_occupancy
  Th  Th0  1  0.003057  0.996943  0.000000  1
  Th  Th1  1  0.246943  0.753057  0.500000  1
  Zn  Zn2  1  0.067750  0.651602  0.826555  1
  Zn  Zn3  1  0.825634  0.239364  0.170670  1
  Zn  Zn4  1  0.755994  0.244006  0.500000  1
  Zn  Zn5  1  0.494006  0.505994  0.000000  1
  Zn  Zn6  1  0.625000  0.375000  0.750000  1
  Zn  Zn7  1  0.625000  0.375000  0.250000  1
  Zn  Zn8  1  0.824105  0.652757  0.584950  1
  Zn  Zn9  1  0.901602  0.817750  0.326555  1
  Zn  Zn10  1  0.489364  0.575634  0.670670  1
  Zn  Zn11  1  0.069908  0.241135  0.413457  1
  Zn  Zn12  1  0.758865  0.930092  0.586543  1
  Zn  Zn13  1  0.347243  0.175895  0.415050  1
  Zn  Zn14  1  0.424366  0.510636  0.329330  1
  Zn  Zn15  1  0.182250  0.098398  0.673445  1
  Zn  Zn16  1  0.425895  0.097243  0.915050  1
  Zn  Zn17  1  0.348398  0.932250  0.173445  1
  Zn  Zn18  1  0.760636  0.174366  0.829330  1
  Zn  Zn19  1  0.180092  0.508865  0.086543  1
  Zn  Zn20  1  0.491135  0.819908  0.913457  1
  Zn  Zn21  1  0.902757  0.574105  0.084950  1
  Pd  Pd22  1  0.125000  0.375000  0.750000  1
  Pd  Pd23  1  0.625000  0.875000  0.250000  1
