# generated using pymatgen
data_Dy5Er(BO3)6
_symmetry_space_group_name_H-M   'P 1'
_cell_length_a   6.57800307
_cell_length_b   6.58446866
_cell_length_c   9.62143800
_cell_angle_alpha   70.35334620
_cell_angle_beta   70.35299777
_cell_angle_gamma   60.03843405
_symmetry_Int_Tables_number   1
_chemical_formula_structural   Dy5Er(BO3)6
_chemical_formula_sum   'Dy5 Er1 B6 O18'
_cell_volume   332.70732029
_cell_formula_units_Z   1
loop_
 _symmetry_equiv_pos_site_id
 _symmetry_equiv_pos_as_xyz
  1  'x, y, z'
loop_
 _atom_site_type_symbol
 _atom_site_label
 _atom_site_symmetry_multiplicity
 _atom_site_fract_x
 _atom_site_fract_y
 _atom_site_fract_z
 _atom_site_occupancy
  Dy  Dy0  1  0.000165  0.499922  0.499994  1
  Dy  Dy1  1  0.500082  0.000004  0.999996  1
  Dy  Dy2  1  0.170671  0.657665  0.999386  1
  Dy  Dy3  1  0.342755  0.829053  0.500636  1
  Dy  Dy4  1  0.829371  0.342255  0.000614  1
  Er  Er5  1  0.657513  0.170846  0.499378  1
  B  B6  1  0.917418  0.843608  0.746073  1
  B  B7  1  0.158141  0.082257  0.752801  1
  B  B8  1  0.081280  0.157052  0.253921  1
  B  B9  1  0.842454  0.918358  0.247422  1
  B  B10  1  0.676584  0.323079  0.749417  1
  B  B11  1  0.324123  0.675654  0.250380  1
  O  O12  1  0.964821  0.783979  0.602345  1
  O  O13  1  0.217800  0.033830  0.896775  1
  O  O14  1  0.032321  0.217419  0.397645  1
  O  O15  1  0.782335  0.966183  0.103613  1
  O  O16  1  0.870055  0.686108  0.888170  1
  O  O17  1  0.316494  0.130050  0.611282  1
  O  O18  1  0.129581  0.314143  0.111847  1
  O  O19  1  0.685087  0.871362  0.389390  1
  O  O20  1  0.518656  0.384586  0.891533  1
  O  O21  1  0.615151  0.480356  0.607413  1
  O  O22  1  0.481579  0.615129  0.108071  1
  O  O23  1  0.386987  0.516374  0.391883  1
  O  O24  1  0.916979  0.299467  0.751594  1
  O  O25  1  0.699874  0.083810  0.746889  1
  O  O26  1  0.083379  0.700351  0.248443  1
  O  O27  1  0.299419  0.916146  0.252561  1
  O  O28  1  0.134795  0.865900  0.749441  1
  O  O29  1  0.864129  0.135053  0.251087  1
