# generated using pymatgen
data_Rb6Lu(IrBr6)3
_symmetry_space_group_name_H-M   'P 1'
_cell_length_a   7.64561700
_cell_length_b   7.64561714
_cell_length_c   19.50492600
_cell_angle_alpha   90.00000000
_cell_angle_beta   90.00000000
_cell_angle_gamma   119.99999507
_symmetry_Int_Tables_number   1
_chemical_formula_structural   Rb6Lu(IrBr6)3
_chemical_formula_sum   'Rb6 Lu1 Ir3 Br18'
_cell_volume   987.41573924
_cell_formula_units_Z   1
loop_
 _symmetry_equiv_pos_site_id
 _symmetry_equiv_pos_as_xyz
  1  'x, y, z'
loop_
 _atom_site_type_symbol
 _atom_site_label
 _atom_site_symmetry_multiplicity
 _atom_site_fract_x
 _atom_site_fract_y
 _atom_site_fract_z
 _atom_site_occupancy
  Rb  Rb0  1  0.333333  0.666667  0.062753  1
  Rb  Rb1  1  0.666667  0.333333  0.941659  1
  Rb  Rb2  1  0.666667  0.333333  0.564446  1
  Rb  Rb3  1  0.333333  0.666667  0.440793  1
  Rb  Rb4  1  0.000000  0.000000  0.250957  1
  Rb  Rb5  1  0.000000  0.000000  0.744751  1
  Lu  Lu6  1  0.333333  0.666667  0.837557  1
  Ir  Ir7  1  0.333333  0.666667  0.666935  1
  Ir  Ir8  1  0.666667  0.333333  0.335218  1
  Ir  Ir9  1  0.666667  0.333333  0.165410  1
  Br  Br10  1  0.178617  0.357235  0.593753  1
  Br  Br11  1  0.821894  0.643787  0.407416  1
  Br  Br12  1  0.642765  0.821383  0.593753  1
  Br  Br13  1  0.821787  0.643574  0.093122  1
  Br  Br14  1  0.356213  0.178106  0.407416  1
  Br  Br15  1  0.164369  0.328740  0.910803  1
  Br  Br16  1  0.178617  0.821383  0.593753  1
  Br  Br17  1  0.356426  0.178213  0.093122  1
  Br  Br18  1  0.821894  0.178106  0.407416  1
  Br  Br19  1  0.671260  0.835631  0.910803  1
  Br  Br20  1  0.821787  0.178213  0.093122  1
  Br  Br21  1  0.164369  0.835631  0.910803  1
  Br  Br22  1  0.519617  0.039235  0.250265  1
  Br  Br23  1  0.492932  0.985864  0.741148  1
  Br  Br24  1  0.960765  0.480383  0.250265  1
  Br  Br25  1  0.014136  0.507068  0.741148  1
  Br  Br26  1  0.519617  0.480383  0.250265  1
  Br  Br27  1  0.492932  0.507068  0.741148  1
