# generated using pymatgen
data_Ta5Ti7Ga8Cu3PdC4
_symmetry_space_group_name_H-M   'P 1'
_cell_length_a   8.19985754
_cell_length_b   8.19445978
_cell_length_c   8.19818700
_cell_angle_alpha   60.04092424
_cell_angle_beta   59.90292043
_cell_angle_gamma   60.03012587
_symmetry_Int_Tables_number   1
_chemical_formula_structural   Ta5Ti7Ga8Cu3PdC4
_chemical_formula_sum   'Ta5 Ti7 Ga8 Cu3 Pd1 C4'
_cell_volume   389.44170116
_cell_formula_units_Z   1
loop_
 _symmetry_equiv_pos_site_id
 _symmetry_equiv_pos_as_xyz
  1  'x, y, z'
loop_
 _atom_site_type_symbol
 _atom_site_label
 _atom_site_symmetry_multiplicity
 _atom_site_fract_x
 _atom_site_fract_y
 _atom_site_fract_z
 _atom_site_occupancy
  Ta  Ta0  1  0.935470  0.933782  0.565144  1
  Ta  Ta1  1  0.686366  0.316648  0.314146  1
  Ta  Ta2  1  0.315404  0.681469  0.686170  1
  Ta  Ta3  1  0.684822  0.679272  0.317042  1
  Ta  Ta4  1  0.683716  0.317230  0.682385  1
  Ti  Ti5  1  0.317034  0.681149  0.316814  1
  Ti  Ti6  1  0.567679  0.933957  0.565182  1
  Ti  Ti7  1  0.567266  0.933473  0.934349  1
  Ti  Ti8  1  0.935393  0.570138  0.562213  1
  Ti  Ti9  1  0.933490  0.570223  0.932875  1
  Ti  Ti10  1  0.315091  0.317070  0.685287  1
  Ti  Ti11  1  0.562026  0.568173  0.936110  1
  Ga  Ga12  1  0.912907  0.261775  0.912303  1
  Ga  Ga13  1  0.336514  0.327813  0.994963  1
  Ga  Ga14  1  0.999294  0.328690  0.336453  1
  Ga  Ga15  1  0.336490  0.332514  0.341144  1
  Ga  Ga16  1  0.260700  0.919071  0.910251  1
  Ga  Ga17  1  0.909290  0.918222  0.914125  1
  Ga  Ga18  1  0.910015  0.918108  0.257387  1
  Ga  Ga19  1  0.335053  0.992206  0.334219  1
  Cu  Cu20  1  0.124807  0.123067  0.626339  1
  Cu  Cu21  1  0.623905  0.126079  0.125519  1
  Cu  Cu22  1  0.122799  0.123444  0.126115  1
  Pd  Pd23  1  0.126054  0.625378  0.123991  1
  C  C24  1  0.619580  0.123753  0.627865  1
  C  C25  1  0.623511  0.628164  0.119721  1
  C  C26  1  0.127559  0.621212  0.623356  1
  C  C27  1  0.627765  0.627920  0.628531  1
