# generated using pymatgen
data_La10Pr5Nd(CdIr)4
_symmetry_space_group_name_H-M   'P 1'
_cell_length_a   10.09280457
_cell_length_b   10.09280543
_cell_length_c   10.08583800
_cell_angle_alpha   60.02283352
_cell_angle_beta   60.02283069
_cell_angle_gamma   60.03977498
_symmetry_Int_Tables_number   1
_chemical_formula_structural   La10Pr5Nd(CdIr)4
_chemical_formula_sum   'La10 Pr5 Nd1 Cd4 Ir4'
_cell_volume   726.94409962
_cell_formula_units_Z   1
loop_
 _symmetry_equiv_pos_site_id
 _symmetry_equiv_pos_as_xyz
  1  'x, y, z'
loop_
 _atom_site_type_symbol
 _atom_site_label
 _atom_site_symmetry_multiplicity
 _atom_site_fract_x
 _atom_site_fract_y
 _atom_site_fract_z
 _atom_site_occupancy
  La  La0  1  0.346870  0.346870  0.347015  1
  La  La1  1  0.346870  0.346870  0.959245  1
  La  La2  1  0.347052  0.958130  0.347409  1
  La  La3  1  0.958130  0.347052  0.347409  1
  La  La4  1  0.809003  0.190616  0.191594  1
  La  La5  1  0.190616  0.809003  0.808787  1
  La  La6  1  0.190616  0.809003  0.191594  1
  La  La7  1  0.809003  0.190616  0.808787  1
  La  La8  1  0.190734  0.190734  0.809266  1
  La  La9  1  0.808701  0.808701  0.191299  1
  Pr  Pr10  1  0.937134  0.563363  0.563252  1
  Pr  Pr11  1  0.563363  0.937134  0.936251  1
  Pr  Pr12  1  0.563363  0.937134  0.563252  1
  Pr  Pr13  1  0.937134  0.563363  0.936251  1
  Pr  Pr14  1  0.563319  0.563319  0.936681  1
  Nd  Nd15  1  0.937114  0.937114  0.562886  1
  Cd  Cd16  1  0.580075  0.580075  0.580018  1
  Cd  Cd17  1  0.580075  0.580075  0.259830  1
  Cd  Cd18  1  0.580566  0.259196  0.580118  1
  Cd  Cd19  1  0.259196  0.580566  0.580118  1
  Ir  Ir20  1  0.141009  0.141009  0.140547  1
  Ir  Ir21  1  0.141009  0.141009  0.577432  1
  Ir  Ir22  1  0.141345  0.577699  0.140477  1
  Ir  Ir23  1  0.577699  0.141345  0.140477  1
