# generated using pymatgen
data_LiLa2InHg4
_symmetry_space_group_name_H-M   'P 1'
_cell_length_a   5.26003400
_cell_length_b   7.49596400
_cell_length_c   10.50789100
_cell_angle_alpha   90.00000000
_cell_angle_beta   90.00000000
_cell_angle_gamma   90.00000000
_symmetry_Int_Tables_number   1
_chemical_formula_structural   LiLa2InHg4
_chemical_formula_sum   'Li2 La4 In2 Hg8'
_cell_volume   414.31590222
_cell_formula_units_Z   2
loop_
 _symmetry_equiv_pos_site_id
 _symmetry_equiv_pos_as_xyz
  1  'x, y, z'
loop_
 _atom_site_type_symbol
 _atom_site_label
 _atom_site_symmetry_multiplicity
 _atom_site_fract_x
 _atom_site_fract_y
 _atom_site_fract_z
 _atom_site_occupancy
  Li  Li0  1  0.250990  0.750000  0.623148  1
  Li  Li1  1  0.750990  0.249999  0.876852  1
  La  La2  1  0.248555  0.249999  0.133008  1
  La  La3  1  0.748554  0.750000  0.366992  1
  La  La4  1  0.251831  0.249999  0.618937  1
  La  La5  1  0.751832  0.750000  0.881063  1
  In  In6  1  0.247986  0.750000  0.125738  1
  In  In7  1  0.747986  0.249999  0.374261  1
  Hg  Hg8  1  0.748287  0.011683  0.114226  1
  Hg  Hg9  1  0.748287  0.488317  0.114226  1
  Hg  Hg10  1  0.248288  0.511684  0.385774  1
  Hg  Hg11  1  0.248288  0.988317  0.385774  1
  Hg  Hg12  1  0.752032  0.994834  0.634606  1
  Hg  Hg13  1  0.752032  0.505166  0.634606  1
  Hg  Hg14  1  0.252033  0.494835  0.865394  1
  Hg  Hg15  1  0.252033  0.005166  0.865394  1
