# generated using pymatgen
data_La16Cd4CoIrPd2
_symmetry_space_group_name_H-M   'P 1'
_cell_length_a   10.15247643
_cell_length_b   10.12577597
_cell_length_c   10.13492700
_cell_angle_alpha   59.97009687
_cell_angle_beta   60.05716144
_cell_angle_gamma   60.18770707
_symmetry_Int_Tables_number   1
_chemical_formula_structural   La16Cd4CoIrPd2
_chemical_formula_sum   'La16 Cd4 Co1 Ir1 Pd2'
_cell_volume   737.91684838
_cell_formula_units_Z   1
loop_
 _symmetry_equiv_pos_site_id
 _symmetry_equiv_pos_as_xyz
  1  'x, y, z'
loop_
 _atom_site_type_symbol
 _atom_site_label
 _atom_site_symmetry_multiplicity
 _atom_site_fract_x
 _atom_site_fract_y
 _atom_site_fract_z
 _atom_site_occupancy
  La  La0  1  0.596753  0.603288  0.591085  1
  La  La1  1  0.596753  0.603288  0.208873  1
  La  La2  1  0.605180  0.199062  0.597879  1
  La  La3  1  0.201674  0.609262  0.594532  1
  La  La4  1  0.053976  0.440918  0.441287  1
  La  La5  1  0.440764  0.049414  0.069912  1
  La  La6  1  0.440764  0.049414  0.439909  1
  La  La7  1  0.053976  0.440918  0.063818  1
  La  La8  1  0.443319  0.442178  0.057251  1
  La  La9  1  0.064815  0.056745  0.439220  1
  La  La10  1  0.189059  0.813967  0.811528  1
  La  La11  1  0.813348  0.189899  0.186654  1
  La  La12  1  0.813348  0.189899  0.810098  1
  La  La13  1  0.189059  0.813967  0.185446  1
  La  La14  1  0.813036  0.811775  0.187595  1
  La  La15  1  0.188245  0.187887  0.811934  1
  Cd  Cd16  1  0.829629  0.829599  0.829772  1
  Cd  Cd17  1  0.829629  0.829599  0.511000  1
  Cd  Cd18  1  0.829090  0.511888  0.829510  1
  Cd  Cd19  1  0.511495  0.829180  0.829661  1
  Co  Co20  1  0.390494  0.825628  0.391940  1
  Ir  Ir21  1  0.823891  0.390585  0.392762  1
  Pd  Pd22  1  0.390849  0.390820  0.394864  1
  Pd  Pd23  1  0.390849  0.390820  0.823468  1
