# generated using pymatgen
data_Pu(TlCl3)2
_symmetry_space_group_name_H-M   'P 1'
_cell_length_a   7.19078960
_cell_length_b   7.70528100
_cell_length_c   12.42296600
_cell_angle_alpha   90.00000000
_cell_angle_beta   123.91714952
_cell_angle_gamma   90.00000000
_symmetry_Int_Tables_number   1
_chemical_formula_structural   Pu(TlCl3)2
_chemical_formula_sum   'Pu2 Tl4 Cl12'
_cell_volume   571.19908321
_cell_formula_units_Z   2
loop_
 _symmetry_equiv_pos_site_id
 _symmetry_equiv_pos_as_xyz
  1  'x, y, z'
loop_
 _atom_site_type_symbol
 _atom_site_label
 _atom_site_symmetry_multiplicity
 _atom_site_fract_x
 _atom_site_fract_y
 _atom_site_fract_z
 _atom_site_occupancy
  Pu  Pu0  1  0.000000  0.000000  0.000000  1
  Pu  Pu1  1  0.000000  0.500000  0.500000  1
  Tl  Tl2  1  0.724612  0.080311  0.248327  1
  Tl  Tl3  1  0.275387  0.580311  0.251673  1
  Tl  Tl4  1  0.724612  0.419689  0.748327  1
  Tl  Tl5  1  0.275388  0.919689  0.751673  1
  Cl  Cl6  1  0.220513  0.284240  0.033500  1
  Cl  Cl7  1  0.334390  0.812684  0.040219  1
  Cl  Cl8  1  0.168251  0.989151  0.246291  1
  Cl  Cl9  1  0.831748  0.489151  0.253709  1
  Cl  Cl10  1  0.665609  0.312684  0.459781  1
  Cl  Cl11  1  0.779487  0.784240  0.466500  1
  Cl  Cl12  1  0.220514  0.215759  0.533500  1
  Cl  Cl13  1  0.334390  0.687316  0.540219  1
  Cl  Cl14  1  0.168252  0.510849  0.746291  1
  Cl  Cl15  1  0.831748  0.010849  0.753709  1
  Cl  Cl16  1  0.665609  0.187316  0.959781  1
  Cl  Cl17  1  0.779486  0.715759  0.966500  1
