# generated using pymatgen
data_Sr4(Al8Pt3)3
_symmetry_space_group_name_H-M   'P 1'
_cell_length_a   7.55810789
_cell_length_b   7.57010481
_cell_length_c   13.63607219
_cell_angle_alpha   84.73145266
_cell_angle_beta   100.85252060
_cell_angle_gamma   119.57749795
_symmetry_Int_Tables_number   1
_chemical_formula_structural   Sr4(Al8Pt3)3
_chemical_formula_sum   'Sr4 Al24 Pt9'
_cell_volume   666.39262524
_cell_formula_units_Z   1
loop_
 _symmetry_equiv_pos_site_id
 _symmetry_equiv_pos_as_xyz
  1  'x, y, z'
loop_
 _atom_site_type_symbol
 _atom_site_label
 _atom_site_symmetry_multiplicity
 _atom_site_fract_x
 _atom_site_fract_y
 _atom_site_fract_z
 _atom_site_occupancy
  Sr  Sr0  1  0.436541  0.830971  0.807105  1
  Sr  Sr1  1  0.563459  0.169029  0.192895  1
  Sr  Sr2  1  0.767100  0.500957  0.807194  1
  Sr  Sr3  1  0.232900  0.499043  0.192806  1
  Al  Al4  1  0.477886  0.165895  0.950469  1
  Al  Al5  1  0.522114  0.834105  0.049531  1
  Al  Al6  1  0.019371  0.168848  0.556973  1
  Al  Al7  1  0.980629  0.831152  0.443027  1
  Al  Al8  1  0.353757  0.833590  0.556424  1
  Al  Al9  1  0.646243  0.166410  0.443576  1
  Al  Al10  1  0.623215  0.834953  0.336230  1
  Al  Al11  1  0.376785  0.165047  0.663770  1
  Al  Al12  1  0.053325  0.490210  0.662828  1
  Al  Al13  1  0.946675  0.509790  0.337172  1
  Al  Al14  1  0.732832  0.844430  0.662962  1
  Al  Al15  1  0.267168  0.155570  0.337038  1
  Al  Al16  1  0.150012  0.495750  0.951347  1
  Al  Al17  1  0.849988  0.504250  0.048653  1
  Al  Al18  1  0.822375  0.836044  0.958476  1
  Al  Al19  1  0.177625  0.163956  0.041524  1
  Al  Al20  1  0.316142  0.500821  0.443488  1
  Al  Al21  1  0.683858  0.499179  0.556512  1
  Al  Al22  1  0.099325  0.835391  0.183255  1
  Al  Al23  1  0.900675  0.164609  0.816745  1
  Al  Al24  1  0.303368  0.365483  0.815289  1
  Al  Al25  1  0.696632  0.634517  0.184711  1
  Al  Al26  1  0.101958  0.961827  0.815762  1
  Al  Al27  1  0.898042  0.038173  0.184238  1
  Pt  Pt28  1  0.384154  0.505784  0.634689  1
  Pt  Pt29  1  0.615846  0.494216  0.365311  1
  Pt  Pt30  1  0.171459  0.829059  0.999696  1
  Pt  Pt31  1  0.828541  0.170941  0.000304  1
  Pt  Pt32  1  0.295289  0.833040  0.365513  1
  Pt  Pt33  1  0.704711  0.166960  0.634487  1
  Pt  Pt34  1  0.045231  0.827254  0.633591  1
  Pt  Pt35  1  0.954769  0.172746  0.366409  1
  Pt  Pt36  1  0.500000  0.500000  0.000000  1
