# generated using pymatgen
data_HgBi2F12
_symmetry_space_group_name_H-M   'P 1'
_cell_length_a   5.46799634
_cell_length_b   5.91841327
_cell_length_c   9.29074795
_cell_angle_alpha   104.38596931
_cell_angle_beta   90.94650903
_cell_angle_gamma   115.76979668
_symmetry_Int_Tables_number   1
_chemical_formula_structural   HgBi2F12
_chemical_formula_sum   'Hg1 Bi2 F12'
_cell_volume   259.58745943
_cell_formula_units_Z   1
loop_
 _symmetry_equiv_pos_site_id
 _symmetry_equiv_pos_as_xyz
  1  'x, y, z'
loop_
 _atom_site_type_symbol
 _atom_site_label
 _atom_site_symmetry_multiplicity
 _atom_site_fract_x
 _atom_site_fract_y
 _atom_site_fract_z
 _atom_site_occupancy
  Hg  Hg0  1  0.500000  0.500000  0.500000  1
  Bi  Bi1  1  0.273402  0.018383  0.771838  1
  Bi  Bi2  1  0.726598  0.981617  0.228162  1
  F  F3  1  0.782505  0.768717  0.366582  1
  F  F4  1  0.217495  0.231283  0.633418  1
  F  F5  1  0.320956  0.751935  0.217454  1
  F  F6  1  0.314742  0.771101  0.874779  1
  F  F7  1  0.685258  0.228899  0.125221  1
  F  F8  1  0.852388  0.777495  0.707981  1
  F  F9  1  0.147612  0.222505  0.292019  1
  F  F10  1  0.301239  0.774876  0.568627  1
  F  F11  1  0.698761  0.225124  0.431373  1
  F  F12  1  0.203807  0.243766  0.950983  1
  F  F13  1  0.796193  0.756234  0.049017  1
  F  F14  1  0.679044  0.248065  0.782546  1
