# generated using pymatgen
data_Er4TmOs2
_symmetry_space_group_name_H-M   'P 1'
_cell_length_a   6.29166346
_cell_length_b   7.32818336
_cell_length_c   8.33384700
_cell_angle_alpha   96.97495930
_cell_angle_beta   112.17746242
_cell_angle_gamma   90.00000450
_symmetry_Int_Tables_number   1
_chemical_formula_structural   Er4TmOs2
_chemical_formula_sum   'Er8 Tm2 Os4'
_cell_volume   352.74473562
_cell_formula_units_Z   2
loop_
 _symmetry_equiv_pos_site_id
 _symmetry_equiv_pos_as_xyz
  1  'x, y, z'
loop_
 _atom_site_type_symbol
 _atom_site_label
 _atom_site_symmetry_multiplicity
 _atom_site_fract_x
 _atom_site_fract_y
 _atom_site_fract_z
 _atom_site_occupancy
  Er  Er0  1  0.792610  0.083716  0.817168  1
  Er  Er1  1  0.975442  0.416284  0.182832  1
  Er  Er2  1  0.207390  0.916284  0.182832  1
  Er  Er3  1  0.024558  0.583716  0.817168  1
  Er  Er4  1  0.203788  0.182876  0.564268  1
  Er  Er5  1  0.639521  0.317124  0.435732  1
  Er  Er6  1  0.796212  0.817124  0.435732  1
  Er  Er7  1  0.360479  0.682876  0.564268  1
  Tm  Tm8  1  0.420492  0.250000  0.000000  1
  Tm  Tm9  1  0.579508  0.750000  0.000000  1
  Os  Os10  1  0.602659  0.422146  0.780954  1
  Os  Os11  1  0.821704  0.077854  0.219046  1
  Os  Os12  1  0.397341  0.577854  0.219046  1
  Os  Os13  1  0.178296  0.922146  0.780954  1
