# generated using pymatgen
data_Ho3ErB12IrRu
_symmetry_space_group_name_H-M   'P 1'
_cell_length_a   3.64154800
_cell_length_b   9.15431190
_cell_length_c   11.47813180
_cell_angle_alpha   90.07773165
_cell_angle_beta   90.00000000
_cell_angle_gamma   90.00000000
_symmetry_Int_Tables_number   1
_chemical_formula_structural   Ho3ErB12IrRu
_chemical_formula_sum   'Ho6 Er2 B24 Ir2 Ru2'
_cell_volume   382.63311387
_cell_formula_units_Z   2
loop_
 _symmetry_equiv_pos_site_id
 _symmetry_equiv_pos_as_xyz
  1  'x, y, z'
loop_
 _atom_site_type_symbol
 _atom_site_label
 _atom_site_symmetry_multiplicity
 _atom_site_fract_x
 _atom_site_fract_y
 _atom_site_fract_z
 _atom_site_occupancy
  Ho  Ho0  1  0.000000  0.319243  0.412007  1
  Ho  Ho1  1  0.000000  0.680757  0.587993  1
  Ho  Ho2  1  0.000000  0.822898  0.085017  1
  Ho  Ho3  1  0.000000  0.177102  0.914983  1
  Ho  Ho4  1  0.000000  0.945842  0.372745  1
  Ho  Ho5  1  0.000000  0.054158  0.627255  1
  Er  Er6  1  0.000000  0.442290  0.125584  1
  Er  Er7  1  0.000000  0.557710  0.874416  1
  B  B8  1  0.500000  0.552723  0.433579  1
  B  B9  1  0.500000  0.447277  0.566421  1
  B  B10  1  0.500000  0.054137  0.066651  1
  B  B11  1  0.500000  0.945863  0.933349  1
  B  B12  1  0.500000  0.750015  0.420246  1
  B  B13  1  0.500000  0.249985  0.579754  1
  B  B14  1  0.500000  0.248235  0.079782  1
  B  B15  1  0.500000  0.751765  0.920218  1
  B  B16  1  0.500000  0.792498  0.265644  1
  B  B17  1  0.500000  0.207502  0.734356  1
  B  B18  1  0.500000  0.291959  0.233945  1
  B  B19  1  0.500000  0.708041  0.766055  1
  B  B20  1  0.500000  0.631358  0.184037  1
  B  B21  1  0.500000  0.368642  0.815963  1
  B  B22  1  0.500000  0.132386  0.314596  1
  B  B23  1  0.500000  0.867614  0.685404  1
  B  B24  1  0.500000  0.983663  0.212584  1
  B  B25  1  0.500000  0.016337  0.787416  1
  B  B26  1  0.500000  0.481442  0.286295  1
  B  B27  1  0.500000  0.518558  0.713705  1
  B  B28  1  0.500000  0.609751  0.030503  1
  B  B29  1  0.500000  0.390249  0.969497  1
  B  B30  1  0.500000  0.110604  0.469973  1
  B  B31  1  0.500000  0.889396  0.530027  1
  Ir  Ir32  1  0.000000  0.637237  0.321736  1
  Ir  Ir33  1  0.000000  0.362763  0.678264  1
  Ru  Ru34  1  0.000000  0.138336  0.178630  1
  Ru  Ru35  1  0.000000  0.861664  0.821370  1
