# generated using pymatgen
data_Yb2YGa9CuPd
_symmetry_space_group_name_H-M   'P 1'
_cell_length_a   8.13222732
_cell_length_b   8.13222655
_cell_length_c   8.13222800
_cell_angle_alpha   148.83374686
_cell_angle_beta   109.35808711
_cell_angle_gamma   79.21405028
_symmetry_Int_Tables_number   1
_chemical_formula_structural   Yb2YGa9CuPd
_chemical_formula_sum   'Yb2 Y1 Ga9 Cu1 Pd1'
_cell_volume   257.41517568
_cell_formula_units_Z   1
loop_
 _symmetry_equiv_pos_site_id
 _symmetry_equiv_pos_as_xyz
  1  'x, y, z'
loop_
 _atom_site_type_symbol
 _atom_site_label
 _atom_site_symmetry_multiplicity
 _atom_site_fract_x
 _atom_site_fract_y
 _atom_site_fract_z
 _atom_site_occupancy
  Yb  Yb0  1  0.198049  0.198446  0.999585  1
  Yb  Yb1  1  0.801140  0.801533  0.999607  1
  Y  Y2  1  0.498440  0.500022  0.998431  1
  Ga  Ga3  1  0.077655  0.360482  0.717112  1
  Ga  Ga4  1  0.922654  0.639445  0.283296  1
  Ga  Ga5  1  0.643906  0.360644  0.283337  1
  Ga  Ga6  1  0.356617  0.639456  0.717080  1
  Ga  Ga7  1  0.793048  0.156421  0.636614  1
  Ga  Ga8  1  0.208707  0.842543  0.366151  1
  Ga  Ga9  1  0.523614  0.157428  0.366168  1
  Ga  Ga10  1  0.480159  0.843563  0.636579  1
  Ga  Ga11  1  0.997515  0.499979  0.497499  1
  Cu  Cu12  1  0.814822  0.999963  0.814781  1
  Pd  Pd13  1  0.183674  0.000074  0.183760  1
