# generated using pymatgen
data_Y4Pd3Pt
_symmetry_space_group_name_H-M   'P 1'
_cell_length_a   7.05878866
_cell_length_b   4.57101700
_cell_length_c   5.61499595
_cell_angle_alpha   90.00000000
_cell_angle_beta   90.11702423
_cell_angle_gamma   90.00000000
_symmetry_Int_Tables_number   1
_chemical_formula_structural   Y4Pd3Pt
_chemical_formula_sum   'Y4 Pd3 Pt1'
_cell_volume   181.17219950
_cell_formula_units_Z   1
loop_
 _symmetry_equiv_pos_site_id
 _symmetry_equiv_pos_as_xyz
  1  'x, y, z'
loop_
 _atom_site_type_symbol
 _atom_site_label
 _atom_site_symmetry_multiplicity
 _atom_site_fract_x
 _atom_site_fract_y
 _atom_site_fract_z
 _atom_site_occupancy
  Y  Y0  1  0.813004  0.749999  0.144574  1
  Y  Y1  1  0.320032  0.749999  0.354865  1
  Y  Y2  1  0.682371  0.250000  0.641579  1
  Y  Y3  1  0.183810  0.250000  0.859150  1
  Pd  Pd4  1  0.041151  0.250000  0.349186  1
  Pd  Pd5  1  0.959751  0.749999  0.652209  1
  Pd  Pd6  1  0.457745  0.749999  0.845168  1
  Pt  Pt7  1  0.542136  0.250000  0.153267  1
