# generated using pymatgen
data_DyHo11(OsRu)2
_symmetry_space_group_name_H-M   'P 1'
_cell_length_a   6.30686804
_cell_length_b   7.34403004
_cell_length_c   9.08676700
_cell_angle_alpha   90.00000000
_cell_angle_beta   90.00000000
_cell_angle_gamma   89.98769287
_symmetry_Int_Tables_number   1
_chemical_formula_structural   DyHo11(OsRu)2
_chemical_formula_sum   'Dy1 Ho11 Os2 Ru2'
_cell_volume   420.87930429
_cell_formula_units_Z   1
loop_
 _symmetry_equiv_pos_site_id
 _symmetry_equiv_pos_as_xyz
  1  'x, y, z'
loop_
 _atom_site_type_symbol
 _atom_site_label
 _atom_site_symmetry_multiplicity
 _atom_site_fract_x
 _atom_site_fract_y
 _atom_site_fract_z
 _atom_site_occupancy
  Dy  Dy0  1  0.133218  0.458629  0.750000  1
  Ho  Ho1  1  0.329357  0.676428  0.064370  1
  Ho  Ho2  1  0.170790  0.176137  0.435653  1
  Ho  Ho3  1  0.667307  0.324691  0.562645  1
  Ho  Ho4  1  0.832376  0.824829  0.937230  1
  Ho  Ho5  1  0.667307  0.324691  0.937355  1
  Ho  Ho6  1  0.832376  0.824829  0.562770  1
  Ho  Ho7  1  0.329357  0.676428  0.435630  1
  Ho  Ho8  1  0.170790  0.176137  0.064347  1
  Ho  Ho9  1  0.868134  0.538853  0.250000  1
  Ho  Ho10  1  0.631868  0.038817  0.250000  1
  Ho  Ho11  1  0.366721  0.958669  0.750000  1
  Os  Os12  1  0.038569  0.884394  0.250000  1
  Os  Os13  1  0.461477  0.384335  0.250000  1
  Ru  Ru14  1  0.962787  0.115853  0.750000  1
  Ru  Ru15  1  0.537568  0.616278  0.750000  1
