# generated using pymatgen
data_PrYTmTaO7
_symmetry_space_group_name_H-M   'P 1'
_cell_length_a   6.49785053
_cell_length_b   6.49784985
_cell_length_c   7.60511000
_cell_angle_alpha   90.00000000
_cell_angle_beta   90.00000000
_cell_angle_gamma   109.22790042
_symmetry_Int_Tables_number   1
_chemical_formula_structural   PrYTmTaO7
_chemical_formula_sum   'Pr2 Y2 Tm2 Ta2 O14'
_cell_volume   303.19099385
_cell_formula_units_Z   2
loop_
 _symmetry_equiv_pos_site_id
 _symmetry_equiv_pos_as_xyz
  1  'x, y, z'
loop_
 _atom_site_type_symbol
 _atom_site_label
 _atom_site_symmetry_multiplicity
 _atom_site_fract_x
 _atom_site_fract_y
 _atom_site_fract_z
 _atom_site_occupancy
  Pr  Pr0  1  0.501561  0.501561  0.500000  1
  Pr  Pr1  1  0.501561  0.501561  0.000000  1
  Y  Y2  1  0.467028  0.999506  0.250000  1
  Y  Y3  1  0.999506  0.467028  0.750000  1
  Tm  Tm4  1  0.532190  0.001511  0.750000  1
  Tm  Tm5  1  0.001511  0.532190  0.250000  1
  Ta  Ta6  1  0.000099  0.000099  0.500000  1
  Ta  Ta7  1  0.000099  0.000099  0.000000  1
  O  O8  1  0.678807  0.931189  0.470748  1
  O  O9  1  0.931189  0.678807  0.529252  1
  O  O10  1  0.678807  0.931189  0.029252  1
  O  O11  1  0.931189  0.678807  0.970748  1
  O  O12  1  0.319682  0.067437  0.535535  1
  O  O13  1  0.067437  0.319682  0.464465  1
  O  O14  1  0.319682  0.067437  0.964465  1
  O  O15  1  0.067437  0.319682  0.035535  1
  O  O16  1  0.936109  0.063540  0.750000  1
  O  O17  1  0.063540  0.936109  0.250000  1
  O  O18  1  0.364926  0.641936  0.750000  1
  O  O19  1  0.641936  0.364926  0.250000  1
  O  O20  1  0.642754  0.352951  0.750000  1
  O  O21  1  0.352951  0.642754  0.250000  1
