# generated using pymatgen
data_Er8ZnCu(Si6Pd)2
_symmetry_space_group_name_H-M   'P 1'
_cell_length_a   8.07686200
_cell_length_b   8.07686228
_cell_length_c   8.01215300
_cell_angle_alpha   90.00000000
_cell_angle_beta   90.00000000
_cell_angle_gamma   119.99999885
_symmetry_Int_Tables_number   1
_chemical_formula_structural   Er8ZnCu(Si6Pd)2
_chemical_formula_sum   'Er8 Zn1 Cu1 Si12 Pd2'
_cell_volume   452.65280003
_cell_formula_units_Z   1
loop_
 _symmetry_equiv_pos_site_id
 _symmetry_equiv_pos_as_xyz
  1  'x, y, z'
loop_
 _atom_site_type_symbol
 _atom_site_label
 _atom_site_symmetry_multiplicity
 _atom_site_fract_x
 _atom_site_fract_y
 _atom_site_fract_z
 _atom_site_occupancy
  Er  Er0  1  0.502388  0.004777  0.249968  1
  Er  Er1  1  0.499321  0.998639  0.750205  1
  Er  Er2  1  0.995223  0.497612  0.249968  1
  Er  Er3  1  0.001361  0.500679  0.750205  1
  Er  Er4  1  0.502388  0.497612  0.249968  1
  Er  Er5  1  0.499321  0.500679  0.750205  1
  Er  Er6  1  0.000000  0.000000  0.249164  1
  Er  Er7  1  0.000000  0.000000  0.749842  1
  Zn  Zn8  1  0.333333  0.666667  0.009551  1
  Cu  Cu9  1  0.666667  0.333333  0.994854  1
  Si  Si10  1  0.165274  0.330547  0.997955  1
  Si  Si11  1  0.829443  0.658886  0.000931  1
  Si  Si12  1  0.669453  0.834726  0.997955  1
  Si  Si13  1  0.834237  0.668473  0.501459  1
  Si  Si14  1  0.341114  0.170557  0.000931  1
  Si  Si15  1  0.165912  0.331824  0.498343  1
  Si  Si16  1  0.165274  0.834726  0.997955  1
  Si  Si17  1  0.331527  0.165763  0.501459  1
  Si  Si18  1  0.829443  0.170557  0.000931  1
  Si  Si19  1  0.668176  0.834088  0.498343  1
  Si  Si20  1  0.834237  0.165763  0.501459  1
  Si  Si21  1  0.165912  0.834088  0.498343  1
  Pd  Pd22  1  0.666667  0.333333  0.503518  1
  Pd  Pd23  1  0.333333  0.666667  0.496490  1
