# generated using pymatgen
data_Yb11Pr(AgGe)12
_symmetry_space_group_name_H-M   'P 1'
_cell_length_a   4.57749900
_cell_length_b   7.87034443
_cell_length_c   21.44449197
_cell_angle_alpha   90.10697806
_cell_angle_beta   90.00000000
_cell_angle_gamma   90.00000000
_symmetry_Int_Tables_number   1
_chemical_formula_structural   Yb11Pr(AgGe)12
_chemical_formula_sum   'Yb11 Pr1 Ag12 Ge12'
_cell_volume   772.56850935
_cell_formula_units_Z   1
loop_
 _symmetry_equiv_pos_site_id
 _symmetry_equiv_pos_as_xyz
  1  'x, y, z'
loop_
 _atom_site_type_symbol
 _atom_site_label
 _atom_site_symmetry_multiplicity
 _atom_site_fract_x
 _atom_site_fract_y
 _atom_site_fract_z
 _atom_site_occupancy
  Yb  Yb0  1  0.250000  0.223385  0.002067  1
  Yb  Yb1  1  0.250000  0.277093  0.499577  1
  Yb  Yb2  1  0.750000  0.773785  0.002510  1
  Yb  Yb3  1  0.750000  0.722445  0.499114  1
  Yb  Yb4  1  0.250000  0.210116  0.333767  1
  Yb  Yb5  1  0.250000  0.286251  0.833791  1
  Yb  Yb6  1  0.750000  0.787998  0.664281  1
  Yb  Yb7  1  0.750000  0.709883  0.166475  1
  Yb  Yb8  1  0.250000  0.214744  0.665184  1
  Yb  Yb9  1  0.250000  0.288520  0.167205  1
  Yb  Yb10  1  0.750000  0.788061  0.332950  1
  Pr  Pr11  1  0.750000  0.710758  0.833892  1
  Ag  Ag12  1  0.250000  0.918528  0.758740  1
  Ag  Ag13  1  0.250000  0.586691  0.262151  1
  Ag  Ag14  1  0.750000  0.086946  0.238209  1
  Ag  Ag15  1  0.750000  0.409155  0.735582  1
  Ag  Ag16  1  0.250000  0.925107  0.909096  1
  Ag  Ag17  1  0.250000  0.580984  0.405688  1
  Ag  Ag18  1  0.750000  0.080767  0.094404  1
  Ag  Ag19  1  0.750000  0.419480  0.593178  1
  Ag  Ag20  1  0.250000  0.917306  0.565122  1
  Ag  Ag21  1  0.250000  0.581256  0.067780  1
  Ag  Ag22  1  0.750000  0.082442  0.434328  1
  Ag  Ag23  1  0.750000  0.415057  0.941015  1
  Ge  Ge24  1  0.250000  0.583349  0.728111  1
  Ge  Ge25  1  0.250000  0.918166  0.227784  1
  Ge  Ge26  1  0.750000  0.417448  0.272185  1
  Ge  Ge27  1  0.750000  0.082853  0.771126  1
  Ge  Ge28  1  0.250000  0.910816  0.102768  1
  Ge  Ge29  1  0.250000  0.587099  0.601952  1
  Ge  Ge30  1  0.750000  0.090527  0.897176  1
  Ge  Ge31  1  0.750000  0.412869  0.397694  1
  Ge  Ge32  1  0.250000  0.590510  0.920887  1
  Ge  Ge33  1  0.250000  0.910109  0.427351  1
  Ge  Ge34  1  0.750000  0.409343  0.073949  1
  Ge  Ge35  1  0.750000  0.090157  0.572910  1
