# generated using pymatgen
data_Li2TbYb7(Si6Pd)2
_symmetry_space_group_name_H-M   'P 1'
_cell_length_a   8.27892300
_cell_length_b   8.27892170
_cell_length_c   8.23362300
_cell_angle_alpha   90.00000000
_cell_angle_beta   90.00000000
_cell_angle_gamma   119.99999320
_symmetry_Int_Tables_number   1
_chemical_formula_structural   Li2TbYb7(Si6Pd)2
_chemical_formula_sum   'Li2 Tb1 Yb7 Si12 Pd2'
_cell_volume   488.73029181
_cell_formula_units_Z   1
loop_
 _symmetry_equiv_pos_site_id
 _symmetry_equiv_pos_as_xyz
  1  'x, y, z'
loop_
 _atom_site_type_symbol
 _atom_site_label
 _atom_site_symmetry_multiplicity
 _atom_site_fract_x
 _atom_site_fract_y
 _atom_site_fract_z
 _atom_site_occupancy
  Li  Li0  1  0.333333  0.666667  0.003691  1
  Li  Li1  1  0.666667  0.333333  0.998184  1
  Tb  Tb2  1  0.000000  0.000000  0.751177  1
  Yb  Yb3  1  0.500531  0.001062  0.258116  1
  Yb  Yb4  1  0.499381  0.998761  0.743362  1
  Yb  Yb5  1  0.998938  0.499469  0.258116  1
  Yb  Yb6  1  0.001239  0.500619  0.743362  1
  Yb  Yb7  1  0.500531  0.499469  0.258116  1
  Yb  Yb8  1  0.499381  0.500619  0.743362  1
  Yb  Yb9  1  0.000000  0.000000  0.249761  1
  Si  Si10  1  0.163182  0.326364  0.996460  1
  Si  Si11  1  0.836831  0.673662  0.997244  1
  Si  Si12  1  0.673636  0.836818  0.996460  1
  Si  Si13  1  0.835781  0.671565  0.502616  1
  Si  Si14  1  0.326338  0.163169  0.997244  1
  Si  Si15  1  0.164262  0.328525  0.502016  1
  Si  Si16  1  0.163182  0.836818  0.996460  1
  Si  Si17  1  0.328435  0.164219  0.502616  1
  Si  Si18  1  0.836831  0.163169  0.997244  1
  Si  Si19  1  0.671475  0.835738  0.502016  1
  Si  Si20  1  0.835781  0.164219  0.502616  1
  Si  Si21  1  0.164262  0.835738  0.502016  1
  Pd  Pd22  1  0.666667  0.333333  0.500026  1
  Pd  Pd23  1  0.333333  0.666667  0.497719  1
