# generated using pymatgen
data_NdFe3P3Ir2
_symmetry_space_group_name_H-M   'P 1'
_cell_length_a   3.84315400
_cell_length_b   10.35585400
_cell_length_c   12.28433100
_cell_angle_alpha   90.00000000
_cell_angle_beta   90.00000000
_cell_angle_gamma   90.00000000
_symmetry_Int_Tables_number   1
_chemical_formula_structural   NdFe3P3Ir2
_chemical_formula_sum   'Nd4 Fe12 P12 Ir8'
_cell_volume   488.90583045
_cell_formula_units_Z   4
loop_
 _symmetry_equiv_pos_site_id
 _symmetry_equiv_pos_as_xyz
  1  'x, y, z'
loop_
 _atom_site_type_symbol
 _atom_site_label
 _atom_site_symmetry_multiplicity
 _atom_site_fract_x
 _atom_site_fract_y
 _atom_site_fract_z
 _atom_site_occupancy
  Nd  Nd0  1  0.250000  0.581484  0.712495  1
  Nd  Nd1  1  0.250000  0.918516  0.212495  1
  Nd  Nd2  1  0.750000  0.418516  0.287505  1
  Nd  Nd3  1  0.750000  0.081484  0.787505  1
  Fe  Fe4  1  0.250000  0.223069  0.170032  1
  Fe  Fe5  1  0.250000  0.276931  0.670032  1
  Fe  Fe6  1  0.750000  0.776931  0.829968  1
  Fe  Fe7  1  0.750000  0.723069  0.329968  1
  Fe  Fe8  1  0.250000  0.877529  0.694947  1
  Fe  Fe9  1  0.250000  0.622471  0.194947  1
  Fe  Fe10  1  0.750000  0.122471  0.305053  1
  Fe  Fe11  1  0.750000  0.377529  0.805053  1
  Fe  Fe12  1  0.250000  0.458006  0.937792  1
  Fe  Fe13  1  0.250000  0.041994  0.437792  1
  Fe  Fe14  1  0.750000  0.541994  0.062208  1
  Fe  Fe15  1  0.750000  0.958006  0.562208  1
  P  P16  1  0.250000  0.428838  0.111214  1
  P  P17  1  0.250000  0.071162  0.611214  1
  P  P18  1  0.750000  0.571162  0.888786  1
  P  P19  1  0.750000  0.928838  0.388786  1
  P  P20  1  0.250000  0.276221  0.852768  1
  P  P21  1  0.250000  0.223779  0.352768  1
  P  P22  1  0.750000  0.723779  0.147232  1
  P  P23  1  0.750000  0.776221  0.647232  1
  P  P24  1  0.250000  0.606681  0.376920  1
  P  P25  1  0.250000  0.893319  0.876920  1
  P  P26  1  0.750000  0.393319  0.623080  1
  P  P27  1  0.750000  0.106681  0.123080  1
  Ir  Ir28  1  0.250000  0.708509  0.983581  1
  Ir  Ir29  1  0.250000  0.791491  0.483581  1
  Ir  Ir30  1  0.750000  0.291491  0.016419  1
  Ir  Ir31  1  0.750000  0.208509  0.516419  1
  Ir  Ir32  1  0.250000  0.404853  0.479156  1
  Ir  Ir33  1  0.250000  0.095147  0.979156  1
  Ir  Ir34  1  0.750000  0.595147  0.520844  1
  Ir  Ir35  1  0.750000  0.904853  0.020844  1
