# generated using pymatgen
data_YEr5TcIr
_symmetry_space_group_name_H-M   'P 1'
_cell_length_a   6.29611200
_cell_length_b   7.33332200
_cell_length_c   9.07679700
_cell_angle_alpha   90.00000000
_cell_angle_beta   90.00000000
_cell_angle_gamma   90.00000000
_symmetry_Int_Tables_number   1
_chemical_formula_structural   YEr5TcIr
_chemical_formula_sum   'Y2 Er10 Tc2 Ir2'
_cell_volume   419.08857608
_cell_formula_units_Z   2
loop_
 _symmetry_equiv_pos_site_id
 _symmetry_equiv_pos_as_xyz
  1  'x, y, z'
loop_
 _atom_site_type_symbol
 _atom_site_label
 _atom_site_symmetry_multiplicity
 _atom_site_fract_x
 _atom_site_fract_y
 _atom_site_fract_z
 _atom_site_occupancy
  Y  Y0  1  0.132261  0.460623  0.750000  1
  Y  Y1  1  0.367739  0.960623  0.750000  1
  Er  Er2  1  0.329919  0.676333  0.065993  1
  Er  Er3  1  0.170081  0.176333  0.434007  1
  Er  Er4  1  0.667801  0.323916  0.560263  1
  Er  Er5  1  0.832199  0.823916  0.939737  1
  Er  Er6  1  0.667801  0.323916  0.939737  1
  Er  Er7  1  0.832199  0.823916  0.560263  1
  Er  Er8  1  0.329919  0.676333  0.434007  1
  Er  Er9  1  0.170081  0.176333  0.065993  1
  Er  Er10  1  0.873320  0.538917  0.250000  1
  Er  Er11  1  0.626680  0.038917  0.250000  1
  Tc  Tc12  1  0.036058  0.885452  0.250000  1
  Tc  Tc13  1  0.463942  0.385452  0.250000  1
  Ir  Ir14  1  0.952610  0.114510  0.750000  1
  Ir  Ir15  1  0.547390  0.614510  0.750000  1
