# generated using pymatgen
data_FeCu(IrO3)4
_symmetry_space_group_name_H-M   'P 1'
_cell_length_a   4.57066718
_cell_length_b   4.53599095
_cell_length_c   9.43884590
_cell_angle_alpha   89.98529360
_cell_angle_beta   90.01266145
_cell_angle_gamma   89.75852947
_symmetry_Int_Tables_number   1
_chemical_formula_structural   FeCu(IrO3)4
_chemical_formula_sum   'Fe1 Cu1 Ir4 O12'
_cell_volume   195.68917024
_cell_formula_units_Z   1
loop_
 _symmetry_equiv_pos_site_id
 _symmetry_equiv_pos_as_xyz
  1  'x, y, z'
loop_
 _atom_site_type_symbol
 _atom_site_label
 _atom_site_symmetry_multiplicity
 _atom_site_fract_x
 _atom_site_fract_y
 _atom_site_fract_z
 _atom_site_occupancy
  Fe  Fe0  1  0.500000  0.500000  0.500000  1
  Cu  Cu1  1  0.000000  0.000000  0.000000  1
  Ir  Ir2  1  0.499765  0.500365  0.167456  1
  Ir  Ir3  1  0.000169  0.999685  0.668550  1
  Ir  Ir4  1  0.500235  0.499635  0.832544  1
  Ir  Ir5  1  0.999831  0.000315  0.331450  1
  O  O6  1  0.691820  0.699180  0.666692  1
  O  O7  1  0.194776  0.797636  0.170637  1
  O  O8  1  0.308180  0.300820  0.333308  1
  O  O9  1  0.805224  0.202364  0.829363  1
  O  O10  1  0.195210  0.796672  0.829240  1
  O  O11  1  0.691256  0.700053  0.333300  1
  O  O12  1  0.804790  0.203328  0.170760  1
  O  O13  1  0.308744  0.299947  0.666700  1
  O  O14  1  0.185321  0.807229  0.499946  1
  O  O15  1  0.686306  0.694926  0.999970  1
  O  O16  1  0.814679  0.192771  0.500054  1
  O  O17  1  0.313694  0.305074  0.000030  1
