# generated using pymatgen
data_Dy3Er7(GaSb2)2
_symmetry_space_group_name_H-M   'P 1'
_cell_length_a   8.78869249
_cell_length_b   8.77130388
_cell_length_c   6.37179400
_cell_angle_alpha   90.00000000
_cell_angle_beta   90.00000000
_cell_angle_gamma   119.89648280
_symmetry_Int_Tables_number   1
_chemical_formula_structural   Dy3Er7(GaSb2)2
_chemical_formula_sum   'Dy3 Er7 Ga2 Sb4'
_cell_volume   425.82666851
_cell_formula_units_Z   1
loop_
 _symmetry_equiv_pos_site_id
 _symmetry_equiv_pos_as_xyz
  1  'x, y, z'
loop_
 _atom_site_type_symbol
 _atom_site_label
 _atom_site_symmetry_multiplicity
 _atom_site_fract_x
 _atom_site_fract_y
 _atom_site_fract_z
 _atom_site_occupancy
  Dy  Dy0  1  0.011470  0.767547  0.750000  1
  Dy  Dy1  1  0.011227  0.243952  0.250000  1
  Dy  Dy2  1  0.752807  0.999567  0.750000  1
  Er  Er3  1  0.752510  0.753266  0.250000  1
  Er  Er4  1  0.244464  0.233068  0.750000  1
  Er  Er5  1  0.244523  0.011113  0.250000  1
  Er  Er6  1  0.336229  0.668032  0.500222  1
  Er  Er7  1  0.652921  0.326472  0.000017  1
  Er  Er8  1  0.652921  0.326472  0.499983  1
  Er  Er9  1  0.336229  0.668032  0.999778  1
  Ga  Ga10  1  0.394685  0.997726  0.750000  1
  Ga  Ga11  1  0.395579  0.398295  0.250000  1
  Sb  Sb12  1  0.998532  0.607476  0.250000  1
  Sb  Sb13  1  0.999491  0.391944  0.750000  1
  Sb  Sb14  1  0.607954  0.606244  0.750000  1
  Sb  Sb15  1  0.608457  0.000795  0.250000  1
