# generated using pymatgen
data_Lu6CoRh
_symmetry_space_group_name_H-M   'P 1'
_cell_length_a   6.13200316
_cell_length_b   6.97294877
_cell_length_c   9.13915400
_cell_angle_alpha   90.00000000
_cell_angle_beta   90.00000000
_cell_angle_gamma   90.38725109
_symmetry_Int_Tables_number   1
_chemical_formula_structural   Lu6CoRh
_chemical_formula_sum   'Lu12 Co2 Rh2'
_cell_volume   390.76433611
_cell_formula_units_Z   2
loop_
 _symmetry_equiv_pos_site_id
 _symmetry_equiv_pos_as_xyz
  1  'x, y, z'
loop_
 _atom_site_type_symbol
 _atom_site_label
 _atom_site_symmetry_multiplicity
 _atom_site_fract_x
 _atom_site_fract_y
 _atom_site_fract_z
 _atom_site_occupancy
  Lu  Lu0  1  0.626768  0.044582  0.250000  1
  Lu  Lu1  1  0.373232  0.955418  0.750000  1
  Lu  Lu2  1  0.141220  0.467656  0.750000  1
  Lu  Lu3  1  0.858780  0.532344  0.250000  1
  Lu  Lu4  1  0.177800  0.181735  0.063929  1
  Lu  Lu5  1  0.822200  0.818265  0.936071  1
  Lu  Lu6  1  0.673077  0.328929  0.934674  1
  Lu  Lu7  1  0.822200  0.818265  0.563929  1
  Lu  Lu8  1  0.326923  0.671071  0.065326  1
  Lu  Lu9  1  0.177800  0.181735  0.436071  1
  Lu  Lu10  1  0.326923  0.671071  0.434674  1
  Lu  Lu11  1  0.673077  0.328929  0.565326  1
  Co  Co12  1  0.452087  0.384575  0.250000  1
  Co  Co13  1  0.547913  0.615425  0.750000  1
  Rh  Rh14  1  0.952890  0.113273  0.750000  1
  Rh  Rh15  1  0.047110  0.886727  0.250000  1
