# generated using pymatgen
data_Tb3HoSc6(GaSi3)2
_symmetry_space_group_name_H-M   'P 1'
_cell_length_a   7.14130310
_cell_length_b   7.41925478
_cell_length_c   14.15605472
_cell_angle_alpha   89.96877414
_cell_angle_beta   89.87627059
_cell_angle_gamma   90.16201052
_symmetry_Int_Tables_number   1
_chemical_formula_structural   Tb3HoSc6(GaSi3)2
_chemical_formula_sum   'Tb6 Ho2 Sc12 Ga4 Si12'
_cell_volume   750.02746917
_cell_formula_units_Z   2
loop_
 _symmetry_equiv_pos_site_id
 _symmetry_equiv_pos_as_xyz
  1  'x, y, z'
loop_
 _atom_site_type_symbol
 _atom_site_label
 _atom_site_symmetry_multiplicity
 _atom_site_fract_x
 _atom_site_fract_y
 _atom_site_fract_z
 _atom_site_occupancy
  Tb  Tb0  1  0.013584  0.174545  0.097143  1
  Tb  Tb1  1  0.988038  0.825095  0.901749  1
  Tb  Tb2  1  0.486950  0.676638  0.901565  1
  Tb  Tb3  1  0.987572  0.827601  0.600176  1
  Tb  Tb4  1  0.510905  0.321744  0.097221  1
  Tb  Tb5  1  0.009956  0.174566  0.400725  1
  Ho  Ho6  1  0.511171  0.324597  0.400510  1
  Ho  Ho7  1  0.490214  0.675847  0.600579  1
  Sc  Sc8  1  0.162517  0.500952  0.751222  1
  Sc  Sc9  1  0.836834  0.498271  0.250170  1
  Sc  Sc10  1  0.336666  0.001991  0.248587  1
  Sc  Sc11  1  0.662925  0.998514  0.749892  1
  Sc  Sc12  1  0.333226  0.175032  0.627494  1
  Sc  Sc13  1  0.669235  0.825863  0.373877  1
  Sc  Sc14  1  0.170396  0.674080  0.373173  1
  Sc  Sc15  1  0.668771  0.825783  0.125493  1
  Sc  Sc16  1  0.828701  0.324394  0.626582  1
  Sc  Sc17  1  0.330494  0.175809  0.874625  1
  Sc  Sc18  1  0.829181  0.323207  0.874227  1
  Sc  Sc19  1  0.173044  0.675634  0.124578  1
  Ga  Ga20  1  0.161768  0.461700  0.539819  1
  Ga  Ga21  1  0.839108  0.537815  0.461225  1
  Ga  Ga22  1  0.340247  0.961953  0.461457  1
  Ga  Ga23  1  0.840256  0.537968  0.038725  1
  Si  Si24  1  0.033141  0.116907  0.751131  1
  Si  Si25  1  0.966819  0.883458  0.249315  1
  Si  Si26  1  0.467218  0.614841  0.248669  1
  Si  Si27  1  0.533037  0.384837  0.750952  1
  Si  Si28  1  0.286227  0.872272  0.750822  1
  Si  Si29  1  0.714738  0.127289  0.248905  1
  Si  Si30  1  0.214411  0.372817  0.249052  1
  Si  Si31  1  0.786450  0.628082  0.751204  1
  Si  Si32  1  0.657485  0.036304  0.539312  1
  Si  Si33  1  0.157766  0.463525  0.960741  1
  Si  Si34  1  0.656350  0.035998  0.961240  1
  Si  Si35  1  0.344597  0.964068  0.037847  1
