# generated using pymatgen
data_SmHo2(AgGe)3
_symmetry_space_group_name_H-M   'P 1'
_cell_length_a   7.23552255
_cell_length_b   7.23552374
_cell_length_c   4.22233900
_cell_angle_alpha   90.00000000
_cell_angle_beta   90.00000000
_cell_angle_gamma   120.22180435
_symmetry_Int_Tables_number   1
_chemical_formula_structural   SmHo2(AgGe)3
_chemical_formula_sum   'Sm1 Ho2 Ag3 Ge3'
_cell_volume   191.00669513
_cell_formula_units_Z   1
loop_
 _symmetry_equiv_pos_site_id
 _symmetry_equiv_pos_as_xyz
  1  'x, y, z'
loop_
 _atom_site_type_symbol
 _atom_site_label
 _atom_site_symmetry_multiplicity
 _atom_site_fract_x
 _atom_site_fract_y
 _atom_site_fract_z
 _atom_site_occupancy
  Sm  Sm0  1  0.414515  0.414515  0.000000  1
  Ho  Ho1  1  0.587045  0.000629  0.000000  1
  Ho  Ho2  1  0.000629  0.587045  0.000000  1
  Ag  Ag3  1  0.251765  0.998809  0.500000  1
  Ag  Ag4  1  0.998809  0.251765  0.500000  1
  Ag  Ag5  1  0.749458  0.749458  0.500000  1
  Ge  Ge6  1  0.331861  0.669360  0.500000  1
  Ge  Ge7  1  0.669360  0.331861  0.500000  1
  Ge  Ge8  1  0.996559  0.996559  0.000000  1
