# generated using pymatgen
data_Y4LuHf5(Si5Ir2)4
_symmetry_space_group_name_H-M   'P 1'
_cell_length_a   12.47420400
_cell_length_b   12.47420400
_cell_length_c   4.16529200
_cell_angle_alpha   90.00000000
_cell_angle_beta   90.00000000
_cell_angle_gamma   90.00000000
_symmetry_Int_Tables_number   1
_chemical_formula_structural   Y4LuHf5(Si5Ir2)4
_chemical_formula_sum   'Y4 Lu1 Hf5 Si20 Ir8'
_cell_volume   648.14344991
_cell_formula_units_Z   1
loop_
 _symmetry_equiv_pos_site_id
 _symmetry_equiv_pos_as_xyz
  1  'x, y, z'
loop_
 _atom_site_type_symbol
 _atom_site_label
 _atom_site_symmetry_multiplicity
 _atom_site_fract_x
 _atom_site_fract_y
 _atom_site_fract_z
 _atom_site_occupancy
  Y  Y0  1  0.884406  0.384761  0.500000  1
  Y  Y1  1  0.115594  0.615239  0.500000  1
  Y  Y2  1  0.384761  0.115594  0.500000  1
  Y  Y3  1  0.615239  0.884406  0.500000  1
  Lu  Lu4  1  0.000000  0.000000  0.000000  1
  Hf  Hf5  1  0.500000  0.500000  0.000000  1
  Hf  Hf6  1  0.674078  0.175458  0.500000  1
  Hf  Hf7  1  0.325922  0.824542  0.500000  1
  Hf  Hf8  1  0.175458  0.325922  0.500000  1
  Hf  Hf9  1  0.824542  0.674078  0.500000  1
  Si  Si10  1  0.566282  0.067725  0.000000  1
  Si  Si11  1  0.433718  0.932275  0.000000  1
  Si  Si12  1  0.067725  0.433718  0.000000  1
  Si  Si13  1  0.932275  0.566282  0.000000  1
  Si  Si14  1  0.665041  0.701481  0.000000  1
  Si  Si15  1  0.334959  0.298519  0.000000  1
  Si  Si16  1  0.163525  0.800611  0.000000  1
  Si  Si17  1  0.836475  0.199389  0.000000  1
  Si  Si18  1  0.298519  0.665041  0.000000  1
  Si  Si19  1  0.701481  0.334959  0.000000  1
  Si  Si20  1  0.199389  0.163525  0.000000  1
  Si  Si21  1  0.800611  0.836475  0.000000  1
  Si  Si22  1  0.650762  0.508414  0.500000  1
  Si  Si23  1  0.349238  0.491586  0.500000  1
  Si  Si24  1  0.154903  0.992055  0.500000  1
  Si  Si25  1  0.845097  0.007945  0.500000  1
  Si  Si26  1  0.491586  0.650762  0.500000  1
  Si  Si27  1  0.508414  0.349238  0.500000  1
  Si  Si28  1  0.007945  0.154903  0.500000  1
  Si  Si29  1  0.992055  0.845097  0.500000  1
  Ir  Ir30  1  0.741582  0.522191  0.000000  1
  Ir  Ir31  1  0.258418  0.477809  0.000000  1
  Ir  Ir32  1  0.245189  0.977483  0.000000  1
  Ir  Ir33  1  0.754811  0.022517  0.000000  1
  Ir  Ir34  1  0.477809  0.741582  0.000000  1
  Ir  Ir35  1  0.522191  0.258418  0.000000  1
  Ir  Ir36  1  0.022517  0.245189  0.000000  1
  Ir  Ir37  1  0.977483  0.754811  0.000000  1
