# generated using pymatgen
data_Er3(ThSn2)2
_symmetry_space_group_name_H-M   'P 1'
_cell_length_a   8.11749900
_cell_length_b   8.19996800
_cell_length_c   15.49719100
_cell_angle_alpha   90.00000000
_cell_angle_beta   90.00000000
_cell_angle_gamma   90.00000000
_symmetry_Int_Tables_number   1
_chemical_formula_structural   Er3(ThSn2)2
_chemical_formula_sum   'Er12 Th8 Sn16'
_cell_volume   1031.54312050
_cell_formula_units_Z   4
loop_
 _symmetry_equiv_pos_site_id
 _symmetry_equiv_pos_as_xyz
  1  'x, y, z'
loop_
 _atom_site_type_symbol
 _atom_site_label
 _atom_site_symmetry_multiplicity
 _atom_site_fract_x
 _atom_site_fract_y
 _atom_site_fract_z
 _atom_site_occupancy
  Er  Er0  1  0.363586  0.836652  0.876072  1
  Er  Er1  1  0.863586  0.663348  0.623928  1
  Er  Er2  1  0.636414  0.163348  0.376072  1
  Er  Er3  1  0.136414  0.336652  0.123928  1
  Er  Er4  1  0.636414  0.163348  0.123928  1
  Er  Er5  1  0.136414  0.336652  0.376072  1
  Er  Er6  1  0.363586  0.836652  0.623928  1
  Er  Er7  1  0.863586  0.663348  0.876072  1
  Er  Er8  1  0.192309  0.498517  0.750000  1
  Er  Er9  1  0.692309  0.001483  0.750000  1
  Er  Er10  1  0.807691  0.501483  0.250000  1
  Er  Er11  1  0.307691  0.998517  0.250000  1
  Th  Th12  1  0.520110  0.320112  0.903362  1
  Th  Th13  1  0.020110  0.179888  0.596638  1
  Th  Th14  1  0.479890  0.679888  0.403362  1
  Th  Th15  1  0.979890  0.820112  0.096638  1
  Th  Th16  1  0.479890  0.679888  0.096638  1
  Th  Th17  1  0.979890  0.820112  0.403362  1
  Th  Th18  1  0.520110  0.320112  0.596638  1
  Th  Th19  1  0.020110  0.179888  0.903362  1
  Sn  Sn20  1  0.296397  0.038975  0.042408  1
  Sn  Sn21  1  0.796397  0.461025  0.457592  1
  Sn  Sn22  1  0.703603  0.961025  0.542408  1
  Sn  Sn23  1  0.203603  0.538975  0.957592  1
  Sn  Sn24  1  0.703603  0.961025  0.957592  1
  Sn  Sn25  1  0.203603  0.538975  0.542408  1
  Sn  Sn26  1  0.296397  0.038975  0.457592  1
  Sn  Sn27  1  0.796397  0.461025  0.042408  1
  Sn  Sn28  1  0.559505  0.622654  0.750000  1
  Sn  Sn29  1  0.059505  0.877346  0.750000  1
  Sn  Sn30  1  0.440495  0.377346  0.250000  1
  Sn  Sn31  1  0.940495  0.122654  0.250000  1
  Sn  Sn32  1  0.325997  0.141827  0.750000  1
  Sn  Sn33  1  0.825997  0.358173  0.750000  1
  Sn  Sn34  1  0.674003  0.858173  0.250000  1
  Sn  Sn35  1  0.174003  0.641827  0.250000  1
