# generated using pymatgen
data_Dy9YSi16Hg
_symmetry_space_group_name_H-M   'P 1'
_cell_length_a   11.11365081
_cell_length_b   11.05938603
_cell_length_c   11.11349814
_cell_angle_alpha   144.52241576
_cell_angle_beta   136.08714611
_cell_angle_gamma   57.76526556
_symmetry_Int_Tables_number   1
_chemical_formula_structural   Dy9YSi16Hg
_chemical_formula_sum   'Dy9 Y1 Si16 Hg1'
_cell_volume   545.01115312
_cell_formula_units_Z   1
loop_
 _symmetry_equiv_pos_site_id
 _symmetry_equiv_pos_as_xyz
  1  'x, y, z'
loop_
 _atom_site_type_symbol
 _atom_site_label
 _atom_site_symmetry_multiplicity
 _atom_site_fract_x
 _atom_site_fract_y
 _atom_site_fract_z
 _atom_site_occupancy
  Dy  Dy0  1  0.444086  0.969093  0.015747  1
  Dy  Dy1  1  0.849603  0.366052  0.018868  1
  Dy  Dy2  1  0.953398  0.969133  0.525024  1
  Dy  Dy3  1  0.151724  0.166159  0.518852  1
  Dy  Dy4  1  0.347163  0.366024  0.516454  1
  Dy  Dy5  1  0.244564  0.760441  0.005744  1
  Dy  Dy6  1  0.545420  0.560369  0.498904  1
  Dy  Dy7  1  0.061484  0.560404  0.014942  1
  Dy  Dy8  1  0.647273  0.166137  0.014442  1
  Y  Y9  1  0.754740  0.760493  0.515966  1
  Si  Si10  1  0.199347  0.581567  0.382177  1
  Si  Si11  1  0.000555  0.082024  0.081941  1
  Si  Si12  1  0.699908  0.281488  0.581609  1
  Si  Si13  1  0.800982  0.177182  0.376173  1
  Si  Si14  1  0.895990  0.505574  0.609926  1
  Si  Si15  1  0.416498  0.869805  0.452843  1
  Si  Si16  1  0.103722  0.713415  0.610044  1
  Si  Si17  1  0.301159  0.896760  0.595640  1
  Si  Si18  1  0.582693  0.041181  0.458023  1
  Si  Si19  1  0.999528  0.429560  0.430422  1
  Si  Si20  1  0.879801  0.842511  0.962804  1
  Si  Si21  1  0.399770  0.499147  0.099022  1
  Si  Si22  1  0.120230  0.087770  0.967661  1
  Si  Si23  1  0.286110  0.238351  0.952265  1
  Si  Si24  1  0.499279  0.391034  0.891564  1
  Si  Si25  1  0.596673  0.703817  0.106725  1
  Hg  Hg26  1  0.718302  0.676008  0.957719  1
