# generated using pymatgen
data_Nd8Er12Si15P
_symmetry_space_group_name_H-M   'P 1'
_cell_length_a   7.46529637
_cell_length_b   14.68177800
_cell_length_c   7.74980052
_cell_angle_alpha   90.00000000
_cell_angle_beta   90.30497097
_cell_angle_gamma   90.00000000
_symmetry_Int_Tables_number   1
_chemical_formula_structural   Nd8Er12Si15P
_chemical_formula_sum   'Nd8 Er12 Si15 P1'
_cell_volume   849.39573935
_cell_formula_units_Z   1
loop_
 _symmetry_equiv_pos_site_id
 _symmetry_equiv_pos_as_xyz
  1  'x, y, z'
loop_
 _atom_site_type_symbol
 _atom_site_label
 _atom_site_symmetry_multiplicity
 _atom_site_fract_x
 _atom_site_fract_y
 _atom_site_fract_z
 _atom_site_occupancy
  Nd  Nd0  1  0.020679  0.097440  0.178464  1
  Nd  Nd1  1  0.020679  0.402560  0.178464  1
  Nd  Nd2  1  0.521616  0.097640  0.321142  1
  Nd  Nd3  1  0.521616  0.402360  0.321142  1
  Nd  Nd4  1  0.479762  0.597575  0.677738  1
  Nd  Nd5  1  0.479762  0.902425  0.677738  1
  Nd  Nd6  1  0.980813  0.601072  0.823223  1
  Nd  Nd7  1  0.980813  0.898928  0.823223  1
  Er  Er8  1  0.348350  0.250000  0.010308  1
  Er  Er9  1  0.316332  0.626107  0.173005  1
  Er  Er10  1  0.316332  0.873892  0.173005  1
  Er  Er11  1  0.821157  0.624266  0.322979  1
  Er  Er12  1  0.821157  0.875733  0.322979  1
  Er  Er13  1  0.846860  0.250000  0.489599  1
  Er  Er14  1  0.151834  0.750000  0.509665  1
  Er  Er15  1  0.177782  0.122955  0.678446  1
  Er  Er16  1  0.177782  0.377044  0.678446  1
  Er  Er17  1  0.678951  0.122799  0.821915  1
  Er  Er18  1  0.678951  0.377200  0.821915  1
  Er  Er19  1  0.653384  0.750000  0.992102  1
  Si  Si20  1  0.646502  0.540539  0.032852  1
  Si  Si21  1  0.646502  0.959461  0.032852  1
  Si  Si22  1  0.728443  0.250000  0.121211  1
  Si  Si23  1  0.228321  0.250000  0.379005  1
  Si  Si24  1  0.524127  0.750000  0.383710  1
  Si  Si25  1  0.146338  0.540517  0.467050  1
  Si  Si26  1  0.146338  0.959483  0.467050  1
  Si  Si27  1  0.854136  0.039349  0.532188  1
  Si  Si28  1  0.854136  0.460650  0.532188  1
  Si  Si29  1  0.472828  0.250000  0.612339  1
  Si  Si30  1  0.774009  0.750000  0.624464  1
  Si  Si31  1  0.287580  0.750000  0.862553  1
  Si  Si32  1  0.973149  0.250000  0.887898  1
  Si  Si33  1  0.353034  0.039736  0.969569  1
  Si  Si34  1  0.353034  0.460263  0.969569  1
  P  P35  1  0.016907  0.750000  0.130003  1
