# generated using pymatgen
data_Nd4Dy2Al24ZnOs7
_symmetry_space_group_name_H-M   'P 1'
_cell_length_a   8.94125224
_cell_length_b   8.94125302
_cell_length_c   9.61934690
_cell_angle_alpha   90.13328370
_cell_angle_beta   89.86671643
_cell_angle_gamma   120.24577081
_symmetry_Int_Tables_number   1
_chemical_formula_structural   Nd4Dy2Al24ZnOs7
_chemical_formula_sum   'Nd4 Dy2 Al24 Zn1 Os7'
_cell_volume   664.34014790
_cell_formula_units_Z   1
loop_
 _symmetry_equiv_pos_site_id
 _symmetry_equiv_pos_as_xyz
  1  'x, y, z'
loop_
 _atom_site_type_symbol
 _atom_site_label
 _atom_site_symmetry_multiplicity
 _atom_site_fract_x
 _atom_site_fract_y
 _atom_site_fract_z
 _atom_site_occupancy
  Nd  Nd0  1  0.191627  0.382080  0.246483  1
  Nd  Nd1  1  0.808373  0.617920  0.753517  1
  Nd  Nd2  1  0.617920  0.808373  0.246483  1
  Nd  Nd3  1  0.382080  0.191627  0.753517  1
  Dy  Dy4  1  0.195102  0.804898  0.254952  1
  Dy  Dy5  1  0.804898  0.195102  0.745048  1
  Al  Al6  1  0.328632  0.671368  0.016333  1
  Al  Al7  1  0.671368  0.328632  0.983667  1
  Al  Al8  1  0.666042  0.333958  0.514811  1
  Al  Al9  1  0.333958  0.666042  0.485189  1
  Al  Al10  1  0.161307  0.326283  0.572617  1
  Al  Al11  1  0.838693  0.673717  0.427383  1
  Al  Al12  1  0.673717  0.838693  0.572617  1
  Al  Al13  1  0.851707  0.677622  0.081654  1
  Al  Al14  1  0.326283  0.161307  0.427383  1
  Al  Al15  1  0.148293  0.322378  0.918346  1
  Al  Al16  1  0.162850  0.837150  0.573772  1
  Al  Al17  1  0.322378  0.148293  0.081654  1
  Al  Al18  1  0.837150  0.162850  0.426228  1
  Al  Al19  1  0.677622  0.851707  0.918346  1
  Al  Al20  1  0.836584  0.163416  0.073010  1
  Al  Al21  1  0.163416  0.836584  0.926990  1
  Al  Al22  1  0.561209  0.120682  0.249398  1
  Al  Al23  1  0.438791  0.879318  0.750602  1
  Al  Al24  1  0.879318  0.438791  0.249398  1
  Al  Al25  1  0.120682  0.561209  0.750602  1
  Al  Al26  1  0.565575  0.434425  0.256148  1
  Al  Al27  1  0.434425  0.565575  0.743852  1
  Al  Al28  1  0.001916  0.998084  0.250574  1
  Al  Al29  1  0.998084  0.001916  0.749426  1
  Zn  Zn30  1  0.500000  0.500000  0.000000  1
  Os  Os31  1  0.500000  0.000000  0.000000  1
  Os  Os32  1  0.000000  0.500000  0.000000  1
  Os  Os33  1  0.500000  0.000000  0.500000  1
  Os  Os34  1  0.000000  0.500000  0.500000  1
  Os  Os35  1  0.500000  0.500000  0.500000  1
  Os  Os36  1  0.000000  0.000000  0.000000  1
  Os  Os37  1  0.000000  0.000000  0.500000  1
