# generated using pymatgen
data_Nd3Y9ZnGaCo4
_symmetry_space_group_name_H-M   'P 1'
_cell_length_a   8.41594852
_cell_length_b   8.41595263
_cell_length_c   8.37255580
_cell_angle_alpha   107.06456977
_cell_angle_beta   108.88925031
_cell_angle_gamma   112.70539922
_symmetry_Int_Tables_number   1
_chemical_formula_structural   Nd3Y9ZnGaCo4
_chemical_formula_sum   'Nd3 Y9 Zn1 Ga1 Co4'
_cell_volume   454.24576746
_cell_formula_units_Z   1
loop_
 _symmetry_equiv_pos_site_id
 _symmetry_equiv_pos_as_xyz
  1  'x, y, z'
loop_
 _atom_site_type_symbol
 _atom_site_label
 _atom_site_symmetry_multiplicity
 _atom_site_fract_x
 _atom_site_fract_y
 _atom_site_fract_z
 _atom_site_occupancy
  Nd  Nd0  1  0.696525  0.264412  0.960937  1
  Nd  Nd1  1  0.301796  0.734342  0.036139  1
  Nd  Nd2  1  0.695667  0.736674  0.432342  1
  Y  Y3  1  0.300109  0.261477  0.561587  1
  Y  Y4  1  0.814827  0.142135  0.331670  1
  Y  Y5  1  0.809096  0.483476  0.670543  1
  Y  Y6  1  0.187067  0.861447  0.670543  1
  Y  Y7  1  0.189534  0.516842  0.331669  1
  Y  Y8  1  0.604899  0.781770  0.822991  1
  Y  Y9  1  0.962214  0.783049  0.178612  1
  Y  Y10  1  0.041221  0.218092  0.822991  1
  Y  Y11  1  0.395564  0.216398  0.178612  1
  Zn  Zn12  1  0.495586  0.494538  0.990124  1
  Ga  Ga13  1  0.496193  0.002246  0.498439  1
  Co  Co14  1  0.836941  0.500448  0.337389  1
  Co  Co15  1  0.165358  0.499528  0.664887  1
  Co  Co16  1  0.010479  0.115050  0.125529  1
  Co  Co17  1  0.996923  0.888074  0.884997  1
