# generated using pymatgen
data_Nd2Zn2PPt6
_symmetry_space_group_name_H-M   'P 1'
_cell_length_a   9.32889464
_cell_length_b   9.32889283
_cell_length_c   4.06755400
_cell_angle_alpha   90.00000000
_cell_angle_beta   90.00000000
_cell_angle_gamma   145.48703093
_symmetry_Int_Tables_number   1
_chemical_formula_structural   Nd2Zn2PPt6
_chemical_formula_sum   'Nd2 Zn2 P1 Pt6'
_cell_volume   200.56938571
_cell_formula_units_Z   1
loop_
 _symmetry_equiv_pos_site_id
 _symmetry_equiv_pos_as_xyz
  1  'x, y, z'
loop_
 _atom_site_type_symbol
 _atom_site_label
 _atom_site_symmetry_multiplicity
 _atom_site_fract_x
 _atom_site_fract_y
 _atom_site_fract_z
 _atom_site_occupancy
  Nd  Nd0  1  0.610761  0.376708  0.500000  1
  Nd  Nd1  1  0.376708  0.610761  0.500000  1
  Zn  Zn2  1  0.194332  0.790906  0.500000  1
  Zn  Zn3  1  0.790906  0.194332  0.500000  1
  P  P4  1  0.229276  0.229276  0.000000  1
  Pt  Pt5  1  0.109752  0.884893  0.000000  1
  Pt  Pt6  1  0.884893  0.109752  0.000000  1
  Pt  Pt7  1  0.491426  0.987548  0.000000  1
  Pt  Pt8  1  0.987548  0.491426  0.000000  1
  Pt  Pt9  1  0.998363  0.998363  0.500000  1
  Pt  Pt10  1  0.639632  0.639632  0.000000  1
