# generated using pymatgen
data_Dy16In4IrRu2Pt
_symmetry_space_group_name_H-M   'P 1'
_cell_length_a   9.67608972
_cell_length_b   9.67787994
_cell_length_c   9.67971300
_cell_angle_alpha   59.99373084
_cell_angle_beta   59.98760886
_cell_angle_gamma   59.97890745
_symmetry_Int_Tables_number   1
_chemical_formula_structural   Dy16In4IrRu2Pt
_chemical_formula_sum   'Dy16 In4 Ir1 Ru2 Pt1'
_cell_volume   640.76248697
_cell_formula_units_Z   1
loop_
 _symmetry_equiv_pos_site_id
 _symmetry_equiv_pos_as_xyz
  1  'x, y, z'
loop_
 _atom_site_type_symbol
 _atom_site_label
 _atom_site_symmetry_multiplicity
 _atom_site_fract_x
 _atom_site_fract_y
 _atom_site_fract_z
 _atom_site_occupancy
  Dy  Dy0  1  0.600108  0.595710  0.599966  1
  Dy  Dy1  1  0.600108  0.595710  0.204216  1
  Dy  Dy2  1  0.598427  0.206521  0.597526  1
  Dy  Dy3  1  0.204767  0.596034  0.599600  1
  Dy  Dy4  1  0.060284  0.439457  0.441958  1
  Dy  Dy5  1  0.439801  0.063738  0.054092  1
  Dy  Dy6  1  0.439801  0.063738  0.442368  1
  Dy  Dy7  1  0.060284  0.439457  0.058300  1
  Dy  Dy8  1  0.439986  0.439894  0.060060  1
  Dy  Dy9  1  0.053848  0.061147  0.442503  1
  Dy  Dy10  1  0.188589  0.808473  0.813975  1
  Dy  Dy11  1  0.809147  0.189254  0.190331  1
  Dy  Dy12  1  0.809147  0.189254  0.811268  1
  Dy  Dy13  1  0.188589  0.808473  0.188963  1
  Dy  Dy14  1  0.813844  0.810253  0.187951  1
  Dy  Dy15  1  0.191744  0.191201  0.808527  1
  In  In16  1  0.832248  0.832275  0.832985  1
  In  In17  1  0.832248  0.832275  0.502493  1
  In  In18  1  0.832915  0.500754  0.833166  1
  In  In19  1  0.501384  0.832483  0.833066  1
  Ir  Ir20  1  0.827485  0.392547  0.389984  1
  Ru  Ru21  1  0.391577  0.392051  0.388699  1
  Ru  Ru22  1  0.391577  0.392051  0.827673  1
  Pt  Pt23  1  0.392091  0.827251  0.390329  1
