# generated using pymatgen
data_DyTm3(As4O9)2
_symmetry_space_group_name_H-M   'P 1'
_cell_length_a   6.68890393
_cell_length_b   7.49177048
_cell_length_c   9.78550447
_cell_angle_alpha   94.69944904
_cell_angle_beta   104.09766359
_cell_angle_gamma   104.79232386
_symmetry_Int_Tables_number   1
_chemical_formula_structural   DyTm3(As4O9)2
_chemical_formula_sum   'Dy1 Tm3 As8 O18'
_cell_volume   454.37410209
_cell_formula_units_Z   1
loop_
 _symmetry_equiv_pos_site_id
 _symmetry_equiv_pos_as_xyz
  1  'x, y, z'
loop_
 _atom_site_type_symbol
 _atom_site_label
 _atom_site_symmetry_multiplicity
 _atom_site_fract_x
 _atom_site_fract_y
 _atom_site_fract_z
 _atom_site_occupancy
  Dy  Dy0  1  0.241991  0.939599  0.614611  1
  Tm  Tm1  1  0.757498  0.061660  0.385154  1
  Tm  Tm2  1  0.721033  0.528454  0.410050  1
  Tm  Tm3  1  0.278463  0.471020  0.589473  1
  As  As4  1  0.683706  0.773877  0.080510  1
  As  As5  1  0.316521  0.227289  0.920649  1
  As  As6  1  0.169228  0.751145  0.912456  1
  As  As7  1  0.830353  0.248198  0.087960  1
  As  As8  1  0.743057  0.914170  0.709132  1
  As  As9  1  0.257890  0.085751  0.289995  1
  As  As10  1  0.810269  0.351760  0.701103  1
  As  As11  1  0.190486  0.647830  0.298423  1
  O  O12  1  0.722654  0.748127  0.261563  1
  O  O13  1  0.277680  0.254113  0.739694  1
  O  O14  1  0.316260  0.978813  0.869370  1
  O  O15  1  0.684835  0.021839  0.133565  1
  O  O16  1  0.608579  0.326606  0.985445  1
  O  O17  1  0.391438  0.673362  0.014698  1
  O  O18  1  0.125797  0.643467  0.737256  1
  O  O19  1  0.874057  0.356294  0.262727  1
  O  O20  1  0.845279  0.876633  0.557336  1
  O  O21  1  0.150183  0.125392  0.439045  1
  O  O22  1  0.480946  0.765158  0.666059  1
  O  O23  1  0.521496  0.232977  0.334905  1
  O  O24  1  0.373647  0.531742  0.381220  1
  O  O25  1  0.626635  0.467573  0.618324  1
  O  O26  1  0.087527  0.667391  0.453818  1
  O  O27  1  0.911077  0.329395  0.544807  1
  O  O28  1  0.380420  0.899928  0.359376  1
  O  O29  1  0.620993  0.100437  0.641276  1
