# generated using pymatgen
data_Nd2Co18Si7Ge
_symmetry_space_group_name_H-M   'P 1'
_cell_length_a   7.92556129
_cell_length_b   7.92556142
_cell_length_c   7.94697884
_cell_angle_alpha   121.71596946
_cell_angle_beta   121.71597194
_cell_angle_gamma   87.15798954
_symmetry_Int_Tables_number   1
_chemical_formula_structural   Nd2Co18Si7Ge
_chemical_formula_sum   'Nd2 Co18 Si7 Ge1'
_cell_volume   343.02743580
_cell_formula_units_Z   1
loop_
 _symmetry_equiv_pos_site_id
 _symmetry_equiv_pos_as_xyz
  1  'x, y, z'
loop_
 _atom_site_type_symbol
 _atom_site_label
 _atom_site_symmetry_multiplicity
 _atom_site_fract_x
 _atom_site_fract_y
 _atom_site_fract_z
 _atom_site_occupancy
  Nd  Nd0  1  0.751274  0.749775  0.000086  1
  Nd  Nd1  1  0.249775  0.251274  0.000086  1
  Co  Co2  1  0.689022  0.450460  0.500278  1
  Co  Co3  1  0.451155  0.951155  0.753600  1
  Co  Co4  1  0.188559  0.688559  0.238241  1
  Co  Co5  1  0.556846  0.056846  0.254052  1
  Co  Co6  1  0.950460  0.189022  0.500278  1
  Co  Co7  1  0.197682  0.931677  0.132415  1
  Co  Co8  1  0.802074  0.070094  0.870915  1
  Co  Co9  1  0.431677  0.697682  0.132415  1
  Co  Co10  1  0.570094  0.302074  0.870915  1
  Co  Co11  1  0.698123  0.568208  0.268025  1
  Co  Co12  1  0.300653  0.427771  0.730155  1
  Co  Co13  1  0.927771  0.800653  0.730155  1
  Co  Co14  1  0.310470  0.546474  0.495024  1
  Co  Co15  1  0.810257  0.310257  0.759810  1
  Co  Co16  1  0.997328  0.497328  0.497462  1
  Co  Co17  1  0.500016  0.000016  0.500736  1
  Co  Co18  1  0.068208  0.198123  0.268025  1
  Co  Co19  1  0.046474  0.810470  0.495024  1
  Si  Si20  1  0.045559  0.545559  0.836046  1
  Si  Si21  1  0.546164  0.708776  0.498657  1
  Si  Si22  1  0.790750  0.953368  0.501062  1
  Si  Si23  1  0.453368  0.290750  0.501062  1
  Si  Si24  1  0.953325  0.453325  0.163167  1
  Si  Si25  1  0.708123  0.208123  0.162202  1
  Si  Si26  1  0.208776  0.046164  0.498657  1
  Ge  Ge27  1  0.296017  0.796017  0.841452  1
