# generated using pymatgen
data_Y4CdPd4Pb
_symmetry_space_group_name_H-M   'P 1'
_cell_length_a   7.88429200
_cell_length_b   7.88429200
_cell_length_c   3.66689000
_cell_angle_alpha   90.00000000
_cell_angle_beta   90.00000000
_cell_angle_gamma   90.00000000
_symmetry_Int_Tables_number   1
_chemical_formula_structural   Y4CdPd4Pb
_chemical_formula_sum   'Y4 Cd1 Pd4 Pb1'
_cell_volume   227.94143744
_cell_formula_units_Z   1
loop_
 _symmetry_equiv_pos_site_id
 _symmetry_equiv_pos_as_xyz
  1  'x, y, z'
loop_
 _atom_site_type_symbol
 _atom_site_label
 _atom_site_symmetry_multiplicity
 _atom_site_fract_x
 _atom_site_fract_y
 _atom_site_fract_z
 _atom_site_occupancy
  Y  Y0  1  0.674191  0.169939  0.500000  1
  Y  Y1  1  0.169939  0.325809  0.500000  1
  Y  Y2  1  0.830061  0.674191  0.500000  1
  Y  Y3  1  0.325809  0.830061  0.500000  1
  Cd  Cd4  1  0.000000  0.000000  0.000000  1
  Pd  Pd5  1  0.877784  0.369738  0.000000  1
  Pd  Pd6  1  0.369738  0.122216  0.000000  1
  Pd  Pd7  1  0.630262  0.877784  0.000000  1
  Pd  Pd8  1  0.122216  0.630262  0.000000  1
  Pb  Pb9  1  0.500000  0.500000  0.000000  1
