# generated using pymatgen
data_Ta16Mn3SiTe16
_symmetry_space_group_name_H-M   'P 1'
_cell_length_a   4.88666000
_cell_length_b   10.96754912
_cell_length_c   19.23056901
_cell_angle_alpha   89.95886200
_cell_angle_beta   90.00000000
_cell_angle_gamma   90.00000000
_symmetry_Int_Tables_number   1
_chemical_formula_structural   Ta16Mn3SiTe16
_chemical_formula_sum   'Ta16 Mn3 Si1 Te16'
_cell_volume   1030.65599556
_cell_formula_units_Z   1
loop_
 _symmetry_equiv_pos_site_id
 _symmetry_equiv_pos_as_xyz
  1  'x, y, z'
loop_
 _atom_site_type_symbol
 _atom_site_label
 _atom_site_symmetry_multiplicity
 _atom_site_fract_x
 _atom_site_fract_y
 _atom_site_fract_z
 _atom_site_occupancy
  Ta  Ta0  1  0.498831  0.563073  0.385527  1
  Ta  Ta1  1  0.498831  0.436927  0.614473  1
  Ta  Ta2  1  0.499999  0.063578  0.115064  1
  Ta  Ta3  1  0.499999  0.936422  0.884936  1
  Ta  Ta4  1  0.498585  0.701057  0.535838  1
  Ta  Ta5  1  0.498585  0.298943  0.464162  1
  Ta  Ta6  1  0.499854  0.202191  0.963653  1
  Ta  Ta7  1  0.499854  0.797809  0.036347  1
  Ta  Ta8  1  0.001610  0.686754  0.444201  1
  Ta  Ta9  1  0.001610  0.313246  0.555799  1
  Ta  Ta10  1  0.999956  0.187862  0.055899  1
  Ta  Ta11  1  0.999956  0.812138  0.944101  1
  Ta  Ta12  1  0.001426  0.402718  0.393696  1
  Ta  Ta13  1  0.001426  0.597282  0.606304  1
  Ta  Ta14  1  0.999781  0.902283  0.107005  1
  Ta  Ta15  1  0.999781  0.097717  0.892995  1
  Mn  Mn16  1  0.749447  0.000000  0.000000  1
  Mn  Mn17  1  0.750253  0.500000  0.500000  1
  Mn  Mn18  1  0.250045  0.000000  0.000000  1
  Si  Si19  1  0.250106  0.500000  0.500000  1
  Te  Te20  1  0.993327  0.845544  0.561928  1
  Te  Te21  1  0.993327  0.154456  0.438072  1
  Te  Te22  1  0.999857  0.346302  0.937603  1
  Te  Te23  1  0.999857  0.653698  0.062397  1
  Te  Te24  1  0.506287  0.332625  0.317074  1
  Te  Te25  1  0.506287  0.667375  0.682926  1
  Te  Te26  1  0.499763  0.832456  0.183448  1
  Te  Te27  1  0.499763  0.167544  0.816552  1
  Te  Te28  1  0.506914  0.821397  0.404113  1
  Te  Te29  1  0.506914  0.178603  0.595887  1
  Te  Te30  1  0.499926  0.322237  0.095532  1
  Te  Te31  1  0.499926  0.677763  0.904468  1
  Te  Te32  1  0.993915  0.608222  0.302770  1
  Te  Te33  1  0.993915  0.391778  0.697230  1
  Te  Te34  1  0.000041  0.108746  0.197481  1
  Te  Te35  1  0.000041  0.891254  0.802519  1
