# generated using pymatgen
data_TbYbAl3Os
_symmetry_space_group_name_H-M   'P 1'
_cell_length_a   5.52547800
_cell_length_b   5.52547859
_cell_length_c   8.79471200
_cell_angle_alpha   90.00000000
_cell_angle_beta   90.00000000
_cell_angle_gamma   119.99999645
_symmetry_Int_Tables_number   1
_chemical_formula_structural   TbYbAl3Os
_chemical_formula_sum   'Tb2 Yb2 Al6 Os2'
_cell_volume   232.53697798
_cell_formula_units_Z   2
loop_
 _symmetry_equiv_pos_site_id
 _symmetry_equiv_pos_as_xyz
  1  'x, y, z'
loop_
 _atom_site_type_symbol
 _atom_site_label
 _atom_site_symmetry_multiplicity
 _atom_site_fract_x
 _atom_site_fract_y
 _atom_site_fract_z
 _atom_site_occupancy
  Tb  Tb0  1  0.666666  0.333333  0.050094  1
  Tb  Tb1  1  0.666666  0.333333  0.449906  1
  Yb  Yb2  1  0.333334  0.666667  0.554130  1
  Yb  Yb3  1  0.333334  0.666667  0.945870  1
  Al  Al4  1  0.160942  0.321883  0.250000  1
  Al  Al5  1  0.160942  0.839058  0.250000  1
  Al  Al6  1  0.678116  0.839058  0.250000  1
  Al  Al7  1  0.320528  0.160264  0.750000  1
  Al  Al8  1  0.839736  0.160264  0.750000  1
  Al  Al9  1  0.839736  0.679472  0.750000  1
  Os  Os10  1  0.000000  0.000000  0.998542  1
  Os  Os11  1  0.000000  0.000000  0.501458  1
