# generated using pymatgen
data_Tb3Dy5Th4(ZnAu5)4
_symmetry_space_group_name_H-M   'P 1'
_cell_length_a   8.48804915
_cell_length_b   8.48804949
_cell_length_c   13.63208101
_cell_angle_alpha   89.99564701
_cell_angle_beta   90.00435432
_cell_angle_gamma   127.35637165
_symmetry_Int_Tables_number   1
_chemical_formula_structural   Tb3Dy5Th4(ZnAu5)4
_chemical_formula_sum   'Tb3 Dy5 Th4 Zn4 Au20'
_cell_volume   780.68855300
_cell_formula_units_Z   1
loop_
 _symmetry_equiv_pos_site_id
 _symmetry_equiv_pos_as_xyz
  1  'x, y, z'
loop_
 _atom_site_type_symbol
 _atom_site_label
 _atom_site_symmetry_multiplicity
 _atom_site_fract_x
 _atom_site_fract_y
 _atom_site_fract_z
 _atom_site_occupancy
  Tb  Tb0  1  0.118041  0.881959  0.047855  1
  Tb  Tb1  1  0.881825  0.118175  0.547914  1
  Tb  Tb2  1  0.118185  0.881815  0.452072  1
  Dy  Dy3  1  0.630693  0.369307  0.460556  1
  Dy  Dy4  1  0.369330  0.630670  0.539413  1
  Dy  Dy5  1  0.630853  0.369147  0.039523  1
  Dy  Dy6  1  0.369259  0.630741  0.960492  1
  Dy  Dy7  1  0.881815  0.118185  0.952055  1
  Th  Th8  1  0.929881  0.070119  0.249951  1
  Th  Th9  1  0.069963  0.930037  0.750065  1
  Th  Th10  1  0.319775  0.680225  0.249942  1
  Th  Th11  1  0.680182  0.319818  0.750137  1
  Zn  Zn12  1  0.718845  0.281155  0.249970  1
  Zn  Zn13  1  0.281173  0.718827  0.750024  1
  Zn  Zn14  1  0.534298  0.465702  0.249986  1
  Zn  Zn15  1  0.465709  0.534291  0.749990  1
  Au  Au16  1  0.318470  0.065086  0.249978  1
  Au  Au17  1  0.065094  0.318394  0.750266  1
  Au  Au18  1  0.681606  0.934906  0.750266  1
  Au  Au19  1  0.934914  0.681530  0.249978  1
  Au  Au20  1  0.570495  0.005165  0.398272  1
  Au  Au21  1  0.005198  0.570455  0.601752  1
  Au  Au22  1  0.570854  0.005359  0.101507  1
  Au  Au23  1  0.005116  0.570194  0.898258  1
  Au  Au24  1  0.429545  0.994802  0.601752  1
  Au  Au25  1  0.994835  0.429505  0.398272  1
  Au  Au26  1  0.429806  0.994884  0.898258  1
  Au  Au27  1  0.994641  0.429146  0.101507  1
  Au  Au28  1  0.683713  0.739375  0.396646  1
  Au  Au29  1  0.739370  0.683761  0.603389  1
  Au  Au30  1  0.683833  0.739652  0.103256  1
  Au  Au31  1  0.739628  0.684160  0.896704  1
  Au  Au32  1  0.316239  0.260630  0.603389  1
  Au  Au33  1  0.260625  0.316287  0.396646  1
  Au  Au34  1  0.315840  0.260372  0.896704  1
  Au  Au35  1  0.260348  0.316167  0.103256  1
