# generated using pymatgen
data_YbLu5(Cu2Ni7)2
_symmetry_space_group_name_H-M   'P 1'
_cell_length_a   4.96022500
_cell_length_b   4.96022487
_cell_length_c   16.06237200
_cell_angle_alpha   90.00000000
_cell_angle_beta   90.00000000
_cell_angle_gamma   119.99999418
_symmetry_Int_Tables_number   1
_chemical_formula_structural   YbLu5(Cu2Ni7)2
_chemical_formula_sum   'Yb1 Lu5 Cu4 Ni14'
_cell_volume   342.24970276
_cell_formula_units_Z   1
loop_
 _symmetry_equiv_pos_site_id
 _symmetry_equiv_pos_as_xyz
  1  'x, y, z'
loop_
 _atom_site_type_symbol
 _atom_site_label
 _atom_site_symmetry_multiplicity
 _atom_site_fract_x
 _atom_site_fract_y
 _atom_site_fract_z
 _atom_site_occupancy
  Yb  Yb0  1  0.333333  0.666667  0.750000  1
  Lu  Lu1  1  0.333333  0.666667  0.541705  1
  Lu  Lu2  1  0.666667  0.333333  0.041107  1
  Lu  Lu3  1  0.666667  0.333333  0.458893  1
  Lu  Lu4  1  0.333333  0.666667  0.958295  1
  Lu  Lu5  1  0.666667  0.333333  0.250000  1
  Cu  Cu6  1  0.333333  0.666667  0.250000  1
  Cu  Cu7  1  0.666667  0.333333  0.750000  1
  Cu  Cu8  1  0.000000  0.000000  0.250000  1
  Cu  Cu9  1  0.000000  0.000000  0.750000  1
  Ni  Ni10  1  0.000000  0.000000  0.999811  1
  Ni  Ni11  1  0.000000  0.000000  0.500189  1
  Ni  Ni12  1  0.167830  0.335662  0.124422  1
  Ni  Ni13  1  0.831786  0.663571  0.623835  1
  Ni  Ni14  1  0.664338  0.832170  0.124422  1
  Ni  Ni15  1  0.167830  0.832170  0.124422  1
  Ni  Ni16  1  0.831786  0.168214  0.623835  1
  Ni  Ni17  1  0.336429  0.168214  0.623835  1
  Ni  Ni18  1  0.831786  0.663571  0.876165  1
  Ni  Ni19  1  0.831786  0.168214  0.876165  1
  Ni  Ni20  1  0.336429  0.168214  0.876165  1
  Ni  Ni21  1  0.664338  0.832170  0.375578  1
  Ni  Ni22  1  0.167830  0.832170  0.375578  1
  Ni  Ni23  1  0.167830  0.335662  0.375578  1
