# generated using pymatgen
data_Ta4Zn2B4IrRu9
_symmetry_space_group_name_H-M   'P 1'
_cell_length_a   9.33031331
_cell_length_b   9.29761232
_cell_length_c   3.00450500
_cell_angle_alpha   90.00000000
_cell_angle_beta   90.00000000
_cell_angle_gamma   90.02989733
_symmetry_Int_Tables_number   1
_chemical_formula_structural   Ta4Zn2B4IrRu9
_chemical_formula_sum   'Ta4 Zn2 B4 Ir1 Ru9'
_cell_volume   260.63967968
_cell_formula_units_Z   1
loop_
 _symmetry_equiv_pos_site_id
 _symmetry_equiv_pos_as_xyz
  1  'x, y, z'
loop_
 _atom_site_type_symbol
 _atom_site_label
 _atom_site_symmetry_multiplicity
 _atom_site_fract_x
 _atom_site_fract_y
 _atom_site_fract_z
 _atom_site_occupancy
  Ta  Ta0  1  0.828040  0.675446  0.000000  1
  Ta  Ta1  1  0.176840  0.322567  0.000000  1
  Ta  Ta2  1  0.319045  0.825476  0.000000  1
  Ta  Ta3  1  0.676256  0.177079  0.000000  1
  Zn  Zn4  1  0.499635  0.497631  0.000000  1
  Zn  Zn5  1  0.000083  0.000150  0.000000  1
  B  B6  1  0.627798  0.878577  0.000000  1
  B  B7  1  0.372786  0.125447  0.000000  1
  B  B8  1  0.125710  0.625455  0.000000  1
  B  B9  1  0.874600  0.374205  0.000000  1
  Ir  Ir10  1  0.569257  0.714797  0.500000  1
  Ru  Ru11  1  0.430281  0.283544  0.500000  1
  Ru  Ru12  1  0.069564  0.784263  0.500000  1
  Ru  Ru13  1  0.927988  0.215055  0.500000  1
  Ru  Ru14  1  0.285387  0.571460  0.500000  1
  Ru  Ru15  1  0.716077  0.430984  0.500000  1
  Ru  Ru16  1  0.215075  0.069731  0.500000  1
  Ru  Ru17  1  0.784227  0.930458  0.500000  1
  Ru  Ru18  1  0.499291  0.999220  0.500000  1
  Ru  Ru19  1  0.002059  0.498456  0.500000  1
