# generated using pymatgen
data_MnFe6(ReW)3
_symmetry_space_group_name_H-M   'P 1'
_cell_length_a   9.10585860
_cell_length_b   9.10585934
_cell_length_c   9.10586000
_cell_angle_alpha   29.98667893
_cell_angle_beta   29.98667187
_cell_angle_gamma   29.98667409
_symmetry_Int_Tables_number   1
_chemical_formula_structural   MnFe6(ReW)3
_chemical_formula_sum   'Mn1 Fe6 Re3 W3'
_cell_volume   167.05946974
_cell_formula_units_Z   1
loop_
 _symmetry_equiv_pos_site_id
 _symmetry_equiv_pos_as_xyz
  1  'x, y, z'
loop_
 _atom_site_type_symbol
 _atom_site_label
 _atom_site_symmetry_multiplicity
 _atom_site_fract_x
 _atom_site_fract_y
 _atom_site_fract_z
 _atom_site_occupancy
  Mn  Mn0  1  0.000411  0.000411  0.000411  1
  Fe  Fe1  1  0.588685  0.092016  0.092016  1
  Fe  Fe2  1  0.092016  0.092016  0.588685  1
  Fe  Fe3  1  0.092016  0.588685  0.092016  1
  Fe  Fe4  1  0.908354  0.410895  0.908354  1
  Fe  Fe5  1  0.410895  0.908354  0.908354  1
  Fe  Fe6  1  0.908354  0.908354  0.410895  1
  Re  Re7  1  0.163918  0.163918  0.163918  1
  Re  Re8  1  0.836429  0.836429  0.836429  1
  Re  Re9  1  0.347463  0.347463  0.347463  1
  W  W10  1  0.652207  0.652207  0.652207  1
  W  W11  1  0.450549  0.450549  0.450549  1
  W  W12  1  0.548700  0.548700  0.548700  1
