# generated using pymatgen
data_LiSm3(P3Rh4)2
_symmetry_space_group_name_H-M   'P 1'
_cell_length_a   3.95270000
_cell_length_b   11.29892700
_cell_length_c   12.87071400
_cell_angle_alpha   90.00000000
_cell_angle_beta   90.00000000
_cell_angle_gamma   90.00000000
_symmetry_Int_Tables_number   1
_chemical_formula_structural   LiSm3(P3Rh4)2
_chemical_formula_sum   'Li2 Sm6 P12 Rh16'
_cell_volume   574.82241700
_cell_formula_units_Z   2
loop_
 _symmetry_equiv_pos_site_id
 _symmetry_equiv_pos_as_xyz
  1  'x, y, z'
loop_
 _atom_site_type_symbol
 _atom_site_label
 _atom_site_symmetry_multiplicity
 _atom_site_fract_x
 _atom_site_fract_y
 _atom_site_fract_z
 _atom_site_occupancy
  Li  Li0  1  0.500000  0.500000  0.155590  1
  Li  Li1  1  0.000000  0.000000  0.844410  1
  Sm  Sm2  1  0.000000  0.500000  0.516868  1
  Sm  Sm3  1  0.500000  0.000000  0.483132  1
  Sm  Sm4  1  0.500000  0.819109  0.205051  1
  Sm  Sm5  1  0.500000  0.180891  0.205051  1
  Sm  Sm6  1  0.000000  0.680891  0.794949  1
  Sm  Sm7  1  0.000000  0.319109  0.794949  1
  P  P8  1  0.500000  0.500000  0.883816  1
  P  P9  1  0.000000  0.000000  0.116184  1
  P  P10  1  0.500000  0.500000  0.343609  1
  P  P11  1  0.000000  0.000000  0.656391  1
  P  P12  1  0.500000  0.311584  0.617451  1
  P  P13  1  0.500000  0.688416  0.617451  1
  P  P14  1  0.000000  0.188416  0.382549  1
  P  P15  1  0.000000  0.811584  0.382549  1
  P  P16  1  0.500000  0.842373  0.892455  1
  P  P17  1  0.500000  0.157627  0.892455  1
  P  P18  1  0.000000  0.657627  0.107545  1
  P  P19  1  0.000000  0.342373  0.107545  1
  Rh  Rh20  1  0.500000  0.500000  0.702889  1
  Rh  Rh21  1  0.000000  0.000000  0.297111  1
  Rh  Rh22  1  0.000000  0.500000  0.985988  1
  Rh  Rh23  1  0.500000  0.000000  0.014012  1
  Rh  Rh24  1  0.500000  0.333094  0.997972  1
  Rh  Rh25  1  0.500000  0.666906  0.997972  1
  Rh  Rh26  1  0.000000  0.166906  0.002028  1
  Rh  Rh27  1  0.000000  0.833094  0.002028  1
  Rh  Rh28  1  0.500000  0.292087  0.430910  1
  Rh  Rh29  1  0.500000  0.707913  0.430910  1
  Rh  Rh30  1  0.000000  0.207913  0.569090  1
  Rh  Rh31  1  0.000000  0.792087  0.569090  1
  Rh  Rh32  1  0.500000  0.875458  0.709587  1
  Rh  Rh33  1  0.500000  0.124542  0.709587  1
  Rh  Rh34  1  0.000000  0.624542  0.290413  1
  Rh  Rh35  1  0.000000  0.375458  0.290413  1
