# generated using pymatgen
data_Y2Er3Si9P3Ir19
_symmetry_space_group_name_H-M   'P 1'
_cell_length_a   12.82080300
_cell_length_b   12.82080180
_cell_length_c   3.94362600
_cell_angle_alpha   90.00000000
_cell_angle_beta   90.00000000
_cell_angle_gamma   120.00000051
_symmetry_Int_Tables_number   1
_chemical_formula_structural   Y2Er3Si9P3Ir19
_chemical_formula_sum   'Y2 Er3 Si9 P3 Ir19'
_cell_volume   561.37977759
_cell_formula_units_Z   1
loop_
 _symmetry_equiv_pos_site_id
 _symmetry_equiv_pos_as_xyz
  1  'x, y, z'
loop_
 _atom_site_type_symbol
 _atom_site_label
 _atom_site_symmetry_multiplicity
 _atom_site_fract_x
 _atom_site_fract_y
 _atom_site_fract_z
 _atom_site_occupancy
  Y  Y0  1  0.666667  0.333333  0.000000  1
  Y  Y1  1  0.333333  0.666667  0.000000  1
  Er  Er2  1  0.814260  0.814260  0.500000  1
  Er  Er3  1  0.185740  0.000000  0.500000  1
  Er  Er4  1  0.000000  0.185740  0.500000  1
  Si  Si5  1  0.686297  0.167094  0.500000  1
  Si  Si6  1  0.832906  0.519203  0.500000  1
  Si  Si7  1  0.480797  0.313703  0.500000  1
  Si  Si8  1  0.167094  0.686297  0.500000  1
  Si  Si9  1  0.519203  0.832906  0.500000  1
  Si  Si10  1  0.313703  0.480797  0.500000  1
  Si  Si11  1  0.633286  0.633286  0.000000  1
  Si  Si12  1  0.366714  0.000000  0.000000  1
  Si  Si13  1  0.000000  0.366714  0.000000  1
  P  P14  1  0.177994  0.177994  0.000000  1
  P  P15  1  0.822006  0.000000  0.000000  1
  P  P16  1  0.000000  0.822006  0.000000  1
  Ir  Ir17  1  0.807516  0.179541  0.000000  1
  Ir  Ir18  1  0.820459  0.627975  0.000000  1
  Ir  Ir19  1  0.372025  0.192484  0.000000  1
  Ir  Ir20  1  0.179541  0.807516  0.000000  1
  Ir  Ir21  1  0.627975  0.820459  0.000000  1
  Ir  Ir22  1  0.192484  0.372025  0.000000  1
  Ir  Ir23  1  0.447142  0.447142  0.000000  1
  Ir  Ir24  1  0.552858  0.000000  0.000000  1
  Ir  Ir25  1  0.000000  0.552858  0.000000  1
  Ir  Ir26  1  0.277677  0.277677  0.500000  1
  Ir  Ir27  1  0.722323  0.000000  0.500000  1
  Ir  Ir28  1  0.000000  0.722323  0.500000  1
  Ir  Ir29  1  0.872690  0.359568  0.500000  1
  Ir  Ir30  1  0.640432  0.513122  0.500000  1
  Ir  Ir31  1  0.486878  0.127310  0.500000  1
  Ir  Ir32  1  0.359568  0.872690  0.500000  1
  Ir  Ir33  1  0.513122  0.640432  0.500000  1
  Ir  Ir34  1  0.127310  0.486878  0.500000  1
  Ir  Ir35  1  0.000000  0.000000  0.000000  1
