# generated using pymatgen
data_Ho12CdCo4Ir
_symmetry_space_group_name_H-M   'P 1'
_cell_length_a   8.27973197
_cell_length_b   8.27971738
_cell_length_c   8.27973168
_cell_angle_alpha   111.25501713
_cell_angle_beta   110.03680891
_cell_angle_gamma   107.14899310
_symmetry_Int_Tables_number   1
_chemical_formula_structural   Ho12CdCo4Ir
_chemical_formula_sum   'Ho12 Cd1 Co4 Ir1'
_cell_volume   436.35694846
_cell_formula_units_Z   1
loop_
 _symmetry_equiv_pos_site_id
 _symmetry_equiv_pos_as_xyz
  1  'x, y, z'
loop_
 _atom_site_type_symbol
 _atom_site_label
 _atom_site_symmetry_multiplicity
 _atom_site_fract_x
 _atom_site_fract_y
 _atom_site_fract_z
 _atom_site_occupancy
  Ho  Ho0  1  0.316218  0.621606  0.305388  1
  Ho  Ho1  1  0.683782  0.378394  0.694612  1
  Ho  Ho2  1  0.316216  0.010847  0.694632  1
  Ho  Ho3  1  0.683784  0.989153  0.305368  1
  Ho  Ho4  1  0.181572  0.285971  0.467551  1
  Ho  Ho5  1  0.818428  0.714029  0.532449  1
  Ho  Ho6  1  0.181580  0.714029  0.895601  1
  Ho  Ho7  1  0.818420  0.285971  0.104399  1
  Ho  Ho8  1  0.411074  0.215664  0.195418  1
  Ho  Ho9  1  0.588926  0.784336  0.804582  1
  Ho  Ho10  1  0.020246  0.215664  0.804590  1
  Ho  Ho11  1  0.979754  0.784336  0.195410  1
  Cd  Cd12  1  0.500000  0.500000  0.000000  1
  Co  Co13  1  0.112315  0.612337  0.500021  1
  Co  Co14  1  0.887685  0.387663  0.499979  1
  Co  Co15  1  0.377447  0.000000  0.377447  1
  Co  Co16  1  0.622553  0.000000  0.622553  1
  Ir  Ir17  1  0.000000  0.000000  0.000000  1
