# generated using pymatgen
data_Tm4Hf5TaGe8
_symmetry_space_group_name_H-M   'P 1'
_cell_length_a   7.31722301
_cell_length_b   7.31722386
_cell_length_c   13.39206600
_cell_angle_alpha   90.00000000
_cell_angle_beta   90.00000000
_cell_angle_gamma   90.15792876
_symmetry_Int_Tables_number   1
_chemical_formula_structural   Tm4Hf5TaGe8
_chemical_formula_sum   'Tm8 Hf10 Ta2 Ge16'
_cell_volume   717.03204394
_cell_formula_units_Z   2
loop_
 _symmetry_equiv_pos_site_id
 _symmetry_equiv_pos_as_xyz
  1  'x, y, z'
loop_
 _atom_site_type_symbol
 _atom_site_label
 _atom_site_symmetry_multiplicity
 _atom_site_fract_x
 _atom_site_fract_y
 _atom_site_fract_z
 _atom_site_occupancy
  Tm  Tm0  1  0.997577  0.342277  0.217533  1
  Tm  Tm1  1  0.002423  0.657723  0.717533  1
  Tm  Tm2  1  0.157526  0.498431  0.468454  1
  Tm  Tm3  1  0.501569  0.842474  0.031546  1
  Tm  Tm4  1  0.842474  0.501569  0.968454  1
  Tm  Tm5  1  0.498431  0.157526  0.531546  1
  Tm  Tm6  1  0.342277  0.997577  0.782467  1
  Tm  Tm7  1  0.657723  0.002423  0.282467  1
  Hf  Hf8  1  0.326131  0.673869  0.250000  1
  Hf  Hf9  1  0.673869  0.326131  0.750000  1
  Hf  Hf10  1  0.151393  0.996819  0.377137  1
  Hf  Hf11  1  0.848607  0.003181  0.877137  1
  Hf  Hf12  1  0.505621  0.654486  0.623969  1
  Hf  Hf13  1  0.345514  0.494379  0.876031  1
  Hf  Hf14  1  0.494379  0.345514  0.123969  1
  Hf  Hf15  1  0.654486  0.505621  0.376031  1
  Hf  Hf16  1  0.996819  0.151393  0.622863  1
  Hf  Hf17  1  0.003181  0.848607  0.122863  1
  Ta  Ta18  1  0.172705  0.172705  0.000000  1
  Ta  Ta19  1  0.827295  0.827295  0.500000  1
  Ge  Ge20  1  0.363645  0.300400  0.322816  1
  Ge  Ge21  1  0.636355  0.699600  0.822816  1
  Ge  Ge22  1  0.198364  0.861691  0.572761  1
  Ge  Ge23  1  0.138309  0.801636  0.927239  1
  Ge  Ge24  1  0.801636  0.138309  0.072761  1
  Ge  Ge25  1  0.861691  0.198364  0.427239  1
  Ge  Ge26  1  0.300400  0.363645  0.677184  1
  Ge  Ge27  1  0.699600  0.636355  0.177184  1
  Ge  Ge28  1  0.298277  0.039715  0.180602  1
  Ge  Ge29  1  0.701723  0.960285  0.680602  1
  Ge  Ge30  1  0.462654  0.800801  0.431753  1
  Ge  Ge31  1  0.199199  0.537346  0.068247  1
  Ge  Ge32  1  0.537346  0.199199  0.931753  1
  Ge  Ge33  1  0.800801  0.462654  0.568247  1
  Ge  Ge34  1  0.039715  0.298277  0.819398  1
  Ge  Ge35  1  0.960285  0.701723  0.319398  1
