# generated using pymatgen
data_SmRe2AgH18
_symmetry_space_group_name_H-M   'P 1'
_cell_length_a   5.31793208
_cell_length_b   5.32162352
_cell_length_c   8.07060759
_cell_angle_alpha   86.90200583
_cell_angle_beta   93.20765386
_cell_angle_gamma   127.29434921
_symmetry_Int_Tables_number   1
_chemical_formula_structural   SmRe2AgH18
_chemical_formula_sum   'Sm1 Re2 Ag1 H18'
_cell_volume   181.35556808
_cell_formula_units_Z   1
loop_
 _symmetry_equiv_pos_site_id
 _symmetry_equiv_pos_as_xyz
  1  'x, y, z'
loop_
 _atom_site_type_symbol
 _atom_site_label
 _atom_site_symmetry_multiplicity
 _atom_site_fract_x
 _atom_site_fract_y
 _atom_site_fract_z
 _atom_site_occupancy
  Sm  Sm0  1  0.000000  0.000000  0.500000  1
  Re  Re1  1  0.352821  0.647970  0.739572  1
  Re  Re2  1  0.647179  0.352030  0.260428  1
  Ag  Ag3  1  0.000000  0.000000  0.000000  1
  H  H4  1  0.402896  0.596935  0.537892  1
  H  H5  1  0.597104  0.403065  0.462108  1
  H  H6  1  0.427396  0.573683  0.930223  1
  H  H7  1  0.572604  0.426317  0.069777  1
  H  H8  1  0.503845  0.941024  0.875199  1
  H  H9  1  0.939777  0.502482  0.124856  1
  H  H10  1  0.595684  0.009089  0.649235  1
  H  H11  1  0.009188  0.595532  0.350927  1
  H  H12  1  0.496155  0.058976  0.124801  1
  H  H13  1  0.060223  0.497518  0.875144  1
  H  H14  1  0.404316  0.990911  0.350765  1
  H  H15  1  0.990812  0.404468  0.649073  1
  H  H16  1  0.726688  0.734807  0.752733  1
  H  H17  1  0.733802  0.725529  0.247409  1
  H  H18  1  0.273312  0.265193  0.247267  1
  H  H19  1  0.266198  0.274471  0.752591  1
  H  H20  1  0.174505  0.825901  0.721263  1
  H  H21  1  0.825495  0.174099  0.278737  1
