# generated using pymatgen
data_Y13Th3MgIn3CoRu3
_symmetry_space_group_name_H-M   'P 1'
_cell_length_a   9.64787851
_cell_length_b   9.67258044
_cell_length_c   9.67258000
_cell_angle_alpha   60.00000151
_cell_angle_beta   59.91526968
_cell_angle_gamma   59.91526831
_symmetry_Int_Tables_number   1
_chemical_formula_structural   Y13Th3MgIn3CoRu3
_chemical_formula_sum   'Y13 Th3 Mg1 In3 Co1 Ru3'
_cell_volume   637.44705696
_cell_formula_units_Z   1
loop_
 _symmetry_equiv_pos_site_id
 _symmetry_equiv_pos_as_xyz
  1  'x, y, z'
loop_
 _atom_site_type_symbol
 _atom_site_label
 _atom_site_symmetry_multiplicity
 _atom_site_fract_x
 _atom_site_fract_y
 _atom_site_fract_z
 _atom_site_occupancy
  Y  Y0  1  0.943508  0.352164  0.352164  1
  Y  Y1  1  0.807392  0.190116  0.190116  1
  Y  Y2  1  0.187034  0.812029  0.812029  1
  Y  Y3  1  0.187034  0.812029  0.188907  1
  Y  Y4  1  0.807392  0.190116  0.812377  1
  Y  Y5  1  0.187034  0.188907  0.812029  1
  Y  Y6  1  0.807392  0.812377  0.190116  1
  Y  Y7  1  0.938228  0.561768  0.561768  1
  Y  Y8  1  0.559625  0.937642  0.937642  1
  Y  Y9  1  0.559625  0.937642  0.565091  1
  Y  Y10  1  0.938228  0.561768  0.938236  1
  Y  Y11  1  0.559625  0.565091  0.937642  1
  Y  Y12  1  0.938228  0.938236  0.561768  1
  Th  Th13  1  0.349547  0.344802  0.344802  1
  Th  Th14  1  0.349547  0.344802  0.960851  1
  Th  Th15  1  0.349547  0.960851  0.344802  1
  Mg  Mg16  1  0.267557  0.577481  0.577481  1
  In  In17  1  0.583497  0.583597  0.583597  1
  In  In18  1  0.583497  0.583597  0.249309  1
  In  In19  1  0.583497  0.249309  0.583597  1
  Co  Co20  1  0.565855  0.144716  0.144716  1
  Ru  Ru21  1  0.149035  0.141413  0.141413  1
  Ru  Ru22  1  0.149035  0.141413  0.568139  1
  Ru  Ru23  1  0.149035  0.568139  0.141413  1
