# generated using pymatgen
data_Dy16CdHg3IrRu3
_symmetry_space_group_name_H-M   'P 1'
_cell_length_a   9.58816870
_cell_length_b   9.59390829
_cell_length_c   9.59390900
_cell_angle_alpha   60.00000100
_cell_angle_beta   59.98019712
_cell_angle_gamma   59.98019522
_symmetry_Int_Tables_number   1
_chemical_formula_structural   Dy16CdHg3IrRu3
_chemical_formula_sum   'Dy16 Cd1 Hg3 Ir1 Ru3'
_cell_volume   623.85227815
_cell_formula_units_Z   1
loop_
 _symmetry_equiv_pos_site_id
 _symmetry_equiv_pos_as_xyz
  1  'x, y, z'
loop_
 _atom_site_type_symbol
 _atom_site_label
 _atom_site_symmetry_multiplicity
 _atom_site_fract_x
 _atom_site_fract_y
 _atom_site_fract_z
 _atom_site_occupancy
  Dy  Dy0  1  0.597786  0.598586  0.598586  1
  Dy  Dy1  1  0.597786  0.598586  0.205042  1
  Dy  Dy2  1  0.597786  0.205042  0.598586  1
  Dy  Dy3  1  0.203100  0.598966  0.598966  1
  Dy  Dy4  1  0.061244  0.439919  0.439919  1
  Dy  Dy5  1  0.438306  0.061369  0.061369  1
  Dy  Dy6  1  0.438306  0.061369  0.438955  1
  Dy  Dy7  1  0.061244  0.439919  0.058917  1
  Dy  Dy8  1  0.438306  0.438955  0.061369  1
  Dy  Dy9  1  0.061244  0.058917  0.439919  1
  Dy  Dy10  1  0.187960  0.811193  0.811193  1
  Dy  Dy11  1  0.810219  0.188481  0.188481  1
  Dy  Dy12  1  0.810219  0.188481  0.812819  1
  Dy  Dy13  1  0.187960  0.811193  0.189655  1
  Dy  Dy14  1  0.810219  0.812819  0.188481  1
  Dy  Dy15  1  0.187960  0.189655  0.811193  1
  Cd  Cd16  1  0.512471  0.829176  0.829176  1
  Hg  Hg17  1  0.832704  0.834768  0.834768  1
  Hg  Hg18  1  0.832704  0.834768  0.497761  1
  Hg  Hg19  1  0.832704  0.497761  0.834768  1
  Ir  Ir20  1  0.827417  0.390861  0.390861  1
  Ru  Ru21  1  0.390785  0.389846  0.389846  1
  Ru  Ru22  1  0.390785  0.389846  0.829524  1
  Ru  Ru23  1  0.390785  0.829524  0.389846  1
