# generated using pymatgen
data_Nb12Co8RuW3C4
_symmetry_space_group_name_H-M   'P 1'
_cell_length_a   8.21122978
_cell_length_b   8.18464275
_cell_length_c   8.18464200
_cell_angle_alpha   60.00000304
_cell_angle_beta   60.10705375
_cell_angle_gamma   60.10704998
_symmetry_Int_Tables_number   1
_chemical_formula_structural   Nb12Co8RuW3C4
_chemical_formula_sum   'Nb12 Co8 Ru1 W3 C4'
_cell_volume   389.57714279
_cell_formula_units_Z   1
loop_
 _symmetry_equiv_pos_site_id
 _symmetry_equiv_pos_as_xyz
  1  'x, y, z'
loop_
 _atom_site_type_symbol
 _atom_site_label
 _atom_site_symmetry_multiplicity
 _atom_site_fract_x
 _atom_site_fract_y
 _atom_site_fract_z
 _atom_site_occupancy
  Nb  Nb0  1  0.690901  0.306594  0.695910  1
  Nb  Nb1  1  0.940139  0.559692  0.559692  1
  Nb  Nb2  1  0.559099  0.943406  0.943406  1
  Nb  Nb3  1  0.940139  0.559692  0.940477  1
  Nb  Nb4  1  0.559099  0.554090  0.943406  1
  Nb  Nb5  1  0.940139  0.940477  0.559692  1
  Nb  Nb6  1  0.690901  0.695910  0.306594  1
  Nb  Nb7  1  0.309861  0.690308  0.690308  1
  Nb  Nb8  1  0.690901  0.306594  0.306594  1
  Nb  Nb9  1  0.309861  0.309523  0.690308  1
  Nb  Nb10  1  0.559099  0.943406  0.554090  1
  Nb  Nb11  1  0.309861  0.690308  0.309523  1
  Co  Co12  1  0.327118  0.325760  0.325760  1
  Co  Co13  1  0.233567  0.922144  0.922144  1
  Co  Co14  1  0.922882  0.228638  0.924240  1
  Co  Co15  1  0.922882  0.924240  0.228638  1
  Co  Co16  1  0.327118  0.021362  0.325760  1
  Co  Co17  1  0.327118  0.325760  0.021362  1
  Co  Co18  1  0.016433  0.327856  0.327856  1
  Co  Co19  1  0.922882  0.924240  0.924240  1
  Ru  Ru20  1  0.625000  0.125000  0.125000  1
  W  W21  1  0.125000  0.125000  0.125000  1
  W  W22  1  0.125000  0.625000  0.125000  1
  W  W23  1  0.125000  0.125000  0.625000  1
  C  C24  1  0.625000  0.625000  0.625000  1
  C  C25  1  0.125000  0.625000  0.625000  1
  C  C26  1  0.625000  0.125000  0.625000  1
  C  C27  1  0.625000  0.625000  0.125000  1
