# generated using pymatgen
data_Dy2Er2Al18Ir5Au
_symmetry_space_group_name_H-M   'P 1'
_cell_length_a   7.58088071
_cell_length_b   7.58018511
_cell_length_c   9.46108318
_cell_angle_alpha   89.99024661
_cell_angle_beta   89.95996682
_cell_angle_gamma   119.60347487
_symmetry_Int_Tables_number   1
_chemical_formula_structural   Dy2Er2Al18Ir5Au
_chemical_formula_sum   'Dy2 Er2 Al18 Ir5 Au1'
_cell_volume   472.70722803
_cell_formula_units_Z   1
loop_
 _symmetry_equiv_pos_site_id
 _symmetry_equiv_pos_as_xyz
  1  'x, y, z'
loop_
 _atom_site_type_symbol
 _atom_site_label
 _atom_site_symmetry_multiplicity
 _atom_site_fract_x
 _atom_site_fract_y
 _atom_site_fract_z
 _atom_site_occupancy
  Dy  Dy0  1  0.672585  0.995734  0.751166  1
  Dy  Dy1  1  0.327415  0.004266  0.248834  1
  Er  Er2  1  0.995723  0.672548  0.751245  1
  Er  Er3  1  0.004277  0.327452  0.248755  1
  Al  Al4  1  0.134236  0.134116  0.756103  1
  Al  Al5  1  0.865764  0.865884  0.243897  1
  Al  Al6  1  0.001299  0.343897  0.578847  1
  Al  Al7  1  0.998701  0.656103  0.421153  1
  Al  Al8  1  0.000162  0.664653  0.073509  1
  Al  Al9  1  0.334892  0.999607  0.926262  1
  Al  Al10  1  0.999838  0.335347  0.926491  1
  Al  Al11  1  0.665108  0.000393  0.073738  1
  Al  Al12  1  0.656539  0.998900  0.420997  1
  Al  Al13  1  0.343461  0.001100  0.579003  1
  Al  Al14  1  0.333152  0.333344  0.052957  1
  Al  Al15  1  0.666848  0.666656  0.947043  1
  Al  Al16  1  0.658447  0.658261  0.558901  1
  Al  Al17  1  0.341553  0.341739  0.441099  1
  Al  Al18  1  0.338631  0.549290  0.751211  1
  Al  Al19  1  0.661369  0.450710  0.248789  1
  Al  Al20  1  0.549505  0.338992  0.751220  1
  Al  Al21  1  0.450495  0.661008  0.248780  1
  Ir  Ir22  1  0.671930  0.328322  0.500004  1
  Ir  Ir23  1  0.328070  0.671678  0.499996  1
  Ir  Ir24  1  0.328041  0.671742  0.000018  1
  Ir  Ir25  1  0.671959  0.328258  0.999982  1
  Ir  Ir26  1  0.000000  0.000000  0.000000  1
  Au  Au27  1  0.000000  0.000000  0.500000  1
