# generated using pymatgen
data_U3Be(Fe3C)2
_symmetry_space_group_name_H-M   'P 1'
_cell_length_a   5.02579800
_cell_length_b   5.02527796
_cell_length_c   12.93325100
_cell_angle_alpha   90.00000000
_cell_angle_beta   90.00000000
_cell_angle_gamma   120.00385058
_symmetry_Int_Tables_number   1
_chemical_formula_structural   U3Be(Fe3C)2
_chemical_formula_sum   'U6 Be2 Fe12 C4'
_cell_volume   282.86981281
_cell_formula_units_Z   2
loop_
 _symmetry_equiv_pos_site_id
 _symmetry_equiv_pos_as_xyz
  1  'x, y, z'
loop_
 _atom_site_type_symbol
 _atom_site_label
 _atom_site_symmetry_multiplicity
 _atom_site_fract_x
 _atom_site_fract_y
 _atom_site_fract_z
 _atom_site_occupancy
  U  U0  1  0.333328  0.666656  0.250000  1
  U  U1  1  0.666672  0.333344  0.750000  1
  U  U2  1  0.333374  0.666751  0.032175  1
  U  U3  1  0.666626  0.333249  0.532175  1
  U  U4  1  0.666626  0.333249  0.967825  1
  U  U5  1  0.333374  0.666751  0.467825  1
  Be  Be6  1  0.000000  0.000000  0.000000  1
  Be  Be7  1  0.000000  0.000000  0.500000  1
  Fe  Fe8  1  0.834184  0.668368  0.145947  1
  Fe  Fe9  1  0.165826  0.834196  0.645937  1
  Fe  Fe10  1  0.668372  0.834196  0.645943  1
  Fe  Fe11  1  0.331628  0.165804  0.145943  1
  Fe  Fe12  1  0.834174  0.165804  0.145937  1
  Fe  Fe13  1  0.165816  0.331632  0.854053  1
  Fe  Fe14  1  0.165826  0.834196  0.854063  1
  Fe  Fe15  1  0.165816  0.331632  0.645947  1
  Fe  Fe16  1  0.668372  0.834196  0.854057  1
  Fe  Fe17  1  0.331628  0.165804  0.354057  1
  Fe  Fe18  1  0.834184  0.668368  0.354053  1
  Fe  Fe19  1  0.834174  0.165804  0.354063  1
  C  C20  1  0.000046  0.000071  0.250000  1
  C  C21  1  0.999954  0.999929  0.750000  1
  C  C22  1  0.333356  0.666696  0.750000  1
  C  C23  1  0.666644  0.333304  0.250000  1
