# generated using pymatgen
data_Li8Y3Ho5(Sn3Sb)2
_symmetry_space_group_name_H-M   'P 1'
_cell_length_a   9.37811625
_cell_length_b   9.38102681
_cell_length_c   7.22341170
_cell_angle_alpha   89.99999637
_cell_angle_beta   90.08169661
_cell_angle_gamma   120.01026956
_symmetry_Int_Tables_number   1
_chemical_formula_structural   Li8Y3Ho5(Sn3Sb)2
_chemical_formula_sum   'Li8 Y3 Ho5 Sn6 Sb2'
_cell_volume   550.29231663
_cell_formula_units_Z   1
loop_
 _symmetry_equiv_pos_site_id
 _symmetry_equiv_pos_as_xyz
  1  'x, y, z'
loop_
 _atom_site_type_symbol
 _atom_site_label
 _atom_site_symmetry_multiplicity
 _atom_site_fract_x
 _atom_site_fract_y
 _atom_site_fract_z
 _atom_site_occupancy
  Li  Li0  1  0.167245  0.333947  0.285356  1
  Li  Li1  1  0.167245  0.833298  0.285356  1
  Li  Li2  1  0.666111  0.833056  0.285521  1
  Li  Li3  1  0.832171  0.665980  0.786150  1
  Li  Li4  1  0.832171  0.166189  0.786150  1
  Li  Li5  1  0.334362  0.167181  0.787315  1
  Li  Li6  1  0.334331  0.667166  0.673880  1
  Li  Li7  1  0.666507  0.333254  0.175669  1
  Y  Y8  1  0.513829  0.023917  0.491981  1
  Y  Y9  1  0.513829  0.489911  0.491981  1
  Y  Y10  1  0.975444  0.487721  0.490854  1
  Ho  Ho11  1  0.490394  0.978274  0.995238  1
  Ho  Ho12  1  0.490394  0.512121  0.995238  1
  Ho  Ho13  1  0.019964  0.509983  0.996456  1
  Ho  Ho14  1  0.998027  0.999013  0.496932  1
  Ho  Ho15  1  0.997995  0.998997  0.002796  1
  Sn  Sn16  1  0.667018  0.833510  0.732526  1
  Sn  Sn17  1  0.834025  0.667011  0.231607  1
  Sn  Sn18  1  0.834025  0.167012  0.231607  1
  Sn  Sn19  1  0.333026  0.166512  0.231476  1
  Sn  Sn20  1  0.332586  0.666294  0.259052  1
  Sn  Sn21  1  0.667234  0.333616  0.761019  1
  Sb  Sb22  1  0.166034  0.333125  0.733905  1
  Sb  Sb23  1  0.166034  0.832910  0.733905  1
