# generated using pymatgen
data_Er16Cd2Hg2Pd3Pt
_symmetry_space_group_name_H-M   'P 1'
_cell_length_a   9.59645281
_cell_length_b   9.58806282
_cell_length_c   9.58012200
_cell_angle_alpha   60.02738593
_cell_angle_beta   60.05627076
_cell_angle_gamma   60.02456212
_symmetry_Int_Tables_number   1
_chemical_formula_structural   Er16Cd2Hg2Pd3Pt
_chemical_formula_sum   'Er16 Cd2 Hg2 Pd3 Pt1'
_cell_volume   623.81028554
_cell_formula_units_Z   1
loop_
 _symmetry_equiv_pos_site_id
 _symmetry_equiv_pos_as_xyz
  1  'x, y, z'
loop_
 _atom_site_type_symbol
 _atom_site_label
 _atom_site_symmetry_multiplicity
 _atom_site_fract_x
 _atom_site_fract_y
 _atom_site_fract_z
 _atom_site_occupancy
  Er  Er0  1  0.355656  0.353259  0.349207  1
  Er  Er1  1  0.355656  0.353259  0.941878  1
  Er  Er2  1  0.363056  0.926639  0.355153  1
  Er  Er3  1  0.923717  0.362672  0.356806  1
  Er  Er4  1  0.810529  0.189224  0.188787  1
  Er  Er5  1  0.189543  0.811643  0.810114  1
  Er  Er6  1  0.189543  0.811643  0.188701  1
  Er  Er7  1  0.810529  0.189224  0.811460  1
  Er  Er8  1  0.189923  0.189338  0.810369  1
  Er  Er9  1  0.810843  0.812245  0.188456  1
  Er  Er10  1  0.934815  0.565460  0.565317  1
  Er  Er11  1  0.566019  0.934809  0.935077  1
  Er  Er12  1  0.566019  0.934809  0.564095  1
  Er  Er13  1  0.934815  0.565460  0.934408  1
  Er  Er14  1  0.566926  0.565973  0.933550  1
  Er  Er15  1  0.936194  0.936094  0.563856  1
  Cd  Cd16  1  0.577690  0.253260  0.584526  1
  Cd  Cd17  1  0.254415  0.578217  0.583684  1
  Hg  Hg18  1  0.584657  0.585045  0.591568  1
  Hg  Hg19  1  0.584657  0.585045  0.238732  1
  Pd  Pd20  1  0.142963  0.144721  0.150870  1
  Pd  Pd21  1  0.142963  0.144721  0.561445  1
  Pd  Pd22  1  0.139929  0.567114  0.146478  1
  Pt  Pt23  1  0.568944  0.140124  0.145466  1
