# generated using pymatgen
data_Ba2Sb4PdRh
_symmetry_space_group_name_H-M   'P 1'
_cell_length_a   9.68599460
_cell_length_b   9.68599493
_cell_length_c   4.96127600
_cell_angle_alpha   90.00000000
_cell_angle_beta   90.00000000
_cell_angle_gamma   150.72182894
_symmetry_Int_Tables_number   1
_chemical_formula_structural   Ba2Sb4PdRh
_chemical_formula_sum   'Ba2 Sb4 Pd1 Rh1'
_cell_volume   227.63302063
_cell_formula_units_Z   1
loop_
 _symmetry_equiv_pos_site_id
 _symmetry_equiv_pos_as_xyz
  1  'x, y, z'
loop_
 _atom_site_type_symbol
 _atom_site_label
 _atom_site_symmetry_multiplicity
 _atom_site_fract_x
 _atom_site_fract_y
 _atom_site_fract_z
 _atom_site_occupancy
  Ba  Ba0  1  0.393906  0.606094  0.750000  1
  Ba  Ba1  1  0.607554  0.392446  0.250000  1
  Sb  Sb2  1  0.042690  0.957310  0.750000  1
  Sb  Sb3  1  0.952480  0.047520  0.250000  1
  Sb  Sb4  1  0.250640  0.749360  0.250000  1
  Sb  Sb5  1  0.754647  0.245353  0.750000  1
  Pd  Pd6  1  0.185890  0.814110  0.750000  1
  Rh  Rh7  1  0.812191  0.187809  0.250000  1
