# generated using pymatgen
data_Dy10Hg7Pt4Pb
_symmetry_space_group_name_H-M   'P 1'
_cell_length_a   3.64425200
_cell_length_b   7.99948450
_cell_length_c   18.33481416
_cell_angle_alpha   90.21805802
_cell_angle_beta   90.00000000
_cell_angle_gamma   90.00000000
_symmetry_Int_Tables_number   1
_chemical_formula_structural   Dy10Hg7Pt4Pb
_chemical_formula_sum   'Dy10 Hg7 Pt4 Pb1'
_cell_volume   534.49515039
_cell_formula_units_Z   1
loop_
 _symmetry_equiv_pos_site_id
 _symmetry_equiv_pos_as_xyz
  1  'x, y, z'
loop_
 _atom_site_type_symbol
 _atom_site_label
 _atom_site_symmetry_multiplicity
 _atom_site_fract_x
 _atom_site_fract_y
 _atom_site_fract_z
 _atom_site_occupancy
  Dy  Dy0  1  0.000000  0.108272  0.415194  1
  Dy  Dy1  1  0.000000  0.887000  0.586636  1
  Dy  Dy2  1  0.000000  0.387163  0.913639  1
  Dy  Dy3  1  0.000000  0.612885  0.085738  1
  Dy  Dy4  1  0.000000  0.236855  0.215419  1
  Dy  Dy5  1  0.000000  0.760992  0.782688  1
  Dy  Dy6  1  0.000000  0.259856  0.717754  1
  Dy  Dy7  1  0.000000  0.746531  0.280491  1
  Dy  Dy8  1  0.000000  0.001688  0.000579  1
  Dy  Dy9  1  0.000000  0.499409  0.502437  1
  Hg  Hg10  1  0.500000  0.574838  0.645414  1
  Hg  Hg11  1  0.500000  0.074694  0.854759  1
  Hg  Hg12  1  0.500000  0.923418  0.144918  1
  Hg  Hg13  1  0.500000  0.288557  0.063341  1
  Hg  Hg14  1  0.500000  0.712336  0.936542  1
  Hg  Hg15  1  0.500000  0.210343  0.563534  1
  Hg  Hg16  1  0.500000  0.790779  0.437376  1
  Pt  Pt17  1  0.500000  0.026670  0.303091  1
  Pt  Pt18  1  0.500000  0.973423  0.697276  1
  Pt  Pt19  1  0.500000  0.474059  0.803102  1
  Pt  Pt20  1  0.500000  0.526148  0.195961  1
  Pb  Pb21  1  0.500000  0.424086  0.354111  1
