# generated using pymatgen
data_BaCuSb12Os2Pd
_symmetry_space_group_name_H-M   'P 1'
_cell_length_a   8.30830416
_cell_length_b   8.28417635
_cell_length_c   8.23994428
_cell_angle_alpha   109.24161711
_cell_angle_beta   109.42226169
_cell_angle_gamma   110.04074418
_symmetry_Int_Tables_number   1
_chemical_formula_structural   BaCuSb12Os2Pd
_chemical_formula_sum   'Ba1 Cu1 Sb12 Os2 Pd1'
_cell_volume   434.98805476
_cell_formula_units_Z   1
loop_
 _symmetry_equiv_pos_site_id
 _symmetry_equiv_pos_as_xyz
  1  'x, y, z'
loop_
 _atom_site_type_symbol
 _atom_site_label
 _atom_site_symmetry_multiplicity
 _atom_site_fract_x
 _atom_site_fract_y
 _atom_site_fract_z
 _atom_site_occupancy
  Ba  Ba0  1  0.000000  0.000000  0.000000  1
  Cu  Cu1  1  0.000000  0.000000  0.500000  1
  Sb  Sb2  1  0.349218  0.186853  0.846504  1
  Sb  Sb3  1  0.650782  0.813147  0.153496  1
  Sb  Sb4  1  0.661163  0.499102  0.847489  1
  Sb  Sb5  1  0.338837  0.500898  0.152511  1
  Sb  Sb6  1  0.187591  0.838911  0.341529  1
  Sb  Sb7  1  0.812409  0.161089  0.658471  1
  Sb  Sb8  1  0.497960  0.846189  0.659815  1
  Sb  Sb9  1  0.502040  0.153811  0.340185  1
  Sb  Sb10  1  0.842332  0.340797  0.182993  1
  Sb  Sb11  1  0.157668  0.659203  0.817007  1
  Sb  Sb12  1  0.844544  0.652152  0.495571  1
  Sb  Sb13  1  0.155456  0.347848  0.504429  1
  Os  Os14  1  0.500000  0.000000  0.000000  1
  Os  Os15  1  0.000000  0.500000  0.000000  1
  Pd  Pd16  1  0.500000  0.500000  0.500000  1
