# generated using pymatgen
data_CaNdU(SnIr)3
_symmetry_space_group_name_H-M   'P 1'
_cell_length_a   7.55857702
_cell_length_b   7.67775219
_cell_length_c   3.93950500
_cell_angle_alpha   90.00000000
_cell_angle_beta   90.00000000
_cell_angle_gamma   120.32352998
_symmetry_Int_Tables_number   1
_chemical_formula_structural   CaNdU(SnIr)3
_chemical_formula_sum   'Ca1 Nd1 U1 Sn3 Ir3'
_cell_volume   197.34281780
_cell_formula_units_Z   1
loop_
 _symmetry_equiv_pos_site_id
 _symmetry_equiv_pos_as_xyz
  1  'x, y, z'
loop_
 _atom_site_type_symbol
 _atom_site_label
 _atom_site_symmetry_multiplicity
 _atom_site_fract_x
 _atom_site_fract_y
 _atom_site_fract_z
 _atom_site_occupancy
  Ca  Ca0  1  0.595642  0.002271  0.500000  1
  Nd  Nd1  1  0.406707  0.409679  0.500000  1
  U  U2  1  0.999086  0.585802  0.500000  1
  Sn  Sn3  1  0.732690  0.748381  0.000000  1
  Sn  Sn4  1  0.272475  0.009506  0.000000  1
  Sn  Sn5  1  0.993859  0.237686  0.000000  1
  Ir  Ir6  1  0.713050  0.376715  0.000000  1
  Ir  Ir7  1  0.283496  0.653087  0.000000  1
  Ir  Ir8  1  0.002995  0.976873  0.500000  1
