# generated using pymatgen
data_Dy8Sc12Si15Rh
_symmetry_space_group_name_H-M   'P 1'
_cell_length_a   7.07942849
_cell_length_b   7.43636542
_cell_length_c   13.96364400
_cell_angle_alpha   90.00000000
_cell_angle_beta   90.00000000
_cell_angle_gamma   90.18501996
_symmetry_Int_Tables_number   1
_chemical_formula_structural   Dy8Sc12Si15Rh
_chemical_formula_sum   'Dy8 Sc12 Si15 Rh1'
_cell_volume   735.11523885
_cell_formula_units_Z   1
loop_
 _symmetry_equiv_pos_site_id
 _symmetry_equiv_pos_as_xyz
  1  'x, y, z'
loop_
 _atom_site_type_symbol
 _atom_site_label
 _atom_site_symmetry_multiplicity
 _atom_site_fract_x
 _atom_site_fract_y
 _atom_site_fract_z
 _atom_site_occupancy
  Dy  Dy0  1  0.011404  0.178120  0.096185  1
  Dy  Dy1  1  0.990973  0.824589  0.904441  1
  Dy  Dy2  1  0.488990  0.676796  0.904185  1
  Dy  Dy3  1  0.990973  0.824589  0.595559  1
  Dy  Dy4  1  0.511213  0.322984  0.096492  1
  Dy  Dy5  1  0.011404  0.178120  0.403815  1
  Dy  Dy6  1  0.511213  0.322984  0.403508  1
  Dy  Dy7  1  0.488990  0.676796  0.595815  1
  Sc  Sc8  1  0.158728  0.503103  0.750000  1
  Sc  Sc9  1  0.837837  0.496068  0.250000  1
  Sc  Sc10  1  0.338716  0.004545  0.250000  1
  Sc  Sc11  1  0.668836  0.999226  0.750000  1
  Sc  Sc12  1  0.320795  0.172931  0.626801  1
  Sc  Sc13  1  0.670972  0.824972  0.374056  1
  Sc  Sc14  1  0.170611  0.677247  0.374354  1
  Sc  Sc15  1  0.670972  0.824972  0.125944  1
  Sc  Sc16  1  0.833812  0.322126  0.626382  1
  Sc  Sc17  1  0.320795  0.172931  0.873199  1
  Sc  Sc18  1  0.833812  0.322126  0.873618  1
  Sc  Sc19  1  0.170611  0.677247  0.125646  1
  Si  Si20  1  0.968378  0.884001  0.250000  1
  Si  Si21  1  0.467918  0.615221  0.250000  1
  Si  Si22  1  0.530665  0.387419  0.750000  1
  Si  Si23  1  0.287655  0.869066  0.750000  1
  Si  Si24  1  0.713329  0.128729  0.250000  1
  Si  Si25  1  0.213177  0.371946  0.250000  1
  Si  Si26  1  0.780902  0.626563  0.750000  1
  Si  Si27  1  0.159247  0.467271  0.537978  1
  Si  Si28  1  0.842872  0.535685  0.461200  1
  Si  Si29  1  0.344571  0.965710  0.460550  1
  Si  Si30  1  0.842872  0.535685  0.038800  1
  Si  Si31  1  0.657656  0.034607  0.538672  1
  Si  Si32  1  0.159247  0.467271  0.962022  1
  Si  Si33  1  0.657656  0.034607  0.961328  1
  Si  Si34  1  0.344571  0.965710  0.039450  1
  Rh  Rh35  1  0.027623  0.108035  0.750000  1
