# generated using pymatgen
data_Ho6C2Cl7
_symmetry_space_group_name_H-M   'P 1'
_cell_length_a   10.08092491
_cell_length_b   10.08092488
_cell_length_c   11.50966716
_cell_angle_alpha   56.72421413
_cell_angle_beta   56.72421414
_cell_angle_gamma   21.19053143
_symmetry_Int_Tables_number   1
_chemical_formula_structural   Ho6C2Cl7
_chemical_formula_sum   'Ho6 C2 Cl7'
_cell_volume   350.80489714
_cell_formula_units_Z   1
loop_
 _symmetry_equiv_pos_site_id
 _symmetry_equiv_pos_as_xyz
  1  'x, y, z'
loop_
 _atom_site_type_symbol
 _atom_site_label
 _atom_site_symmetry_multiplicity
 _atom_site_fract_x
 _atom_site_fract_y
 _atom_site_fract_z
 _atom_site_occupancy
  Ho  Ho0  1  0.226231  0.226231  0.847077  1
  Ho  Ho1  1  0.317159  0.317159  0.360158  1
  Ho  Ho2  1  0.128025  0.128025  0.442410  1
  Ho  Ho3  1  0.871975  0.871975  0.557590  1
  Ho  Ho4  1  0.682841  0.682841  0.639842  1
  Ho  Ho5  1  0.773769  0.773769  0.152923  1
  C  C6  1  0.279626  0.279626  0.609152  1
  C  C7  1  0.720374  0.720374  0.390848  1
  Cl  Cl8  1  0.168592  0.168592  0.161726  1
  Cl  Cl9  1  0.831408  0.831408  0.838274  1
  Cl  Cl10  1  0.058490  0.058490  0.716563  1
  Cl  Cl11  1  0.941510  0.941510  0.283437  1
  Cl  Cl12  1  0.500000  0.500000  0.500000  1
  Cl  Cl13  1  0.388994  0.388994  0.068193  1
  Cl  Cl14  1  0.611006  0.611006  0.931807  1
