# generated using pymatgen
data_Cs3TbV2O8
_symmetry_space_group_name_H-M   'P 1'
_cell_length_a   6.18719500
_cell_length_b   6.18719471
_cell_length_c   8.41830100
_cell_angle_alpha   90.00000000
_cell_angle_beta   90.00000000
_cell_angle_gamma   119.99999621
_symmetry_Int_Tables_number   1
_chemical_formula_structural   Cs3TbV2O8
_chemical_formula_sum   'Cs3 Tb1 V2 O8'
_cell_volume   279.08897805
_cell_formula_units_Z   1
loop_
 _symmetry_equiv_pos_site_id
 _symmetry_equiv_pos_as_xyz
  1  'x, y, z'
loop_
 _atom_site_type_symbol
 _atom_site_label
 _atom_site_symmetry_multiplicity
 _atom_site_fract_x
 _atom_site_fract_y
 _atom_site_fract_z
 _atom_site_occupancy
  Cs  Cs0  1  0.333333  0.666667  0.728063  1
  Cs  Cs1  1  0.666667  0.333333  0.271937  1
  Cs  Cs2  1  0.000000  0.000000  0.000000  1
  Tb  Tb3  1  0.000000  0.000000  0.500000  1
  V  V4  1  0.333333  0.666667  0.277512  1
  V  V5  1  0.666667  0.333333  0.722488  1
  O  O6  1  0.333333  0.666667  0.076422  1
  O  O7  1  0.666667  0.333333  0.923578  1
  O  O8  1  0.176363  0.823637  0.343743  1
  O  O9  1  0.823637  0.176363  0.656257  1
  O  O10  1  0.176363  0.352727  0.343743  1
  O  O11  1  0.823637  0.647273  0.656257  1
  O  O12  1  0.647273  0.823637  0.343743  1
  O  O13  1  0.352727  0.176363  0.656257  1
