# generated using pymatgen
data_Dy15ThCdHg3Pt4
_symmetry_space_group_name_H-M   'P 1'
_cell_length_a   9.66433353
_cell_length_b   9.67311316
_cell_length_c   9.67206184
_cell_angle_alpha   60.27840418
_cell_angle_beta   60.30813780
_cell_angle_gamma   60.32041069
_symmetry_Int_Tables_number   1
_chemical_formula_structural   Dy15ThCdHg3Pt4
_chemical_formula_sum   'Dy15 Th1 Cd1 Hg3 Pt4'
_cell_volume   643.72898124
_cell_formula_units_Z   1
loop_
 _symmetry_equiv_pos_site_id
 _symmetry_equiv_pos_as_xyz
  1  'x, y, z'
loop_
 _atom_site_type_symbol
 _atom_site_label
 _atom_site_symmetry_multiplicity
 _atom_site_fract_x
 _atom_site_fract_y
 _atom_site_fract_z
 _atom_site_occupancy
  Dy  Dy0  1  0.355890  0.355302  0.934283  1
  Dy  Dy1  1  0.355899  0.934300  0.355326  1
  Dy  Dy2  1  0.931695  0.356625  0.356624  1
  Dy  Dy3  1  0.812556  0.189316  0.189316  1
  Dy  Dy4  1  0.189918  0.811144  0.811137  1
  Dy  Dy5  1  0.188247  0.813193  0.189217  1
  Dy  Dy6  1  0.810302  0.191309  0.810432  1
  Dy  Dy7  1  0.188255  0.189219  0.813188  1
  Dy  Dy8  1  0.810282  0.810414  0.191335  1
  Dy  Dy9  1  0.936886  0.566361  0.566369  1
  Dy  Dy10  1  0.562943  0.937648  0.937661  1
  Dy  Dy11  1  0.565612  0.937165  0.566105  1
  Dy  Dy12  1  0.936451  0.563881  0.937844  1
  Dy  Dy13  1  0.565619  0.566121  0.937163  1
  Dy  Dy14  1  0.936446  0.937828  0.563883  1
  Th  Th15  1  0.349549  0.349650  0.349661  1
  Cd  Cd16  1  0.253725  0.581761  0.581762  1
  Hg  Hg17  1  0.584886  0.586813  0.586810  1
  Hg  Hg18  1  0.585184  0.587228  0.239846  1
  Hg  Hg19  1  0.585191  0.239835  0.587243  1
  Pt  Pt20  1  0.144710  0.144987  0.144945  1
  Pt  Pt21  1  0.140254  0.140503  0.568980  1
  Pt  Pt22  1  0.140262  0.569003  0.140489  1
  Pt  Pt23  1  0.569242  0.140396  0.140381  1
