# generated using pymatgen
data_Gd(ZrH5)3
_symmetry_space_group_name_H-M   'P 1'
_cell_length_a   7.14881520
_cell_length_b   7.16150164
_cell_length_c   7.19195624
_cell_angle_alpha   109.53231443
_cell_angle_beta   109.46108080
_cell_angle_gamma   109.21186135
_symmetry_Int_Tables_number   1
_chemical_formula_structural   Gd(ZrH5)3
_chemical_formula_sum   'Gd2 Zr6 H30'
_cell_volume   284.16625332
_cell_formula_units_Z   2
loop_
 _symmetry_equiv_pos_site_id
 _symmetry_equiv_pos_as_xyz
  1  'x, y, z'
loop_
 _atom_site_type_symbol
 _atom_site_label
 _atom_site_symmetry_multiplicity
 _atom_site_fract_x
 _atom_site_fract_y
 _atom_site_fract_z
 _atom_site_occupancy
  Gd  Gd0  1  0.911703  0.910184  0.909508  1
  Gd  Gd1  1  0.502196  0.000676  0.090492  1
  Zr  Zr2  1  0.004924  0.109442  0.505425  1
  Zr  Zr3  1  0.107075  0.498743  0.001892  1
  Zr  Zr4  1  0.999499  0.604018  0.494575  1
  Zr  Zr5  1  0.605184  0.496852  0.998108  1
  Zr  Zr6  1  0.497985  0.999540  0.591964  1
  Zr  Zr7  1  0.406021  0.407576  0.408036  1
  H  H8  1  0.666179  0.977636  0.399375  1
  H  H9  1  0.221588  0.306321  0.846651  1
  H  H10  1  0.190547  0.418657  0.535863  1
  H  H11  1  0.095032  0.290356  0.128815  1
  H  H12  1  0.283320  0.140073  0.109089  1
  H  H13  1  0.130037  0.103211  0.294188  1
  H  H14  1  0.466215  0.161541  0.871185  1
  H  H15  1  0.722664  0.341675  0.811820  1
  H  H16  1  0.626117  0.383772  0.254826  1
  H  H17  1  0.240786  0.624224  0.367625  1
  H  H18  1  0.759465  0.870652  0.140944  1
  H  H19  1  0.118521  0.729709  0.859056  1
  H  H20  1  0.373161  0.256599  0.632375  1
  H  H21  1  0.871291  0.128947  0.745174  1
  H  H22  1  0.766806  0.578264  0.600625  1
  H  H23  1  0.304729  0.833062  0.226869  1
  H  H24  1  0.377483  0.637003  0.969910  1
  H  H25  1  0.974485  0.381109  0.658268  1
  H  H26  1  0.526478  0.193932  0.427384  1
  H  H27  1  0.410845  0.529857  0.188180  1
  H  H28  1  0.863358  0.234360  0.327498  1
  H  H29  1  0.907572  0.667091  0.030090  1
  H  H30  1  0.816218  0.722841  0.341732  1
  H  H31  1  0.154684  0.882794  0.464137  1
  H  H32  1  0.674231  0.030984  0.890911  1
  H  H33  1  0.335850  0.809024  0.705812  1
  H  H34  1  0.874938  0.459669  0.153349  1
  H  H35  1  0.599094  0.766550  0.572616  1
  H  H36  1  0.577860  0.606193  0.773131  1
  H  H37  1  0.035861  0.906862  0.672502  1
