# generated using pymatgen
data_Pr2Mg3Cu9P7
_symmetry_space_group_name_H-M   'P 1'
_cell_length_a   9.70362300
_cell_length_b   9.70362409
_cell_length_c   3.88921100
_cell_angle_alpha   90.00000000
_cell_angle_beta   90.00000000
_cell_angle_gamma   119.99999968
_symmetry_Int_Tables_number   1
_chemical_formula_structural   Pr2Mg3Cu9P7
_chemical_formula_sum   'Pr2 Mg3 Cu9 P7'
_cell_volume   317.14656930
_cell_formula_units_Z   1
loop_
 _symmetry_equiv_pos_site_id
 _symmetry_equiv_pos_as_xyz
  1  'x, y, z'
loop_
 _atom_site_type_symbol
 _atom_site_label
 _atom_site_symmetry_multiplicity
 _atom_site_fract_x
 _atom_site_fract_y
 _atom_site_fract_z
 _atom_site_occupancy
  Pr  Pr0  1  0.333333  0.666667  0.000000  1
  Pr  Pr1  1  0.666667  0.333333  0.500000  1
  Mg  Mg2  1  0.224593  0.118746  0.500000  1
  Mg  Mg3  1  0.881254  0.105848  0.500000  1
  Mg  Mg4  1  0.894152  0.775407  0.500000  1
  Cu  Cu5  1  0.424799  0.371850  0.000000  1
  Cu  Cu6  1  0.628150  0.052949  0.000000  1
  Cu  Cu7  1  0.947051  0.575201  0.000000  1
  Cu  Cu8  1  0.159875  0.876426  0.000000  1
  Cu  Cu9  1  0.123574  0.283449  0.000000  1
  Cu  Cu10  1  0.716551  0.840125  0.000000  1
  Cu  Cu11  1  0.383651  0.952844  0.500000  1
  Cu  Cu12  1  0.047156  0.430808  0.500000  1
  Cu  Cu13  1  0.569192  0.616349  0.500000  1
  P  P14  1  0.419723  0.117402  0.000000  1
  P  P15  1  0.882598  0.302321  0.000000  1
  P  P16  1  0.697679  0.580277  0.000000  1
  P  P17  1  0.120453  0.706806  0.500000  1
  P  P18  1  0.293194  0.413648  0.500000  1
  P  P19  1  0.586352  0.879547  0.500000  1
  P  P20  1  0.000000  0.000000  0.000000  1
