# generated using pymatgen
data_Cs6K2RbGaSb4
_symmetry_space_group_name_H-M   'P 1'
_cell_length_a   11.18695091
_cell_length_b   11.21749387
_cell_length_c   11.80257300
_cell_angle_alpha   90.00000000
_cell_angle_beta   90.00000000
_cell_angle_gamma   120.09038860
_symmetry_Int_Tables_number   1
_chemical_formula_structural   Cs6K2RbGaSb4
_chemical_formula_sum   'Cs12 K4 Rb2 Ga2 Sb8'
_cell_volume   1281.50001856
_cell_formula_units_Z   2
loop_
 _symmetry_equiv_pos_site_id
 _symmetry_equiv_pos_as_xyz
  1  'x, y, z'
loop_
 _atom_site_type_symbol
 _atom_site_label
 _atom_site_symmetry_multiplicity
 _atom_site_fract_x
 _atom_site_fract_y
 _atom_site_fract_z
 _atom_site_occupancy
  Cs  Cs0  1  0.208777  0.417710  0.541676  1
  Cs  Cs1  1  0.791223  0.208934  0.041677  1
  Cs  Cs2  1  0.418038  0.209280  0.041277  1
  Cs  Cs3  1  0.581962  0.791243  0.541277  1
  Cs  Cs4  1  0.209485  0.790873  0.542086  1
  Cs  Cs5  1  0.790515  0.581387  0.457915  1
  Cs  Cs6  1  0.791223  0.208934  0.458323  1
  Cs  Cs7  1  0.790515  0.581387  0.042085  1
  Cs  Cs8  1  0.418038  0.209280  0.458723  1
  Cs  Cs9  1  0.581962  0.791243  0.958723  1
  Cs  Cs10  1  0.208777  0.417710  0.958324  1
  Cs  Cs11  1  0.209485  0.790873  0.957914  1
  K  K12  1  0.119162  0.239064  0.250000  1
  K  K13  1  0.880839  0.119903  0.750000  1
  K  K14  1  0.238728  0.119860  0.750000  1
  K  K15  1  0.761272  0.881132  0.250000  1
  Rb  Rb16  1  0.118676  0.881485  0.250000  1
  Rb  Rb17  1  0.881323  0.762808  0.750000  1
  Ga  Ga18  1  0.333352  0.666662  0.250000  1
  Ga  Ga19  1  0.666648  0.333309  0.750000  1
  Sb  Sb20  1  0.472586  0.528147  0.250000  1
  Sb  Sb21  1  0.944942  0.469612  0.750000  1
  Sb  Sb22  1  0.527414  0.055560  0.750000  1
  Sb  Sb23  1  0.475478  0.944524  0.250000  1
  Sb  Sb24  1  0.055058  0.524667  0.250000  1
  Sb  Sb25  1  0.524522  0.469046  0.750000  1
  Sb  Sb26  1  0.000000  0.002682  0.000000  1
  Sb  Sb27  1  0.000000  0.002682  0.500000  1
