# generated using pymatgen
data_La2Ho3S7
_symmetry_space_group_name_H-M   'P 1'
_cell_length_a   6.84430150
_cell_length_b   6.84430088
_cell_length_c   11.86854700
_cell_angle_alpha   75.96552365
_cell_angle_beta   75.96552496
_cell_angle_gamma   32.97446340
_symmetry_Int_Tables_number   1
_chemical_formula_structural   La2Ho3S7
_chemical_formula_sum   'La2 Ho3 S7'
_cell_volume   292.76111801
_cell_formula_units_Z   1
loop_
 _symmetry_equiv_pos_site_id
 _symmetry_equiv_pos_as_xyz
  1  'x, y, z'
loop_
 _atom_site_type_symbol
 _atom_site_label
 _atom_site_symmetry_multiplicity
 _atom_site_fract_x
 _atom_site_fract_y
 _atom_site_fract_z
 _atom_site_occupancy
  La  La0  1  0.300311  0.300311  0.809434  1
  La  La1  1  0.699689  0.699689  0.190566  1
  Ho  Ho2  1  0.000000  0.000000  0.000000  1
  Ho  Ho3  1  0.111317  0.111317  0.576821  1
  Ho  Ho4  1  0.888683  0.888683  0.423179  1
  S  S5  1  0.500000  0.500000  0.500000  1
  S  S6  1  0.651971  0.651971  0.951084  1
  S  S7  1  0.348029  0.348029  0.048916  1
  S  S8  1  0.967545  0.967545  0.784001  1
  S  S9  1  0.032455  0.032455  0.215999  1
  S  S10  1  0.262313  0.262313  0.360574  1
  S  S11  1  0.737687  0.737687  0.639426  1
