# generated using pymatgen
data_Sb10PPd4
_symmetry_space_group_name_H-M   'P 1'
_cell_length_a   20.12518202
_cell_length_b   20.12518146
_cell_length_c   6.50438046
_cell_angle_alpha   70.62078349
_cell_angle_beta   70.62078382
_cell_angle_gamma   8.38728959
_symmetry_Int_Tables_number   1
_chemical_formula_structural   Sb10PPd4
_chemical_formula_sum   'Sb10 P1 Pd4'
_cell_volume   362.37444328
_cell_formula_units_Z   1
loop_
 _symmetry_equiv_pos_site_id
 _symmetry_equiv_pos_as_xyz
  1  'x, y, z'
loop_
 _atom_site_type_symbol
 _atom_site_label
 _atom_site_symmetry_multiplicity
 _atom_site_fract_x
 _atom_site_fract_y
 _atom_site_fract_z
 _atom_site_occupancy
  Sb  Sb0  1  0.676806  0.676806  0.719793  1
  Sb  Sb1  1  0.278080  0.278080  0.730232  1
  Sb  Sb2  1  0.876388  0.876388  0.744357  1
  Sb  Sb3  1  0.539769  0.539769  0.312292  1
  Sb  Sb4  1  0.135254  0.135254  0.255068  1
  Sb  Sb5  1  0.733225  0.733225  0.265192  1
  Sb  Sb6  1  0.334265  0.334265  0.276521  1
  Sb  Sb7  1  0.934503  0.934503  0.283328  1
  Sb  Sb8  1  0.076701  0.076701  0.718127  1
  Sb  Sb9  1  0.472164  0.472164  0.694915  1
  P  P10  1  0.005893  0.005893  0.003860  1
  Pd  Pd11  1  0.604551  0.604551  0.992828  1
  Pd  Pd12  1  0.206140  0.206140  0.987005  1
  Pd  Pd13  1  0.805155  0.805155  0.008513  1
  Pd  Pd14  1  0.406827  0.406827  0.007967  1
