# generated using pymatgen
data_SrHo6CoBr12
_symmetry_space_group_name_H-M   'P 1'
_cell_length_a   9.23300151
_cell_length_b   9.23300061
_cell_length_c   9.23300259
_cell_angle_alpha   106.24769671
_cell_angle_beta   106.24768742
_cell_angle_gamma   106.24768850
_symmetry_Int_Tables_number   1
_chemical_formula_structural   SrHo6CoBr12
_chemical_formula_sum   'Sr1 Ho6 Co1 Br12'
_cell_volume   668.49897907
_cell_formula_units_Z   1
loop_
 _symmetry_equiv_pos_site_id
 _symmetry_equiv_pos_as_xyz
  1  'x, y, z'
loop_
 _atom_site_type_symbol
 _atom_site_label
 _atom_site_symmetry_multiplicity
 _atom_site_fract_x
 _atom_site_fract_y
 _atom_site_fract_z
 _atom_site_occupancy
  Sr  Sr0  1  0.500000  0.500000  0.500000  1
  Ho  Ho1  1  0.984902  0.905670  0.701981  1
  Ho  Ho2  1  0.015098  0.094330  0.298019  1
  Ho  Ho3  1  0.094330  0.298019  0.015098  1
  Ho  Ho4  1  0.298019  0.015098  0.094330  1
  Ho  Ho5  1  0.905670  0.701981  0.984902  1
  Ho  Ho6  1  0.701981  0.984902  0.905670  1
  Co  Co7  1  0.000000  0.000000  0.000000  1
  Br  Br8  1  0.558896  0.638421  0.862533  1
  Br  Br9  1  0.441104  0.361579  0.137467  1
  Br  Br10  1  0.323974  0.927931  0.781547  1
  Br  Br11  1  0.361579  0.137467  0.441104  1
  Br  Br12  1  0.927931  0.781547  0.323974  1
  Br  Br13  1  0.676026  0.072069  0.218453  1
  Br  Br14  1  0.072069  0.218453  0.676026  1
  Br  Br15  1  0.781547  0.323974  0.927931  1
  Br  Br16  1  0.218453  0.676026  0.072069  1
  Br  Br17  1  0.862533  0.558896  0.638421  1
  Br  Br18  1  0.137467  0.441104  0.361579  1
  Br  Br19  1  0.638421  0.862533  0.558896  1
