# generated using pymatgen
data_Nb7Fe6Co2Si14Tc
_symmetry_space_group_name_H-M   'P 1'
_cell_length_a   9.21457254
_cell_length_b   9.21506760
_cell_length_c   9.21980758
_cell_angle_alpha   94.41600968
_cell_angle_beta   94.02975173
_cell_angle_gamma   148.47676997
_symmetry_Int_Tables_number   1
_chemical_formula_structural   Nb7Fe6Co2Si14Tc
_chemical_formula_sum   'Nb7 Fe6 Co2 Si14 Tc1'
_cell_volume   393.99516901
_cell_formula_units_Z   1
loop_
 _symmetry_equiv_pos_site_id
 _symmetry_equiv_pos_as_xyz
  1  'x, y, z'
loop_
 _atom_site_type_symbol
 _atom_site_label
 _atom_site_symmetry_multiplicity
 _atom_site_fract_x
 _atom_site_fract_y
 _atom_site_fract_z
 _atom_site_occupancy
  Nb  Nb0  1  0.690324  0.500921  0.190301  1
  Nb  Nb1  1  0.500815  0.691720  0.192984  1
  Nb  Nb2  1  0.499354  0.307675  0.808424  1
  Nb  Nb3  1  0.135513  0.134238  0.268615  1
  Nb  Nb4  1  0.865964  0.865346  0.729378  1
  Nb  Nb5  1  0.135184  0.865491  0.001266  1
  Nb  Nb6  1  0.864436  0.135308  0.000357  1
  Fe  Fe7  1  0.398515  0.896491  0.797843  1
  Fe  Fe8  1  0.100820  0.599658  0.199865  1
  Fe  Fe9  1  0.901801  0.102124  0.502631  1
  Fe  Fe10  1  0.599432  0.401149  0.501339  1
  Fe  Fe11  1  0.598840  0.097792  0.197485  1
  Fe  Fe12  1  0.903017  0.400882  0.800427  1
  Co  Co13  1  0.101329  0.901095  0.501437  1
  Co  Co14  1  0.397667  0.599642  0.501176  1
  Si  Si15  1  0.292381  0.295586  0.587799  1
  Si  Si16  1  0.708642  0.709109  0.416699  1
  Si  Si17  1  0.292912  0.704526  0.996620  1
  Si  Si18  1  0.707204  0.291362  0.998813  1
  Si  Si19  1  0.091595  0.496924  0.595733  1
  Si  Si20  1  0.900686  0.494715  0.404901  1
  Si  Si21  1  0.503601  0.910181  0.405095  1
  Si  Si22  1  0.504959  0.098699  0.595144  1
  Si  Si23  1  0.246559  0.248834  0.997648  1
  Si  Si24  1  0.748772  0.750858  0.997602  1
  Si  Si25  1  0.300333  0.003569  0.298624  1
  Si  Si26  1  0.704123  0.001342  0.702230  1
  Si  Si27  1  0.997651  0.699961  0.702340  1
  Si  Si28  1  0.998470  0.294655  0.298496  1
  Tc  Tc29  1  0.309102  0.500147  0.808722  1
