# generated using pymatgen
data_CaHoHf2(NiAs)4
_symmetry_space_group_name_H-M   'P 1'
_cell_length_a   3.98694600
_cell_length_b   3.98694605
_cell_length_c   15.03249400
_cell_angle_alpha   90.00000000
_cell_angle_beta   90.00000000
_cell_angle_gamma   120.00001618
_symmetry_Int_Tables_number   1
_chemical_formula_structural   CaHoHf2(NiAs)4
_chemical_formula_sum   'Ca1 Ho1 Hf2 Ni4 As4'
_cell_volume   206.93898403
_cell_formula_units_Z   1
loop_
 _symmetry_equiv_pos_site_id
 _symmetry_equiv_pos_as_xyz
  1  'x, y, z'
loop_
 _atom_site_type_symbol
 _atom_site_label
 _atom_site_symmetry_multiplicity
 _atom_site_fract_x
 _atom_site_fract_y
 _atom_site_fract_z
 _atom_site_occupancy
  Ca  Ca0  1  0.000000  0.000000  0.000000  1
  Ho  Ho1  1  0.000000  0.000000  0.500000  1
  Hf  Hf2  1  0.000000  0.000000  0.250607  1
  Hf  Hf3  1  0.000000  0.000000  0.749393  1
  Ni  Ni4  1  0.333333  0.666667  0.162445  1
  Ni  Ni5  1  0.666667  0.333333  0.837555  1
  Ni  Ni6  1  0.666667  0.333333  0.653853  1
  Ni  Ni7  1  0.333333  0.666667  0.346147  1
  As  As8  1  0.333333  0.666667  0.620281  1
  As  As9  1  0.666667  0.333333  0.379719  1
  As  As10  1  0.666667  0.333333  0.128072  1
  As  As11  1  0.333333  0.666667  0.871928  1
