# generated using pymatgen
data_Hf8Co16(SiP3)3
_symmetry_space_group_name_H-M   'P 1'
_cell_length_a   12.11338532
_cell_length_b   12.13154758
_cell_length_c   3.63764900
_cell_angle_alpha   90.00000000
_cell_angle_beta   90.00000000
_cell_angle_gamma   119.97697492
_symmetry_Int_Tables_number   1
_chemical_formula_structural   Hf8Co16(SiP3)3
_chemical_formula_sum   'Hf8 Co16 Si3 P9'
_cell_volume   463.05638572
_cell_formula_units_Z   1
loop_
 _symmetry_equiv_pos_site_id
 _symmetry_equiv_pos_as_xyz
  1  'x, y, z'
loop_
 _atom_site_type_symbol
 _atom_site_label
 _atom_site_symmetry_multiplicity
 _atom_site_fract_x
 _atom_site_fract_y
 _atom_site_fract_z
 _atom_site_occupancy
  Hf  Hf0  1  0.824480  0.825040  0.500000  1
  Hf  Hf1  1  0.442851  0.442419  0.000000  1
  Hf  Hf2  1  0.998230  0.173282  0.500000  1
  Hf  Hf3  1  0.554513  0.999841  0.000000  1
  Hf  Hf4  1  0.333712  0.666187  0.000000  1
  Hf  Hf5  1  0.667307  0.333660  0.000000  1
  Hf  Hf6  1  0.000402  0.557058  0.000000  1
  Hf  Hf7  1  0.175143  0.999017  0.500000  1
  Co  Co8  1  0.627545  0.825383  0.000000  1
  Co  Co9  1  0.375280  0.193956  0.000000  1
  Co  Co10  1  0.001889  0.722400  0.500000  1
  Co  Co11  1  0.282801  0.281041  0.500000  1
  Co  Co12  1  0.872078  0.355277  0.500000  1
  Co  Co13  1  0.720798  0.000135  0.500000  1
  Co  Co14  1  0.825264  0.627960  0.000000  1
  Co  Co15  1  0.178315  0.806671  0.000000  1
  Co  Co16  1  0.354259  0.873023  0.500000  1
  Co  Co17  1  0.127533  0.484204  0.500000  1
  Co  Co18  1  0.644727  0.516528  0.500000  1
  Co  Co19  1  0.996603  0.995928  0.000000  1
  Co  Co20  1  0.517231  0.645013  0.500000  1
  Co  Co21  1  0.481686  0.126309  0.500000  1
  Co  Co22  1  0.198151  0.376070  0.000000  1
  Co  Co23  1  0.801920  0.174683  0.000000  1
  Si  Si24  1  0.999859  0.344469  0.000000  1
  Si  Si25  1  0.174855  0.175487  0.000000  1
  Si  Si26  1  0.654769  0.655115  0.000000  1
  P  P27  1  0.826113  0.517073  0.500000  1
  P  P28  1  0.690397  0.173936  0.500000  1
  P  P29  1  0.824320  0.000063  0.000000  1
  P  P30  1  0.516798  0.826092  0.500000  1
  P  P31  1  0.174174  0.690510  0.500000  1
  P  P32  1  0.344464  0.000225  0.000000  1
  P  P33  1  0.483265  0.309032  0.500000  1
  P  P34  1  0.999505  0.824110  0.000000  1
  P  P35  1  0.308763  0.482803  0.500000  1
