# generated using pymatgen
data_Zr2InPtF15
_symmetry_space_group_name_H-M   'P 1'
_cell_length_a   8.02735531
_cell_length_b   8.02735368
_cell_length_c   8.08353227
_cell_angle_alpha   79.82713331
_cell_angle_beta   79.82713140
_cell_angle_gamma   99.75448600
_symmetry_Int_Tables_number   1
_chemical_formula_structural   Zr2InPtF15
_chemical_formula_sum   'Zr4 In2 Pt2 F30'
_cell_volume   493.70267245
_cell_formula_units_Z   2
loop_
 _symmetry_equiv_pos_site_id
 _symmetry_equiv_pos_as_xyz
  1  'x, y, z'
loop_
 _atom_site_type_symbol
 _atom_site_label
 _atom_site_symmetry_multiplicity
 _atom_site_fract_x
 _atom_site_fract_y
 _atom_site_fract_z
 _atom_site_occupancy
  Zr  Zr0  1  0.822477  0.748725  0.326413  1
  Zr  Zr1  1  0.251275  0.177523  0.173587  1
  Zr  Zr2  1  0.177523  0.251275  0.673587  1
  Zr  Zr3  1  0.748725  0.822477  0.826413  1
  In  In4  1  0.677440  0.322560  0.750000  1
  In  In5  1  0.322560  0.677440  0.250000  1
  Pt  Pt6  1  0.249274  0.750726  0.750000  1
  Pt  Pt7  1  0.750726  0.249274  0.250000  1
  F  F8  1  0.151006  0.183974  0.946072  1
  F  F9  1  0.685563  0.558685  0.846165  1
  F  F10  1  0.046888  0.652704  0.315190  1
  F  F11  1  0.652704  0.046888  0.815190  1
  F  F12  1  0.558685  0.685563  0.346165  1
  F  F13  1  0.183974  0.151006  0.446072  1
  F  F14  1  0.848994  0.816026  0.053928  1
  F  F15  1  0.314437  0.441315  0.153835  1
  F  F16  1  0.953112  0.347296  0.684810  1
  F  F17  1  0.347296  0.953112  0.184810  1
  F  F18  1  0.441315  0.314437  0.653835  1
  F  F19  1  0.816026  0.848994  0.553928  1
  F  F20  1  0.969637  0.030363  0.750000  1
  F  F21  1  0.537126  0.752295  0.027808  1
  F  F22  1  0.247705  0.462874  0.472192  1
  F  F23  1  0.462874  0.247705  0.972192  1
  F  F24  1  0.752295  0.537126  0.527808  1
  F  F25  1  0.030363  0.969637  0.250000  1
  F  F26  1  0.207759  0.725984  0.001684  1
  F  F27  1  0.224572  0.496420  0.791033  1
  F  F28  1  0.994672  0.710097  0.777257  1
  F  F29  1  0.710097  0.994672  0.277257  1
  F  F30  1  0.496420  0.224572  0.291033  1
  F  F31  1  0.725984  0.207759  0.501684  1
  F  F32  1  0.792241  0.274016  0.998316  1
  F  F33  1  0.775428  0.503580  0.208967  1
  F  F34  1  0.005328  0.289903  0.222743  1
  F  F35  1  0.289903  0.005328  0.722743  1
  F  F36  1  0.503580  0.775428  0.708967  1
  F  F37  1  0.274016  0.792241  0.498316  1
