# generated using pymatgen
data_Ho5V(Co3P2)6
_symmetry_space_group_name_H-M   'P 1'
_cell_length_a   11.96098821
_cell_length_b   11.96098895
_cell_length_c   3.66100700
_cell_angle_alpha   90.00000000
_cell_angle_beta   90.00000000
_cell_angle_gamma   119.72997049
_symmetry_Int_Tables_number   1
_chemical_formula_structural   Ho5V(Co3P2)6
_chemical_formula_sum   'Ho5 V1 Co18 P12'
_cell_volume   454.82113441
_cell_formula_units_Z   1
loop_
 _symmetry_equiv_pos_site_id
 _symmetry_equiv_pos_as_xyz
  1  'x, y, z'
loop_
 _atom_site_type_symbol
 _atom_site_label
 _atom_site_symmetry_multiplicity
 _atom_site_fract_x
 _atom_site_fract_y
 _atom_site_fract_z
 _atom_site_occupancy
  Ho  Ho0  1  0.666152  0.334112  0.000000  1
  Ho  Ho1  1  0.334112  0.666152  0.000000  1
  Ho  Ho2  1  0.814124  0.814124  0.500000  1
  Ho  Ho3  1  0.188594  0.001743  0.500000  1
  Ho  Ho4  1  0.001743  0.188594  0.500000  1
  V  V5  1  0.441632  0.441632  0.000000  1
  Co  Co6  1  0.875022  0.358207  0.500000  1
  Co  Co7  1  0.643630  0.518405  0.500000  1
  Co  Co8  1  0.484694  0.126340  0.500000  1
  Co  Co9  1  0.358207  0.875022  0.500000  1
  Co  Co10  1  0.518405  0.643630  0.500000  1
  Co  Co11  1  0.126340  0.484694  0.500000  1
  Co  Co12  1  0.552120  0.000064  0.000000  1
  Co  Co13  1  0.000064  0.552120  0.000000  1
  Co  Co14  1  0.799271  0.177588  0.000000  1
  Co  Co15  1  0.823634  0.622971  0.000000  1
  Co  Co16  1  0.376393  0.197305  0.000000  1
  Co  Co17  1  0.177588  0.799271  0.000000  1
  Co  Co18  1  0.622971  0.823634  0.000000  1
  Co  Co19  1  0.197305  0.376393  0.000000  1
  Co  Co20  1  0.281976  0.281976  0.500000  1
  Co  Co21  1  0.715298  0.000234  0.500000  1
  Co  Co22  1  0.000234  0.715298  0.500000  1
  Co  Co23  1  0.998194  0.998194  0.000000  1
  P  P24  1  0.686020  0.166384  0.500000  1
  P  P25  1  0.834848  0.520204  0.500000  1
  P  P26  1  0.480185  0.315014  0.500000  1
  P  P27  1  0.166384  0.686020  0.500000  1
  P  P28  1  0.520204  0.834848  0.500000  1
  P  P29  1  0.315014  0.480185  0.500000  1
  P  P30  1  0.178574  0.178574  0.000000  1
  P  P31  1  0.819518  0.000427  0.000000  1
  P  P32  1  0.000427  0.819518  0.000000  1
  P  P33  1  0.635480  0.635480  0.000000  1
  P  P34  1  0.366928  0.998714  0.000000  1
  P  P35  1  0.998714  0.366928  0.000000  1
