# generated using pymatgen
data_Y8Re11Si16Ru
_symmetry_space_group_name_H-M   'P 1'
_cell_length_a   6.77816004
_cell_length_b   6.77815905
_cell_length_c   12.83664796
_cell_angle_alpha   90.05050237
_cell_angle_beta   89.94949830
_cell_angle_gamma   90.33780299
_symmetry_Int_Tables_number   1
_chemical_formula_structural   Y8Re11Si16Ru
_chemical_formula_sum   'Y8 Re11 Si16 Ru1'
_cell_volume   589.74914713
_cell_formula_units_Z   1
loop_
 _symmetry_equiv_pos_site_id
 _symmetry_equiv_pos_as_xyz
  1  'x, y, z'
loop_
 _atom_site_type_symbol
 _atom_site_label
 _atom_site_symmetry_multiplicity
 _atom_site_fract_x
 _atom_site_fract_y
 _atom_site_fract_z
 _atom_site_occupancy
  Y  Y0  1  0.006609  0.662571  0.031058  1
  Y  Y1  1  0.993070  0.335719  0.531688  1
  Y  Y2  1  0.335719  0.993070  0.468312  1
  Y  Y3  1  0.163100  0.491554  0.781450  1
  Y  Y4  1  0.836475  0.507205  0.280929  1
  Y  Y5  1  0.491554  0.163100  0.218550  1
  Y  Y6  1  0.507205  0.836475  0.719071  1
  Y  Y7  1  0.662571  0.006609  0.968942  1
  Re  Re8  1  0.163461  0.837115  0.249179  1
  Re  Re9  1  0.335510  0.335510  0.000000  1
  Re  Re10  1  0.022556  0.810125  0.630391  1
  Re  Re11  1  0.978341  0.191030  0.132166  1
  Re  Re12  1  0.810125  0.022556  0.369609  1
  Re  Re13  1  0.315399  0.485547  0.380544  1
  Re  Re14  1  0.686081  0.515493  0.879821  1
  Re  Re15  1  0.485547  0.315399  0.619456  1
  Re  Re16  1  0.515493  0.686081  0.120179  1
  Re  Re17  1  0.191030  0.978341  0.867834  1
  Re  Re18  1  0.837115  0.163461  0.750821  1
  Si  Si19  1  0.016751  0.729084  0.439245  1
  Si  Si20  1  0.611536  0.306062  0.436063  1
  Si  Si21  1  0.387287  0.694011  0.935481  1
  Si  Si22  1  0.196437  0.113301  0.683701  1
  Si  Si23  1  0.306062  0.611536  0.563937  1
  Si  Si24  1  0.694011  0.387287  0.064519  1
  Si  Si25  1  0.804156  0.887256  0.184436  1
  Si  Si26  1  0.113301  0.196437  0.316299  1
  Si  Si27  1  0.983636  0.268475  0.939388  1
  Si  Si28  1  0.729084  0.016751  0.560755  1
  Si  Si29  1  0.224873  0.481664  0.188976  1
  Si  Si30  1  0.774795  0.517232  0.689732  1
  Si  Si31  1  0.481664  0.224873  0.811024  1
  Si  Si32  1  0.517232  0.774795  0.310268  1
  Si  Si33  1  0.268475  0.983636  0.060612  1
  Si  Si34  1  0.887256  0.804156  0.815564  1
  Ru  Ru35  1  0.666483  0.666483  0.500000  1
