# generated using pymatgen
data_Tb2Y3Sc(Si3Ru)8
_symmetry_space_group_name_H-M   'P 1'
_cell_length_a   10.10158178
_cell_length_b   10.10158264
_cell_length_c   8.13471016
_cell_angle_alpha   90.01071675
_cell_angle_beta   90.01071058
_cell_angle_gamma   132.54813308
_symmetry_Int_Tables_number   1
_chemical_formula_structural   Tb2Y3Sc(Si3Ru)8
_chemical_formula_sum   'Tb2 Y3 Sc1 Si24 Ru8'
_cell_volume   611.52909971
_cell_formula_units_Z   1
loop_
 _symmetry_equiv_pos_site_id
 _symmetry_equiv_pos_as_xyz
  1  'x, y, z'
loop_
 _atom_site_type_symbol
 _atom_site_label
 _atom_site_symmetry_multiplicity
 _atom_site_fract_x
 _atom_site_fract_y
 _atom_site_fract_z
 _atom_site_occupancy
  Tb  Tb0  1  0.002545  0.502366  0.249569  1
  Tb  Tb1  1  0.497634  0.997455  0.750431  1
  Y  Y2  1  0.499986  0.500014  0.500000  1
  Y  Y3  1  0.997704  0.497870  0.750476  1
  Y  Y4  1  0.502130  0.002296  0.249524  1
  Sc  Sc5  1  0.000010  0.999990  0.000000  1
  Si  Si6  1  0.294174  0.705826  0.000000  1
  Si  Si7  1  0.795011  0.204989  0.500000  1
  Si  Si8  1  0.705827  0.294173  0.000000  1
  Si  Si9  1  0.204999  0.795001  0.500000  1
  Si  Si10  1  0.833685  0.833696  0.330650  1
  Si  Si11  1  0.166304  0.166315  0.669350  1
  Si  Si12  1  0.669787  0.669775  0.834467  1
  Si  Si13  1  0.330225  0.330213  0.165533  1
  Si  Si14  1  0.620915  0.386456  0.227499  1
  Si  Si15  1  0.613544  0.379085  0.772501  1
  Si  Si16  1  0.110879  0.878949  0.730267  1
  Si  Si17  1  0.121051  0.889121  0.269733  1
  Si  Si18  1  0.379124  0.613807  0.772517  1
  Si  Si19  1  0.386193  0.620876  0.227483  1
  Si  Si20  1  0.889412  0.121121  0.269720  1
  Si  Si21  1  0.878879  0.110588  0.730280  1
  Si  Si22  1  0.845692  0.614120  0.004396  1
  Si  Si23  1  0.385880  0.154308  0.995604  1
  Si  Si24  1  0.888554  0.655084  0.504725  1
  Si  Si25  1  0.344916  0.111446  0.495275  1
  Si  Si26  1  0.154298  0.385930  0.995788  1
  Si  Si27  1  0.614070  0.845702  0.004212  1
  Si  Si28  1  0.111487  0.344891  0.495114  1
  Si  Si29  1  0.655109  0.888513  0.504886  1
  Ru  Ru30  1  0.167501  0.832499  0.000000  1
  Ru  Ru31  1  0.669108  0.330892  0.500000  1
  Ru  Ru32  1  0.832433  0.167567  0.000000  1
  Ru  Ru33  1  0.330962  0.669038  0.500000  1
  Ru  Ru34  1  0.625785  0.626093  0.126814  1
  Ru  Ru35  1  0.373907  0.374215  0.873186  1
  Ru  Ru36  1  0.873709  0.873428  0.627377  1
  Ru  Ru37  1  0.126572  0.126291  0.372623  1
