# generated using pymatgen
data_Ho3Tm5CdIn(HgAu4)2
_symmetry_space_group_name_H-M   'P 1'
_cell_length_a   7.95732109
_cell_length_b   7.95229228
_cell_length_c   7.30621021
_cell_angle_alpha   90.02625894
_cell_angle_beta   90.00869244
_cell_angle_gamma   90.14155296
_symmetry_Int_Tables_number   1
_chemical_formula_structural   Ho3Tm5CdIn(HgAu4)2
_chemical_formula_sum   'Ho3 Tm5 Cd1 In1 Hg2 Au8'
_cell_volume   462.32779527
_cell_formula_units_Z   1
loop_
 _symmetry_equiv_pos_site_id
 _symmetry_equiv_pos_as_xyz
  1  'x, y, z'
loop_
 _atom_site_type_symbol
 _atom_site_label
 _atom_site_symmetry_multiplicity
 _atom_site_fract_x
 _atom_site_fract_y
 _atom_site_fract_z
 _atom_site_occupancy
  Ho  Ho0  1  0.832797  0.154802  0.499997  1
  Ho  Ho1  1  0.166197  0.844389  0.500047  1
  Ho  Ho2  1  0.344967  0.333418  0.999961  1
  Tm  Tm3  1  0.654374  0.666279  0.000035  1
  Tm  Tm4  1  0.674896  0.688115  0.499888  1
  Tm  Tm5  1  0.325725  0.312397  0.499772  1
  Tm  Tm6  1  0.188232  0.825241  0.000164  1
  Tm  Tm7  1  0.811877  0.174701  0.000226  1
  Cd  Cd8  1  0.000205  0.500210  0.750230  1
  In  In9  1  0.999963  0.500357  0.249525  1
  Hg  Hg10  1  0.500224  0.000036  0.249775  1
  Hg  Hg11  1  0.500284  0.000049  0.750287  1
  Au  Au12  1  0.633083  0.377436  0.270535  1
  Au  Au13  1  0.368287  0.623883  0.270446  1
  Au  Au14  1  0.122497  0.133061  0.770760  1
  Au  Au15  1  0.876243  0.865565  0.773211  1
  Au  Au16  1  0.367443  0.623353  0.729775  1
  Au  Au17  1  0.634041  0.378054  0.729927  1
  Au  Au18  1  0.875576  0.866461  0.226534  1
  Au  Au19  1  0.123088  0.132193  0.228904  1
