# generated using pymatgen
data_Zr10Be2(SnSb)3
_symmetry_space_group_name_H-M   'P 1'
_cell_length_a   8.62470400
_cell_length_b   8.62470507
_cell_length_c   5.79664700
_cell_angle_alpha   90.00000000
_cell_angle_beta   90.00000000
_cell_angle_gamma   119.99999589
_symmetry_Int_Tables_number   1
_chemical_formula_structural   Zr10Be2(SnSb)3
_chemical_formula_sum   'Zr10 Be2 Sn3 Sb3'
_cell_volume   373.41860775
_cell_formula_units_Z   1
loop_
 _symmetry_equiv_pos_site_id
 _symmetry_equiv_pos_as_xyz
  1  'x, y, z'
loop_
 _atom_site_type_symbol
 _atom_site_label
 _atom_site_symmetry_multiplicity
 _atom_site_fract_x
 _atom_site_fract_y
 _atom_site_fract_z
 _atom_site_occupancy
  Zr  Zr0  1  0.666667  0.333333  0.998945  1
  Zr  Zr1  1  0.333333  0.666667  0.998945  1
  Zr  Zr2  1  0.333333  0.666667  0.501055  1
  Zr  Zr3  1  0.666667  0.333333  0.501055  1
  Zr  Zr4  1  0.743549  0.743549  0.750000  1
  Zr  Zr5  1  0.256451  0.000000  0.750000  1
  Zr  Zr6  1  0.000000  0.256451  0.750000  1
  Zr  Zr7  1  0.251290  0.251290  0.250000  1
  Zr  Zr8  1  0.748710  0.000000  0.250000  1
  Zr  Zr9  1  0.000000  0.748710  0.250000  1
  Be  Be10  1  0.000000  0.000000  0.990255  1
  Be  Be11  1  0.000000  0.000000  0.509745  1
  Sn  Sn12  1  0.387439  0.387439  0.750000  1
  Sn  Sn13  1  0.612561  0.000000  0.750000  1
  Sn  Sn14  1  0.000000  0.612561  0.750000  1
  Sb  Sb15  1  0.608887  0.608887  0.250000  1
  Sb  Sb16  1  0.391113  0.000000  0.250000  1
  Sb  Sb17  1  0.000000  0.391113  0.250000  1
