# generated using pymatgen
data_Be8Tc3W
_symmetry_space_group_name_H-M   'P 1'
_cell_length_a   4.38722200
_cell_length_b   4.38722052
_cell_length_c   7.16481900
_cell_angle_alpha   90.00000000
_cell_angle_beta   90.00000000
_cell_angle_gamma   120.00001113
_symmetry_Int_Tables_number   1
_chemical_formula_structural   Be8Tc3W
_chemical_formula_sum   'Be8 Tc3 W1'
_cell_volume   119.43039875
_cell_formula_units_Z   1
loop_
 _symmetry_equiv_pos_site_id
 _symmetry_equiv_pos_as_xyz
  1  'x, y, z'
loop_
 _atom_site_type_symbol
 _atom_site_label
 _atom_site_symmetry_multiplicity
 _atom_site_fract_x
 _atom_site_fract_y
 _atom_site_fract_z
 _atom_site_occupancy
  Be  Be0  1  0.000000  0.000000  0.502482  1
  Be  Be1  1  0.000000  0.000000  0.999430  1
  Be  Be2  1  0.831119  0.168881  0.252185  1
  Be  Be3  1  0.831119  0.662240  0.252185  1
  Be  Be4  1  0.337760  0.168881  0.252185  1
  Be  Be5  1  0.168937  0.831063  0.747491  1
  Be  Be6  1  0.168937  0.337873  0.747491  1
  Be  Be7  1  0.662127  0.831063  0.747491  1
  Tc  Tc8  1  0.333333  0.666667  0.436977  1
  Tc  Tc9  1  0.666667  0.333333  0.561843  1
  Tc  Tc10  1  0.666667  0.333333  0.938380  1
  W  W11  1  0.333333  0.666667  0.061858  1
