# generated using pymatgen
data_Pr5Sn2Ir
_symmetry_space_group_name_H-M   'P 1'
_cell_length_a   8.26418700
_cell_length_b   9.29316000
_cell_length_c   12.87163700
_cell_angle_alpha   90.00000000
_cell_angle_beta   90.00000000
_cell_angle_gamma   90.00000000
_symmetry_Int_Tables_number   1
_chemical_formula_structural   Pr5Sn2Ir
_chemical_formula_sum   'Pr20 Sn8 Ir4'
_cell_volume   988.54702550
_cell_formula_units_Z   4
loop_
 _symmetry_equiv_pos_site_id
 _symmetry_equiv_pos_as_xyz
  1  'x, y, z'
loop_
 _atom_site_type_symbol
 _atom_site_label
 _atom_site_symmetry_multiplicity
 _atom_site_fract_x
 _atom_site_fract_y
 _atom_site_fract_z
 _atom_site_occupancy
  Pr  Pr0  1  0.837631  0.750000  0.787158  1
  Pr  Pr1  1  0.162369  0.250000  0.212842  1
  Pr  Pr2  1  0.337631  0.250000  0.712842  1
  Pr  Pr3  1  0.662369  0.750000  0.287158  1
  Pr  Pr4  1  0.367100  0.750000  0.694927  1
  Pr  Pr5  1  0.632900  0.250000  0.305073  1
  Pr  Pr6  1  0.867100  0.250000  0.805073  1
  Pr  Pr7  1  0.132900  0.750000  0.194927  1
  Pr  Pr8  1  0.947294  0.750000  0.501394  1
  Pr  Pr9  1  0.052706  0.250000  0.498606  1
  Pr  Pr10  1  0.447294  0.250000  0.998606  1
  Pr  Pr11  1  0.552706  0.750000  0.001394  1
  Pr  Pr12  1  0.676563  0.035525  0.574053  1
  Pr  Pr13  1  0.323437  0.964475  0.425947  1
  Pr  Pr14  1  0.176563  0.964475  0.925947  1
  Pr  Pr15  1  0.323437  0.535525  0.425947  1
  Pr  Pr16  1  0.823437  0.035525  0.074053  1
  Pr  Pr17  1  0.676563  0.464475  0.574053  1
  Pr  Pr18  1  0.823437  0.464475  0.074053  1
  Pr  Pr19  1  0.176563  0.535525  0.925947  1
  Sn  Sn20  1  0.563961  0.495307  0.828572  1
  Sn  Sn21  1  0.436039  0.504693  0.171428  1
  Sn  Sn22  1  0.063961  0.504693  0.671428  1
  Sn  Sn23  1  0.436039  0.995307  0.171428  1
  Sn  Sn24  1  0.936039  0.495307  0.328572  1
  Sn  Sn25  1  0.563961  0.004693  0.828572  1
  Sn  Sn26  1  0.936039  0.004693  0.328572  1
  Sn  Sn27  1  0.063961  0.995307  0.671428  1
  Ir  Ir28  1  0.575646  0.750000  0.508064  1
  Ir  Ir29  1  0.424354  0.250000  0.491936  1
  Ir  Ir30  1  0.075646  0.250000  0.991936  1
  Ir  Ir31  1  0.924354  0.750000  0.008064  1
