# generated using pymatgen
data_Tb2Ni2PRh4
_symmetry_space_group_name_H-M   'P 1'
_cell_length_a   5.90088294
_cell_length_b   5.90088205
_cell_length_c   5.81215500
_cell_angle_alpha   60.49616614
_cell_angle_beta   60.49617100
_cell_angle_gamma   59.82996593
_symmetry_Int_Tables_number   1
_chemical_formula_structural   Tb2Ni2PRh4
_chemical_formula_sum   'Tb2 Ni2 P1 Rh4'
_cell_volume   143.98040552
_cell_formula_units_Z   1
loop_
 _symmetry_equiv_pos_site_id
 _symmetry_equiv_pos_as_xyz
  1  'x, y, z'
loop_
 _atom_site_type_symbol
 _atom_site_label
 _atom_site_symmetry_multiplicity
 _atom_site_fract_x
 _atom_site_fract_y
 _atom_site_fract_z
 _atom_site_occupancy
  Tb  Tb0  1  0.248836  0.248836  0.246439  1
  Tb  Tb1  1  0.751164  0.751164  0.744111  1
  Ni  Ni2  1  0.722308  0.277693  0.267390  1
  Ni  Ni3  1  0.277693  0.722308  0.267390  1
  P  P4  1  0.000000  0.000000  0.024564  1
  Rh  Rh5  1  0.732559  0.732559  0.258704  1
  Rh  Rh6  1  0.267441  0.267441  0.723822  1
  Rh  Rh7  1  0.738874  0.261127  0.733791  1
  Rh  Rh8  1  0.261127  0.738874  0.733791  1
