# generated using pymatgen
data_Pr3Mg3Pd2Ru
_symmetry_space_group_name_H-M   'P 1'
_cell_length_a   7.62817800
_cell_length_b   7.62817756
_cell_length_c   4.11682700
_cell_angle_alpha   90.00000000
_cell_angle_beta   90.00000000
_cell_angle_gamma   119.99999324
_symmetry_Int_Tables_number   1
_chemical_formula_structural   Pr3Mg3Pd2Ru
_chemical_formula_sum   'Pr3 Mg3 Pd2 Ru1'
_cell_volume   207.46024690
_cell_formula_units_Z   1
loop_
 _symmetry_equiv_pos_site_id
 _symmetry_equiv_pos_as_xyz
  1  'x, y, z'
loop_
 _atom_site_type_symbol
 _atom_site_label
 _atom_site_symmetry_multiplicity
 _atom_site_fract_x
 _atom_site_fract_y
 _atom_site_fract_z
 _atom_site_occupancy
  Pr  Pr0  1  0.424422  0.409595  0.500000  1
  Pr  Pr1  1  0.590405  0.014827  0.500000  1
  Pr  Pr2  1  0.985173  0.575578  0.500000  1
  Mg  Mg3  1  0.758390  0.757979  0.000000  1
  Mg  Mg4  1  0.242021  0.000411  0.000000  1
  Mg  Mg5  1  0.999589  0.241610  0.000000  1
  Pd  Pd6  1  0.333333  0.666667  0.000000  1
  Pd  Pd7  1  0.000000  0.000000  0.500000  1
  Ru  Ru8  1  0.666667  0.333333  0.000000  1
