# generated using pymatgen
data_Ho10Zn2InRu
_symmetry_space_group_name_H-M   'P 1'
_cell_length_a   9.51584217
_cell_length_b   9.57172709
_cell_length_c   9.48674500
_cell_angle_alpha   89.99892619
_cell_angle_beta   89.99961761
_cell_angle_gamma   120.35431617
_symmetry_Int_Tables_number   1
_chemical_formula_structural   Ho10Zn2InRu
_chemical_formula_sum   'Ho20 Zn4 In2 Ru2'
_cell_volume   745.63060475
_cell_formula_units_Z   2
loop_
 _symmetry_equiv_pos_site_id
 _symmetry_equiv_pos_as_xyz
  1  'x, y, z'
loop_
 _atom_site_type_symbol
 _atom_site_label
 _atom_site_symmetry_multiplicity
 _atom_site_fract_x
 _atom_site_fract_y
 _atom_site_fract_z
 _atom_site_occupancy
  Ho  Ho0  1  0.010589  0.005709  0.521166  1
  Ho  Ho1  1  0.010591  0.005711  0.978836  1
  Ho  Ho2  1  0.206841  0.790678  0.442566  1
  Ho  Ho3  1  0.208264  0.418657  0.441815  1
  Ho  Ho4  1  0.583620  0.792002  0.441777  1
  Ho  Ho5  1  0.790956  0.206185  0.559321  1
  Ho  Ho6  1  0.790091  0.582248  0.559832  1
  Ho  Ho7  1  0.418768  0.209164  0.560677  1
  Ho  Ho8  1  0.790956  0.206184  0.940678  1
  Ho  Ho9  1  0.790092  0.582248  0.940163  1
  Ho  Ho10  1  0.418774  0.209167  0.939322  1
  Ho  Ho11  1  0.206843  0.790679  0.057435  1
  Ho  Ho12  1  0.208263  0.418657  0.058185  1
  Ho  Ho13  1  0.583622  0.792001  0.058225  1
  Ho  Ho14  1  0.530950  0.451434  0.250000  1
  Ho  Ho15  1  0.530386  0.079308  0.250001  1
  Ho  Ho16  1  0.915673  0.457747  0.250001  1
  Ho  Ho17  1  0.457459  0.540630  0.749999  1
  Ho  Ho18  1  0.457500  0.915199  0.750001  1
  Ho  Ho19  1  0.079749  0.539278  0.749999  1
  Zn  Zn20  1  0.226492  0.113134  0.250002  1
  Zn  Zn21  1  0.121080  0.876578  0.749999  1
  Zn  Zn22  1  0.120954  0.245491  0.749999  1
  Zn  Zn23  1  0.760635  0.881416  0.750001  1
  In  In24  1  0.889783  0.112635  0.249999  1
  In  In25  1  0.889559  0.777099  0.249999  1
  Ru  Ru26  1  0.331128  0.668389  0.250005  1
  Ru  Ru27  1  0.670381  0.332371  0.749999  1
