# generated using pymatgen
data_Tb3Ho(CuNi)7
_symmetry_space_group_name_H-M   'P 1'
_cell_length_a   5.02780643
_cell_length_b   5.02780734
_cell_length_c   12.59115816
_cell_angle_alpha   78.48314034
_cell_angle_beta   78.48314989
_cell_angle_gamma   60.00000334
_symmetry_Int_Tables_number   1
_chemical_formula_structural   Tb3Ho(CuNi)7
_chemical_formula_sum   'Tb3 Ho1 Cu7 Ni7'
_cell_volume   268.22179502
_cell_formula_units_Z   1
loop_
 _symmetry_equiv_pos_site_id
 _symmetry_equiv_pos_as_xyz
  1  'x, y, z'
loop_
 _atom_site_type_symbol
 _atom_site_label
 _atom_site_symmetry_multiplicity
 _atom_site_fract_x
 _atom_site_fract_y
 _atom_site_fract_z
 _atom_site_occupancy
  Tb  Tb0  1  0.945470  0.945470  0.163588  1
  Tb  Tb1  1  0.055131  0.055131  0.834609  1
  Tb  Tb2  1  0.851645  0.851645  0.445065  1
  Ho  Ho3  1  0.148109  0.148109  0.555673  1
  Cu  Cu4  1  0.723094  0.723094  0.830717  1
  Cu  Cu5  1  0.276904  0.276904  0.169289  1
  Cu  Cu6  1  0.610316  0.610316  0.169053  1
  Cu  Cu7  1  0.389557  0.389557  0.831329  1
  Cu  Cu8  1  0.999925  0.500023  0.000028  1
  Cu  Cu9  1  0.500023  0.999925  0.000028  1
  Cu  Cu10  1  0.500023  0.500023  0.000028  1
  Ni  Ni11  1  0.499918  0.499918  0.500246  1
  Ni  Ni12  1  0.388858  0.388858  0.333520  1
  Ni  Ni13  1  0.888767  0.388858  0.333520  1
  Ni  Ni14  1  0.388858  0.888767  0.333520  1
  Ni  Ni15  1  0.610899  0.610899  0.666596  1
  Ni  Ni16  1  0.111603  0.610899  0.666596  1
  Ni  Ni17  1  0.610899  0.111603  0.666596  1
