# generated using pymatgen
data_Mn5Nb(ZnRh2)6
_symmetry_space_group_name_H-M   'P 1'
_cell_length_a   4.29772300
_cell_length_b   6.12294400
_cell_length_c   12.84526901
_cell_angle_alpha   90.00000000
_cell_angle_beta   89.99509818
_cell_angle_gamma   90.00000000
_symmetry_Int_Tables_number   1
_chemical_formula_structural   Mn5Nb(ZnRh2)6
_chemical_formula_sum   'Mn5 Nb1 Zn6 Rh12'
_cell_volume   338.01962120
_cell_formula_units_Z   1
loop_
 _symmetry_equiv_pos_site_id
 _symmetry_equiv_pos_as_xyz
  1  'x, y, z'
loop_
 _atom_site_type_symbol
 _atom_site_label
 _atom_site_symmetry_multiplicity
 _atom_site_fract_x
 _atom_site_fract_y
 _atom_site_fract_z
 _atom_site_occupancy
  Mn  Mn0  1  0.499829  0.000000  0.170047  1
  Mn  Mn1  1  0.999820  0.500001  0.334060  1
  Mn  Mn2  1  0.499999  0.000000  0.500000  1
  Mn  Mn3  1  0.000180  0.500001  0.665940  1
  Mn  Mn4  1  0.500171  0.000000  0.829954  1
  Nb  Nb5  1  0.000000  0.500001  0.000000  1
  Zn  Zn6  1  0.000000  0.000000  0.000000  1
  Zn  Zn7  1  0.499841  0.500001  0.168180  1
  Zn  Zn8  1  0.999812  0.000000  0.336259  1
  Zn  Zn9  1  0.499999  0.500001  0.500000  1
  Zn  Zn10  1  0.000186  0.000000  0.663741  1
  Zn  Zn11  1  0.500159  0.500001  0.831820  1
  Rh  Rh12  1  0.499999  0.244333  0.000000  1
  Rh  Rh13  1  0.499999  0.755666  0.000000  1
  Rh  Rh14  1  0.999837  0.246963  0.168439  1
  Rh  Rh15  1  0.999837  0.753037  0.168439  1
  Rh  Rh16  1  0.499812  0.251134  0.334017  1
  Rh  Rh17  1  0.499812  0.748865  0.334017  1
  Rh  Rh18  1  0.000000  0.251920  0.500000  1
  Rh  Rh19  1  0.000000  0.748080  0.500000  1
  Rh  Rh20  1  0.500188  0.251134  0.665983  1
  Rh  Rh21  1  0.500188  0.748865  0.665983  1
  Rh  Rh22  1  0.000163  0.246963  0.831560  1
  Rh  Rh23  1  0.000163  0.753037  0.831560  1
