# generated using pymatgen
data_La6Co20Si7P6
_symmetry_space_group_name_H-M   'P 1'
_cell_length_a   12.94901900
_cell_length_b   12.94901803
_cell_length_c   3.79546800
_cell_angle_alpha   90.00000000
_cell_angle_beta   90.00000000
_cell_angle_gamma   120.00000503
_symmetry_Int_Tables_number   1
_chemical_formula_structural   La6Co20Si7P6
_chemical_formula_sum   'La6 Co20 Si7 P6'
_cell_volume   551.14979165
_cell_formula_units_Z   1
loop_
 _symmetry_equiv_pos_site_id
 _symmetry_equiv_pos_as_xyz
  1  'x, y, z'
loop_
 _atom_site_type_symbol
 _atom_site_label
 _atom_site_symmetry_multiplicity
 _atom_site_fract_x
 _atom_site_fract_y
 _atom_site_fract_z
 _atom_site_occupancy
  La  La0  1  0.523972  0.807330  0.000000  1
  La  La1  1  0.283358  0.476028  0.000000  1
  La  La2  1  0.192670  0.716642  0.000000  1
  La  La3  1  0.808206  0.278816  0.500000  1
  La  La4  1  0.470611  0.191794  0.500000  1
  La  La5  1  0.721184  0.529389  0.500000  1
  Co  Co6  1  0.803924  0.914004  0.000000  1
  Co  Co7  1  0.110081  0.196076  0.000000  1
  Co  Co8  1  0.085996  0.889919  0.000000  1
  Co  Co9  1  0.333333  0.666667  0.500000  1
  Co  Co10  1  0.936257  0.083436  0.500000  1
  Co  Co11  1  0.147179  0.063743  0.500000  1
  Co  Co12  1  0.916564  0.852821  0.500000  1
  Co  Co13  1  0.666667  0.333333  0.000000  1
  Co  Co14  1  0.564159  0.585934  0.000000  1
  Co  Co15  1  0.021772  0.435841  0.000000  1
  Co  Co16  1  0.414066  0.978228  0.000000  1
  Co  Co17  1  0.683694  0.753972  0.500000  1
  Co  Co18  1  0.070279  0.316306  0.500000  1
  Co  Co19  1  0.246028  0.929721  0.500000  1
  Co  Co20  1  0.976311  0.558552  0.500000  1
  Co  Co21  1  0.582241  0.023689  0.500000  1
  Co  Co22  1  0.441448  0.417759  0.500000  1
  Co  Co23  1  0.750907  0.072556  0.000000  1
  Co  Co24  1  0.321649  0.249093  0.000000  1
  Co  Co25  1  0.927444  0.678351  0.000000  1
  Si  Si26  1  0.731067  0.959489  0.500000  1
  Si  Si27  1  0.228421  0.268933  0.500000  1
  Si  Si28  1  0.040511  0.771579  0.500000  1
  Si  Si29  1  0.954447  0.222715  0.000000  1
  Si  Si30  1  0.268268  0.045553  0.000000  1
  Si  Si31  1  0.777285  0.731732  0.000000  1
  Si  Si32  1  0.000000  0.000000  0.000000  1
  P  P33  1  0.489731  0.613156  0.500000  1
  P  P34  1  0.123425  0.510269  0.500000  1
  P  P35  1  0.386844  0.876575  0.500000  1
  P  P36  1  0.873070  0.484045  0.000000  1
  P  P37  1  0.610975  0.126930  0.000000  1
  P  P38  1  0.515955  0.389025  0.000000  1
