# generated using pymatgen
data_DyTcNi4P3
_symmetry_space_group_name_H-M   'P 1'
_cell_length_a   3.69966300
_cell_length_b   10.53473000
_cell_length_c   11.95682200
_cell_angle_alpha   90.00000000
_cell_angle_beta   90.00000000
_cell_angle_gamma   90.00000000
_symmetry_Int_Tables_number   1
_chemical_formula_structural   DyTcNi4P3
_chemical_formula_sum   'Dy4 Tc4 Ni16 P12'
_cell_volume   466.01654913
_cell_formula_units_Z   4
loop_
 _symmetry_equiv_pos_site_id
 _symmetry_equiv_pos_as_xyz
  1  'x, y, z'
loop_
 _atom_site_type_symbol
 _atom_site_label
 _atom_site_symmetry_multiplicity
 _atom_site_fract_x
 _atom_site_fract_y
 _atom_site_fract_z
 _atom_site_occupancy
  Dy  Dy0  1  0.250000  0.587110  0.706290  1
  Dy  Dy1  1  0.250000  0.912890  0.206290  1
  Dy  Dy2  1  0.750000  0.412890  0.293710  1
  Dy  Dy3  1  0.750000  0.087110  0.793710  1
  Tc  Tc4  1  0.250000  0.712692  0.988642  1
  Tc  Tc5  1  0.250000  0.787308  0.488642  1
  Tc  Tc6  1  0.750000  0.287308  0.011358  1
  Tc  Tc7  1  0.750000  0.212692  0.511358  1
  Ni  Ni8  1  0.250000  0.410480  0.487934  1
  Ni  Ni9  1  0.250000  0.089520  0.987934  1
  Ni  Ni10  1  0.750000  0.589520  0.512066  1
  Ni  Ni11  1  0.750000  0.910480  0.012066  1
  Ni  Ni12  1  0.250000  0.221266  0.178922  1
  Ni  Ni13  1  0.250000  0.278734  0.678922  1
  Ni  Ni14  1  0.750000  0.778734  0.821078  1
  Ni  Ni15  1  0.750000  0.721266  0.321078  1
  Ni  Ni16  1  0.250000  0.886486  0.703410  1
  Ni  Ni17  1  0.250000  0.613514  0.203410  1
  Ni  Ni18  1  0.750000  0.113514  0.296590  1
  Ni  Ni19  1  0.750000  0.386486  0.796590  1
  Ni  Ni20  1  0.250000  0.464730  0.930036  1
  Ni  Ni21  1  0.250000  0.035270  0.430036  1
  Ni  Ni22  1  0.750000  0.535270  0.069964  1
  Ni  Ni23  1  0.750000  0.964730  0.569964  1
  P  P24  1  0.250000  0.417951  0.111809  1
  P  P25  1  0.250000  0.082049  0.611809  1
  P  P26  1  0.750000  0.582049  0.888191  1
  P  P27  1  0.750000  0.917951  0.388191  1
  P  P28  1  0.250000  0.268432  0.870373  1
  P  P29  1  0.250000  0.231568  0.370373  1
  P  P30  1  0.750000  0.731568  0.129627  1
  P  P31  1  0.750000  0.768432  0.629627  1
  P  P32  1  0.250000  0.597675  0.389651  1
  P  P33  1  0.250000  0.902325  0.889651  1
  P  P34  1  0.750000  0.402325  0.610349  1
  P  P35  1  0.750000  0.097675  0.110349  1
