# generated using pymatgen
data_Tm12Th4MgZn3Co4
_symmetry_space_group_name_H-M   'P 1'
_cell_length_a   9.40378379
_cell_length_b   9.40227422
_cell_length_c   9.40227400
_cell_angle_alpha   60.00000781
_cell_angle_beta   60.00531789
_cell_angle_gamma   60.00530766
_symmetry_Int_Tables_number   1
_chemical_formula_structural   Tm12Th4MgZn3Co4
_chemical_formula_sum   'Tm12 Th4 Mg1 Zn3 Co4'
_cell_volume   587.87954584
_cell_formula_units_Z   1
loop_
 _symmetry_equiv_pos_site_id
 _symmetry_equiv_pos_as_xyz
  1  'x, y, z'
loop_
 _atom_site_type_symbol
 _atom_site_label
 _atom_site_symmetry_multiplicity
 _atom_site_fract_x
 _atom_site_fract_y
 _atom_site_fract_z
 _atom_site_occupancy
  Tm  Tm0  1  0.809541  0.189950  0.189950  1
  Tm  Tm1  1  0.185746  0.813171  0.813171  1
  Tm  Tm2  1  0.185746  0.813171  0.187912  1
  Tm  Tm3  1  0.809541  0.189950  0.810560  1
  Tm  Tm4  1  0.185746  0.187912  0.813171  1
  Tm  Tm5  1  0.809541  0.810560  0.189950  1
  Tm  Tm6  1  0.928866  0.566985  0.566985  1
  Tm  Tm7  1  0.563420  0.934831  0.934831  1
  Tm  Tm8  1  0.563420  0.934831  0.566918  1
  Tm  Tm9  1  0.928866  0.566985  0.937165  1
  Tm  Tm10  1  0.563420  0.566918  0.934831  1
  Tm  Tm11  1  0.928866  0.937165  0.566985  1
  Th  Th12  1  0.348733  0.347109  0.347109  1
  Th  Th13  1  0.348733  0.347109  0.957049  1
  Th  Th14  1  0.348733  0.957049  0.347109  1
  Th  Th15  1  0.952132  0.349290  0.349290  1
  Mg  Mg16  1  0.278080  0.573973  0.573973  1
  Zn  Zn17  1  0.586422  0.583190  0.583190  1
  Zn  Zn18  1  0.586422  0.583190  0.247197  1
  Zn  Zn19  1  0.586422  0.247197  0.583190  1
  Co  Co20  1  0.143933  0.142937  0.142937  1
  Co  Co21  1  0.143933  0.142937  0.570194  1
  Co  Co22  1  0.143933  0.570194  0.142937  1
  Co  Co23  1  0.569810  0.143397  0.143397  1
