# generated using pymatgen
data_Ti5NbPt2
_symmetry_space_group_name_H-M   'P 1'
_cell_length_a   5.06697300
_cell_length_b   5.08331400
_cell_length_c   5.06697300
_cell_angle_alpha   90.00000000
_cell_angle_beta   90.00000000
_cell_angle_gamma   90.00000000
_symmetry_Int_Tables_number   1
_chemical_formula_structural   Ti5NbPt2
_chemical_formula_sum   'Ti5 Nb1 Pt2'
_cell_volume   130.51009849
_cell_formula_units_Z   1
loop_
 _symmetry_equiv_pos_site_id
 _symmetry_equiv_pos_as_xyz
  1  'x, y, z'
loop_
 _atom_site_type_symbol
 _atom_site_label
 _atom_site_symmetry_multiplicity
 _atom_site_fract_x
 _atom_site_fract_y
 _atom_site_fract_z
 _atom_site_occupancy
  Ti  Ti0  1  0.000000  0.750000  0.500000  1
  Ti  Ti1  1  0.249155  0.503212  0.000000  1
  Ti  Ti2  1  0.750845  0.503212  0.000000  1
  Ti  Ti3  1  0.500000  0.996788  0.250845  1
  Ti  Ti4  1  0.500000  0.996788  0.749155  1
  Nb  Nb5  1  0.000000  0.250000  0.500000  1
  Pt  Pt6  1  0.500000  0.500095  0.500000  1
  Pt  Pt7  1  0.000000  0.999905  0.000000  1
