# generated using pymatgen
data_LiHo(ScHg2)2
_symmetry_space_group_name_H-M   'P 1'
_cell_length_a   7.09339100
_cell_length_b   7.09355900
_cell_length_c   7.02568300
_cell_angle_alpha   89.99921236
_cell_angle_beta   90.00191623
_cell_angle_gamma   90.00260088
_symmetry_Int_Tables_number   1
_chemical_formula_structural   LiHo(ScHg2)2
_chemical_formula_sum   'Li2 Ho2 Sc4 Hg8'
_cell_volume   353.51401415
_cell_formula_units_Z   2
loop_
 _symmetry_equiv_pos_site_id
 _symmetry_equiv_pos_as_xyz
  1  'x, y, z'
loop_
 _atom_site_type_symbol
 _atom_site_label
 _atom_site_symmetry_multiplicity
 _atom_site_fract_x
 _atom_site_fract_y
 _atom_site_fract_z
 _atom_site_occupancy
  Li  Li0  1  0.749929  0.249995  0.499968  1
  Li  Li1  1  0.250071  0.750006  0.500032  1
  Ho  Ho2  1  0.750059  0.249998  0.000037  1
  Ho  Ho3  1  0.249942  0.750002  0.999963  1
  Sc  Sc4  1  0.249947  0.249997  0.999976  1
  Sc  Sc5  1  0.750052  0.750003  0.000024  1
  Sc  Sc6  1  0.749919  0.750003  0.499991  1
  Sc  Sc7  1  0.250081  0.249997  0.500010  1
  Hg  Hg8  1  0.499951  0.999992  0.263159  1
  Hg  Hg9  1  0.499953  0.500030  0.263154  1
  Hg  Hg10  1  0.000011  0.999988  0.263352  1
  Hg  Hg11  1  0.000018  0.499981  0.263345  1
  Hg  Hg12  1  0.999989  0.000012  0.736648  1
  Hg  Hg13  1  0.999982  0.500019  0.736655  1
  Hg  Hg14  1  0.500047  0.499970  0.736845  1
  Hg  Hg15  1  0.500048  0.000008  0.736841  1
