# generated using pymatgen
data_Ca(PrSn4)3
_symmetry_space_group_name_H-M   'P 1'
_cell_length_a   12.09296168
_cell_length_b   12.09296195
_cell_length_c   12.09296217
_cell_angle_alpha   32.06623838
_cell_angle_beta   32.06623673
_cell_angle_gamma   32.06624084
_symmetry_Int_Tables_number   1
_chemical_formula_structural   Ca(PrSn4)3
_chemical_formula_sum   'Ca1 Pr3 Sn12'
_cell_volume   442.91679776
_cell_formula_units_Z   1
loop_
 _symmetry_equiv_pos_site_id
 _symmetry_equiv_pos_as_xyz
  1  'x, y, z'
loop_
 _atom_site_type_symbol
 _atom_site_label
 _atom_site_symmetry_multiplicity
 _atom_site_fract_x
 _atom_site_fract_y
 _atom_site_fract_z
 _atom_site_occupancy
  Ca  Ca0  1  0.291817  0.291817  0.291817  1
  Pr  Pr1  1  0.878284  0.878284  0.878284  1
  Pr  Pr2  1  0.121910  0.121910  0.121910  1
  Pr  Pr3  1  0.707174  0.707174  0.707174  1
  Sn  Sn4  1  0.292769  0.792763  0.792763  1
  Sn  Sn5  1  0.792763  0.792763  0.292769  1
  Sn  Sn6  1  0.855460  0.385210  0.385210  1
  Sn  Sn7  1  0.385210  0.385210  0.855460  1
  Sn  Sn8  1  0.385210  0.855460  0.385210  1
  Sn  Sn9  1  0.617125  0.140652  0.617125  1
  Sn  Sn10  1  0.140652  0.617125  0.617125  1
  Sn  Sn11  1  0.617125  0.617125  0.140652  1
  Sn  Sn12  1  0.792763  0.292769  0.792763  1
  Sn  Sn13  1  0.209476  0.702791  0.209476  1
  Sn  Sn14  1  0.209476  0.209476  0.702791  1
  Sn  Sn15  1  0.702791  0.209476  0.209476  1
