# generated using pymatgen
data_Yb2Tm3Sn4
_symmetry_space_group_name_H-M   'P 1'
_cell_length_a   7.80185500
_cell_length_b   8.37305000
_cell_length_c   15.69921700
_cell_angle_alpha   90.00000000
_cell_angle_beta   90.00000000
_cell_angle_gamma   90.00000000
_symmetry_Int_Tables_number   1
_chemical_formula_structural   Yb2Tm3Sn4
_chemical_formula_sum   'Yb8 Tm12 Sn16'
_cell_volume   1025.55640579
_cell_formula_units_Z   4
loop_
 _symmetry_equiv_pos_site_id
 _symmetry_equiv_pos_as_xyz
  1  'x, y, z'
loop_
 _atom_site_type_symbol
 _atom_site_label
 _atom_site_symmetry_multiplicity
 _atom_site_fract_x
 _atom_site_fract_y
 _atom_site_fract_z
 _atom_site_occupancy
  Yb  Yb0  1  0.495690  0.682995  0.592267  1
  Yb  Yb1  1  0.995690  0.817005  0.907733  1
  Yb  Yb2  1  0.504310  0.317005  0.092267  1
  Yb  Yb3  1  0.004310  0.182995  0.407733  1
  Yb  Yb4  1  0.504310  0.317005  0.407733  1
  Yb  Yb5  1  0.004310  0.182995  0.092267  1
  Yb  Yb6  1  0.495690  0.682995  0.907733  1
  Yb  Yb7  1  0.995690  0.817005  0.592267  1
  Tm  Tm8  1  0.667839  0.161616  0.623543  1
  Tm  Tm9  1  0.167839  0.338384  0.876457  1
  Tm  Tm10  1  0.332161  0.838384  0.123543  1
  Tm  Tm11  1  0.832161  0.661616  0.376457  1
  Tm  Tm12  1  0.332161  0.838384  0.376457  1
  Tm  Tm13  1  0.832161  0.661616  0.123543  1
  Tm  Tm14  1  0.667839  0.161616  0.876457  1
  Tm  Tm15  1  0.167839  0.338384  0.623543  1
  Tm  Tm16  1  0.829403  0.507473  0.750000  1
  Tm  Tm17  1  0.329403  0.992527  0.750000  1
  Tm  Tm18  1  0.170597  0.492527  0.250000  1
  Tm  Tm19  1  0.670597  0.007473  0.250000  1
  Sn  Sn20  1  0.675167  0.962045  0.457567  1
  Sn  Sn21  1  0.175167  0.537955  0.042433  1
  Sn  Sn22  1  0.324833  0.037955  0.957567  1
  Sn  Sn23  1  0.824833  0.462045  0.542433  1
  Sn  Sn24  1  0.324833  0.037955  0.542433  1
  Sn  Sn25  1  0.824833  0.462045  0.957567  1
  Sn  Sn26  1  0.675167  0.962045  0.042433  1
  Sn  Sn27  1  0.175167  0.537955  0.457567  1
  Sn  Sn28  1  0.468587  0.371066  0.750000  1
  Sn  Sn29  1  0.968587  0.128934  0.750000  1
  Sn  Sn30  1  0.531413  0.628934  0.250000  1
  Sn  Sn31  1  0.031413  0.871066  0.250000  1
  Sn  Sn32  1  0.700325  0.859367  0.750000  1
  Sn  Sn33  1  0.200325  0.640633  0.750000  1
  Sn  Sn34  1  0.299675  0.140633  0.250000  1
  Sn  Sn35  1  0.799675  0.359367  0.250000  1
