# generated using pymatgen
data_Ce3AsSe3
_symmetry_space_group_name_H-M   'P 1'
_cell_length_a   7.70173504
_cell_length_b   7.71690619
_cell_length_c   7.71380664
_cell_angle_alpha   109.51974463
_cell_angle_beta   109.43237898
_cell_angle_gamma   109.54389471
_symmetry_Int_Tables_number   1
_chemical_formula_structural   Ce3AsSe3
_chemical_formula_sum   'Ce6 As2 Se6'
_cell_volume   352.56249627
_cell_formula_units_Z   2
loop_
 _symmetry_equiv_pos_site_id
 _symmetry_equiv_pos_as_xyz
  1  'x, y, z'
loop_
 _atom_site_type_symbol
 _atom_site_label
 _atom_site_symmetry_multiplicity
 _atom_site_fract_x
 _atom_site_fract_y
 _atom_site_fract_z
 _atom_site_occupancy
  Ce  Ce0  1  0.250020  0.121818  0.871845  1
  Ce  Ce1  1  0.126401  0.874447  0.252984  1
  Ce  Ce2  1  0.749992  0.374799  0.624847  1
  Ce  Ce3  1  0.873728  0.250753  0.125003  1
  Ce  Ce4  1  0.626327  0.751119  0.377001  1
  Ce  Ce5  1  0.373603  0.626757  0.747739  1
  As  As6  1  0.499068  0.999181  0.652682  1
  As  As7  1  0.001075  0.653558  0.500045  1
  Se  Se8  1  0.652373  0.499866  0.999579  1
  Se  Se9  1  0.999970  0.151856  0.499797  1
  Se  Se10  1  0.847898  0.847476  0.848053  1
  Se  Se11  1  0.348131  0.348100  0.348624  1
  Se  Se12  1  0.151449  0.500226  0.000002  1
  Se  Se13  1  0.499966  0.000043  0.151798  1
