# generated using pymatgen
data_Be8Re2SiW
_symmetry_space_group_name_H-M   'P 1'
_cell_length_a   4.36759800
_cell_length_b   4.36759952
_cell_length_c   7.13697700
_cell_angle_alpha   90.00000000
_cell_angle_beta   90.00000000
_cell_angle_gamma   120.00000363
_symmetry_Int_Tables_number   1
_chemical_formula_structural   Be8Re2SiW
_chemical_formula_sum   'Be8 Re2 Si1 W1'
_cell_volume   117.90450005
_cell_formula_units_Z   1
loop_
 _symmetry_equiv_pos_site_id
 _symmetry_equiv_pos_as_xyz
  1  'x, y, z'
loop_
 _atom_site_type_symbol
 _atom_site_label
 _atom_site_symmetry_multiplicity
 _atom_site_fract_x
 _atom_site_fract_y
 _atom_site_fract_z
 _atom_site_occupancy
  Be  Be0  1  0.000000  0.000000  0.993386  1
  Be  Be1  1  0.000000  0.000000  0.502054  1
  Be  Be2  1  0.833054  0.666107  0.254181  1
  Be  Be3  1  0.170910  0.829090  0.746262  1
  Be  Be4  1  0.658182  0.829090  0.746262  1
  Be  Be5  1  0.333893  0.166946  0.254181  1
  Be  Be6  1  0.833054  0.166946  0.254181  1
  Be  Be7  1  0.170910  0.341818  0.746262  1
  Re  Re8  1  0.666667  0.333333  0.938262  1
  Re  Re9  1  0.333333  0.666667  0.439967  1
  Si  Si10  1  0.666667  0.333333  0.563408  1
  W  W11  1  0.333333  0.666667  0.061596  1
