# generated using pymatgen
data_Y4Hf3TaIr4
_symmetry_space_group_name_H-M   'P 1'
_cell_length_a   4.56039200
_cell_length_b   7.08706209
_cell_length_c   8.17951192
_cell_angle_alpha   89.66675451
_cell_angle_beta   90.00000000
_cell_angle_gamma   90.00000000
_symmetry_Int_Tables_number   1
_chemical_formula_structural   Y4Hf3TaIr4
_chemical_formula_sum   'Y4 Hf3 Ta1 Ir4'
_cell_volume   264.35556485
_cell_formula_units_Z   1
loop_
 _symmetry_equiv_pos_site_id
 _symmetry_equiv_pos_as_xyz
  1  'x, y, z'
loop_
 _atom_site_type_symbol
 _atom_site_label
 _atom_site_symmetry_multiplicity
 _atom_site_fract_x
 _atom_site_fract_y
 _atom_site_fract_z
 _atom_site_occupancy
  Y  Y0  1  0.250000  0.986679  0.317996  1
  Y  Y1  1  0.250000  0.480138  0.179114  1
  Y  Y2  1  0.750000  0.017618  0.677272  1
  Y  Y3  1  0.750000  0.513899  0.825404  1
  Hf  Hf4  1  0.250000  0.358489  0.573439  1
  Hf  Hf5  1  0.250000  0.856587  0.925443  1
  Hf  Hf6  1  0.750000  0.641802  0.427416  1
  Ta  Ta7  1  0.750000  0.140390  0.071073  1
  Ir  Ir8  1  0.250000  0.222810  0.915626  1
  Ir  Ir9  1  0.250000  0.729125  0.594379  1
  Ir  Ir10  1  0.750000  0.780819  0.094459  1
  Ir  Ir11  1  0.750000  0.271643  0.398378  1
