# generated using pymatgen
data_Li8Hf3MnBr24
_symmetry_space_group_name_H-M   'P 1'
_cell_length_a   6.73195200
_cell_length_b   6.73195298
_cell_length_c   28.19443500
_cell_angle_alpha   90.00000000
_cell_angle_beta   90.00000000
_cell_angle_gamma   120.00000503
_symmetry_Int_Tables_number   1
_chemical_formula_structural   Li8Hf3MnBr24
_chemical_formula_sum   'Li8 Hf3 Mn1 Br24'
_cell_volume   1106.56286115
_cell_formula_units_Z   1
loop_
 _symmetry_equiv_pos_site_id
 _symmetry_equiv_pos_as_xyz
  1  'x, y, z'
loop_
 _atom_site_type_symbol
 _atom_site_label
 _atom_site_symmetry_multiplicity
 _atom_site_fract_x
 _atom_site_fract_y
 _atom_site_fract_z
 _atom_site_occupancy
  Li  Li0  1  0.000000  0.000000  0.249388  1
  Li  Li1  1  0.000000  0.000000  0.750612  1
  Li  Li2  1  0.333333  0.666667  0.999506  1
  Li  Li3  1  0.333333  0.666667  0.500459  1
  Li  Li4  1  0.333333  0.666667  0.249660  1
  Li  Li5  1  0.666667  0.333333  0.750340  1
  Li  Li6  1  0.666667  0.333333  0.000494  1
  Li  Li7  1  0.666667  0.333333  0.499541  1
  Hf  Hf8  1  0.000000  0.000000  0.500000  1
  Hf  Hf9  1  0.333333  0.666667  0.750859  1
  Hf  Hf10  1  0.666667  0.333333  0.249141  1
  Mn  Mn11  1  0.000000  0.000000  0.000000  1
  Br  Br12  1  0.347886  0.014847  0.303198  1
  Br  Br13  1  0.334795  0.985707  0.804617  1
  Br  Br14  1  0.000842  0.301112  0.050632  1
  Br  Br15  1  0.998725  0.317653  0.553864  1
  Br  Br16  1  0.985153  0.333040  0.303198  1
  Br  Br17  1  0.014293  0.349087  0.804617  1
  Br  Br18  1  0.349087  0.334795  0.195383  1
  Br  Br19  1  0.333040  0.347886  0.696802  1
  Br  Br20  1  0.317653  0.318927  0.446136  1
  Br  Br21  1  0.301112  0.300271  0.949368  1
  Br  Br22  1  0.681073  0.998725  0.446136  1
  Br  Br23  1  0.300271  0.999158  0.050632  1
  Br  Br24  1  0.318927  0.001275  0.553864  1
  Br  Br25  1  0.698888  0.699729  0.050632  1
  Br  Br26  1  0.682347  0.681073  0.553864  1
  Br  Br27  1  0.666960  0.652114  0.303198  1
  Br  Br28  1  0.650913  0.665205  0.804617  1
  Br  Br29  1  0.985707  0.650913  0.195383  1
  Br  Br30  1  0.014847  0.666960  0.696802  1
  Br  Br31  1  0.001275  0.682347  0.446136  1
  Br  Br32  1  0.999158  0.698888  0.949368  1
  Br  Br33  1  0.699729  0.000842  0.949368  1
  Br  Br34  1  0.665205  0.014293  0.195383  1
  Br  Br35  1  0.652114  0.985153  0.696802  1
