# generated using pymatgen
data_Tb7Dy(InRh)2
_symmetry_space_group_name_H-M   'P 1'
_cell_length_a   9.70782838
_cell_length_b   9.70738452
_cell_length_c   9.70772530
_cell_angle_alpha   60.00115862
_cell_angle_beta   59.97423442
_cell_angle_gamma   60.00151310
_symmetry_Int_Tables_number   1
_chemical_formula_structural   Tb7Dy(InRh)2
_chemical_formula_sum   'Tb14 Dy2 In4 Rh4'
_cell_volume   646.77158283
_cell_formula_units_Z   2
loop_
 _symmetry_equiv_pos_site_id
 _symmetry_equiv_pos_as_xyz
  1  'x, y, z'
loop_
 _atom_site_type_symbol
 _atom_site_label
 _atom_site_symmetry_multiplicity
 _atom_site_fract_x
 _atom_site_fract_y
 _atom_site_fract_z
 _atom_site_occupancy
  Tb  Tb0  1  0.689197  0.310715  0.310904  1
  Tb  Tb1  1  0.689197  0.689185  0.310904  1
  Tb  Tb2  1  0.310812  0.689196  0.310796  1
  Tb  Tb3  1  0.937906  0.938183  0.562017  1
  Tb  Tb4  1  0.150127  0.150332  0.549208  1
  Tb  Tb5  1  0.561916  0.938128  0.561828  1
  Tb  Tb6  1  0.150296  0.150322  0.150263  1
  Tb  Tb7  1  0.310979  0.310782  0.689213  1
  Tb  Tb8  1  0.937906  0.561895  0.562017  1
  Tb  Tb9  1  0.561993  0.561784  0.937988  1
  Tb  Tb10  1  0.561993  0.938235  0.937988  1
  Tb  Tb11  1  0.937961  0.562023  0.937992  1
  Tb  Tb12  1  0.150296  0.549117  0.150263  1
  Tb  Tb13  1  0.310979  0.689026  0.689213  1
  Dy  Dy14  1  0.689154  0.310742  0.689362  1
  Dy  Dy15  1  0.549016  0.150409  0.150166  1
  In  In16  1  0.917199  0.917260  0.248280  1
  In  In17  1  0.248274  0.917246  0.917235  1
  In  In18  1  0.917191  0.248303  0.917242  1
  In  In19  1  0.917191  0.917264  0.917242  1
  Rh  Rh20  1  0.357702  0.357415  0.357361  1
  Rh  Rh21  1  0.927069  0.357570  0.357793  1
  Rh  Rh22  1  0.357941  0.357348  0.927364  1
  Rh  Rh23  1  0.357702  0.927523  0.357361  1
