# generated using pymatgen
data_Dy2Ho2Mg3ZnRh4
_symmetry_space_group_name_H-M   'P 1'
_cell_length_a   4.08470400
_cell_length_b   7.05516432
_cell_length_c   8.42210606
_cell_angle_alpha   90.05642559
_cell_angle_beta   90.00000000
_cell_angle_gamma   90.00000000
_symmetry_Int_Tables_number   1
_chemical_formula_structural   Dy2Ho2Mg3ZnRh4
_chemical_formula_sum   'Dy2 Ho2 Mg3 Zn1 Rh4'
_cell_volume   242.71030714
_cell_formula_units_Z   1
loop_
 _symmetry_equiv_pos_site_id
 _symmetry_equiv_pos_as_xyz
  1  'x, y, z'
loop_
 _atom_site_type_symbol
 _atom_site_label
 _atom_site_symmetry_multiplicity
 _atom_site_fract_x
 _atom_site_fract_y
 _atom_site_fract_z
 _atom_site_occupancy
  Dy  Dy0  1  0.250000  0.534295  0.183677  1
  Dy  Dy1  1  0.750000  0.459579  0.819685  1
  Ho  Ho2  1  0.250000  0.048868  0.328360  1
  Ho  Ho3  1  0.750000  0.962155  0.674635  1
  Mg  Mg4  1  0.250000  0.135586  0.939234  1
  Mg  Mg5  1  0.750000  0.863164  0.060499  1
  Mg  Mg6  1  0.250000  0.630650  0.556009  1
  Zn  Zn7  1  0.750000  0.366547  0.438828  1
  Rh  Rh8  1  0.750000  0.749597  0.372246  1
  Rh  Rh9  1  0.250000  0.253024  0.625050  1
  Rh  Rh10  1  0.750000  0.248979  0.132171  1
  Rh  Rh11  1  0.250000  0.747554  0.869607  1
