# generated using pymatgen
data_La4Nd7Lu5(CdIr)4
_symmetry_space_group_name_H-M   'P 1'
_cell_length_a   9.83714228
_cell_length_b   9.83714295
_cell_length_c   9.78426600
_cell_angle_alpha   60.17765261
_cell_angle_beta   60.17765035
_cell_angle_gamma   60.33382625
_symmetry_Int_Tables_number   1
_chemical_formula_structural   La4Nd7Lu5(CdIr)4
_chemical_formula_sum   'La4 Nd7 Lu5 Cd4 Ir4'
_cell_volume   672.97936151
_cell_formula_units_Z   1
loop_
 _symmetry_equiv_pos_site_id
 _symmetry_equiv_pos_as_xyz
  1  'x, y, z'
loop_
 _atom_site_type_symbol
 _atom_site_label
 _atom_site_symmetry_multiplicity
 _atom_site_fract_x
 _atom_site_fract_y
 _atom_site_fract_z
 _atom_site_occupancy
  La  La0  1  0.350399  0.350399  0.351270  1
  La  La1  1  0.350399  0.350399  0.947930  1
  La  La2  1  0.345598  0.950089  0.352156  1
  La  La3  1  0.950089  0.345598  0.352156  1
  Nd  Nd4  1  0.816461  0.816461  0.183539  1
  Nd  Nd5  1  0.941500  0.557923  0.563408  1
  Nd  Nd6  1  0.557923  0.941500  0.937169  1
  Nd  Nd7  1  0.557923  0.941500  0.563408  1
  Nd  Nd8  1  0.941500  0.557923  0.937169  1
  Nd  Nd9  1  0.560952  0.560952  0.939048  1
  Nd  Nd10  1  0.937830  0.937830  0.562170  1
  Lu  Lu11  1  0.815541  0.186788  0.183186  1
  Lu  Lu12  1  0.186788  0.815541  0.814485  1
  Lu  Lu13  1  0.186788  0.815541  0.183186  1
  Lu  Lu14  1  0.815541  0.186788  0.814485  1
  Lu  Lu15  1  0.182232  0.182232  0.817768  1
  Cd  Cd16  1  0.580977  0.580977  0.579881  1
  Cd  Cd17  1  0.580977  0.580977  0.258163  1
  Cd  Cd18  1  0.581782  0.258024  0.580096  1
  Cd  Cd19  1  0.258024  0.581782  0.580096  1
  Ir  Ir20  1  0.137108  0.137108  0.139630  1
  Ir  Ir21  1  0.137108  0.137108  0.586153  1
  Ir  Ir22  1  0.146309  0.580245  0.136722  1
  Ir  Ir23  1  0.580245  0.146309  0.136722  1
