# generated using pymatgen
data_Er6AlCuRu
_symmetry_space_group_name_H-M   'P 1'
_cell_length_a   8.34367833
_cell_length_b   8.34347552
_cell_length_c   8.34367939
_cell_angle_alpha   104.88788051
_cell_angle_beta   110.86147148
_cell_angle_gamma   112.76656642
_symmetry_Int_Tables_number   1
_chemical_formula_structural   Er6AlCuRu
_chemical_formula_sum   'Er12 Al2 Cu2 Ru2'
_cell_volume   444.87357068
_cell_formula_units_Z   2
loop_
 _symmetry_equiv_pos_site_id
 _symmetry_equiv_pos_as_xyz
  1  'x, y, z'
loop_
 _atom_site_type_symbol
 _atom_site_label
 _atom_site_symmetry_multiplicity
 _atom_site_fract_x
 _atom_site_fract_y
 _atom_site_fract_z
 _atom_site_occupancy
  Er  Er0  1  0.692791  0.258115  0.950900  1
  Er  Er1  1  0.307209  0.741885  0.049100  1
  Er  Er2  1  0.692785  0.741885  0.434677  1
  Er  Er3  1  0.307215  0.258115  0.565323  1
  Er  Er4  1  0.809764  0.141404  0.331639  1
  Er  Er5  1  0.809848  0.478244  0.668396  1
  Er  Er6  1  0.190236  0.858596  0.668361  1
  Er  Er7  1  0.190152  0.521756  0.331604  1
  Er  Er8  1  0.590790  0.775755  0.815072  1
  Er  Er9  1  0.960681  0.775755  0.184964  1
  Er  Er10  1  0.039319  0.224245  0.815036  1
  Er  Er11  1  0.409210  0.224245  0.184928  1
  Al  Al12  1  0.500000  0.500000  0.000000  1
  Al  Al13  1  0.500000  0.000000  0.500000  1
  Cu  Cu14  1  0.999918  0.119717  0.119799  1
  Cu  Cu15  1  0.000082  0.880283  0.880201  1
  Ru  Ru16  1  0.825503  0.500000  0.325503  1
  Ru  Ru17  1  0.174497  0.500000  0.674497  1
