# generated using pymatgen
data_Ac3(AlSi)2
_symmetry_space_group_name_H-M   'P 1'
_cell_length_a   4.25438561
_cell_length_b   4.69872873
_cell_length_c   10.27936920
_cell_angle_alpha   103.21179928
_cell_angle_beta   101.94297452
_cell_angle_gamma   89.99999819
_symmetry_Int_Tables_number   1
_chemical_formula_structural   Ac3(AlSi)2
_chemical_formula_sum   'Ac3 Al2 Si2'
_cell_volume   195.47616110
_cell_formula_units_Z   1
loop_
 _symmetry_equiv_pos_site_id
 _symmetry_equiv_pos_as_xyz
  1  'x, y, z'
loop_
 _atom_site_type_symbol
 _atom_site_label
 _atom_site_symmetry_multiplicity
 _atom_site_fract_x
 _atom_site_fract_y
 _atom_site_fract_z
 _atom_site_occupancy
  Ac  Ac0  1  0.500001  0.000000  0.000000  1
  Ac  Ac1  1  0.185069  0.185068  0.370138  1
  Ac  Ac2  1  0.814932  0.814931  0.629862  1
  Al  Al3  1  0.066212  0.566211  0.132424  1
  Al  Al4  1  0.933789  0.433788  0.867576  1
  Si  Si5  1  0.638228  0.638226  0.276454  1
  Si  Si6  1  0.361773  0.361773  0.723546  1
