# generated using pymatgen
data_Ca3YAs3
_symmetry_space_group_name_H-M   'P 1'
_cell_length_a   7.68392617
_cell_length_b   7.74498563
_cell_length_c   7.68392654
_cell_angle_alpha   109.55042858
_cell_angle_beta   109.12268314
_cell_angle_gamma   109.55043564
_symmetry_Int_Tables_number   1
_chemical_formula_structural   Ca3YAs3
_chemical_formula_sum   'Ca6 Y2 As6'
_cell_volume   352.83679394
_cell_formula_units_Z   2
loop_
 _symmetry_equiv_pos_site_id
 _symmetry_equiv_pos_as_xyz
  1  'x, y, z'
loop_
 _atom_site_type_symbol
 _atom_site_label
 _atom_site_symmetry_multiplicity
 _atom_site_fract_x
 _atom_site_fract_y
 _atom_site_fract_z
 _atom_site_occupancy
  Ca  Ca0  1  0.365017  0.361347  0.366718  1
  Ca  Ca1  1  0.998329  0.133253  0.494878  1
  Ca  Ca2  1  0.866718  0.861347  0.865017  1
  Ca  Ca3  1  0.994878  0.633253  0.498329  1
  Ca  Ca4  1  0.635362  0.505543  0.003523  1
  Ca  Ca5  1  0.503523  0.005543  0.135362  1
  Y  Y6  1  0.135713  0.499858  0.000409  1
  Y  Y7  1  0.500409  0.999858  0.635713  1
  As  As8  1  0.876481  0.249890  0.114456  1
  As  As9  1  0.132817  0.870142  0.253051  1
  As  As10  1  0.371662  0.629967  0.751582  1
  As  As11  1  0.251582  0.129967  0.871662  1
  As  As12  1  0.753051  0.370142  0.632817  1
  As  As13  1  0.614456  0.749890  0.376481  1
