# generated using pymatgen
data_Ho4Zn3Ga5Ag4
_symmetry_space_group_name_H-M   'P 1'
_cell_length_a   4.32397000
_cell_length_b   6.94885900
_cell_length_c   10.30857633
_cell_angle_alpha   89.98379777
_cell_angle_beta   90.00000000
_cell_angle_gamma   90.00000000
_symmetry_Int_Tables_number   1
_chemical_formula_structural   Ho4Zn3Ga5Ag4
_chemical_formula_sum   'Ho4 Zn3 Ga5 Ag4'
_cell_volume   309.73825366
_cell_formula_units_Z   1
loop_
 _symmetry_equiv_pos_site_id
 _symmetry_equiv_pos_as_xyz
  1  'x, y, z'
loop_
 _atom_site_type_symbol
 _atom_site_label
 _atom_site_symmetry_multiplicity
 _atom_site_fract_x
 _atom_site_fract_y
 _atom_site_fract_z
 _atom_site_occupancy
  Ho  Ho0  1  0.250000  0.780842  0.828702  1
  Ho  Ho1  1  0.750000  0.216132  0.170002  1
  Ho  Ho2  1  0.750000  0.720813  0.328270  1
  Ho  Ho3  1  0.250000  0.281486  0.672665  1
  Zn  Zn4  1  0.250000  0.923793  0.148996  1
  Zn  Zn5  1  0.750000  0.076301  0.850231  1
  Zn  Zn6  1  0.750000  0.577218  0.651246  1
  Ga  Ga7  1  0.250000  0.425002  0.347419  1
  Ga  Ga8  1  0.250000  0.702711  0.538458  1
  Ga  Ga9  1  0.750000  0.297196  0.466225  1
  Ga  Ga10  1  0.750000  0.798177  0.037571  1
  Ga  Ga11  1  0.250000  0.200578  0.962956  1
  Ag  Ag12  1  0.250000  0.541575  0.098057  1
  Ag  Ag13  1  0.750000  0.458782  0.900262  1
  Ag  Ag14  1  0.750000  0.958537  0.599775  1
  Ag  Ag15  1  0.250000  0.040859  0.399166  1
