# generated using pymatgen
data_TbTm4Lu7Os4
_symmetry_space_group_name_H-M   'P 1'
_cell_length_a   6.19090093
_cell_length_b   7.36854715
_cell_length_c   8.84403422
_cell_angle_alpha   89.96588929
_cell_angle_beta   89.83984483
_cell_angle_gamma   90.05049441
_symmetry_Int_Tables_number   1
_chemical_formula_structural   TbTm4Lu7Os4
_chemical_formula_sum   'Tb1 Tm4 Lu7 Os4'
_cell_volume   403.44486589
_cell_formula_units_Z   1
loop_
 _symmetry_equiv_pos_site_id
 _symmetry_equiv_pos_as_xyz
  1  'x, y, z'
loop_
 _atom_site_type_symbol
 _atom_site_label
 _atom_site_symmetry_multiplicity
 _atom_site_fract_x
 _atom_site_fract_y
 _atom_site_fract_z
 _atom_site_occupancy
  Tb  Tb0  1  0.371994  0.960650  0.749074  1
  Tm  Tm1  1  0.163982  0.175121  0.063060  1
  Tm  Tm2  1  0.871316  0.539870  0.250485  1
  Tm  Tm3  1  0.629359  0.039287  0.251063  1
  Tm  Tm4  1  0.127210  0.461165  0.748835  1
  Lu  Lu5  1  0.336688  0.672958  0.062887  1
  Lu  Lu6  1  0.162802  0.173806  0.437987  1
  Lu  Lu7  1  0.662804  0.326653  0.562391  1
  Lu  Lu8  1  0.836502  0.825360  0.937056  1
  Lu  Lu9  1  0.664290  0.326777  0.937239  1
  Lu  Lu10  1  0.837035  0.825443  0.561793  1
  Lu  Lu11  1  0.336670  0.674045  0.436934  1
  Os  Os12  1  0.042370  0.880888  0.250833  1
  Os  Os13  1  0.459529  0.381579  0.251382  1
  Os  Os14  1  0.954835  0.119296  0.748193  1
  Os  Os15  1  0.542612  0.617103  0.750789  1
