# generated using pymatgen
data_YHo3CoHg
_symmetry_space_group_name_H-M   'P 1'
_cell_length_a   9.43728372
_cell_length_b   9.42883313
_cell_length_c   9.42883395
_cell_angle_alpha   60.03458474
_cell_angle_beta   59.98924665
_cell_angle_gamma   59.98923951
_symmetry_Int_Tables_number   1
_chemical_formula_structural   YHo3CoHg
_chemical_formula_sum   'Y4 Ho12 Co4 Hg4'
_cell_volume   593.32229445
_cell_formula_units_Z   4
loop_
 _symmetry_equiv_pos_site_id
 _symmetry_equiv_pos_as_xyz
  1  'x, y, z'
loop_
 _atom_site_type_symbol
 _atom_site_label
 _atom_site_symmetry_multiplicity
 _atom_site_fract_x
 _atom_site_fract_y
 _atom_site_fract_z
 _atom_site_occupancy
  Y  Y0  1  0.938441  0.938845  0.561680  1
  Y  Y1  1  0.810286  0.188439  0.188439  1
  Y  Y2  1  0.939100  0.561428  0.561428  1
  Y  Y3  1  0.938441  0.561680  0.938845  1
  Ho  Ho4  1  0.810729  0.811488  0.186764  1
  Ho  Ho5  1  0.346601  0.346503  0.346503  1
  Ho  Ho6  1  0.559262  0.939635  0.939635  1
  Ho  Ho7  1  0.560151  0.939193  0.562778  1
  Ho  Ho8  1  0.187365  0.811392  0.811392  1
  Ho  Ho9  1  0.189460  0.187658  0.810561  1
  Ho  Ho10  1  0.348584  0.348452  0.957634  1
  Ho  Ho11  1  0.348584  0.957634  0.348452  1
  Ho  Ho12  1  0.810729  0.186764  0.811488  1
  Ho  Ho13  1  0.560151  0.562778  0.939193  1
  Ho  Ho14  1  0.189460  0.810561  0.187658  1
  Ho  Ho15  1  0.958508  0.348087  0.348087  1
  Co  Co16  1  0.576167  0.141098  0.141098  1
  Co  Co17  1  0.144690  0.140389  0.140389  1
  Co  Co18  1  0.142080  0.577997  0.141620  1
  Co  Co19  1  0.142080  0.141620  0.577997  1
  Hg  Hg20  1  0.583283  0.583735  0.248334  1
  Hg  Hg21  1  0.249751  0.583236  0.583236  1
  Hg  Hg22  1  0.582819  0.583058  0.583058  1
  Hg  Hg23  1  0.583283  0.248334  0.583735  1
