# generated using pymatgen
data_Sm6Co15Ni(P6W)2
_symmetry_space_group_name_H-M   'P 1'
_cell_length_a   3.76513100
_cell_length_b   10.62791700
_cell_length_c   12.35504100
_cell_angle_alpha   90.00000000
_cell_angle_beta   90.00000000
_cell_angle_gamma   90.00000000
_symmetry_Int_Tables_number   1
_chemical_formula_structural   Sm6Co15Ni(P6W)2
_chemical_formula_sum   'Sm6 Co15 Ni1 P12 W2'
_cell_volume   494.39314020
_cell_formula_units_Z   1
loop_
 _symmetry_equiv_pos_site_id
 _symmetry_equiv_pos_as_xyz
  1  'x, y, z'
loop_
 _atom_site_type_symbol
 _atom_site_label
 _atom_site_symmetry_multiplicity
 _atom_site_fract_x
 _atom_site_fract_y
 _atom_site_fract_z
 _atom_site_occupancy
  Sm  Sm0  1  0.000000  0.500000  0.521751  1
  Sm  Sm1  1  0.500000  0.000000  0.476468  1
  Sm  Sm2  1  0.500000  0.818956  0.205047  1
  Sm  Sm3  1  0.500000  0.181044  0.205047  1
  Sm  Sm4  1  0.000000  0.682541  0.795834  1
  Sm  Sm5  1  0.000000  0.317459  0.795834  1
  Co  Co6  1  0.000000  0.000000  0.298066  1
  Co  Co7  1  0.000000  0.500000  0.987779  1
  Co  Co8  1  0.500000  0.000000  0.012504  1
  Co  Co9  1  0.500000  0.332622  0.991191  1
  Co  Co10  1  0.500000  0.667378  0.991191  1
  Co  Co11  1  0.000000  0.167266  0.008758  1
  Co  Co12  1  0.000000  0.832734  0.008758  1
  Co  Co13  1  0.500000  0.295963  0.431188  1
  Co  Co14  1  0.500000  0.704037  0.431188  1
  Co  Co15  1  0.000000  0.204118  0.568705  1
  Co  Co16  1  0.000000  0.795882  0.568705  1
  Co  Co17  1  0.500000  0.879751  0.708954  1
  Co  Co18  1  0.500000  0.120249  0.708954  1
  Co  Co19  1  0.000000  0.620099  0.291094  1
  Co  Co20  1  0.000000  0.379901  0.291094  1
  Ni  Ni21  1  0.500000  0.500000  0.702019  1
  P  P22  1  0.500000  0.500000  0.884185  1
  P  P23  1  0.000000  0.000000  0.117073  1
  P  P24  1  0.500000  0.500000  0.346656  1
  P  P25  1  0.000000  0.000000  0.652994  1
  P  P26  1  0.500000  0.307790  0.614400  1
  P  P27  1  0.500000  0.692210  0.614400  1
  P  P28  1  0.000000  0.191245  0.384880  1
  P  P29  1  0.000000  0.808755  0.384880  1
  P  P30  1  0.500000  0.845850  0.894481  1
  P  P31  1  0.500000  0.154150  0.894481  1
  P  P32  1  0.000000  0.654766  0.105959  1
  P  P33  1  0.000000  0.345234  0.105959  1
  W  W34  1  0.500000  0.500000  0.154361  1
  W  W35  1  0.000000  0.000000  0.845163  1
