# generated using pymatgen
data_CeZr3(CdPd2)2
_symmetry_space_group_name_H-M   'P 1'
_cell_length_a   7.70862637
_cell_length_b   7.70862637
_cell_length_c   3.43675300
_cell_angle_alpha   90.00000000
_cell_angle_beta   90.00000000
_cell_angle_gamma   90.10722391
_symmetry_Int_Tables_number   1
_chemical_formula_structural   CeZr3(CdPd2)2
_chemical_formula_sum   'Ce1 Zr3 Cd2 Pd4'
_cell_volume   204.22154297
_cell_formula_units_Z   1
loop_
 _symmetry_equiv_pos_site_id
 _symmetry_equiv_pos_as_xyz
  1  'x, y, z'
loop_
 _atom_site_type_symbol
 _atom_site_label
 _atom_site_symmetry_multiplicity
 _atom_site_fract_x
 _atom_site_fract_y
 _atom_site_fract_z
 _atom_site_occupancy
  Ce  Ce0  1  0.669357  0.169357  0.500000  1
  Zr  Zr1  1  0.325028  0.825028  0.500000  1
  Zr  Zr2  1  0.834729  0.673314  0.500000  1
  Zr  Zr3  1  0.173314  0.334729  0.500000  1
  Cd  Cd4  1  0.006620  0.995395  0.000000  1
  Cd  Cd5  1  0.495395  0.506620  0.000000  1
  Pd  Pd6  1  0.365715  0.127214  0.000000  1
  Pd  Pd7  1  0.874809  0.374809  0.000000  1
  Pd  Pd8  1  0.127819  0.627819  0.000000  1
  Pd  Pd9  1  0.627214  0.865715  0.000000  1
