# generated using pymatgen
data_Er16Al4OsPd3
_symmetry_space_group_name_H-M   'P 1'
_cell_length_a   9.52493442
_cell_length_b   9.52493354
_cell_length_c   9.52493471
_cell_angle_alpha   59.63668768
_cell_angle_beta   59.63669228
_cell_angle_gamma   59.63668787
_symmetry_Int_Tables_number   1
_chemical_formula_structural   Er16Al4OsPd3
_chemical_formula_sum   'Er16 Al4 Os1 Pd3'
_cell_volume   605.99722837
_cell_formula_units_Z   1
loop_
 _symmetry_equiv_pos_site_id
 _symmetry_equiv_pos_as_xyz
  1  'x, y, z'
loop_
 _atom_site_type_symbol
 _atom_site_label
 _atom_site_symmetry_multiplicity
 _atom_site_fract_x
 _atom_site_fract_y
 _atom_site_fract_z
 _atom_site_occupancy
  Er  Er0  1  0.356070  0.356070  0.356070  1
  Er  Er1  1  0.354174  0.354174  0.934896  1
  Er  Er2  1  0.354174  0.934896  0.354174  1
  Er  Er3  1  0.934896  0.354174  0.354174  1
  Er  Er4  1  0.813679  0.190925  0.190925  1
  Er  Er5  1  0.191592  0.806996  0.806996  1
  Er  Er6  1  0.190925  0.813679  0.190925  1
  Er  Er7  1  0.806996  0.191592  0.806996  1
  Er  Er8  1  0.190925  0.190925  0.813679  1
  Er  Er9  1  0.806996  0.806996  0.191592  1
  Er  Er10  1  0.933432  0.565242  0.565242  1
  Er  Er11  1  0.556405  0.938048  0.938048  1
  Er  Er12  1  0.565242  0.933432  0.565242  1
  Er  Er13  1  0.938048  0.556405  0.938048  1
  Er  Er14  1  0.565242  0.565242  0.933432  1
  Er  Er15  1  0.938048  0.938048  0.556405  1
  Al  Al16  1  0.578976  0.578976  0.578976  1
  Al  Al17  1  0.578264  0.578264  0.265896  1
  Al  Al18  1  0.578264  0.265896  0.578264  1
  Al  Al19  1  0.265896  0.578264  0.578264  1
  Os  Os20  1  0.144524  0.144524  0.144524  1
  Pd  Pd21  1  0.145025  0.145025  0.567181  1
  Pd  Pd22  1  0.145025  0.567181  0.145025  1
  Pd  Pd23  1  0.567181  0.145025  0.145025  1
