# generated using pymatgen
data_PuAuCl6
_symmetry_space_group_name_H-M   'P 1'
_cell_length_a   7.62426923
_cell_length_b   9.95156429
_cell_length_c   14.08439200
_cell_angle_alpha   103.94467886
_cell_angle_beta   96.74266149
_cell_angle_gamma   112.05666565
_symmetry_Int_Tables_number   1
_chemical_formula_structural   PuAuCl6
_chemical_formula_sum   'Pu4 Au4 Cl24'
_cell_volume   935.20342720
_cell_formula_units_Z   4
loop_
 _symmetry_equiv_pos_site_id
 _symmetry_equiv_pos_as_xyz
  1  'x, y, z'
loop_
 _atom_site_type_symbol
 _atom_site_label
 _atom_site_symmetry_multiplicity
 _atom_site_fract_x
 _atom_site_fract_y
 _atom_site_fract_z
 _atom_site_occupancy
  Pu  Pu0  1  0.574573  0.921512  0.621379  1
  Pu  Pu1  1  0.040301  0.688755  0.128728  1
  Pu  Pu2  1  0.425427  0.078488  0.378621  1
  Pu  Pu3  1  0.959699  0.311245  0.871272  1
  Au  Au4  1  0.295227  0.632262  0.764350  1
  Au  Au5  1  0.500000  0.500000  0.500000  1
  Au  Au6  1  0.704773  0.367738  0.235650  1
  Au  Au7  1  0.000000  0.000000  0.000000  1
  Cl  Cl8  1  0.766151  0.095890  0.965543  1
  Cl  Cl9  1  0.717692  0.147462  0.262831  1
  Cl  Cl10  1  0.282308  0.852538  0.737169  1
  Cl  Cl11  1  0.769686  0.787440  0.030983  1
  Cl  Cl12  1  0.604900  0.192752  0.738179  1
  Cl  Cl13  1  0.303761  0.408197  0.786976  1
  Cl  Cl14  1  0.696239  0.591803  0.213024  1
  Cl  Cl15  1  0.288496  0.619358  0.499048  1
  Cl  Cl16  1  0.230314  0.212560  0.969017  1
  Cl  Cl17  1  0.752859  0.735491  0.518587  1
  Cl  Cl18  1  0.233849  0.904110  0.034457  1
  Cl  Cl19  1  0.736687  0.059294  0.489403  1
  Cl  Cl20  1  0.616732  0.727747  0.745230  1
  Cl  Cl21  1  0.947159  0.055527  0.729870  1
  Cl  Cl22  1  0.247141  0.264509  0.481413  1
  Cl  Cl23  1  0.395100  0.807248  0.261821  1
  Cl  Cl24  1  0.972129  0.539451  0.781183  1
  Cl  Cl25  1  0.757958  0.439020  0.977974  1
  Cl  Cl26  1  0.242042  0.560980  0.022026  1
  Cl  Cl27  1  0.027871  0.460549  0.218817  1
  Cl  Cl28  1  0.383268  0.272253  0.254770  1
  Cl  Cl29  1  0.263313  0.940706  0.510597  1
  Cl  Cl30  1  0.711504  0.380642  0.500952  1
  Cl  Cl31  1  0.052841  0.944473  0.270130  1
