# generated using pymatgen
data_HgMoO3F2
_symmetry_space_group_name_H-M   'P 1'
_cell_length_a   3.93623681
_cell_length_b   10.59965300
_cell_length_c   5.68477250
_cell_angle_alpha   90.00000000
_cell_angle_beta   109.98936820
_cell_angle_gamma   90.00000000
_symmetry_Int_Tables_number   1
_chemical_formula_structural   HgMoO3F2
_chemical_formula_sum   'Hg2 Mo2 O6 F4'
_cell_volume   222.89539417
_cell_formula_units_Z   2
loop_
 _symmetry_equiv_pos_site_id
 _symmetry_equiv_pos_as_xyz
  1  'x, y, z'
loop_
 _atom_site_type_symbol
 _atom_site_label
 _atom_site_symmetry_multiplicity
 _atom_site_fract_x
 _atom_site_fract_y
 _atom_site_fract_z
 _atom_site_occupancy
  Hg  Hg0  1  0.000000  0.000000  0.000000  1
  Hg  Hg1  1  0.000000  0.500000  0.000000  1
  Mo  Mo2  1  0.683665  0.250000  0.479240  1
  Mo  Mo3  1  0.316333  0.750000  0.520759  1
  O  O4  1  0.166523  0.619810  0.308020  1
  O  O5  1  0.166523  0.880190  0.308020  1
  O  O6  1  0.211051  0.250000  0.433506  1
  O  O7  1  0.788946  0.750000  0.566493  1
  O  O8  1  0.833478  0.119810  0.691982  1
  O  O9  1  0.833478  0.380190  0.691982  1
  F  F10  1  0.595449  0.126454  0.184159  1
  F  F11  1  0.595449  0.373546  0.184159  1
  F  F12  1  0.404552  0.626454  0.815842  1
  F  F13  1  0.404552  0.873546  0.815842  1
