# generated using pymatgen
data_Hf3SiTc3Sb2
_symmetry_space_group_name_H-M   'P 1'
_cell_length_a   8.04237270
_cell_length_b   8.04237407
_cell_length_c   8.04237352
_cell_angle_alpha   126.94989601
_cell_angle_beta   126.58837019
_cell_angle_gamma   78.62800009
_symmetry_Int_Tables_number   1
_chemical_formula_structural   Hf3SiTc3Sb2
_chemical_formula_sum   'Hf6 Si2 Tc6 Sb4'
_cell_volume   323.09304367
_cell_formula_units_Z   2
loop_
 _symmetry_equiv_pos_site_id
 _symmetry_equiv_pos_as_xyz
  1  'x, y, z'
loop_
 _atom_site_type_symbol
 _atom_site_label
 _atom_site_symmetry_multiplicity
 _atom_site_fract_x
 _atom_site_fract_y
 _atom_site_fract_z
 _atom_site_occupancy
  Hf  Hf0  1  0.440651  0.634605  0.693954  1
  Hf  Hf1  1  0.559349  0.253303  0.193954  1
  Hf  Hf2  1  0.749904  0.872568  0.622663  1
  Hf  Hf3  1  0.250096  0.872761  0.122663  1
  Hf  Hf4  1  0.059836  0.253482  0.693646  1
  Hf  Hf5  1  0.940164  0.633809  0.193646  1
  Si  Si6  1  0.250555  0.254026  0.503472  1
  Si  Si7  1  0.749445  0.252917  0.003472  1
  Tc  Tc8  1  0.500000  0.492136  0.992136  1
  Tc  Tc9  1  0.000000  0.492136  0.492136  1
  Tc  Tc10  1  0.118651  0.253305  0.132788  1
  Tc  Tc11  1  0.881349  0.014137  0.134654  1
  Tc  Tc12  1  0.379483  0.014137  0.632788  1
  Tc  Tc13  1  0.620517  0.253305  0.634654  1
  Sb  Sb14  1  0.333156  0.586567  0.253076  1
  Sb  Sb15  1  0.666844  0.919920  0.253410  1
  Sb  Sb16  1  0.166510  0.919920  0.753076  1
  Sb  Sb17  1  0.833490  0.586567  0.753410  1
