# generated using pymatgen
data_Nd4Pd3Rh
_symmetry_space_group_name_H-M   'P 1'
_cell_length_a   4.58418900
_cell_length_b   5.76063975
_cell_length_c   7.35537542
_cell_angle_alpha   89.97467056
_cell_angle_beta   90.00000000
_cell_angle_gamma   90.00000000
_symmetry_Int_Tables_number   1
_chemical_formula_structural   Nd4Pd3Rh
_chemical_formula_sum   'Nd4 Pd3 Rh1'
_cell_volume   194.23971552
_cell_formula_units_Z   1
loop_
 _symmetry_equiv_pos_site_id
 _symmetry_equiv_pos_as_xyz
  1  'x, y, z'
loop_
 _atom_site_type_symbol
 _atom_site_label
 _atom_site_symmetry_multiplicity
 _atom_site_fract_x
 _atom_site_fract_y
 _atom_site_fract_z
 _atom_site_occupancy
  Nd  Nd0  1  0.250000  0.362012  0.678684  1
  Nd  Nd1  1  0.250000  0.138762  0.184415  1
  Nd  Nd2  1  0.750000  0.646818  0.324176  1
  Nd  Nd3  1  0.750000  0.858696  0.810341  1
  Pd  Pd4  1  0.250000  0.650288  0.042602  1
  Pd  Pd5  1  0.750000  0.153983  0.454830  1
  Pd  Pd6  1  0.750000  0.350949  0.960105  1
  Rh  Rh7  1  0.250000  0.838492  0.544846  1
