# generated using pymatgen
data_Dy2Er6In3Ir
_symmetry_space_group_name_H-M   'P 1'
_cell_length_a   10.34965200
_cell_length_b   10.35296634
_cell_length_c   7.04455302
_cell_angle_alpha   89.99539001
_cell_angle_beta   90.00000000
_cell_angle_gamma   119.98940420
_symmetry_Int_Tables_number   1
_chemical_formula_structural   Dy2Er6In3Ir
_chemical_formula_sum   'Dy4 Er12 In6 Ir2'
_cell_volume   653.76396859
_cell_formula_units_Z   2
loop_
 _symmetry_equiv_pos_site_id
 _symmetry_equiv_pos_as_xyz
  1  'x, y, z'
loop_
 _atom_site_type_symbol
 _atom_site_label
 _atom_site_symmetry_multiplicity
 _atom_site_fract_x
 _atom_site_fract_y
 _atom_site_fract_z
 _atom_site_occupancy
  Dy  Dy0  1  0.533045  0.066089  0.792884  1
  Dy  Dy1  1  0.934229  0.467153  0.793060  1
  Dy  Dy2  1  0.532925  0.467153  0.793060  1
  Dy  Dy3  1  0.466727  0.933453  0.292960  1
  Er  Er4  1  0.067308  0.533643  0.293056  1
  Er  Er5  1  0.466335  0.533643  0.293056  1
  Er  Er6  1  0.823339  0.646678  0.498089  1
  Er  Er7  1  0.353043  0.176864  0.498306  1
  Er  Er8  1  0.823821  0.176864  0.498306  1
  Er  Er9  1  0.176577  0.353153  0.999501  1
  Er  Er10  1  0.646918  0.823234  0.999109  1
  Er  Er11  1  0.176315  0.823234  0.999109  1
  Er  Er12  1  0.666877  0.333753  0.175028  1
  Er  Er13  1  0.333111  0.666223  0.674707  1
  Er  Er14  1  0.999975  0.999950  0.778502  1
  Er  Er15  1  0.000034  0.000067  0.278632  1
  In  In16  1  0.837360  0.674722  0.040597  1
  In  In17  1  0.325360  0.162619  0.040295  1
  In  In18  1  0.837259  0.162619  0.040295  1
  In  In19  1  0.162851  0.325702  0.540071  1
  In  In20  1  0.674573  0.837050  0.540237  1
  In  In21  1  0.162478  0.837050  0.540237  1
  Ir  Ir22  1  0.666667  0.333333  0.568025  1
  Ir  Ir23  1  0.332875  0.665750  0.068782  1
