# generated using pymatgen
data_LiNd6Co16P12Ru
_symmetry_space_group_name_H-M   'P 1'
_cell_length_a   3.78153300
_cell_length_b   10.68779800
_cell_length_c   12.43601400
_cell_angle_alpha   90.00000000
_cell_angle_beta   90.00000000
_cell_angle_gamma   90.00000000
_symmetry_Int_Tables_number   1
_chemical_formula_structural   LiNd6Co16P12Ru
_chemical_formula_sum   'Li1 Nd6 Co16 P12 Ru1'
_cell_volume   502.61718556
_cell_formula_units_Z   1
loop_
 _symmetry_equiv_pos_site_id
 _symmetry_equiv_pos_as_xyz
  1  'x, y, z'
loop_
 _atom_site_type_symbol
 _atom_site_label
 _atom_site_symmetry_multiplicity
 _atom_site_fract_x
 _atom_site_fract_y
 _atom_site_fract_z
 _atom_site_occupancy
  Li  Li0  1  0.500000  0.500000  0.150744  1
  Nd  Nd1  1  0.000000  0.500000  0.521541  1
  Nd  Nd2  1  0.500000  0.000000  0.476163  1
  Nd  Nd3  1  0.500000  0.817715  0.206829  1
  Nd  Nd4  1  0.500000  0.182285  0.206829  1
  Nd  Nd5  1  0.000000  0.682229  0.793713  1
  Nd  Nd6  1  0.000000  0.317771  0.793713  1
  Co  Co7  1  0.500000  0.500000  0.705694  1
  Co  Co8  1  0.000000  0.000000  0.294484  1
  Co  Co9  1  0.000000  0.500000  0.986557  1
  Co  Co10  1  0.500000  0.000000  0.010467  1
  Co  Co11  1  0.500000  0.330735  0.995877  1
  Co  Co12  1  0.500000  0.669265  0.995877  1
  Co  Co13  1  0.000000  0.165650  0.005245  1
  Co  Co14  1  0.000000  0.834350  0.005245  1
  Co  Co15  1  0.500000  0.295728  0.432391  1
  Co  Co16  1  0.500000  0.704272  0.432391  1
  Co  Co17  1  0.000000  0.201658  0.571525  1
  Co  Co18  1  0.000000  0.798342  0.571525  1
  Co  Co19  1  0.500000  0.881949  0.709233  1
  Co  Co20  1  0.500000  0.118051  0.709233  1
  Co  Co21  1  0.000000  0.620333  0.293434  1
  Co  Co22  1  0.000000  0.379667  0.293434  1
  P  P23  1  0.500000  0.500000  0.888348  1
  P  P24  1  0.000000  0.000000  0.113628  1
  P  P25  1  0.500000  0.500000  0.341839  1
  P  P26  1  0.000000  0.000000  0.653974  1
  P  P27  1  0.500000  0.306569  0.614823  1
  P  P28  1  0.500000  0.693431  0.614823  1
  P  P29  1  0.000000  0.194040  0.386827  1
  P  P30  1  0.000000  0.805960  0.386827  1
  P  P31  1  0.500000  0.846947  0.894939  1
  P  P32  1  0.500000  0.153053  0.894939  1
  P  P33  1  0.000000  0.654590  0.102861  1
  P  P34  1  0.000000  0.345410  0.102861  1
  Ru  Ru35  1  0.000000  0.000000  0.841168  1
