# generated using pymatgen
data_Cs5Rb(InI4)6
_symmetry_space_group_name_H-M   'P 1'
_cell_length_a   15.35502549
_cell_length_b   15.39780584
_cell_length_c   15.36021265
_cell_angle_alpha   115.24147982
_cell_angle_beta   114.99249484
_cell_angle_gamma   115.00529187
_symmetry_Int_Tables_number   1
_chemical_formula_structural   Cs5Rb(InI4)6
_chemical_formula_sum   'Cs5 Rb1 In6 I24'
_cell_volume   2017.64155602
_cell_formula_units_Z   1
loop_
 _symmetry_equiv_pos_site_id
 _symmetry_equiv_pos_as_xyz
  1  'x, y, z'
loop_
 _atom_site_type_symbol
 _atom_site_label
 _atom_site_symmetry_multiplicity
 _atom_site_fract_x
 _atom_site_fract_y
 _atom_site_fract_z
 _atom_site_occupancy
  Cs  Cs0  1  0.877708  0.688503  0.094325  1
  Cs  Cs1  1  0.094126  0.878121  0.688577  1
  Cs  Cs2  1  0.688691  0.094399  0.877679  1
  Cs  Cs3  1  0.188549  0.377839  0.594668  1
  Cs  Cs4  1  0.594101  0.188253  0.377541  1
  Rb  Rb5  1  0.375574  0.592563  0.188702  1
  In  In6  1  0.863356  0.074919  0.679957  1
  In  In7  1  0.679520  0.862653  0.074134  1
  In  In8  1  0.075084  0.679908  0.863905  1
  In  In9  1  0.573903  0.363351  0.179723  1
  In  In10  1  0.179960  0.574041  0.362291  1
  In  In11  1  0.363021  0.179720  0.574288  1
  I  I12  1  0.964731  0.114676  0.904944  1
  I  I13  1  0.905025  0.964662  0.114886  1
  I  I14  1  0.115125  0.904767  0.965008  1
  I  I15  1  0.615410  0.465065  0.405839  1
  I  I16  1  0.404993  0.614474  0.459708  1
  I  I17  1  0.464646  0.404692  0.614843  1
  I  I18  1  0.071492  0.325206  0.782885  1
  I  I19  1  0.776413  0.067522  0.322585  1
  I  I20  1  0.322160  0.775156  0.067859  1
  I  I21  1  0.821917  0.566618  0.275754  1
  I  I22  1  0.275859  0.821472  0.566729  1
  I  I23  1  0.567327  0.276369  0.822433  1
  I  I24  1  0.620394  0.008119  0.550014  1
  I  I25  1  0.552464  0.622180  0.010517  1
  I  I26  1  0.010106  0.552312  0.621638  1
  I  I27  1  0.510049  0.122359  0.052229  1
  I  I28  1  0.054625  0.510329  0.121120  1
  I  I29  1  0.121513  0.052380  0.510097  1
  I  I30  1  0.790771  0.848944  0.475792  1
  I  I31  1  0.479709  0.796278  0.851558  1
  I  I32  1  0.852341  0.480230  0.796855  1
  I  I33  1  0.352505  0.299888  0.982739  1
  I  I34  1  0.981011  0.353055  0.297189  1
  I  I35  1  0.296617  0.979772  0.351789  1
