# generated using pymatgen
data_Sm2Pa(GaRh)3
_symmetry_space_group_name_H-M   'P 1'
_cell_length_a   7.32194283
_cell_length_b   7.43857721
_cell_length_c   3.80941400
_cell_angle_alpha   90.00000000
_cell_angle_beta   90.00000000
_cell_angle_gamma   120.51376622
_symmetry_Int_Tables_number   1
_chemical_formula_structural   Sm2Pa(GaRh)3
_chemical_formula_sum   'Sm2 Pa1 Ga3 Rh3'
_cell_volume   178.74474763
_cell_formula_units_Z   1
loop_
 _symmetry_equiv_pos_site_id
 _symmetry_equiv_pos_as_xyz
  1  'x, y, z'
loop_
 _atom_site_type_symbol
 _atom_site_label
 _atom_site_symmetry_multiplicity
 _atom_site_fract_x
 _atom_site_fract_y
 _atom_site_fract_z
 _atom_site_occupancy
  Sm  Sm0  1  0.407987  0.412075  0.500000  1
  Sm  Sm1  1  0.591988  0.004045  0.500000  1
  Pa  Pa2  1  0.999982  0.585816  0.500000  1
  Ga  Ga3  1  0.741505  0.749950  0.000000  1
  Ga  Ga4  1  0.258478  0.008418  0.000000  1
  Ga  Ga5  1  0.999995  0.235511  0.000000  1
  Rh  Rh6  1  0.704620  0.366046  0.000000  1
  Rh  Rh7  1  0.295387  0.661395  0.000000  1
  Rh  Rh8  1  0.000056  0.976745  0.500000  1
