# generated using pymatgen
data_Ce4TmAl2Os3
_symmetry_space_group_name_H-M   'P 1'
_cell_length_a   8.46454787
_cell_length_b   8.46697588
_cell_length_c   8.37239000
_cell_angle_alpha   109.47096731
_cell_angle_beta   109.52551437
_cell_angle_gamma   110.41910144
_symmetry_Int_Tables_number   1
_chemical_formula_structural   Ce4TmAl2Os3
_chemical_formula_sum   'Ce8 Tm2 Al4 Os6'
_cell_volume   456.08200473
_cell_formula_units_Z   2
loop_
 _symmetry_equiv_pos_site_id
 _symmetry_equiv_pos_as_xyz
  1  'x, y, z'
loop_
 _atom_site_type_symbol
 _atom_site_label
 _atom_site_symmetry_multiplicity
 _atom_site_fract_x
 _atom_site_fract_y
 _atom_site_fract_z
 _atom_site_occupancy
  Ce  Ce0  1  0.754706  0.315655  0.561364  1
  Ce  Ce1  1  0.561239  0.751274  0.309641  1
  Ce  Ce2  1  0.710848  0.501728  0.998501  1
  Ce  Ce3  1  0.009781  0.719118  0.511731  1
  Ce  Ce4  1  0.508212  0.002606  0.715388  1
  Ce  Ce5  1  0.244296  0.185755  0.936991  1
  Ce  Ce6  1  0.938124  0.247957  0.185909  1
  Ce  Ce7  1  0.185375  0.936855  0.245211  1
  Tm  Tm8  1  0.770340  0.775323  0.774933  1
  Tm  Tm9  1  0.318951  0.567150  0.751848  1
  Al  Al10  1  0.400399  0.398885  0.403631  1
  Al  Al11  1  0.100649  0.501913  0.998626  1
  Al  Al12  1  0.004405  0.102830  0.502198  1
  Al  Al13  1  0.495008  0.996668  0.093491  1
  Os  Os14  1  0.877671  0.125747  0.749927  1
  Os  Os15  1  0.744743  0.878439  0.126220  1
  Os  Os16  1  0.117074  0.752736  0.882364  1
  Os  Os17  1  0.256993  0.623233  0.378513  1
  Os  Os18  1  0.375820  0.239796  0.621358  1
  Os  Os19  1  0.625367  0.376330  0.252155  1
