# generated using pymatgen
data_Rb4DyUBr12
_symmetry_space_group_name_H-M   'P 1'
_cell_length_a   7.89645501
_cell_length_b   7.89645501
_cell_length_c   11.75239700
_cell_angle_alpha   90.00000000
_cell_angle_beta   90.00000000
_cell_angle_gamma   90.00000000
_symmetry_Int_Tables_number   1
_chemical_formula_structural   Rb4DyUBr12
_chemical_formula_sum   'Rb4 Dy1 U1 Br12'
_cell_volume   732.80898191
_cell_formula_units_Z   1
loop_
 _symmetry_equiv_pos_site_id
 _symmetry_equiv_pos_as_xyz
  1  'x, y, z'
loop_
 _atom_site_type_symbol
 _atom_site_label
 _atom_site_symmetry_multiplicity
 _atom_site_fract_x
 _atom_site_fract_y
 _atom_site_fract_z
 _atom_site_occupancy
  Rb  Rb0  1  0.500000  0.000000  0.799808  1
  Rb  Rb1  1  0.500000  0.000000  0.200192  1
  Rb  Rb2  1  0.000000  0.500000  0.200192  1
  Rb  Rb3  1  0.000000  0.500000  0.799808  1
  Dy  Dy4  1  0.000000  0.000000  0.000000  1
  U  U5  1  0.500000  0.500000  0.500000  1
  Br  Br6  1  0.748434  0.250497  0.000000  1
  Br  Br7  1  0.251566  0.749503  0.000000  1
  Br  Br8  1  0.500000  0.500000  0.268540  1
  Br  Br9  1  0.319180  0.210816  0.500000  1
  Br  Br10  1  0.250497  0.251566  0.000000  1
  Br  Br11  1  0.789184  0.319180  0.500000  1
  Br  Br12  1  0.000000  0.000000  0.238378  1
  Br  Br13  1  0.680820  0.789184  0.500000  1
  Br  Br14  1  0.210816  0.680820  0.500000  1
  Br  Br15  1  0.500000  0.500000  0.731460  1
  Br  Br16  1  0.749503  0.748434  0.000000  1
  Br  Br17  1  0.000000  0.000000  0.761622  1
