# generated using pymatgen
data_Cs(CrS)3
_symmetry_space_group_name_H-M   'P 1'
_cell_length_a   9.27405200
_cell_length_b   9.27405182
_cell_length_c   4.10679300
_cell_angle_alpha   90.00000000
_cell_angle_beta   90.00000000
_cell_angle_gamma   119.99999350
_symmetry_Int_Tables_number   1
_chemical_formula_structural   Cs(CrS)3
_chemical_formula_sum   'Cs2 Cr6 S6'
_cell_volume   305.89509858
_cell_formula_units_Z   2
loop_
 _symmetry_equiv_pos_site_id
 _symmetry_equiv_pos_as_xyz
  1  'x, y, z'
loop_
 _atom_site_type_symbol
 _atom_site_label
 _atom_site_symmetry_multiplicity
 _atom_site_fract_x
 _atom_site_fract_y
 _atom_site_fract_z
 _atom_site_occupancy
  Cs  Cs0  1  0.333333  0.666667  0.250000  1
  Cs  Cs1  1  0.666667  0.333333  0.750000  1
  Cr  Cr2  1  0.139353  0.162672  0.250000  1
  Cr  Cr3  1  0.860647  0.837328  0.750000  1
  Cr  Cr4  1  0.837328  0.976681  0.250000  1
  Cr  Cr5  1  0.023319  0.860647  0.250000  1
  Cr  Cr6  1  0.976681  0.139353  0.750000  1
  Cr  Cr7  1  0.162672  0.023319  0.750000  1
  S  S8  1  0.953691  0.265387  0.250000  1
  S  S9  1  0.046309  0.734613  0.750000  1
  S  S10  1  0.734613  0.688304  0.250000  1
  S  S11  1  0.311696  0.046309  0.250000  1
  S  S12  1  0.688304  0.953691  0.750000  1
  S  S13  1  0.265387  0.311696  0.750000  1
