# generated using pymatgen
data_CrCdTeO6
_symmetry_space_group_name_H-M   'P 1'
_cell_length_a   5.22653904
_cell_length_b   8.84551750
_cell_length_c   9.84675294
_cell_angle_alpha   89.97383613
_cell_angle_beta   89.12387198
_cell_angle_gamma   90.05081931
_symmetry_Int_Tables_number   1
_chemical_formula_structural   CrCdTeO6
_chemical_formula_sum   'Cr4 Cd4 Te4 O24'
_cell_volume   455.17614247
_cell_formula_units_Z   4
loop_
 _symmetry_equiv_pos_site_id
 _symmetry_equiv_pos_as_xyz
  1  'x, y, z'
loop_
 _atom_site_type_symbol
 _atom_site_label
 _atom_site_symmetry_multiplicity
 _atom_site_fract_x
 _atom_site_fract_y
 _atom_site_fract_z
 _atom_site_occupancy
  Cr  Cr0  1  0.500743  0.826748  0.749789  1
  Cr  Cr1  1  0.499257  0.173252  0.250211  1
  Cr  Cr2  1  0.000743  0.326748  0.749789  1
  Cr  Cr3  1  0.999257  0.673252  0.250211  1
  Cd  Cd4  1  0.000000  0.000000  0.500000  1
  Cd  Cd5  1  0.500000  0.500000  0.500000  1
  Cd  Cd6  1  0.000000  0.000000  0.000000  1
  Cd  Cd7  1  0.500000  0.500000  0.000000  1
  Te  Te8  1  0.500468  0.168616  0.750118  1
  Te  Te9  1  0.000468  0.668616  0.750118  1
  Te  Te10  1  0.999532  0.331384  0.249882  1
  Te  Te11  1  0.499532  0.831384  0.249882  1
  O  O12  1  0.630819  0.000912  0.642370  1
  O  O13  1  0.130819  0.500912  0.642370  1
  O  O14  1  0.684388  0.315770  0.639977  1
  O  O15  1  0.184388  0.815770  0.639977  1
  O  O16  1  0.184471  0.189712  0.640621  1
  O  O17  1  0.684471  0.689712  0.640621  1
  O  O18  1  0.183863  0.184274  0.140077  1
  O  O19  1  0.683863  0.684274  0.140077  1
  O  O20  1  0.130440  0.499216  0.142477  1
  O  O21  1  0.630440  0.999216  0.142477  1
  O  O22  1  0.683893  0.310070  0.140699  1
  O  O23  1  0.183893  0.810070  0.140699  1
  O  O24  1  0.869181  0.499088  0.357630  1
  O  O25  1  0.369181  0.999088  0.357630  1
  O  O26  1  0.815612  0.184230  0.360023  1
  O  O27  1  0.315612  0.684230  0.360023  1
  O  O28  1  0.315529  0.310288  0.359379  1
  O  O29  1  0.815529  0.810288  0.359379  1
  O  O30  1  0.316137  0.315726  0.859923  1
  O  O31  1  0.816137  0.815726  0.859923  1
  O  O32  1  0.369560  0.000784  0.857523  1
  O  O33  1  0.869560  0.500784  0.857523  1
  O  O34  1  0.816107  0.189930  0.859301  1
  O  O35  1  0.316107  0.689930  0.859301  1
