# generated using pymatgen
data_Hf11Th8Si16Ag
_symmetry_space_group_name_H-M   'P 1'
_cell_length_a   7.40859965
_cell_length_b   7.40859927
_cell_length_c   13.52599920
_cell_angle_alpha   89.65355549
_cell_angle_beta   90.34644666
_cell_angle_gamma   89.80284863
_symmetry_Int_Tables_number   1
_chemical_formula_structural   Hf11Th8Si16Ag
_chemical_formula_sum   'Hf11 Th8 Si16 Ag1'
_cell_volume   742.37456452
_cell_formula_units_Z   1
loop_
 _symmetry_equiv_pos_site_id
 _symmetry_equiv_pos_as_xyz
  1  'x, y, z'
loop_
 _atom_site_type_symbol
 _atom_site_label
 _atom_site_symmetry_multiplicity
 _atom_site_fract_x
 _atom_site_fract_y
 _atom_site_fract_z
 _atom_site_occupancy
  Hf  Hf0  1  0.825883  0.825883  0.500000  1
  Hf  Hf1  1  0.324251  0.675556  0.249628  1
  Hf  Hf2  1  0.675556  0.324251  0.750372  1
  Hf  Hf3  1  0.150326  0.997896  0.375070  1
  Hf  Hf4  1  0.853222  0.999429  0.878764  1
  Hf  Hf5  1  0.503617  0.652125  0.626630  1
  Hf  Hf6  1  0.351209  0.489147  0.878314  1
  Hf  Hf7  1  0.489147  0.351209  0.121686  1
  Hf  Hf8  1  0.652125  0.503617  0.373370  1
  Hf  Hf9  1  0.997896  0.150326  0.624930  1
  Hf  Hf10  1  0.999429  0.853222  0.121236  1
  Th  Th11  1  0.998072  0.344576  0.213459  1
  Th  Th12  1  0.005121  0.656819  0.716186  1
  Th  Th13  1  0.155185  0.497078  0.466000  1
  Th  Th14  1  0.497519  0.847828  0.033444  1
  Th  Th15  1  0.847828  0.497519  0.966556  1
  Th  Th16  1  0.497078  0.155185  0.534000  1
  Th  Th17  1  0.344576  0.998072  0.786541  1
  Th  Th18  1  0.656819  0.005121  0.283814  1
  Si  Si19  1  0.365520  0.299226  0.315423  1
  Si  Si20  1  0.634370  0.702028  0.818071  1
  Si  Si21  1  0.204075  0.865684  0.566854  1
  Si  Si22  1  0.132186  0.778646  0.929388  1
  Si  Si23  1  0.778646  0.132186  0.070612  1
  Si  Si24  1  0.865684  0.204075  0.433146  1
  Si  Si25  1  0.299226  0.365520  0.684577  1
  Si  Si26  1  0.702028  0.634370  0.181929  1
  Si  Si27  1  0.290549  0.046697  0.189408  1
  Si  Si28  1  0.709869  0.952859  0.686993  1
  Si  Si29  1  0.453301  0.790275  0.435424  1
  Si  Si30  1  0.210766  0.565030  0.065751  1
  Si  Si31  1  0.565030  0.210766  0.934249  1
  Si  Si32  1  0.790275  0.453301  0.564576  1
  Si  Si33  1  0.046697  0.290549  0.810592  1
  Si  Si34  1  0.952859  0.709869  0.313007  1
  Ag  Ag35  1  0.174060  0.174060  0.000000  1
