# generated using pymatgen
data_DySc3(TiIr)4
_symmetry_space_group_name_H-M   'P 1'
_cell_length_a   4.21887400
_cell_length_b   6.71926633
_cell_length_c   7.90024800
_cell_angle_alpha   89.88165245
_cell_angle_beta   90.00000000
_cell_angle_gamma   90.00000000
_symmetry_Int_Tables_number   1
_chemical_formula_structural   DySc3(TiIr)4
_chemical_formula_sum   'Dy1 Sc3 Ti4 Ir4'
_cell_volume   223.95368297
_cell_formula_units_Z   1
loop_
 _symmetry_equiv_pos_site_id
 _symmetry_equiv_pos_as_xyz
  1  'x, y, z'
loop_
 _atom_site_type_symbol
 _atom_site_label
 _atom_site_symmetry_multiplicity
 _atom_site_fract_x
 _atom_site_fract_y
 _atom_site_fract_z
 _atom_site_occupancy
  Dy  Dy0  1  0.250000  0.985955  0.317823  1
  Sc  Sc1  1  0.250000  0.484375  0.178335  1
  Sc  Sc2  1  0.750000  0.016638  0.684008  1
  Sc  Sc3  1  0.750000  0.515669  0.819899  1
  Ti  Ti4  1  0.250000  0.356215  0.574536  1
  Ti  Ti5  1  0.250000  0.854285  0.924885  1
  Ti  Ti6  1  0.750000  0.641214  0.431848  1
  Ti  Ti7  1  0.750000  0.146845  0.063597  1
  Ir  Ir8  1  0.250000  0.232685  0.901396  1
  Ir  Ir9  1  0.250000  0.727855  0.603242  1
  Ir  Ir10  1  0.750000  0.765549  0.095059  1
  Ir  Ir11  1  0.750000  0.272713  0.405372  1
