# generated using pymatgen
data_YHoU2(InIr2)2
_symmetry_space_group_name_H-M   'P 1'
_cell_length_a   7.69351344
_cell_length_b   7.69351308
_cell_length_c   3.57950100
_cell_angle_alpha   90.00000000
_cell_angle_beta   90.00000000
_cell_angle_gamma   85.12030108
_symmetry_Int_Tables_number   1
_chemical_formula_structural   YHoU2(InIr2)2
_chemical_formula_sum   'Y1 Ho1 U2 In2 Ir4'
_cell_volume   211.10326050
_cell_formula_units_Z   1
loop_
 _symmetry_equiv_pos_site_id
 _symmetry_equiv_pos_as_xyz
  1  'x, y, z'
loop_
 _atom_site_type_symbol
 _atom_site_label
 _atom_site_symmetry_multiplicity
 _atom_site_fract_x
 _atom_site_fract_y
 _atom_site_fract_z
 _atom_site_occupancy
  Y  Y0  1  0.670222  0.170222  0.500000  1
  Ho  Ho1  1  0.329897  0.829897  0.500000  1
  U  U2  1  0.167932  0.332149  0.500000  1
  U  U3  1  0.832149  0.667932  0.500000  1
  In  In4  1  0.499829  0.500274  0.000000  1
  In  In5  1  0.000274  0.999829  0.000000  1
  Ir  Ir6  1  0.124519  0.624519  0.000000  1
  Ir  Ir7  1  0.877285  0.377285  0.000000  1
  Ir  Ir8  1  0.644682  0.853211  0.000000  1
  Ir  Ir9  1  0.353211  0.144682  0.000000  1
