# generated using pymatgen
data_TbNd3(P3Rh4)2
_symmetry_space_group_name_H-M   'P 1'
_cell_length_a   4.02182700
_cell_length_b   11.42875100
_cell_length_c   13.17225200
_cell_angle_alpha   90.00000000
_cell_angle_beta   90.00000000
_cell_angle_gamma   90.00000000
_symmetry_Int_Tables_number   1
_chemical_formula_structural   TbNd3(P3Rh4)2
_chemical_formula_sum   'Tb2 Nd6 P12 Rh16'
_cell_volume   605.45544158
_cell_formula_units_Z   2
loop_
 _symmetry_equiv_pos_site_id
 _symmetry_equiv_pos_as_xyz
  1  'x, y, z'
loop_
 _atom_site_type_symbol
 _atom_site_label
 _atom_site_symmetry_multiplicity
 _atom_site_fract_x
 _atom_site_fract_y
 _atom_site_fract_z
 _atom_site_occupancy
  Tb  Tb0  1  0.500000  0.500000  0.159148  1
  Tb  Tb1  1  0.000000  0.000000  0.840852  1
  Nd  Nd2  1  0.000000  0.500000  0.523474  1
  Nd  Nd3  1  0.500000  0.000000  0.476526  1
  Nd  Nd4  1  0.500000  0.822041  0.205142  1
  Nd  Nd5  1  0.500000  0.177959  0.205142  1
  Nd  Nd6  1  0.000000  0.677959  0.794858  1
  Nd  Nd7  1  0.000000  0.322041  0.794858  1
  P  P8  1  0.500000  0.500000  0.883399  1
  P  P9  1  0.000000  0.000000  0.116601  1
  P  P10  1  0.500000  0.500000  0.363099  1
  P  P11  1  0.000000  0.000000  0.636901  1
  P  P12  1  0.500000  0.308919  0.614870  1
  P  P13  1  0.500000  0.691081  0.614870  1
  P  P14  1  0.000000  0.191081  0.385130  1
  P  P15  1  0.000000  0.808919  0.385130  1
  P  P16  1  0.500000  0.838769  0.891416  1
  P  P17  1  0.500000  0.161231  0.891416  1
  P  P18  1  0.000000  0.661231  0.108584  1
  P  P19  1  0.000000  0.338769  0.108584  1
  Rh  Rh20  1  0.500000  0.500000  0.702910  1
  Rh  Rh21  1  0.000000  0.000000  0.297090  1
  Rh  Rh22  1  0.000000  0.500000  0.984508  1
  Rh  Rh23  1  0.500000  0.000000  0.015492  1
  Rh  Rh24  1  0.500000  0.330985  0.991141  1
  Rh  Rh25  1  0.500000  0.669015  0.991141  1
  Rh  Rh26  1  0.000000  0.169015  0.008859  1
  Rh  Rh27  1  0.000000  0.830985  0.008859  1
  Rh  Rh28  1  0.500000  0.290523  0.433058  1
  Rh  Rh29  1  0.500000  0.709477  0.433058  1
  Rh  Rh30  1  0.000000  0.209477  0.566942  1
  Rh  Rh31  1  0.000000  0.790523  0.566942  1
  Rh  Rh32  1  0.500000  0.874268  0.703118  1
  Rh  Rh33  1  0.500000  0.125732  0.703118  1
  Rh  Rh34  1  0.000000  0.625732  0.296882  1
  Rh  Rh35  1  0.000000  0.374268  0.296882  1
