# generated using pymatgen
data_Y20Si15Pd
_symmetry_space_group_name_H-M   'P 1'
_cell_length_a   7.46868091
_cell_length_b   7.69599859
_cell_length_c   14.65373170
_cell_angle_alpha   90.20652402
_cell_angle_beta   90.33041252
_cell_angle_gamma   90.13034321
_symmetry_Int_Tables_number   1
_chemical_formula_structural   Y20Si15Pd
_chemical_formula_sum   'Y20 Si15 Pd1'
_cell_volume   842.25952877
_cell_formula_units_Z   1
loop_
 _symmetry_equiv_pos_site_id
 _symmetry_equiv_pos_as_xyz
  1  'x, y, z'
loop_
 _atom_site_type_symbol
 _atom_site_label
 _atom_site_symmetry_multiplicity
 _atom_site_fract_x
 _atom_site_fract_y
 _atom_site_fract_z
 _atom_site_occupancy
  Y  Y0  1  0.680974  0.171934  0.620686  1
  Y  Y1  1  0.182003  0.321491  0.877095  1
  Y  Y2  1  0.319181  0.819721  0.122087  1
  Y  Y3  1  0.820940  0.681645  0.379337  1
  Y  Y4  1  0.320410  0.824068  0.378036  1
  Y  Y5  1  0.817894  0.679665  0.122513  1
  Y  Y6  1  0.680674  0.180029  0.877514  1
  Y  Y7  1  0.179041  0.320788  0.622850  1
  Y  Y8  1  0.526639  0.680393  0.599653  1
  Y  Y9  1  0.028303  0.817418  0.901580  1
  Y  Y10  1  0.470927  0.317645  0.099023  1
  Y  Y11  1  0.973914  0.180485  0.399480  1
  Y  Y12  1  0.470916  0.319464  0.400513  1
  Y  Y13  1  0.970900  0.182496  0.098759  1
  Y  Y14  1  0.529547  0.682261  0.900778  1
  Y  Y15  1  0.027486  0.818048  0.599508  1
  Y  Y16  1  0.851104  0.508869  0.749510  1
  Y  Y17  1  0.350428  0.989192  0.748421  1
  Y  Y18  1  0.149591  0.488637  0.250482  1
  Y  Y19  1  0.651740  0.010980  0.253172  1
  Si  Si20  1  0.145610  0.528239  0.040112  1
  Si  Si21  1  0.353575  0.029195  0.960139  1
  Si  Si22  1  0.852956  0.472052  0.541369  1
  Si  Si23  1  0.345774  0.027871  0.541665  1
  Si  Si24  1  0.854923  0.471566  0.959685  1
  Si  Si25  1  0.644769  0.971527  0.039481  1
  Si  Si26  1  0.146843  0.529297  0.460153  1
  Si  Si27  1  0.478059  0.394885  0.749866  1
  Si  Si28  1  0.976221  0.104229  0.751388  1
  Si  Si29  1  0.523293  0.604891  0.248916  1
  Si  Si30  1  0.025580  0.895171  0.247892  1
  Si  Si31  1  0.734655  0.872229  0.751414  1
  Si  Si32  1  0.233751  0.626657  0.750789  1
  Si  Si33  1  0.267157  0.126405  0.247551  1
  Si  Si34  1  0.766727  0.375258  0.249110  1
  Pd  Pd35  1  0.647494  0.975302  0.459474  1
