# generated using pymatgen
data_Zr2CdCoNi
_symmetry_space_group_name_H-M   'P 1'
_cell_length_a   7.29876200
_cell_length_b   7.29281400
_cell_length_c   3.24872800
_cell_angle_alpha   90.00000000
_cell_angle_beta   90.00000000
_cell_angle_gamma   90.00000000
_symmetry_Int_Tables_number   1
_chemical_formula_structural   Zr2CdCoNi
_chemical_formula_sum   'Zr4 Cd2 Co2 Ni2'
_cell_volume   172.92496284
_cell_formula_units_Z   2
loop_
 _symmetry_equiv_pos_site_id
 _symmetry_equiv_pos_as_xyz
  1  'x, y, z'
loop_
 _atom_site_type_symbol
 _atom_site_label
 _atom_site_symmetry_multiplicity
 _atom_site_fract_x
 _atom_site_fract_y
 _atom_site_fract_z
 _atom_site_occupancy
  Zr  Zr0  1  0.333878  0.176122  0.499999  1
  Zr  Zr1  1  0.833878  0.323879  0.499999  1
  Zr  Zr2  1  0.168967  0.656496  0.499999  1
  Zr  Zr3  1  0.668967  0.843505  0.499999  1
  Cd  Cd4  1  0.005634  0.995766  0.000000  1
  Cd  Cd5  1  0.505634  0.504234  0.000000  1
  Co  Co6  1  0.620105  0.123379  0.000000  1
  Co  Co7  1  0.120104  0.376621  0.000000  1
  Ni  Ni8  1  0.871417  0.626061  0.000000  1
  Ni  Ni9  1  0.371417  0.873940  0.000000  1
