# generated using pymatgen
data_Tm12Ni5Sn
_symmetry_space_group_name_H-M   'P 1'
_cell_length_a   8.19280847
_cell_length_b   8.19280777
_cell_length_c   8.19280864
_cell_angle_alpha   106.88983512
_cell_angle_beta   109.87809626
_cell_angle_gamma   111.68155212
_symmetry_Int_Tables_number   1
_chemical_formula_structural   Tm12Ni5Sn
_chemical_formula_sum   'Tm12 Ni5 Sn1'
_cell_volume   422.57676430
_cell_formula_units_Z   1
loop_
 _symmetry_equiv_pos_site_id
 _symmetry_equiv_pos_as_xyz
  1  'x, y, z'
loop_
 _atom_site_type_symbol
 _atom_site_label
 _atom_site_symmetry_multiplicity
 _atom_site_fract_x
 _atom_site_fract_y
 _atom_site_fract_z
 _atom_site_occupancy
  Tm  Tm0  1  0.476395  0.294026  0.182370  1
  Tm  Tm1  1  0.111657  0.294026  0.817630  1
  Tm  Tm2  1  0.888343  0.705974  0.182370  1
  Tm  Tm3  1  0.523605  0.705974  0.817630  1
  Tm  Tm4  1  0.305598  0.627641  0.322044  1
  Tm  Tm5  1  0.305598  0.983555  0.677956  1
  Tm  Tm6  1  0.694402  0.372359  0.677956  1
  Tm  Tm7  1  0.694402  0.016445  0.322044  1
  Tm  Tm8  1  0.191340  0.212508  0.403848  1
  Tm  Tm9  1  0.808660  0.787492  0.596152  1
  Tm  Tm10  1  0.191340  0.787492  0.978831  1
  Tm  Tm11  1  0.808660  0.212508  0.021169  1
  Ni  Ni12  1  0.500000  0.624869  0.124869  1
  Ni  Ni13  1  0.500000  0.375131  0.875131  1
  Ni  Ni14  1  0.363314  0.000000  0.363314  1
  Ni  Ni15  1  0.636686  0.000000  0.636686  1
  Ni  Ni16  1  0.000000  0.000000  0.000000  1
  Sn  Sn17  1  0.000000  0.500000  0.500000  1
