# generated using pymatgen
data_ZnCo20ReB6Sb
_symmetry_space_group_name_H-M   'P 1'
_cell_length_a   7.42193827
_cell_length_b   7.42111228
_cell_length_c   7.42097202
_cell_angle_alpha   59.99593103
_cell_angle_beta   59.99693349
_cell_angle_gamma   59.99882923
_symmetry_Int_Tables_number   1
_chemical_formula_structural   ZnCo20ReB6Sb
_chemical_formula_sum   'Zn1 Co20 Re1 B6 Sb1'
_cell_volume   289.00467742
_cell_formula_units_Z   1
loop_
 _symmetry_equiv_pos_site_id
 _symmetry_equiv_pos_as_xyz
  1  'x, y, z'
loop_
 _atom_site_type_symbol
 _atom_site_label
 _atom_site_symmetry_multiplicity
 _atom_site_fract_x
 _atom_site_fract_y
 _atom_site_fract_z
 _atom_site_occupancy
  Zn  Zn0  1  0.000015  0.999957  0.000013  1
  Co  Co1  1  0.615420  0.615370  0.153894  1
  Co  Co2  1  0.615311  0.153983  0.615413  1
  Co  Co3  1  0.153977  0.615302  0.615490  1
  Co  Co4  1  0.615239  0.615329  0.615379  1
  Co  Co5  1  0.380554  0.380505  0.858361  1
  Co  Co6  1  0.380595  0.858192  0.380528  1
  Co  Co7  1  0.858317  0.380563  0.380523  1
  Co  Co8  1  0.380583  0.380633  0.380536  1
  Co  Co9  1  0.003412  0.003465  0.337240  1
  Co  Co10  1  0.655842  0.003453  0.337302  1
  Co  Co11  1  0.003377  0.655948  0.337280  1
  Co  Co12  1  0.655888  0.337235  0.003458  1
  Co  Co13  1  0.003437  0.337225  0.003459  1
  Co  Co14  1  0.003484  0.337218  0.655841  1
  Co  Co15  1  0.337212  0.655879  0.003441  1
  Co  Co16  1  0.337222  0.003477  0.655813  1
  Co  Co17  1  0.337218  0.003466  0.003442  1
  Co  Co18  1  0.003535  0.003527  0.655799  1
  Co  Co19  1  0.003447  0.655920  0.003422  1
  Co  Co20  1  0.655791  0.003514  0.003499  1
  Re  Re21  1  0.249963  0.249892  0.250205  1
  B  B22  1  0.722894  0.722872  0.277187  1
  B  B23  1  0.277097  0.722785  0.277224  1
  B  B24  1  0.722800  0.277127  0.277153  1
  B  B25  1  0.277092  0.277143  0.722770  1
  B  B26  1  0.722932  0.277189  0.722819  1
  B  B27  1  0.277178  0.722882  0.722779  1
  Sb  Sb28  1  0.750166  0.749947  0.749730  1
