# generated using pymatgen
data_Er6TcB14Os
_symmetry_space_group_name_H-M   'P 1'
_cell_length_a   7.99936252
_cell_length_b   7.99936254
_cell_length_c   9.27871300
_cell_angle_alpha   90.00000000
_cell_angle_beta   90.00000000
_cell_angle_gamma   154.66329118
_symmetry_Int_Tables_number   1
_chemical_formula_structural   Er6TcB14Os
_chemical_formula_sum   'Er6 Tc1 B14 Os1'
_cell_volume   254.08460417
_cell_formula_units_Z   1
loop_
 _symmetry_equiv_pos_site_id
 _symmetry_equiv_pos_as_xyz
  1  'x, y, z'
loop_
 _atom_site_type_symbol
 _atom_site_label
 _atom_site_symmetry_multiplicity
 _atom_site_fract_x
 _atom_site_fract_y
 _atom_site_fract_z
 _atom_site_occupancy
  Er  Er0  1  0.756321  0.243679  0.250000  1
  Er  Er1  1  0.242850  0.757150  0.750000  1
  Er  Er2  1  0.894437  0.105563  0.561312  1
  Er  Er3  1  0.105641  0.894359  0.440734  1
  Er  Er4  1  0.105641  0.894359  0.059266  1
  Er  Er5  1  0.894437  0.105563  0.938688  1
  Tc  Tc6  1  0.052652  0.947348  0.750000  1
  B  B7  1  0.544597  0.455403  0.250000  1
  B  B8  1  0.455249  0.544751  0.750000  1
  B  B9  1  0.520216  0.479784  0.904855  1
  B  B10  1  0.479822  0.520178  0.095597  1
  B  B11  1  0.479822  0.520178  0.404403  1
  B  B12  1  0.520216  0.479784  0.595145  1
  B  B13  1  0.632211  0.367789  0.849104  1
  B  B14  1  0.368018  0.631982  0.150751  1
  B  B15  1  0.727729  0.272271  0.966309  1
  B  B16  1  0.272916  0.727084  0.034827  1
  B  B17  1  0.272916  0.727084  0.465173  1
  B  B18  1  0.727729  0.272271  0.533691  1
  B  B19  1  0.632211  0.367789  0.650896  1
  B  B20  1  0.368018  0.631982  0.349249  1
  Os  Os21  1  0.946354  0.053646  0.250000  1
