# generated using pymatgen
data_Hf5U3(NiAs)12
_symmetry_space_group_name_H-M   'P 1'
_cell_length_a   3.76597100
_cell_length_b   10.42236981
_cell_length_c   12.65476500
_cell_angle_alpha   90.08253777
_cell_angle_beta   90.00000000
_cell_angle_gamma   90.00000000
_symmetry_Int_Tables_number   1
_chemical_formula_structural   Hf5U3(NiAs)12
_chemical_formula_sum   'Hf5 U3 Ni12 As12'
_cell_volume   496.70334477
_cell_formula_units_Z   1
loop_
 _symmetry_equiv_pos_site_id
 _symmetry_equiv_pos_as_xyz
  1  'x, y, z'
loop_
 _atom_site_type_symbol
 _atom_site_label
 _atom_site_symmetry_multiplicity
 _atom_site_fract_x
 _atom_site_fract_y
 _atom_site_fract_z
 _atom_site_occupancy
  Hf  Hf0  1  0.250000  0.333566  0.993002  1
  Hf  Hf1  1  0.250000  0.170739  0.498206  1
  Hf  Hf2  1  0.750000  0.666498  0.001839  1
  Hf  Hf3  1  0.750000  0.830681  0.505001  1
  Hf  Hf4  1  0.250000  0.427703  0.710239  1
  U  U5  1  0.250000  0.069111  0.210638  1
  U  U6  1  0.750000  0.568684  0.288966  1
  U  U7  1  0.750000  0.931075  0.790454  1
  Ni  Ni8  1  0.250000  0.898094  0.986257  1
  Ni  Ni9  1  0.250000  0.599433  0.489736  1
  Ni  Ni10  1  0.750000  0.101619  0.012623  1
  Ni  Ni11  1  0.750000  0.400462  0.516730  1
  Ni  Ni12  1  0.250000  0.141118  0.715447  1
  Ni  Ni13  1  0.250000  0.362828  0.213735  1
  Ni  Ni14  1  0.750000  0.863303  0.286102  1
  Ni  Ni15  1  0.750000  0.633325  0.782316  1
  Ni  Ni16  1  0.250000  0.774263  0.163724  1
  Ni  Ni17  1  0.250000  0.724401  0.665127  1
  Ni  Ni18  1  0.750000  0.226115  0.835097  1
  Ni  Ni19  1  0.750000  0.275424  0.336260  1
  As  As20  1  0.250000  0.101245  0.900512  1
  As  As21  1  0.250000  0.399461  0.399805  1
  As  As22  1  0.750000  0.898470  0.099800  1
  As  As23  1  0.750000  0.599266  0.601953  1
  As  As24  1  0.250000  0.734484  0.856558  1
  As  As25  1  0.250000  0.762408  0.358196  1
  As  As26  1  0.750000  0.264709  0.141709  1
  As  As27  1  0.750000  0.240213  0.645259  1
  As  As28  1  0.250000  0.554036  0.117430  1
  As  As29  1  0.250000  0.946725  0.619769  1
  As  As30  1  0.750000  0.445517  0.874757  1
  As  As31  1  0.750000  0.055025  0.382752  1
