# generated using pymatgen
data_Cs2RbLuAs2
_symmetry_space_group_name_H-M   'P 1'
_cell_length_a   9.97103036
_cell_length_b   9.97102992
_cell_length_c   9.97103040
_cell_angle_alpha   130.47442739
_cell_angle_beta   136.95453548
_cell_angle_gamma   67.67122161
_symmetry_Int_Tables_number   1
_chemical_formula_structural   Cs2RbLuAs2
_chemical_formula_sum   'Cs4 Rb2 Lu2 As4'
_cell_volume   506.14639793
_cell_formula_units_Z   2
loop_
 _symmetry_equiv_pos_site_id
 _symmetry_equiv_pos_as_xyz
  1  'x, y, z'
loop_
 _atom_site_type_symbol
 _atom_site_label
 _atom_site_symmetry_multiplicity
 _atom_site_fract_x
 _atom_site_fract_y
 _atom_site_fract_z
 _atom_site_occupancy
  Cs  Cs0  1  0.684765  0.464979  0.780215  1
  Cs  Cs1  1  0.815235  0.095450  0.280215  1
  Cs  Cs2  1  0.184765  0.904550  0.719785  1
  Cs  Cs3  1  0.315235  0.535021  0.219785  1
  Rb  Rb4  1  0.750000  0.000000  0.750000  1
  Rb  Rb5  1  0.250000  0.000000  0.250000  1
  Lu  Lu6  1  0.250000  0.500000  0.750000  1
  Lu  Lu7  1  0.750000  0.500000  0.250000  1
  As  As8  1  0.410336  0.225759  0.815422  1
  As  As9  1  0.589664  0.774241  0.184578  1
  As  As10  1  0.089664  0.405086  0.315422  1
  As  As11  1  0.910336  0.594914  0.684578  1
