# generated using pymatgen
data_CaTb3Sb6Rh7
_symmetry_space_group_name_H-M   'P 1'
_cell_length_a   7.64235779
_cell_length_b   7.64235916
_cell_length_c   7.61084600
_cell_angle_alpha   109.38771482
_cell_angle_beta   109.38771844
_cell_angle_gamma   109.55459369
_symmetry_Int_Tables_number   1
_chemical_formula_structural   CaTb3Sb6Rh7
_chemical_formula_sum   'Ca1 Tb3 Sb6 Rh7'
_cell_volume   342.54086375
_cell_formula_units_Z   1
loop_
 _symmetry_equiv_pos_site_id
 _symmetry_equiv_pos_as_xyz
  1  'x, y, z'
loop_
 _atom_site_type_symbol
 _atom_site_label
 _atom_site_symmetry_multiplicity
 _atom_site_fract_x
 _atom_site_fract_y
 _atom_site_fract_z
 _atom_site_occupancy
  Ca  Ca0  1  0.000000  0.000000  0.500000  1
  Tb  Tb1  1  0.500000  0.000000  0.000000  1
  Tb  Tb2  1  0.000000  0.500000  0.000000  1
  Tb  Tb3  1  0.500000  0.500000  0.500000  1
  Sb  Sb4  1  0.000000  0.316958  0.319581  1
  Sb  Sb5  1  0.683042  0.000000  0.680419  1
  Sb  Sb6  1  0.683042  0.683042  0.002623  1
  Sb  Sb7  1  0.000000  0.683042  0.680419  1
  Sb  Sb8  1  0.316958  0.000000  0.319581  1
  Sb  Sb9  1  0.316958  0.316958  0.997377  1
  Rh  Rh10  1  0.000000  0.000000  0.000000  1
  Rh  Rh11  1  0.493822  0.746911  0.246911  1
  Rh  Rh12  1  0.746911  0.493822  0.246911  1
  Rh  Rh13  1  0.253089  0.746911  0.500000  1
  Rh  Rh14  1  0.253089  0.506178  0.753089  1
  Rh  Rh15  1  0.506178  0.253089  0.753089  1
  Rh  Rh16  1  0.746911  0.253089  0.500000  1
