# generated using pymatgen
data_CaNd(Si7Rh3)2
_symmetry_space_group_name_H-M   'P 1'
_cell_length_a   8.03673880
_cell_length_b   8.03673808
_cell_length_c   8.03673874
_cell_angle_alpha   57.05974914
_cell_angle_beta   57.05974364
_cell_angle_gamma   57.05974073
_symmetry_Int_Tables_number   1
_chemical_formula_structural   CaNd(Si7Rh3)2
_chemical_formula_sum   'Ca1 Nd1 Si14 Rh6'
_cell_volume   342.17246386
_cell_formula_units_Z   1
loop_
 _symmetry_equiv_pos_site_id
 _symmetry_equiv_pos_as_xyz
  1  'x, y, z'
loop_
 _atom_site_type_symbol
 _atom_site_label
 _atom_site_symmetry_multiplicity
 _atom_site_fract_x
 _atom_site_fract_y
 _atom_site_fract_z
 _atom_site_occupancy
  Ca  Ca0  1  0.000000  0.000000  0.000000  1
  Nd  Nd1  1  0.500000  0.500000  0.500000  1
  Si  Si2  1  0.749879  0.749879  0.749879  1
  Si  Si3  1  0.250121  0.250121  0.250121  1
  Si  Si4  1  0.852719  0.064109  0.673669  1
  Si  Si5  1  0.673669  0.852719  0.064109  1
  Si  Si6  1  0.064109  0.673669  0.852719  1
  Si  Si7  1  0.650358  0.828457  0.433957  1
  Si  Si8  1  0.433957  0.650358  0.828457  1
  Si  Si9  1  0.828457  0.433957  0.650358  1
  Si  Si10  1  0.171543  0.566043  0.349642  1
  Si  Si11  1  0.566043  0.349642  0.171543  1
  Si  Si12  1  0.349642  0.171543  0.566043  1
  Si  Si13  1  0.935891  0.326331  0.147281  1
  Si  Si14  1  0.326331  0.147281  0.935891  1
  Si  Si15  1  0.147281  0.935891  0.326331  1
  Rh  Rh16  1  0.069264  0.431319  0.750018  1
  Rh  Rh17  1  0.249982  0.930736  0.568681  1
  Rh  Rh18  1  0.568681  0.249982  0.930736  1
  Rh  Rh19  1  0.930736  0.568681  0.249982  1
  Rh  Rh20  1  0.431319  0.750018  0.069264  1
  Rh  Rh21  1  0.750018  0.069264  0.431319  1
