# generated using pymatgen
data_PrAuBr6
_symmetry_space_group_name_H-M   'P 1'
_cell_length_a   8.20937953
_cell_length_b   10.67075479
_cell_length_c   15.31807561
_cell_angle_alpha   103.59809002
_cell_angle_beta   95.67537512
_cell_angle_gamma   112.07495633
_symmetry_Int_Tables_number   1
_chemical_formula_structural   PrAuBr6
_chemical_formula_sum   'Pr4 Au4 Br24'
_cell_volume   1182.23620393
_cell_formula_units_Z   4
loop_
 _symmetry_equiv_pos_site_id
 _symmetry_equiv_pos_as_xyz
  1  'x, y, z'
loop_
 _atom_site_type_symbol
 _atom_site_label
 _atom_site_symmetry_multiplicity
 _atom_site_fract_x
 _atom_site_fract_y
 _atom_site_fract_z
 _atom_site_occupancy
  Pr  Pr0  1  0.581342  0.920968  0.621070  1
  Pr  Pr1  1  0.418658  0.079032  0.378930  1
  Pr  Pr2  1  0.978269  0.311189  0.870944  1
  Pr  Pr3  1  0.021731  0.688811  0.129056  1
  Au  Au4  1  0.296424  0.630986  0.763352  1
  Au  Au5  1  0.703576  0.369014  0.236648  1
  Au  Au6  1  0.500000  0.500000  0.500000  1
  Au  Au7  1  0.000000  0.000000  0.000000  1
  Br  Br8  1  0.613603  0.731283  0.747510  1
  Br  Br9  1  0.386397  0.268717  0.252490  1
  Br  Br10  1  0.273227  0.843736  0.736022  1
  Br  Br11  1  0.726773  0.156264  0.263978  1
  Br  Br12  1  0.976833  0.534156  0.775831  1
  Br  Br13  1  0.023167  0.465844  0.224169  1
  Br  Br14  1  0.319825  0.415351  0.786061  1
  Br  Br15  1  0.680175  0.584649  0.213939  1
  Br  Br16  1  0.693323  0.369441  0.506705  1
  Br  Br17  1  0.306677  0.630559  0.493295  1
  Br  Br18  1  0.765906  0.725122  0.523584  1
  Br  Br19  1  0.234094  0.274878  0.476416  1
  Br  Br20  1  0.780988  0.103077  0.973828  1
  Br  Br21  1  0.219012  0.896923  0.026172  1
  Br  Br22  1  0.764699  0.797834  0.031296  1
  Br  Br23  1  0.235301  0.202166  0.968704  1
  Br  Br24  1  0.613705  0.190262  0.746706  1
  Br  Br25  1  0.386295  0.809738  0.253294  1
  Br  Br26  1  0.958912  0.054857  0.726413  1
  Br  Br27  1  0.041088  0.945143  0.273587  1
  Br  Br28  1  0.731709  0.049839  0.480382  1
  Br  Br29  1  0.268291  0.950161  0.519618  1
  Br  Br30  1  0.757462  0.435629  0.977426  1
  Br  Br31  1  0.242538  0.564371  0.022574  1
