# generated using pymatgen
data_Lu2Mn2Cl
_symmetry_space_group_name_H-M   'P 1'
_cell_length_a   3.75911700
_cell_length_b   3.75911691
_cell_length_c   16.21677300
_cell_angle_alpha   90.00000000
_cell_angle_beta   90.00000000
_cell_angle_gamma   119.99999201
_symmetry_Int_Tables_number   1
_chemical_formula_structural   Lu2Mn2Cl
_chemical_formula_sum   'Lu4 Mn4 Cl2'
_cell_volume   198.45716344
_cell_formula_units_Z   2
loop_
 _symmetry_equiv_pos_site_id
 _symmetry_equiv_pos_as_xyz
  1  'x, y, z'
loop_
 _atom_site_type_symbol
 _atom_site_label
 _atom_site_symmetry_multiplicity
 _atom_site_fract_x
 _atom_site_fract_y
 _atom_site_fract_z
 _atom_site_occupancy
  Lu  Lu0  1  0.000000  0.000000  0.117344  1
  Lu  Lu1  1  0.000000  0.000000  0.382656  1
  Lu  Lu2  1  0.000000  0.000000  0.617344  1
  Lu  Lu3  1  0.000000  0.000000  0.882656  1
  Mn  Mn4  1  0.333333  0.666666  0.010753  1
  Mn  Mn5  1  0.333333  0.666666  0.489247  1
  Mn  Mn6  1  0.666667  0.333335  0.510753  1
  Mn  Mn7  1  0.666667  0.333335  0.989247  1
  Cl  Cl8  1  0.666667  0.333335  0.250000  1
  Cl  Cl9  1  0.333333  0.666666  0.750000  1
