# generated using pymatgen
data_Tb4HoTm15(CoSb2)4
_symmetry_space_group_name_H-M   'P 1'
_cell_length_a   7.78566771
_cell_length_b   8.72348500
_cell_length_c   12.05018510
_cell_angle_alpha   90.00000000
_cell_angle_beta   90.04900858
_cell_angle_gamma   90.00000000
_symmetry_Int_Tables_number   1
_chemical_formula_structural   Tb4HoTm15(CoSb2)4
_chemical_formula_sum   'Tb4 Ho1 Tm15 Co4 Sb8'
_cell_volume   818.42604618
_cell_formula_units_Z   1
loop_
 _symmetry_equiv_pos_site_id
 _symmetry_equiv_pos_as_xyz
  1  'x, y, z'
loop_
 _atom_site_type_symbol
 _atom_site_label
 _atom_site_symmetry_multiplicity
 _atom_site_fract_x
 _atom_site_fract_y
 _atom_site_fract_z
 _atom_site_occupancy
  Tb  Tb0  1  0.622599  0.750000  0.306692  1
  Tb  Tb1  1  0.122082  0.250000  0.193278  1
  Tb  Tb2  1  0.377890  0.250000  0.693284  1
  Tb  Tb3  1  0.878062  0.750000  0.806784  1
  Ho  Ho4  1  0.155191  0.750000  0.204176  1
  Tm  Tm5  1  0.654906  0.250000  0.296649  1
  Tm  Tm6  1  0.844910  0.250000  0.796465  1
  Tm  Tm7  1  0.345068  0.750000  0.703432  1
  Tm  Tm8  1  0.449989  0.750000  0.997362  1
  Tm  Tm9  1  0.949194  0.250000  0.502428  1
  Tm  Tm10  1  0.550928  0.250000  0.002209  1
  Tm  Tm11  1  0.050527  0.750000  0.498020  1
  Tm  Tm12  1  0.822813  0.963938  0.065007  1
  Tm  Tm13  1  0.323256  0.036739  0.434855  1
  Tm  Tm14  1  0.176799  0.463236  0.934519  1
  Tm  Tm15  1  0.676820  0.536544  0.565274  1
  Tm  Tm16  1  0.176799  0.036764  0.934519  1
  Tm  Tm17  1  0.676820  0.963456  0.565274  1
  Tm  Tm18  1  0.822813  0.536062  0.065007  1
  Tm  Tm19  1  0.323256  0.463261  0.434855  1
  Co  Co20  1  0.432391  0.750000  0.491192  1
  Co  Co21  1  0.932453  0.250000  0.008734  1
  Co  Co22  1  0.567321  0.250000  0.508787  1
  Co  Co23  1  0.067232  0.750000  0.990727  1
  Sb  Sb24  1  0.929205  0.992217  0.328898  1
  Sb  Sb25  1  0.430768  0.009096  0.171304  1
  Sb  Sb26  1  0.070014  0.491445  0.671544  1
  Sb  Sb27  1  0.569953  0.508501  0.828487  1
  Sb  Sb28  1  0.070014  0.008555  0.671544  1
  Sb  Sb29  1  0.569953  0.991499  0.828487  1
  Sb  Sb30  1  0.929205  0.507783  0.328898  1
  Sb  Sb31  1  0.430768  0.490904  0.171304  1
