# generated using pymatgen
data_Tm8Lu2Si5Sn
_symmetry_space_group_name_H-M   'P 1'
_cell_length_a   8.40632804
_cell_length_b   8.40632697
_cell_length_c   6.24900803
_cell_angle_alpha   90.00543377
_cell_angle_beta   90.00543620
_cell_angle_gamma   120.17226239
_symmetry_Int_Tables_number   1
_chemical_formula_structural   Tm8Lu2Si5Sn
_chemical_formula_sum   'Tm8 Lu2 Si5 Sn1'
_cell_volume   381.76651767
_cell_formula_units_Z   1
loop_
 _symmetry_equiv_pos_site_id
 _symmetry_equiv_pos_as_xyz
  1  'x, y, z'
loop_
 _atom_site_type_symbol
 _atom_site_label
 _atom_site_symmetry_multiplicity
 _atom_site_fract_x
 _atom_site_fract_y
 _atom_site_fract_z
 _atom_site_occupancy
  Tm  Tm0  1  0.331407  0.673770  0.997010  1
  Tm  Tm1  1  0.673770  0.331407  0.997010  1
  Tm  Tm2  1  0.765818  0.765818  0.250454  1
  Tm  Tm3  1  0.240117  0.989584  0.250480  1
  Tm  Tm4  1  0.989584  0.240117  0.250480  1
  Tm  Tm5  1  0.240666  0.240666  0.749567  1
  Tm  Tm6  1  0.756483  0.998469  0.749448  1
  Tm  Tm7  1  0.998469  0.756483  0.749448  1
  Lu  Lu8  1  0.673958  0.331421  0.502969  1
  Lu  Lu9  1  0.331421  0.673958  0.502969  1
  Si  Si10  1  0.603836  0.998529  0.251308  1
  Si  Si11  1  0.998529  0.603836  0.251308  1
  Si  Si12  1  0.605024  0.605024  0.748931  1
  Si  Si13  1  0.394000  0.001435  0.748682  1
  Si  Si14  1  0.001435  0.394000  0.748682  1
  Sn  Sn15  1  0.395484  0.395484  0.251257  1
