# generated using pymatgen
data_Li8La4YEr3Sn8
_symmetry_space_group_name_H-M   'P 1'
_cell_length_a   9.49161100
_cell_length_b   9.49161140
_cell_length_c   7.65467400
_cell_angle_alpha   90.00000000
_cell_angle_beta   90.00000000
_cell_angle_gamma   119.99999512
_symmetry_Int_Tables_number   1
_chemical_formula_structural   Li8La4YEr3Sn8
_chemical_formula_sum   'Li8 La4 Y1 Er3 Sn8'
_cell_volume   597.22397380
_cell_formula_units_Z   1
loop_
 _symmetry_equiv_pos_site_id
 _symmetry_equiv_pos_as_xyz
  1  'x, y, z'
loop_
 _atom_site_type_symbol
 _atom_site_label
 _atom_site_symmetry_multiplicity
 _atom_site_fract_x
 _atom_site_fract_y
 _atom_site_fract_z
 _atom_site_occupancy
  Li  Li0  1  0.166282  0.332565  0.239362  1
  Li  Li1  1  0.166282  0.833718  0.239362  1
  Li  Li2  1  0.667435  0.833718  0.239362  1
  Li  Li3  1  0.666667  0.333333  0.342026  1
  Li  Li4  1  0.832476  0.664951  0.685766  1
  Li  Li5  1  0.335049  0.167524  0.685766  1
  Li  Li6  1  0.832476  0.167524  0.685766  1
  Li  Li7  1  0.333333  0.666667  0.806688  1
  La  La8  1  0.000000  0.000000  0.999528  1
  La  La9  1  0.511153  0.022307  0.004221  1
  La  La10  1  0.511153  0.488847  0.004221  1
  La  La11  1  0.977693  0.488847  0.004221  1
  Y  Y12  1  0.000000  0.000000  0.501022  1
  Er  Er13  1  0.487023  0.974045  0.505465  1
  Er  Er14  1  0.025955  0.512977  0.505465  1
  Er  Er15  1  0.487023  0.512977  0.505465  1
  Sn  Sn16  1  0.333333  0.666667  0.245349  1
  Sn  Sn17  1  0.832632  0.665263  0.286919  1
  Sn  Sn18  1  0.334737  0.167368  0.286919  1
  Sn  Sn19  1  0.832632  0.167368  0.286919  1
  Sn  Sn20  1  0.666667  0.333333  0.725883  1
  Sn  Sn21  1  0.166479  0.332958  0.757429  1
  Sn  Sn22  1  0.166479  0.833521  0.757429  1
  Sn  Sn23  1  0.667042  0.833521  0.757429  1
