# generated using pymatgen
data_Gd2DyHo(ReB6)2
_symmetry_space_group_name_H-M   'P 1'
_cell_length_a   3.69196800
_cell_length_b   9.19193002
_cell_length_c   11.59383803
_cell_angle_alpha   90.00820328
_cell_angle_beta   90.00000000
_cell_angle_gamma   90.00000000
_symmetry_Int_Tables_number   1
_chemical_formula_structural   Gd2DyHo(ReB6)2
_chemical_formula_sum   'Gd4 Dy2 Ho2 Re4 B24'
_cell_volume   393.45209488
_cell_formula_units_Z   2
loop_
 _symmetry_equiv_pos_site_id
 _symmetry_equiv_pos_as_xyz
  1  'x, y, z'
loop_
 _atom_site_type_symbol
 _atom_site_label
 _atom_site_symmetry_multiplicity
 _atom_site_fract_x
 _atom_site_fract_y
 _atom_site_fract_z
 _atom_site_occupancy
  Gd  Gd0  1  0.000000  0.323479  0.413924  1
  Gd  Gd1  1  0.000000  0.676521  0.586076  1
  Gd  Gd2  1  0.000000  0.823337  0.085982  1
  Gd  Gd3  1  0.000000  0.176663  0.914018  1
  Dy  Dy4  1  0.000000  0.942995  0.369722  1
  Dy  Dy5  1  0.000000  0.057005  0.630278  1
  Ho  Ho6  1  0.000000  0.443020  0.130211  1
  Ho  Ho7  1  0.000000  0.556980  0.869789  1
  Re  Re8  1  0.000000  0.638713  0.320227  1
  Re  Re9  1  0.000000  0.361287  0.679773  1
  Re  Re10  1  0.000000  0.139320  0.179616  1
  Re  Re11  1  0.000000  0.860680  0.820384  1
  B  B12  1  0.500000  0.553674  0.432334  1
  B  B13  1  0.500000  0.446326  0.567666  1
  B  B14  1  0.500000  0.053758  0.067652  1
  B  B15  1  0.500000  0.946242  0.932348  1
  B  B16  1  0.500000  0.749036  0.417978  1
  B  B17  1  0.500000  0.250964  0.582022  1
  B  B18  1  0.500000  0.249399  0.082014  1
  B  B19  1  0.500000  0.750601  0.917986  1
  B  B20  1  0.500000  0.791743  0.265508  1
  B  B21  1  0.500000  0.208257  0.734492  1
  B  B22  1  0.500000  0.292094  0.234409  1
  B  B23  1  0.500000  0.707906  0.765591  1
  B  B24  1  0.500000  0.630562  0.185722  1
  B  B25  1  0.500000  0.369438  0.814278  1
  B  B26  1  0.500000  0.130878  0.314097  1
  B  B27  1  0.500000  0.869122  0.685903  1
  B  B28  1  0.500000  0.983030  0.212070  1
  B  B29  1  0.500000  0.016970  0.787930  1
  B  B30  1  0.500000  0.482815  0.287744  1
  B  B31  1  0.500000  0.517185  0.712256  1
  B  B32  1  0.500000  0.598792  0.027561  1
  B  B33  1  0.500000  0.401208  0.972439  1
  B  B34  1  0.500000  0.099187  0.472343  1
  B  B35  1  0.500000  0.900813  0.527657  1
