# generated using pymatgen
data_La2Pr(As2Rh3)3
_symmetry_space_group_name_H-M   'P 1'
_cell_length_a   4.05198200
_cell_length_b   8.53750167
_cell_length_c   10.02949858
_cell_angle_alpha   107.04071631
_cell_angle_beta   90.00000000
_cell_angle_gamma   103.72752793
_symmetry_Int_Tables_number   1
_chemical_formula_structural   La2Pr(As2Rh3)3
_chemical_formula_sum   'La2 Pr1 As6 Rh9'
_cell_volume   321.34564343
_cell_formula_units_Z   1
loop_
 _symmetry_equiv_pos_site_id
 _symmetry_equiv_pos_as_xyz
  1  'x, y, z'
loop_
 _atom_site_type_symbol
 _atom_site_label
 _atom_site_symmetry_multiplicity
 _atom_site_fract_x
 _atom_site_fract_y
 _atom_site_fract_z
 _atom_site_occupancy
  La  La0  1  0.842761  0.685522  0.300985  1
  La  La1  1  0.999911  0.999823  0.999606  1
  Pr  Pr2  1  0.156574  0.313147  0.698010  1
  As  As3  1  0.802833  0.605667  0.870239  1
  As  As4  1  0.196472  0.392944  0.129081  1
  As  As5  1  0.538241  0.076483  0.777135  1
  As  As6  1  0.462705  0.925409  0.222283  1
  As  As7  1  0.637963  0.275927  0.453779  1
  As  As8  1  0.362246  0.724491  0.547392  1
  Rh  Rh9  1  0.955827  0.911656  0.669333  1
  Rh  Rh10  1  0.044491  0.088982  0.330981  1
  Rh  Rh11  1  0.779769  0.559539  0.606780  1
  Rh  Rh12  1  0.220175  0.440348  0.394275  1
  Rh  Rh13  1  0.374182  0.748362  0.793219  1
  Rh  Rh14  1  0.625597  0.251194  0.207060  1
  Rh  Rh15  1  0.500348  0.000697  0.500453  1
  Rh  Rh16  1  0.678661  0.357322  0.959288  1
  Rh  Rh17  1  0.321244  0.642488  0.040100  1
