# generated using pymatgen
data_K3CaIrO6
_symmetry_space_group_name_H-M   'P 1'
_cell_length_a   7.18971559
_cell_length_b   7.18971592
_cell_length_c   7.18971542
_cell_angle_alpha   93.26779890
_cell_angle_beta   93.26780630
_cell_angle_gamma   93.26779668
_symmetry_Int_Tables_number   1
_chemical_formula_structural   K3CaIrO6
_chemical_formula_sum   'K6 Ca2 Ir2 O12'
_cell_volume   369.76581259
_cell_formula_units_Z   2
loop_
 _symmetry_equiv_pos_site_id
 _symmetry_equiv_pos_as_xyz
  1  'x, y, z'
loop_
 _atom_site_type_symbol
 _atom_site_label
 _atom_site_symmetry_multiplicity
 _atom_site_fract_x
 _atom_site_fract_y
 _atom_site_fract_z
 _atom_site_occupancy
  K  K0  1  0.750000  0.391803  0.108197  1
  K  K1  1  0.108197  0.750000  0.391803  1
  K  K2  1  0.391803  0.108197  0.750000  1
  K  K3  1  0.250000  0.608197  0.891803  1
  K  K4  1  0.891803  0.250000  0.608197  1
  K  K5  1  0.608197  0.891803  0.250000  1
  Ca  Ca6  1  0.250000  0.250000  0.250000  1
  Ca  Ca7  1  0.750000  0.750000  0.750000  1
  Ir  Ir8  1  0.000000  0.000000  0.000000  1
  Ir  Ir9  1  0.500000  0.500000  0.500000  1
  O  O10  1  0.459961  0.755318  0.583102  1
  O  O11  1  0.583102  0.459961  0.755318  1
  O  O12  1  0.755318  0.583102  0.459961  1
  O  O13  1  0.040039  0.916898  0.744682  1
  O  O14  1  0.744682  0.040039  0.916898  1
  O  O15  1  0.916898  0.744682  0.040039  1
  O  O16  1  0.540039  0.244682  0.416898  1
  O  O17  1  0.416898  0.540039  0.244682  1
  O  O18  1  0.244682  0.416898  0.540039  1
  O  O19  1  0.959961  0.083102  0.255318  1
  O  O20  1  0.083102  0.255318  0.959961  1
  O  O21  1  0.255318  0.959961  0.083102  1
