# generated using pymatgen
data_Ce(HoSi2)2
_symmetry_space_group_name_H-M   'P 1'
_cell_length_a   3.91222157
_cell_length_b   4.24194852
_cell_length_c   9.18633308
_cell_angle_alpha   76.65089999
_cell_angle_beta   77.70546473
_cell_angle_gamma   90.00000427
_symmetry_Int_Tables_number   1
_chemical_formula_structural   Ce(HoSi2)2
_chemical_formula_sum   'Ce1 Ho2 Si4'
_cell_volume   144.73643647
_cell_formula_units_Z   1
loop_
 _symmetry_equiv_pos_site_id
 _symmetry_equiv_pos_as_xyz
  1  'x, y, z'
loop_
 _atom_site_type_symbol
 _atom_site_label
 _atom_site_symmetry_multiplicity
 _atom_site_fract_x
 _atom_site_fract_y
 _atom_site_fract_z
 _atom_site_occupancy
  Ce  Ce0  1  0.000001  0.000001  0.000000  1
  Ho  Ho1  1  0.683399  0.183399  0.633202  1
  Ho  Ho2  1  0.316600  0.816600  0.366802  1
  Si  Si3  1  0.851410  0.351410  0.297181  1
  Si  Si4  1  0.148591  0.648591  0.702817  1
  Si  Si5  1  0.566756  0.566756  0.866488  1
  Si  Si6  1  0.433245  0.433245  0.133512  1
