# generated using pymatgen
data_NdY(ZnPb)2
_symmetry_space_group_name_H-M   'P 1'
_cell_length_a   4.65823500
_cell_length_b   4.65823538
_cell_length_c   16.12561200
_cell_angle_alpha   90.00000000
_cell_angle_beta   90.00000000
_cell_angle_gamma   120.00000438
_symmetry_Int_Tables_number   1
_chemical_formula_structural   NdY(ZnPb)2
_chemical_formula_sum   'Nd2 Y2 Zn4 Pb4'
_cell_volume   303.03280266
_cell_formula_units_Z   2
loop_
 _symmetry_equiv_pos_site_id
 _symmetry_equiv_pos_as_xyz
  1  'x, y, z'
loop_
 _atom_site_type_symbol
 _atom_site_label
 _atom_site_symmetry_multiplicity
 _atom_site_fract_x
 _atom_site_fract_y
 _atom_site_fract_z
 _atom_site_occupancy
  Nd  Nd0  1  0.000000  0.000000  0.000000  1
  Nd  Nd1  1  0.000000  0.000000  0.500000  1
  Y  Y2  1  0.000000  0.000000  0.250000  1
  Y  Y3  1  0.000000  0.000000  0.750000  1
  Zn  Zn4  1  0.666667  0.333333  0.834941  1
  Zn  Zn5  1  0.333333  0.666667  0.334941  1
  Zn  Zn6  1  0.666667  0.333333  0.665059  1
  Zn  Zn7  1  0.333333  0.666667  0.165059  1
  Pb  Pb8  1  0.333333  0.666667  0.614530  1
  Pb  Pb9  1  0.666667  0.333333  0.114530  1
  Pb  Pb10  1  0.666667  0.333333  0.385470  1
  Pb  Pb11  1  0.333333  0.666667  0.885470  1
