# generated using pymatgen
data_YGeRu2C
_symmetry_space_group_name_H-M   'P 1'
_cell_length_a   5.90942572
_cell_length_b   5.90942561
_cell_length_c   7.28628200
_cell_angle_alpha   90.00000000
_cell_angle_beta   90.00000000
_cell_angle_gamma   141.53513067
_symmetry_Int_Tables_number   1
_chemical_formula_structural   YGeRu2C
_chemical_formula_sum   'Y2 Ge2 Ru4 C2'
_cell_volume   158.27455914
_cell_formula_units_Z   2
loop_
 _symmetry_equiv_pos_site_id
 _symmetry_equiv_pos_as_xyz
  1  'x, y, z'
loop_
 _atom_site_type_symbol
 _atom_site_label
 _atom_site_symmetry_multiplicity
 _atom_site_fract_x
 _atom_site_fract_y
 _atom_site_fract_z
 _atom_site_occupancy
  Y  Y0  1  0.545869  0.454131  0.250000  1
  Y  Y1  1  0.454131  0.545869  0.750000  1
  Ge  Ge2  1  0.267276  0.732724  0.250000  1
  Ge  Ge3  1  0.732724  0.267276  0.750000  1
  Ru  Ru4  1  0.837937  0.162063  0.057086  1
  Ru  Ru5  1  0.162063  0.837937  0.942914  1
  Ru  Ru6  1  0.162063  0.837937  0.557086  1
  Ru  Ru7  1  0.837937  0.162063  0.442914  1
  C  C8  1  0.000000  0.000000  0.000000  1
  C  C9  1  0.000000  0.000000  0.500000  1
