# generated using pymatgen
data_LaHo11(SiPd)12
_symmetry_space_group_name_H-M   'P 1'
_cell_length_a   4.35634500
_cell_length_b   7.42954408
_cell_length_c   21.11130003
_cell_angle_alpha   90.01147558
_cell_angle_beta   90.00000000
_cell_angle_gamma   90.00000000
_symmetry_Int_Tables_number   1
_chemical_formula_structural   LaHo11(SiPd)12
_chemical_formula_sum   'La1 Ho11 Si12 Pd12'
_cell_volume   683.28108645
_cell_formula_units_Z   1
loop_
 _symmetry_equiv_pos_site_id
 _symmetry_equiv_pos_as_xyz
  1  'x, y, z'
loop_
 _atom_site_type_symbol
 _atom_site_label
 _atom_site_symmetry_multiplicity
 _atom_site_fract_x
 _atom_site_fract_y
 _atom_site_fract_z
 _atom_site_occupancy
  La  La0  1  0.250000  0.793801  0.501570  1
  Ho  Ho1  1  0.250000  0.703378  0.330345  1
  Ho  Ho2  1  0.750000  0.292208  0.668775  1
  Ho  Ho3  1  0.750000  0.206616  0.165979  1
  Ho  Ho4  1  0.250000  0.793231  0.834324  1
  Ho  Ho5  1  0.250000  0.793209  0.165288  1
  Ho  Ho6  1  0.750000  0.206257  0.834636  1
  Ho  Ho7  1  0.750000  0.293182  0.330641  1
  Ho  Ho8  1  0.250000  0.705457  0.669212  1
  Ho  Ho9  1  0.250000  0.710350  0.000953  1
  Ho  Ho10  1  0.750000  0.289883  0.998959  1
  Ho  Ho11  1  0.750000  0.218447  0.498020  1
  Si  Si12  1  0.250000  0.089675  0.071093  1
  Si  Si13  1  0.750000  0.910612  0.929172  1
  Si  Si14  1  0.750000  0.586446  0.421177  1
  Si  Si15  1  0.250000  0.407315  0.570791  1
  Si  Si16  1  0.250000  0.086167  0.269293  1
  Si  Si17  1  0.750000  0.913488  0.731830  1
  Si  Si18  1  0.750000  0.586270  0.227209  1
  Si  Si19  1  0.250000  0.413883  0.773427  1
  Si  Si20  1  0.250000  0.088486  0.391215  1
  Si  Si21  1  0.750000  0.914649  0.610033  1
  Si  Si22  1  0.750000  0.588137  0.103651  1
  Si  Si23  1  0.250000  0.412262  0.896344  1
  Pd  Pd24  1  0.250000  0.417455  0.234907  1
  Pd  Pd25  1  0.750000  0.580781  0.764298  1
  Pd  Pd26  1  0.750000  0.917887  0.260773  1
  Pd  Pd27  1  0.250000  0.082662  0.739372  1
  Pd  Pd28  1  0.250000  0.412332  0.435992  1
  Pd  Pd29  1  0.750000  0.578015  0.570552  1
  Pd  Pd30  1  0.750000  0.917845  0.061648  1
  Pd  Pd31  1  0.250000  0.082696  0.938427  1
  Pd  Pd32  1  0.250000  0.420312  0.092890  1
  Pd  Pd33  1  0.750000  0.579742  0.906944  1
  Pd  Pd34  1  0.750000  0.923162  0.402424  1
  Pd  Pd35  1  0.250000  0.083707  0.597838  1
