# generated using pymatgen
data_Dy3Cd(Pd2Au)4
_symmetry_space_group_name_H-M   'P 1'
_cell_length_a   5.98594700
_cell_length_b   5.96128000
_cell_length_c   7.98509700
_cell_angle_alpha   90.00003845
_cell_angle_beta   90.00055516
_cell_angle_gamma   89.99998078
_symmetry_Int_Tables_number   1
_chemical_formula_structural   Dy3Cd(Pd2Au)4
_chemical_formula_sum   'Dy3 Cd1 Pd8 Au4'
_cell_volume   284.93945180
_cell_formula_units_Z   1
loop_
 _symmetry_equiv_pos_site_id
 _symmetry_equiv_pos_as_xyz
  1  'x, y, z'
loop_
 _atom_site_type_symbol
 _atom_site_label
 _atom_site_symmetry_multiplicity
 _atom_site_fract_x
 _atom_site_fract_y
 _atom_site_fract_z
 _atom_site_occupancy
  Dy  Dy0  1  0.250544  0.249996  0.999994  1
  Dy  Dy1  1  0.749470  0.750003  0.000006  1
  Dy  Dy2  1  0.750534  0.750002  0.499991  1
  Cd  Cd3  1  0.249139  0.250001  0.500014  1
  Pd  Pd4  1  0.000749  0.000465  0.251229  1
  Pd  Pd5  1  0.000754  0.499555  0.251228  1
  Pd  Pd6  1  0.499515  0.000598  0.252236  1
  Pd  Pd7  1  0.499513  0.499386  0.252231  1
  Pd  Pd8  1  0.499248  0.000576  0.747757  1
  Pd  Pd9  1  0.499254  0.499443  0.747759  1
  Pd  Pd10  1  0.000496  0.000442  0.748776  1
  Pd  Pd11  1  0.000490  0.499538  0.748772  1
  Au  Au12  1  0.749740  0.250002  0.999999  1
  Au  Au13  1  0.250267  0.749995  0.000003  1
  Au  Au14  1  0.249695  0.749997  0.499989  1
  Au  Au15  1  0.750591  0.250003  0.500014  1
