# generated using pymatgen
data_YbPHO3
_symmetry_space_group_name_H-M   'P 1'
_cell_length_a   8.45799141
_cell_length_b   8.45799061
_cell_length_c   8.45799098
_cell_angle_alpha   109.22725331
_cell_angle_beta   109.22725174
_cell_angle_gamma   109.22725613
_symmetry_Int_Tables_number   1
_chemical_formula_structural   YbPHO3
_chemical_formula_sum   'Yb6 P6 H6 O18'
_cell_volume   469.93897333
_cell_formula_units_Z   6
loop_
 _symmetry_equiv_pos_site_id
 _symmetry_equiv_pos_as_xyz
  1  'x, y, z'
loop_
 _atom_site_type_symbol
 _atom_site_label
 _atom_site_symmetry_multiplicity
 _atom_site_fract_x
 _atom_site_fract_y
 _atom_site_fract_z
 _atom_site_occupancy
  Yb  Yb0  1  0.823646  0.143732  0.320063  1
  Yb  Yb1  1  0.320063  0.823646  0.143732  1
  Yb  Yb2  1  0.143732  0.320063  0.823646  1
  Yb  Yb3  1  0.176354  0.856268  0.679937  1
  Yb  Yb4  1  0.679937  0.176354  0.856268  1
  Yb  Yb5  1  0.856268  0.679937  0.176354  1
  P  P6  1  0.119082  0.473117  0.260988  1
  P  P7  1  0.260988  0.119082  0.473117  1
  P  P8  1  0.473117  0.260988  0.119082  1
  P  P9  1  0.880918  0.526883  0.739012  1
  P  P10  1  0.739012  0.880918  0.526883  1
  P  P11  1  0.526883  0.739012  0.880918  1
  H  H12  1  0.267062  0.468978  0.396509  1
  H  H13  1  0.396509  0.267062  0.468978  1
  H  H14  1  0.468978  0.396509  0.267062  1
  H  H15  1  0.732938  0.531022  0.603491  1
  H  H16  1  0.603491  0.732938  0.531022  1
  H  H17  1  0.531022  0.603491  0.732938  1
  O  O18  1  0.938856  0.274315  0.152180  1
  O  O19  1  0.152180  0.938856  0.274315  1
  O  O20  1  0.274315  0.152180  0.938856  1
  O  O21  1  0.061144  0.725685  0.847820  1
  O  O22  1  0.847820  0.061144  0.725685  1
  O  O23  1  0.725685  0.847820  0.061144  1
  O  O24  1  0.085975  0.630314  0.376579  1
  O  O25  1  0.376579  0.085975  0.630314  1
  O  O26  1  0.630314  0.376579  0.085975  1
  O  O27  1  0.914025  0.369686  0.623421  1
  O  O28  1  0.623421  0.914025  0.369686  1
  O  O29  1  0.369686  0.623421  0.914025  1
  O  O30  1  0.188778  0.520602  0.126491  1
  O  O31  1  0.126491  0.188778  0.520602  1
  O  O32  1  0.520602  0.126491  0.188778  1
  O  O33  1  0.811222  0.479398  0.873509  1
  O  O34  1  0.873509  0.811222  0.479398  1
  O  O35  1  0.479398  0.873509  0.811222  1
