# generated using pymatgen
data_Cs2Rb3Na(Al2As3)2
_symmetry_space_group_name_H-M   'P 1'
_cell_length_a   6.41106600
_cell_length_b   7.79495193
_cell_length_c   10.88299705
_cell_angle_alpha   69.48205176
_cell_angle_beta   90.00000000
_cell_angle_gamma   90.00000000
_symmetry_Int_Tables_number   1
_chemical_formula_structural   Cs2Rb3Na(Al2As3)2
_chemical_formula_sum   'Cs2 Rb3 Na1 Al4 As6'
_cell_volume   509.36480832
_cell_formula_units_Z   1
loop_
 _symmetry_equiv_pos_site_id
 _symmetry_equiv_pos_as_xyz
  1  'x, y, z'
loop_
 _atom_site_type_symbol
 _atom_site_label
 _atom_site_symmetry_multiplicity
 _atom_site_fract_x
 _atom_site_fract_y
 _atom_site_fract_z
 _atom_site_occupancy
  Cs  Cs0  1  0.250000  0.487374  0.865145  1
  Cs  Cs1  1  0.250000  0.847829  0.123827  1
  Rb  Rb2  1  0.750000  0.145112  0.864803  1
  Rb  Rb3  1  0.750000  0.499129  0.147720  1
  Rb  Rb4  1  0.750000  0.608523  0.509686  1
  Na  Na5  1  0.250000  0.359939  0.491525  1
  Al  Al6  1  0.001157  0.069435  0.347932  1
  Al  Al7  1  0.499218  0.931418  0.651633  1
  Al  Al8  1  0.498843  0.069435  0.347932  1
  Al  Al9  1  0.000782  0.931418  0.651633  1
  As  As10  1  0.250000  0.811569  0.502829  1
  As  As11  1  0.750000  0.171947  0.496663  1
  As  As12  1  0.250000  0.316028  0.234417  1
  As  As13  1  0.750000  0.705310  0.792779  1
  As  As14  1  0.250000  0.080430  0.755302  1
  As  As15  1  0.750000  0.965105  0.216177  1
