# generated using pymatgen
data_Th3In3Ag2Ir
_symmetry_space_group_name_H-M   'P 1'
_cell_length_a   7.77628600
_cell_length_b   7.77628704
_cell_length_c   4.22383400
_cell_angle_alpha   90.00000000
_cell_angle_beta   90.00000000
_cell_angle_gamma   119.99998707
_symmetry_Int_Tables_number   1
_chemical_formula_structural   Th3In3Ag2Ir
_chemical_formula_sum   'Th3 In3 Ag2 Ir1'
_cell_volume   221.19842882
_cell_formula_units_Z   1
loop_
 _symmetry_equiv_pos_site_id
 _symmetry_equiv_pos_as_xyz
  1  'x, y, z'
loop_
 _atom_site_type_symbol
 _atom_site_label
 _atom_site_symmetry_multiplicity
 _atom_site_fract_x
 _atom_site_fract_y
 _atom_site_fract_z
 _atom_site_occupancy
  Th  Th0  1  0.571998  0.594836  0.000000  1
  Th  Th1  1  0.405164  0.977162  0.000000  1
  Th  Th2  1  0.022838  0.428002  0.000000  1
  In  In3  1  0.991082  0.743782  0.500000  1
  In  In4  1  0.256218  0.247300  0.500000  1
  In  In5  1  0.752700  0.008918  0.500000  1
  Ag  Ag6  1  0.000000  0.000000  0.000000  1
  Ag  Ag7  1  0.666667  0.333333  0.500000  1
  Ir  Ir8  1  0.333333  0.666667  0.500000  1
