# generated using pymatgen
data_Nd3Ge6N11
_symmetry_space_group_name_H-M   'P 1'
_cell_length_a   10.51023000
_cell_length_b   10.51023000
_cell_length_c   5.17801000
_cell_angle_alpha   90.00000000
_cell_angle_beta   90.00000000
_cell_angle_gamma   90.00000000
_symmetry_Int_Tables_number   1
_chemical_formula_structural   Nd3Ge6N11
_chemical_formula_sum   'Nd6 Ge12 N22'
_cell_volume   571.98853628
_cell_formula_units_Z   2
loop_
 _symmetry_equiv_pos_site_id
 _symmetry_equiv_pos_as_xyz
  1  'x, y, z'
loop_
 _atom_site_type_symbol
 _atom_site_label
 _atom_site_symmetry_multiplicity
 _atom_site_fract_x
 _atom_site_fract_y
 _atom_site_fract_z
 _atom_site_occupancy
  Nd  Nd0  1  0.319095  0.819095  0.983720  1
  Nd  Nd1  1  0.680905  0.180905  0.983720  1
  Nd  Nd2  1  0.180905  0.319095  0.983720  1
  Nd  Nd3  1  0.819095  0.680905  0.983720  1
  Nd  Nd4  1  0.500000  0.500000  0.973378  1
  Nd  Nd5  1  0.000000  0.000000  0.973378  1
  Ge  Ge6  1  0.418999  0.293433  0.528190  1
  Ge  Ge7  1  0.581001  0.706567  0.528190  1
  Ge  Ge8  1  0.081001  0.793433  0.528190  1
  Ge  Ge9  1  0.918999  0.206567  0.528190  1
  Ge  Ge10  1  0.293433  0.581001  0.528190  1
  Ge  Ge11  1  0.706567  0.418999  0.528190  1
  Ge  Ge12  1  0.793433  0.918999  0.528190  1
  Ge  Ge13  1  0.206567  0.081001  0.528190  1
  Ge  Ge14  1  0.879784  0.379784  0.044844  1
  Ge  Ge15  1  0.120216  0.620216  0.044844  1
  Ge  Ge16  1  0.620216  0.879784  0.044844  1
  Ge  Ge17  1  0.379784  0.120216  0.044844  1
  N  N18  1  0.316663  0.421658  0.666109  1
  N  N19  1  0.683337  0.578342  0.666109  1
  N  N20  1  0.183337  0.921658  0.666109  1
  N  N21  1  0.816663  0.078342  0.666109  1
  N  N22  1  0.421658  0.683337  0.666109  1
  N  N23  1  0.578342  0.316663  0.666109  1
  N  N24  1  0.921658  0.816663  0.666109  1
  N  N25  1  0.078342  0.183337  0.666109  1
  N  N26  1  0.416921  0.283473  0.169347  1
  N  N27  1  0.583079  0.716527  0.169347  1
  N  N28  1  0.083079  0.783473  0.169347  1
  N  N29  1  0.916921  0.216527  0.169347  1
  N  N30  1  0.283473  0.583079  0.169347  1
  N  N31  1  0.716527  0.416921  0.169347  1
  N  N32  1  0.783473  0.916921  0.169347  1
  N  N33  1  0.216527  0.083079  0.169347  1
  N  N34  1  0.846129  0.346129  0.695230  1
  N  N35  1  0.153871  0.653871  0.695230  1
  N  N36  1  0.653871  0.846129  0.695230  1
  N  N37  1  0.346129  0.153871  0.695230  1
  N  N38  1  0.500000  0.000000  0.092990  1
  N  N39  1  0.000000  0.500000  0.092990  1
