# generated using pymatgen
data_Ce2FeSiBr
_symmetry_space_group_name_H-M   'P 1'
_cell_length_a   4.10388000
_cell_length_b   4.10388008
_cell_length_c   16.25874800
_cell_angle_alpha   90.00000000
_cell_angle_beta   90.00000000
_cell_angle_gamma   119.99998326
_symmetry_Int_Tables_number   1
_chemical_formula_structural   Ce2FeSiBr
_chemical_formula_sum   'Ce4 Fe2 Si2 Br2'
_cell_volume   237.14125799
_cell_formula_units_Z   2
loop_
 _symmetry_equiv_pos_site_id
 _symmetry_equiv_pos_as_xyz
  1  'x, y, z'
loop_
 _atom_site_type_symbol
 _atom_site_label
 _atom_site_symmetry_multiplicity
 _atom_site_fract_x
 _atom_site_fract_y
 _atom_site_fract_z
 _atom_site_occupancy
  Ce  Ce0  1  0.000000  0.000000  0.104120  1
  Ce  Ce1  1  0.000000  0.000000  0.604120  1
  Ce  Ce2  1  0.000000  0.000000  0.891281  1
  Ce  Ce3  1  0.000000  0.000000  0.391281  1
  Fe  Fe4  1  0.333333  0.666667  0.008477  1
  Fe  Fe5  1  0.666667  0.333333  0.508477  1
  Si  Si6  1  0.666667  0.333333  0.994732  1
  Si  Si7  1  0.333333  0.666667  0.494732  1
  Br  Br8  1  0.666667  0.333333  0.251389  1
  Br  Br9  1  0.333333  0.666667  0.751389  1
