# generated using pymatgen
data_La3Nd3Zn4Pd12Rh
_symmetry_space_group_name_H-M   'P 1'
_cell_length_a   8.40985963
_cell_length_b   8.40985904
_cell_length_c   8.42174600
_cell_angle_alpha   109.49985088
_cell_angle_beta   109.49984945
_cell_angle_gamma   109.44257808
_symmetry_Int_Tables_number   1
_chemical_formula_structural   La3Nd3Zn4Pd12Rh
_chemical_formula_sum   'La3 Nd3 Zn4 Pd12 Rh1'
_cell_volume   458.35727658
_cell_formula_units_Z   1
loop_
 _symmetry_equiv_pos_site_id
 _symmetry_equiv_pos_as_xyz
  1  'x, y, z'
loop_
 _atom_site_type_symbol
 _atom_site_label
 _atom_site_symmetry_multiplicity
 _atom_site_fract_x
 _atom_site_fract_y
 _atom_site_fract_z
 _atom_site_occupancy
  La  La0  1  0.701576  0.701576  0.999365  1
  La  La1  1  0.298424  0.000000  0.297788  1
  La  La2  1  0.000000  0.298424  0.297788  1
  Nd  Nd3  1  0.298181  0.298181  0.998888  1
  Nd  Nd4  1  0.701819  0.000000  0.700707  1
  Nd  Nd5  1  0.000000  0.701819  0.700707  1
  Zn  Zn6  1  0.000000  0.000000  0.504663  1
  Zn  Zn7  1  0.000000  0.497974  0.998555  1
  Zn  Zn8  1  0.497974  0.000000  0.998555  1
  Zn  Zn9  1  0.502026  0.502026  0.500581  1
  Pd  Pd10  1  0.332286  0.332286  0.664612  1
  Pd  Pd11  1  0.667714  0.000000  0.332327  1
  Pd  Pd12  1  0.000000  0.667714  0.332327  1
  Pd  Pd13  1  0.667731  0.331755  0.999558  1
  Pd  Pd14  1  0.332269  0.664022  0.331827  1
  Pd  Pd15  1  0.000000  0.331852  0.668286  1
  Pd  Pd16  1  0.331755  0.667731  0.999558  1
  Pd  Pd17  1  0.331852  0.000000  0.668286  1
  Pd  Pd18  1  0.664022  0.332269  0.331827  1
  Pd  Pd19  1  0.668148  0.668148  0.336435  1
  Pd  Pd20  1  0.668245  0.335978  0.667803  1
  Pd  Pd21  1  0.335978  0.668245  0.667803  1
  Rh  Rh22  1  0.000000  0.000000  0.001752  1
