# generated using pymatgen
data_Gd5Dy7Ni4
_symmetry_space_group_name_H-M   'P 1'
_cell_length_a   6.32557240
_cell_length_b   6.84790974
_cell_length_c   9.56953800
_cell_angle_alpha   89.94876109
_cell_angle_beta   90.11346715
_cell_angle_gamma   90.00139834
_symmetry_Int_Tables_number   1
_chemical_formula_structural   Gd5Dy7Ni4
_chemical_formula_sum   'Gd5 Dy7 Ni4'
_cell_volume   414.52220961
_cell_formula_units_Z   1
loop_
 _symmetry_equiv_pos_site_id
 _symmetry_equiv_pos_as_xyz
  1  'x, y, z'
loop_
 _atom_site_type_symbol
 _atom_site_label
 _atom_site_symmetry_multiplicity
 _atom_site_fract_x
 _atom_site_fract_y
 _atom_site_fract_z
 _atom_site_occupancy
  Gd  Gd0  1  0.175695  0.177119  0.065592  1
  Gd  Gd1  1  0.860469  0.535287  0.249951  1
  Gd  Gd2  1  0.638182  0.033344  0.250538  1
  Gd  Gd3  1  0.139052  0.466246  0.749410  1
  Gd  Gd4  1  0.360152  0.965407  0.749242  1
  Dy  Dy5  1  0.324170  0.677079  0.065768  1
  Dy  Dy6  1  0.175796  0.177333  0.435125  1
  Dy  Dy7  1  0.675748  0.322775  0.564368  1
  Dy  Dy8  1  0.822651  0.823365  0.934440  1
  Dy  Dy9  1  0.675460  0.323566  0.934146  1
  Dy  Dy10  1  0.824278  0.823687  0.564972  1
  Dy  Dy11  1  0.324024  0.677278  0.434891  1
  Ni  Ni12  1  0.056969  0.888527  0.251085  1
  Ni  Ni13  1  0.445713  0.389034  0.251578  1
  Ni  Ni14  1  0.940757  0.110567  0.749863  1
  Ni  Ni15  1  0.560884  0.609385  0.749030  1
