# generated using pymatgen
data_Dy5Si12Ir18Rh
_symmetry_space_group_name_H-M   'P 1'
_cell_length_a   12.84288145
_cell_length_b   12.81891831
_cell_length_c   3.98609100
_cell_angle_alpha   90.00000000
_cell_angle_beta   90.00000000
_cell_angle_gamma   119.93829512
_symmetry_Int_Tables_number   1
_chemical_formula_structural   Dy5Si12Ir18Rh
_chemical_formula_sum   'Dy5 Si12 Ir18 Rh1'
_cell_volume   568.67140949
_cell_formula_units_Z   1
loop_
 _symmetry_equiv_pos_site_id
 _symmetry_equiv_pos_as_xyz
  1  'x, y, z'
loop_
 _atom_site_type_symbol
 _atom_site_label
 _atom_site_symmetry_multiplicity
 _atom_site_fract_x
 _atom_site_fract_y
 _atom_site_fract_z
 _atom_site_occupancy
  Dy  Dy0  1  0.333467  0.666695  0.500000  1
  Dy  Dy1  1  0.666533  0.333227  0.500000  1
  Dy  Dy2  1  0.000000  0.815024  0.000000  1
  Dy  Dy3  1  0.185128  0.184868  0.000000  1
  Dy  Dy4  1  0.814872  0.999740  0.000000  1
  Si  Si5  1  0.000000  0.631088  0.500000  1
  Si  Si6  1  0.368441  0.368438  0.500000  1
  Si  Si7  1  0.631559  0.999997  0.500000  1
  Si  Si8  1  0.519272  0.687718  0.000000  1
  Si  Si9  1  0.312282  0.831215  0.000000  1
  Si  Si10  1  0.168768  0.480721  0.000000  1
  Si  Si11  1  0.480728  0.168446  0.000000  1
  Si  Si12  1  0.687718  0.518933  0.000000  1
  Si  Si13  1  0.831232  0.311954  0.000000  1
  Si  Si14  1  0.000000  0.182569  0.500000  1
  Si  Si15  1  0.818405  0.818484  0.500000  1
  Si  Si16  1  0.181595  0.000080  0.500000  1
  Ir  Ir17  1  0.511965  0.873174  0.000000  1
  Ir  Ir18  1  0.126452  0.639127  0.000000  1
  Ir  Ir19  1  0.361335  0.487624  0.000000  1
  Ir  Ir20  1  0.488035  0.361210  0.000000  1
  Ir  Ir21  1  0.873548  0.512675  0.000000  1
  Ir  Ir22  1  0.638665  0.126289  0.000000  1
  Ir  Ir23  1  0.552706  0.552723  0.500000  1
  Ir  Ir24  1  0.447294  0.000018  0.500000  1
  Ir  Ir25  1  0.000000  0.282199  0.000000  1
  Ir  Ir26  1  0.717211  0.717260  0.000000  1
  Ir  Ir27  1  0.282789  0.000050  0.000000  1
  Ir  Ir28  1  0.623433  0.806044  0.500000  1
  Ir  Ir29  1  0.194304  0.817656  0.500000  1
  Ir  Ir30  1  0.182943  0.376965  0.500000  1
  Ir  Ir31  1  0.376567  0.182613  0.500000  1
  Ir  Ir32  1  0.805696  0.623353  0.500000  1
  Ir  Ir33  1  0.817057  0.194023  0.500000  1
  Ir  Ir34  1  0.000000  0.000396  0.500000  1
  Rh  Rh35  1  0.000000  0.447404  0.500000  1
