# generated using pymatgen
data_Sm5Dy3Sc11Si16W
_symmetry_space_group_name_H-M   'P 1'
_cell_length_a   7.12579134
_cell_length_b   7.36688843
_cell_length_c   13.95365365
_cell_angle_alpha   90.13990900
_cell_angle_beta   89.72161509
_cell_angle_gamma   89.70907460
_symmetry_Int_Tables_number   1
_chemical_formula_structural   Sm5Dy3Sc11Si16W
_chemical_formula_sum   'Sm5 Dy3 Sc11 Si16 W1'
_cell_volume   732.47547287
_cell_formula_units_Z   1
loop_
 _symmetry_equiv_pos_site_id
 _symmetry_equiv_pos_as_xyz
  1  'x, y, z'
loop_
 _atom_site_type_symbol
 _atom_site_label
 _atom_site_symmetry_multiplicity
 _atom_site_fract_x
 _atom_site_fract_y
 _atom_site_fract_z
 _atom_site_occupancy
  Sm  Sm0  1  0.011537  0.172553  0.097422  1
  Sm  Sm1  1  0.989711  0.827065  0.898163  1
  Sm  Sm2  1  0.487412  0.674935  0.899008  1
  Sm  Sm3  1  0.992414  0.830019  0.594862  1
  Sm  Sm4  1  0.512827  0.325652  0.097033  1
  Dy  Dy5  1  0.011332  0.175802  0.403293  1
  Dy  Dy6  1  0.506872  0.324126  0.409351  1
  Dy  Dy7  1  0.487764  0.675336  0.596323  1
  Sc  Sc8  1  0.163676  0.492761  0.744131  1
  Sc  Sc9  1  0.837945  0.498610  0.252694  1
  Sc  Sc10  1  0.337755  0.002005  0.253159  1
  Sc  Sc11  1  0.657503  0.003226  0.746861  1
  Sc  Sc12  1  0.664910  0.825739  0.379374  1
  Sc  Sc13  1  0.168606  0.676817  0.378679  1
  Sc  Sc14  1  0.669478  0.824606  0.125612  1
  Sc  Sc15  1  0.832185  0.324616  0.622918  1
  Sc  Sc16  1  0.332942  0.176775  0.874387  1
  Sc  Sc17  1  0.829859  0.323581  0.870818  1
  Sc  Sc18  1  0.170009  0.676415  0.126695  1
  Si  Si19  1  0.043882  0.123813  0.744145  1
  Si  Si20  1  0.963801  0.882721  0.252779  1
  Si  Si21  1  0.466490  0.619828  0.252095  1
  Si  Si22  1  0.530382  0.372132  0.744563  1
  Si  Si23  1  0.289178  0.884583  0.744808  1
  Si  Si24  1  0.711264  0.124469  0.252989  1
  Si  Si25  1  0.214741  0.375526  0.252737  1
  Si  Si26  1  0.783855  0.621161  0.745556  1
  Si  Si27  1  0.177267  0.448918  0.541210  1
  Si  Si28  1  0.841483  0.530283  0.459348  1
  Si  Si29  1  0.335530  0.970777  0.470503  1
  Si  Si30  1  0.847209  0.536514  0.038922  1
  Si  Si31  1  0.642884  0.036636  0.545328  1
  Si  Si32  1  0.151466  0.465220  0.958981  1
  Si  Si33  1  0.658092  0.037196  0.958559  1
  Si  Si34  1  0.344527  0.962062  0.038826  1
  W  W35  1  0.333216  0.177523  0.627871  1
