# generated using pymatgen
data_Dy3Lu3Al24Ir5Ru3
_symmetry_space_group_name_H-M   'P 1'
_cell_length_a   8.80093400
_cell_length_b   8.76737073
_cell_length_c   9.51117800
_cell_angle_alpha   90.00000000
_cell_angle_beta   90.14453946
_cell_angle_gamma   119.87392984
_symmetry_Int_Tables_number   1
_chemical_formula_structural   Dy3Lu3Al24Ir5Ru3
_chemical_formula_sum   'Dy3 Lu3 Al24 Ir5 Ru3'
_cell_volume   636.37271596
_cell_formula_units_Z   1
loop_
 _symmetry_equiv_pos_site_id
 _symmetry_equiv_pos_as_xyz
  1  'x, y, z'
loop_
 _atom_site_type_symbol
 _atom_site_label
 _atom_site_symmetry_multiplicity
 _atom_site_fract_x
 _atom_site_fract_y
 _atom_site_fract_z
 _atom_site_occupancy
  Dy  Dy0  1  0.808367  0.194552  0.750305  1
  Dy  Dy1  1  0.808367  0.613815  0.750305  1
  Dy  Dy2  1  0.384358  0.192179  0.750503  1
  Lu  Lu3  1  0.193335  0.802656  0.249458  1
  Lu  Lu4  1  0.193335  0.390678  0.249458  1
  Lu  Lu5  1  0.611572  0.805786  0.249611  1
  Al  Al6  1  0.561297  0.437795  0.250391  1
  Al  Al7  1  0.561297  0.123502  0.250391  1
  Al  Al8  1  0.875679  0.437840  0.248918  1
  Al  Al9  1  0.437846  0.562903  0.749622  1
  Al  Al10  1  0.437846  0.874943  0.749622  1
  Al  Al11  1  0.125710  0.562855  0.751206  1
  Al  Al12  1  0.324803  0.162401  0.420733  1
  Al  Al13  1  0.836020  0.161534  0.421244  1
  Al  Al14  1  0.836020  0.674486  0.421244  1
  Al  Al15  1  0.673786  0.836893  0.575733  1
  Al  Al16  1  0.164446  0.837567  0.575140  1
  Al  Al17  1  0.164446  0.326878  0.575140  1
  Al  Al18  1  0.673705  0.836853  0.924379  1
  Al  Al19  1  0.162897  0.835785  0.924739  1
  Al  Al20  1  0.162897  0.327112  0.924739  1
  Al  Al21  1  0.325146  0.162573  0.079230  1
  Al  Al22  1  0.837899  0.163599  0.078959  1
  Al  Al23  1  0.837899  0.674301  0.078959  1
  Al  Al24  1  0.666241  0.333120  0.527104  1
  Al  Al25  1  0.333875  0.666938  0.469110  1
  Al  Al26  1  0.331962  0.665981  0.029515  1
  Al  Al27  1  0.668417  0.334209  0.974160  1
  Al  Al28  1  0.999506  0.999753  0.250070  1
  Al  Al29  1  0.000671  0.000336  0.749909  1
  Ir  Ir30  1  0.499392  0.500461  0.498641  1
  Ir  Ir31  1  0.499392  0.998931  0.498641  1
  Ir  Ir32  1  0.001168  0.500584  0.498505  1
  Ir  Ir33  1  0.499579  0.500566  0.001388  1
  Ir  Ir34  1  0.499579  0.999012  0.001388  1
  Ru  Ru35  1  0.999926  0.999964  0.500080  1
  Ru  Ru36  1  0.000039  0.000020  0.999918  1
  Ru  Ru37  1  0.001280  0.500640  0.001545  1
