# generated using pymatgen
data_LaTb5Zn4IrPd12
_symmetry_space_group_name_H-M   'P 1'
_cell_length_a   8.28934487
_cell_length_b   8.28931034
_cell_length_c   8.28931033
_cell_angle_alpha   109.58831761
_cell_angle_beta   109.41262202
_cell_angle_gamma   109.41263478
_symmetry_Int_Tables_number   1
_chemical_formula_structural   LaTb5Zn4IrPd12
_chemical_formula_sum   'La1 Tb5 Zn4 Ir1 Pd12'
_cell_volume   438.46462786
_cell_formula_units_Z   1
loop_
 _symmetry_equiv_pos_site_id
 _symmetry_equiv_pos_as_xyz
  1  'x, y, z'
loop_
 _atom_site_type_symbol
 _atom_site_label
 _atom_site_symmetry_multiplicity
 _atom_site_fract_x
 _atom_site_fract_y
 _atom_site_fract_z
 _atom_site_occupancy
  La  La0  1  0.000000  0.710497  0.710497  1
  Tb  Tb1  1  0.703258  0.704450  0.001190  1
  Tb  Tb2  1  0.296741  0.001191  0.297932  1
  Tb  Tb3  1  0.000000  0.297251  0.297251  1
  Tb  Tb4  1  0.296741  0.297932  0.001191  1
  Tb  Tb5  1  0.703258  0.001190  0.704450  1
  Zn  Zn6  1  0.000000  0.000624  0.494255  1
  Zn  Zn7  1  0.000000  0.494255  0.000624  1
  Zn  Zn8  1  0.506384  0.000624  0.000624  1
  Zn  Zn9  1  0.493615  0.494238  0.494238  1
  Ir  Ir10  1  0.000000  0.006117  0.006117  1
  Pd  Pd11  1  0.334991  0.334888  0.669879  1
  Pd  Pd12  1  0.665009  0.999898  0.334888  1
  Pd  Pd13  1  0.000001  0.668106  0.330766  1
  Pd  Pd14  1  0.665009  0.334888  0.999898  1
  Pd  Pd15  1  0.334991  0.669879  0.334888  1
  Pd  Pd16  1  0.000001  0.330766  0.668106  1
  Pd  Pd17  1  0.337015  0.663585  0.000598  1
  Pd  Pd18  1  0.337015  0.000598  0.663585  1
  Pd  Pd19  1  0.662659  0.330765  0.330765  1
  Pd  Pd20  1  0.662985  0.663584  0.326570  1
  Pd  Pd21  1  0.662985  0.326570  0.663584  1
  Pd  Pd22  1  0.337341  0.668106  0.668106  1
