# generated using pymatgen
data_Tb6Tm13ThPb16
_symmetry_space_group_name_H-M   'P 1'
_cell_length_a   8.16212598
_cell_length_b   15.51775871
_cell_length_c   8.22614300
_cell_angle_alpha   90.01157896
_cell_angle_beta   89.92507858
_cell_angle_gamma   90.15448507
_symmetry_Int_Tables_number   1
_chemical_formula_structural   Tb6Tm13ThPb16
_chemical_formula_sum   'Tb6 Tm13 Th1 Pb16'
_cell_volume   1041.90131130
_cell_formula_units_Z   1
loop_
 _symmetry_equiv_pos_site_id
 _symmetry_equiv_pos_as_xyz
  1  'x, y, z'
loop_
 _atom_site_type_symbol
 _atom_site_label
 _atom_site_symmetry_multiplicity
 _atom_site_fract_x
 _atom_site_fract_y
 _atom_site_fract_z
 _atom_site_occupancy
  Tb  Tb0  1  0.963223  0.900060  0.823276  1
  Tb  Tb1  1  0.536154  0.099433  0.323817  1
  Tb  Tb2  1  0.037470  0.399407  0.176226  1
  Tb  Tb3  1  0.536227  0.400090  0.324989  1
  Tb  Tb4  1  0.035951  0.099376  0.176817  1
  Tb  Tb5  1  0.464681  0.901489  0.675222  1
  Tm  Tm6  1  0.624670  0.621887  0.158686  1
  Tm  Tm7  1  0.124917  0.878572  0.341449  1
  Tm  Tm8  1  0.375371  0.122130  0.842284  1
  Tm  Tm9  1  0.876376  0.377558  0.657800  1
  Tm  Tm10  1  0.375352  0.378063  0.841916  1
  Tm  Tm11  1  0.875305  0.121875  0.657731  1
  Tm  Tm12  1  0.624510  0.877690  0.157617  1
  Tm  Tm13  1  0.124479  0.621659  0.342185  1
  Tm  Tm14  1  0.459905  0.600596  0.674057  1
  Tm  Tm15  1  0.791908  0.750276  0.496284  1
  Tm  Tm16  1  0.293151  0.750830  0.005174  1
  Tm  Tm17  1  0.207567  0.249595  0.504341  1
  Tm  Tm18  1  0.707224  0.249576  0.995398  1
  Th  Th19  1  0.966076  0.598397  0.821426  1
  Pb  Pb20  1  0.715111  0.455197  0.968206  1
  Pb  Pb21  1  0.216218  0.043427  0.535362  1
  Pb  Pb22  1  0.283541  0.956902  0.034317  1
  Pb  Pb23  1  0.779523  0.543527  0.467210  1
  Pb  Pb24  1  0.286890  0.543008  0.035641  1
  Pb  Pb25  1  0.784214  0.957079  0.463932  1
  Pb  Pb26  1  0.715778  0.042922  0.964917  1
  Pb  Pb27  1  0.216887  0.457953  0.536580  1
  Pb  Pb28  1  0.430387  0.749780  0.372042  1
  Pb  Pb29  1  0.930132  0.749274  0.128709  1
  Pb  Pb30  1  0.569963  0.250506  0.627766  1
  Pb  Pb31  1  0.070039  0.249928  0.872440  1
  Pb  Pb32  1  0.649204  0.749256  0.844962  1
  Pb  Pb33  1  0.155950  0.752769  0.650913  1
  Pb  Pb34  1  0.347631  0.250022  0.154386  1
  Pb  Pb35  1  0.848010  0.249890  0.345923  1
