# generated using pymatgen
data_Sc2P7IrRu10Rh
_symmetry_space_group_name_H-M   'P 1'
_cell_length_a   9.34426730
_cell_length_b   9.41818721
_cell_length_c   3.91116800
_cell_angle_alpha   90.00000000
_cell_angle_beta   90.00000000
_cell_angle_gamma   120.11692969
_symmetry_Int_Tables_number   1
_chemical_formula_structural   Sc2P7IrRu10Rh
_chemical_formula_sum   'Sc2 P7 Ir1 Ru10 Rh1'
_cell_volume   297.73970652
_cell_formula_units_Z   1
loop_
 _symmetry_equiv_pos_site_id
 _symmetry_equiv_pos_as_xyz
  1  'x, y, z'
loop_
 _atom_site_type_symbol
 _atom_site_label
 _atom_site_symmetry_multiplicity
 _atom_site_fract_x
 _atom_site_fract_y
 _atom_site_fract_z
 _atom_site_occupancy
  Sc  Sc0  1  0.670272  0.334943  0.500000  1
  Sc  Sc1  1  0.328266  0.662365  0.000000  1
  P  P2  1  0.598145  0.718076  0.500000  1
  P  P3  1  0.998912  0.000416  0.000000  1
  P  P4  1  0.278599  0.878029  0.500000  1
  P  P5  1  0.117050  0.404349  0.500000  1
  P  P6  1  0.882930  0.574296  0.000000  1
  P  P7  1  0.427950  0.303291  0.000000  1
  P  P8  1  0.697851  0.121647  0.000000  1
  Ir  Ir9  1  0.390606  0.449352  0.500000  1
  Ru  Ru10  1  0.913988  0.126722  0.500000  1
  Ru  Ru11  1  0.214330  0.087910  0.500000  1
  Ru  Ru12  1  0.874535  0.790543  0.500000  1
  Ru  Ru13  1  0.722250  0.889157  0.000000  1
  Ru  Ru14  1  0.109817  0.837360  0.000000  1
  Ru  Ru15  1  0.167224  0.273387  0.000000  1
  Ru  Ru16  1  0.432497  0.067366  0.000000  1
  Ru  Ru17  1  0.934575  0.362512  0.000000  1
  Ru  Ru18  1  0.638270  0.568106  0.000000  1
  Ru  Ru19  1  0.053360  0.608766  0.500000  1
  Rh  Rh20  1  0.548574  0.941407  0.500000  1
