# generated using pymatgen
data_Co(Se2Br)3
_symmetry_space_group_name_H-M   'P 1'
_cell_length_a   9.38793889
_cell_length_b   9.38793904
_cell_length_c   9.38793898
_cell_angle_alpha   110.57342074
_cell_angle_beta   110.57342421
_cell_angle_gamma   110.57341351
_symmetry_Int_Tables_number   1
_chemical_formula_structural   Co(Se2Br)3
_chemical_formula_sum   'Co2 Se12 Br6'
_cell_volume   609.55192124
_cell_formula_units_Z   2
loop_
 _symmetry_equiv_pos_site_id
 _symmetry_equiv_pos_as_xyz
  1  'x, y, z'
loop_
 _atom_site_type_symbol
 _atom_site_label
 _atom_site_symmetry_multiplicity
 _atom_site_fract_x
 _atom_site_fract_y
 _atom_site_fract_z
 _atom_site_occupancy
  Co  Co0  1  0.250000  0.250000  0.250000  1
  Co  Co1  1  0.750000  0.750000  0.750000  1
  Se  Se2  1  0.945168  0.157053  0.172723  1
  Se  Se3  1  0.172723  0.945168  0.157053  1
  Se  Se4  1  0.157053  0.172723  0.945168  1
  Se  Se5  1  0.672723  0.657053  0.445168  1
  Se  Se6  1  0.445168  0.672723  0.657053  1
  Se  Se7  1  0.657053  0.445168  0.672723  1
  Se  Se8  1  0.054832  0.842947  0.827277  1
  Se  Se9  1  0.827277  0.054832  0.842947  1
  Se  Se10  1  0.842947  0.827277  0.054832  1
  Se  Se11  1  0.327277  0.342947  0.554832  1
  Se  Se12  1  0.554832  0.327277  0.342947  1
  Se  Se13  1  0.342947  0.554832  0.327277  1
  Br  Br14  1  0.007335  0.492665  0.250000  1
  Br  Br15  1  0.250000  0.007335  0.492665  1
  Br  Br16  1  0.492665  0.250000  0.007335  1
  Br  Br17  1  0.750000  0.992665  0.507335  1
  Br  Br18  1  0.507335  0.750000  0.992665  1
  Br  Br19  1  0.992665  0.507335  0.750000  1
