# generated using pymatgen
data_Ta4Nb3Ni4WN2
_symmetry_space_group_name_H-M   'P 1'
_cell_length_a   8.20485977
_cell_length_b   8.20486017
_cell_length_c   8.17452000
_cell_angle_alpha   60.12223993
_cell_angle_beta   60.12223834
_cell_angle_gamma   60.21462397
_symmetry_Int_Tables_number   1
_chemical_formula_structural   Ta4Nb3Ni4WN2
_chemical_formula_sum   'Ta8 Nb6 Ni8 W2 N4'
_cell_volume   390.47357900
_cell_formula_units_Z   2
loop_
 _symmetry_equiv_pos_site_id
 _symmetry_equiv_pos_as_xyz
  1  'x, y, z'
loop_
 _atom_site_type_symbol
 _atom_site_label
 _atom_site_symmetry_multiplicity
 _atom_site_fract_x
 _atom_site_fract_y
 _atom_site_fract_z
 _atom_site_occupancy
  Ta  Ta0  1  0.624897  0.624897  0.125338  1
  Ta  Ta1  1  0.624897  0.624897  0.624868  1
  Ta  Ta2  1  0.433645  0.433645  0.066355  1
  Ta  Ta3  1  0.062462  0.062462  0.437538  1
  Ta  Ta4  1  0.435608  0.066057  0.435617  1
  Ta  Ta5  1  0.066057  0.435608  0.062718  1
  Ta  Ta6  1  0.066057  0.435608  0.435617  1
  Ta  Ta7  1  0.435608  0.066057  0.062718  1
  Nb  Nb8  1  0.816903  0.816903  0.183097  1
  Nb  Nb9  1  0.186318  0.186318  0.813682  1
  Nb  Nb10  1  0.814823  0.183730  0.815261  1
  Nb  Nb11  1  0.183730  0.814823  0.186186  1
  Nb  Nb12  1  0.183730  0.814823  0.815261  1
  Nb  Nb13  1  0.814823  0.183730  0.186186  1
  Ni  Ni14  1  0.742932  0.416340  0.420364  1
  Ni  Ni15  1  0.416340  0.742932  0.420364  1
  Ni  Ni16  1  0.419195  0.419195  0.738668  1
  Ni  Ni17  1  0.419195  0.419195  0.422942  1
  Ni  Ni18  1  0.511123  0.832289  0.828294  1
  Ni  Ni19  1  0.832289  0.511123  0.828294  1
  Ni  Ni20  1  0.829841  0.829841  0.513867  1
  Ni  Ni21  1  0.829841  0.829841  0.826451  1
  W  W22  1  0.124892  0.625193  0.624957  1
  W  W23  1  0.625193  0.124892  0.624957  1
  N  N24  1  0.619538  0.126704  0.126879  1
  N  N25  1  0.126704  0.619538  0.126879  1
  N  N26  1  0.126679  0.126679  0.619668  1
  N  N27  1  0.126679  0.126679  0.126975  1
