# generated using pymatgen
data_Zr10TlAgSnBi5
_symmetry_space_group_name_H-M   'P 1'
_cell_length_a   8.95133219
_cell_length_b   8.95133301
_cell_length_c   6.00960827
_cell_angle_alpha   89.97757623
_cell_angle_beta   89.97758062
_cell_angle_gamma   120.20512817
_symmetry_Int_Tables_number   1
_chemical_formula_structural   Zr10TlAgSnBi5
_chemical_formula_sum   'Zr10 Tl1 Ag1 Sn1 Bi5'
_cell_volume   416.15071424
_cell_formula_units_Z   1
loop_
 _symmetry_equiv_pos_site_id
 _symmetry_equiv_pos_as_xyz
  1  'x, y, z'
loop_
 _atom_site_type_symbol
 _atom_site_label
 _atom_site_symmetry_multiplicity
 _atom_site_fract_x
 _atom_site_fract_y
 _atom_site_fract_z
 _atom_site_occupancy
  Zr  Zr0  1  0.000562  0.279016  0.249816  1
  Zr  Zr1  1  0.717035  0.993543  0.750751  1
  Zr  Zr2  1  0.720693  0.720693  0.248282  1
  Zr  Zr3  1  0.665708  0.337287  0.501770  1
  Zr  Zr4  1  0.993543  0.717035  0.750751  1
  Zr  Zr5  1  0.283179  0.283179  0.750323  1
  Zr  Zr6  1  0.337037  0.665627  0.998454  1
  Zr  Zr7  1  0.665627  0.337037  0.998454  1
  Zr  Zr8  1  0.337287  0.665708  0.501770  1
  Zr  Zr9  1  0.279016  0.000562  0.249816  1
  Tl  Tl10  1  0.000058  0.000058  0.501715  1
  Ag  Ag11  1  0.000126  0.000126  0.998228  1
  Sn  Sn12  1  0.619679  0.619679  0.751388  1
  Bi  Bi13  1  0.618561  0.000851  0.248214  1
  Bi  Bi14  1  0.379914  0.999498  0.752272  1
  Bi  Bi15  1  0.381624  0.381624  0.247509  1
  Bi  Bi16  1  0.000851  0.618561  0.248214  1
  Bi  Bi17  1  0.999498  0.379914  0.752272  1
