# generated using pymatgen
data_Tb7Dy2Th5Rh6
_symmetry_space_group_name_H-M   'P 1'
_cell_length_a   9.88998500
_cell_length_b   9.76804238
_cell_length_c   6.38222588
_cell_angle_alpha   90.25724265
_cell_angle_beta   90.00000000
_cell_angle_gamma   120.41383853
_symmetry_Int_Tables_number   1
_chemical_formula_structural   Tb7Dy2Th5Rh6
_chemical_formula_sum   'Tb7 Dy2 Th5 Rh6'
_cell_volume   531.70884122
_cell_formula_units_Z   1
loop_
 _symmetry_equiv_pos_site_id
 _symmetry_equiv_pos_as_xyz
  1  'x, y, z'
loop_
 _atom_site_type_symbol
 _atom_site_label
 _atom_site_symmetry_multiplicity
 _atom_site_fract_x
 _atom_site_fract_y
 _atom_site_fract_z
 _atom_site_occupancy
  Tb  Tb0  1  0.873432  0.746865  0.737394  1
  Tb  Tb1  1  0.539730  0.461791  0.443192  1
  Tb  Tb2  1  0.922061  0.461791  0.443192  1
  Tb  Tb3  1  0.539604  0.079207  0.442126  1
  Tb  Tb4  1  0.461866  0.539620  0.940302  1
  Tb  Tb5  1  0.077754  0.539620  0.940302  1
  Tb  Tb6  1  0.460309  0.920616  0.940449  1
  Dy  Dy7  1  0.332938  0.665876  0.459777  1
  Dy  Dy8  1  0.666826  0.333652  0.961093  1
  Th  Th9  1  0.126246  0.870840  0.238388  1
  Th  Th10  1  0.744595  0.870840  0.238388  1
  Th  Th11  1  0.127553  0.255106  0.235460  1
  Th  Th12  1  0.869312  0.125676  0.736011  1
  Th  Th13  1  0.256365  0.125676  0.736011  1
  Rh  Rh14  1  0.817716  0.182770  0.199154  1
  Rh  Rh15  1  0.365056  0.182770  0.199154  1
  Rh  Rh16  1  0.816817  0.633631  0.205150  1
  Rh  Rh17  1  0.191372  0.820073  0.694945  1
  Rh  Rh18  1  0.628701  0.820073  0.694945  1
  Rh  Rh19  1  0.181752  0.363505  0.701131  1
