# generated using pymatgen
data_SrPrBi2(Pt2O7)2
_symmetry_space_group_name_H-M   'P 1'
_cell_length_a   7.41743778
_cell_length_b   7.39250804
_cell_length_c   7.41743827
_cell_angle_alpha   60.67061791
_cell_angle_beta   60.96055941
_cell_angle_gamma   60.67061464
_symmetry_Int_Tables_number   1
_chemical_formula_structural   SrPrBi2(Pt2O7)2
_chemical_formula_sum   'Sr1 Pr1 Bi2 Pt4 O14'
_cell_volume   292.57049098
_cell_formula_units_Z   1
loop_
 _symmetry_equiv_pos_site_id
 _symmetry_equiv_pos_as_xyz
  1  'x, y, z'
loop_
 _atom_site_type_symbol
 _atom_site_label
 _atom_site_symmetry_multiplicity
 _atom_site_fract_x
 _atom_site_fract_y
 _atom_site_fract_z
 _atom_site_occupancy
  Sr  Sr0  1  0.125000  0.125000  0.125000  1
  Pr  Pr1  1  0.125000  0.625000  0.125000  1
  Bi  Bi2  1  0.125000  0.125000  0.625000  1
  Bi  Bi3  1  0.625000  0.125000  0.125000  1
  Pt  Pt4  1  0.625000  0.625000  0.125000  1
  Pt  Pt5  1  0.625000  0.125000  0.625000  1
  Pt  Pt6  1  0.125000  0.625000  0.625000  1
  Pt  Pt7  1  0.625000  0.625000  0.625000  1
  O  O8  1  0.259546  0.247870  0.259546  1
  O  O9  1  0.990454  0.002130  0.990454  1
  O  O10  1  0.544218  0.954626  0.544218  1
  O  O11  1  0.292914  0.701226  0.292914  1
  O  O12  1  0.541781  0.542170  0.956259  1
  O  O13  1  0.956259  0.542170  0.541781  1
  O  O14  1  0.548699  0.956345  0.955621  1
  O  O15  1  0.955621  0.956345  0.548699  1
  O  O16  1  0.957086  0.548774  0.957086  1
  O  O17  1  0.701301  0.293655  0.294379  1
  O  O18  1  0.293741  0.707830  0.708219  1
  O  O19  1  0.705782  0.295374  0.705782  1
  O  O20  1  0.294379  0.293655  0.701301  1
  O  O21  1  0.708219  0.707830  0.293741  1
