# generated using pymatgen
data_K10SrSn12
_symmetry_space_group_name_H-M   'P 1'
_cell_length_a   10.58897770
_cell_length_b   10.58897839
_cell_length_c   10.58897800
_cell_angle_alpha   109.47121798
_cell_angle_beta   109.47121929
_cell_angle_gamma   109.47122066
_symmetry_Int_Tables_number   1
_chemical_formula_structural   K10SrSn12
_chemical_formula_sum   'K10 Sr1 Sn12'
_cell_volume   913.98753343
_cell_formula_units_Z   1
loop_
 _symmetry_equiv_pos_site_id
 _symmetry_equiv_pos_as_xyz
  1  'x, y, z'
loop_
 _atom_site_type_symbol
 _atom_site_label
 _atom_site_symmetry_multiplicity
 _atom_site_fract_x
 _atom_site_fract_y
 _atom_site_fract_z
 _atom_site_occupancy
  K  K0  1  0.500000  0.250000  0.750000  1
  K  K1  1  0.750000  0.250000  0.500000  1
  K  K2  1  0.250000  0.750000  0.500000  1
  K  K3  1  0.500000  0.750000  0.250000  1
  K  K4  1  0.601617  0.000000  0.000000  1
  K  K5  1  0.398383  0.398383  0.398383  1
  K  K6  1  0.000000  0.601617  0.000000  1
  K  K7  1  0.000000  0.000000  0.601617  1
  K  K8  1  0.750000  0.500000  0.250000  1
  K  K9  1  0.250000  0.500000  0.750000  1
  Sr  Sr10  1  0.000000  0.000000  0.000000  1
  Sn  Sn11  1  0.000000  0.176745  0.347998  1
  Sn  Sn12  1  0.823255  0.171253  0.823255  1
  Sn  Sn13  1  0.652002  0.652002  0.828747  1
  Sn  Sn14  1  0.347998  0.176745  0.000000  1
  Sn  Sn15  1  0.176745  0.347998  0.000000  1
  Sn  Sn16  1  0.347998  0.000000  0.176745  1
  Sn  Sn17  1  0.652002  0.828747  0.652002  1
  Sn  Sn18  1  0.828747  0.652002  0.652002  1
  Sn  Sn19  1  0.000000  0.347998  0.176745  1
  Sn  Sn20  1  0.823255  0.823255  0.171253  1
  Sn  Sn21  1  0.171253  0.823255  0.823255  1
  Sn  Sn22  1  0.176745  0.000000  0.347998  1
