# generated using pymatgen
data_Ti12Mn5FeIr6
_symmetry_space_group_name_H-M   'P 1'
_cell_length_a   4.29488900
_cell_length_b   6.11868100
_cell_length_c   12.91892000
_cell_angle_alpha   90.00000000
_cell_angle_beta   90.00157209
_cell_angle_gamma   90.00000000
_symmetry_Int_Tables_number   1
_chemical_formula_structural   Ti12Mn5FeIr6
_chemical_formula_sum   'Ti12 Mn5 Fe1 Ir6'
_cell_volume   339.49701848
_cell_formula_units_Z   1
loop_
 _symmetry_equiv_pos_site_id
 _symmetry_equiv_pos_as_xyz
  1  'x, y, z'
loop_
 _atom_site_type_symbol
 _atom_site_label
 _atom_site_symmetry_multiplicity
 _atom_site_fract_x
 _atom_site_fract_y
 _atom_site_fract_z
 _atom_site_occupancy
  Ti  Ti0  1  0.499988  0.249057  0.000601  1
  Ti  Ti1  1  0.499988  0.750943  0.000601  1
  Ti  Ti2  1  0.999595  0.250041  0.166919  1
  Ti  Ti3  1  0.999595  0.749959  0.166919  1
  Ti  Ti4  1  0.499593  0.250050  0.333338  1
  Ti  Ti5  1  0.499593  0.749950  0.333338  1
  Ti  Ti6  1  0.000002  0.250106  0.499686  1
  Ti  Ti7  1  0.000002  0.749894  0.499686  1
  Ti  Ti8  1  0.500397  0.249318  0.666062  1
  Ti  Ti9  1  0.500397  0.750682  0.666062  1
  Ti  Ti10  1  0.000401  0.248236  0.833396  1
  Ti  Ti11  1  0.000401  0.751764  0.833396  1
  Mn  Mn12  1  0.999991  0.000000  0.999385  1
  Mn  Mn13  1  0.499440  0.500001  0.166128  1
  Mn  Mn14  1  0.999464  0.000000  0.333357  1
  Mn  Mn15  1  0.500002  0.500001  0.500505  1
  Mn  Mn16  1  0.000552  0.000000  0.667276  1
  Fe  Fe17  1  0.500681  0.500001  0.833339  1
  Ir  Ir18  1  0.999956  0.500001  0.999522  1
  Ir  Ir19  1  0.499552  0.000000  0.166396  1
  Ir  Ir20  1  0.999548  0.500001  0.333325  1
  Ir  Ir21  1  0.499999  0.000000  0.500246  1
  Ir  Ir22  1  0.000438  0.500001  0.667155  1
  Ir  Ir23  1  0.500429  0.000000  0.833362  1
