# generated using pymatgen
data_RbCe2F8
_symmetry_space_group_name_H-M   'P 1'
_cell_length_a   6.55788577
_cell_length_b   6.55788667
_cell_length_c   4.46504800
_cell_angle_alpha   85.29731268
_cell_angle_beta   85.29732080
_cell_angle_gamma   113.54348287
_symmetry_Int_Tables_number   1
_chemical_formula_structural   RbCe2F8
_chemical_formula_sum   'Rb1 Ce2 F8'
_cell_volume   174.05730127
_cell_formula_units_Z   1
loop_
 _symmetry_equiv_pos_site_id
 _symmetry_equiv_pos_as_xyz
  1  'x, y, z'
loop_
 _atom_site_type_symbol
 _atom_site_label
 _atom_site_symmetry_multiplicity
 _atom_site_fract_x
 _atom_site_fract_y
 _atom_site_fract_z
 _atom_site_occupancy
  Rb  Rb0  1  0.000000  0.000000  0.500000  1
  Ce  Ce1  1  0.676483  0.323517  0.000000  1
  Ce  Ce2  1  0.323517  0.676483  0.000000  1
  F  F3  1  0.955726  0.664972  0.065355  1
  F  F4  1  0.664972  0.955726  0.065355  1
  F  F5  1  0.603205  0.603205  0.736850  1
  F  F6  1  0.268011  0.731989  0.500000  1
  F  F7  1  0.731989  0.268011  0.500000  1
  F  F8  1  0.396795  0.396795  0.263150  1
  F  F9  1  0.335028  0.044274  0.934645  1
  F  F10  1  0.044274  0.335028  0.934645  1
