# generated using pymatgen
data_Zr6SbTeC2
_symmetry_space_group_name_H-M   'P 1'
_cell_length_a   6.12934423
_cell_length_b   6.12934377
_cell_length_c   9.02908400
_cell_angle_alpha   90.00000000
_cell_angle_beta   90.00000000
_cell_angle_gamma   146.04442028
_symmetry_Int_Tables_number   1
_chemical_formula_structural   Zr6SbTeC2
_chemical_formula_sum   'Zr6 Sb1 Te1 C2'
_cell_volume   189.46707068
_cell_formula_units_Z   1
loop_
 _symmetry_equiv_pos_site_id
 _symmetry_equiv_pos_as_xyz
  1  'x, y, z'
loop_
 _atom_site_type_symbol
 _atom_site_label
 _atom_site_symmetry_multiplicity
 _atom_site_fract_x
 _atom_site_fract_y
 _atom_site_fract_z
 _atom_site_occupancy
  Zr  Zr0  1  0.375395  0.624607  0.047055  1
  Zr  Zr1  1  0.049474  0.950528  0.250000  1
  Zr  Zr2  1  0.375395  0.624607  0.452945  1
  Zr  Zr3  1  0.624895  0.375107  0.547464  1
  Zr  Zr4  1  0.951182  0.048820  0.750000  1
  Zr  Zr5  1  0.624895  0.375107  0.952536  1
  Sb  Sb6  1  0.252484  0.747518  0.750000  1
  Te  Te7  1  0.747221  0.252781  0.250000  1
  C  C8  1  0.999533  0.000467  0.000419  1
  C  C9  1  0.999533  0.000467  0.499581  1
