# generated using pymatgen
data_PuCd6BiO12
_symmetry_space_group_name_H-M   'P 1'
_cell_length_a   5.82501246
_cell_length_b   5.66601524
_cell_length_c   10.04146400
_cell_angle_alpha   55.84553068
_cell_angle_beta   90.25225908
_cell_angle_gamma   91.15052364
_symmetry_Int_Tables_number   1
_chemical_formula_structural   PuCd6BiO12
_chemical_formula_sum   'Pu1 Cd6 Bi1 O12'
_cell_volume   274.18977506
_cell_formula_units_Z   1
loop_
 _symmetry_equiv_pos_site_id
 _symmetry_equiv_pos_as_xyz
  1  'x, y, z'
loop_
 _atom_site_type_symbol
 _atom_site_label
 _atom_site_symmetry_multiplicity
 _atom_site_fract_x
 _atom_site_fract_y
 _atom_site_fract_z
 _atom_site_occupancy
  Pu  Pu0  1  0.500000  0.000000  0.500000  1
  Cd  Cd1  1  0.951269  0.259553  0.232302  1
  Cd  Cd2  1  0.451561  0.758953  0.246724  1
  Cd  Cd3  1  0.048731  0.740447  0.767698  1
  Cd  Cd4  1  0.548439  0.241047  0.753276  1
  Cd  Cd5  1  0.000000  0.500000  0.500000  1
  Cd  Cd6  1  0.500000  0.500000  0.000000  1
  Bi  Bi7  1  0.000000  0.000000  0.000000  1
  O  O8  1  0.293988  0.907422  0.911152  1
  O  O9  1  0.796110  0.076916  0.574803  1
  O  O10  1  0.706012  0.092578  0.088848  1
  O  O11  1  0.203890  0.923084  0.425197  1
  O  O12  1  0.182473  0.255917  0.056689  1
  O  O13  1  0.665236  0.753775  0.446128  1
  O  O14  1  0.817527  0.744083  0.943311  1
  O  O15  1  0.334764  0.246225  0.553872  1
  O  O16  1  0.423308  0.649956  0.726452  1
  O  O17  1  0.915583  0.366511  0.758780  1
  O  O18  1  0.576692  0.350044  0.273548  1
  O  O19  1  0.084417  0.633489  0.241220  1
