# generated using pymatgen
data_Li5(AcSb2)4
_symmetry_space_group_name_H-M   'P 1'
_cell_length_a   4.54232300
_cell_length_b   4.54232300
_cell_length_c   22.79710900
_cell_angle_alpha   90.00000000
_cell_angle_beta   90.00000000
_cell_angle_gamma   90.00000000
_symmetry_Int_Tables_number   1
_chemical_formula_structural   Li5(AcSb2)4
_chemical_formula_sum   'Li5 Ac4 Sb8'
_cell_volume   470.36587066
_cell_formula_units_Z   1
loop_
 _symmetry_equiv_pos_site_id
 _symmetry_equiv_pos_as_xyz
  1  'x, y, z'
loop_
 _atom_site_type_symbol
 _atom_site_label
 _atom_site_symmetry_multiplicity
 _atom_site_fract_x
 _atom_site_fract_y
 _atom_site_fract_z
 _atom_site_occupancy
  Li  Li0  1  0.500000  0.000000  0.253598  1
  Li  Li1  1  0.500000  0.000000  0.748655  1
  Li  Li2  1  0.000000  0.500000  0.253598  1
  Li  Li3  1  0.000000  0.500000  0.748655  1
  Li  Li4  1  0.500000  0.500000  0.061571  1
  Ac  Ac5  1  0.500000  0.500000  0.383442  1
  Ac  Ac6  1  0.500000  0.500000  0.877111  1
  Ac  Ac7  1  0.000000  0.000000  0.119869  1
  Ac  Ac8  1  0.000000  0.000000  0.620195  1
  Sb  Sb9  1  0.500000  0.000000  0.995523  1
  Sb  Sb10  1  0.500000  0.000000  0.501182  1
  Sb  Sb11  1  0.000000  0.500000  0.995523  1
  Sb  Sb12  1  0.000000  0.500000  0.501182  1
  Sb  Sb13  1  0.500000  0.500000  0.177619  1
  Sb  Sb14  1  0.500000  0.500000  0.674336  1
  Sb  Sb15  1  0.000000  0.000000  0.327248  1
  Sb  Sb16  1  0.000000  0.000000  0.824495  1
