# generated using pymatgen
data_Sr4CaSm(RhO6)2
_symmetry_space_group_name_H-M   'P 1'
_cell_length_a   5.94492373
_cell_length_b   5.80972094
_cell_length_c   10.07722672
_cell_angle_alpha   55.35579191
_cell_angle_beta   90.15484000
_cell_angle_gamma   90.02576410
_symmetry_Int_Tables_number   1
_chemical_formula_structural   Sr4CaSm(RhO6)2
_chemical_formula_sum   'Sr4 Ca1 Sm1 Rh2 O12'
_cell_volume   286.33936640
_cell_formula_units_Z   1
loop_
 _symmetry_equiv_pos_site_id
 _symmetry_equiv_pos_as_xyz
  1  'x, y, z'
loop_
 _atom_site_type_symbol
 _atom_site_label
 _atom_site_symmetry_multiplicity
 _atom_site_fract_x
 _atom_site_fract_y
 _atom_site_fract_z
 _atom_site_occupancy
  Sr  Sr0  1  0.543818  0.731715  0.756192  1
  Sr  Sr1  1  0.048017  0.255462  0.756353  1
  Sr  Sr2  1  0.951983  0.744538  0.243647  1
  Sr  Sr3  1  0.456182  0.268285  0.243808  1
  Ca  Ca4  1  0.500000  0.000000  0.000000  1
  Sm  Sm5  1  0.000000  0.000000  0.500000  1
  Rh  Rh6  1  0.000000  0.500000  0.000000  1
  Rh  Rh7  1  0.500000  0.500000  0.500000  1
  O  O8  1  0.525470  0.810276  0.271913  1
  O  O9  1  0.026266  0.183569  0.231482  1
  O  O10  1  0.474530  0.189724  0.728087  1
  O  O11  1  0.973734  0.816431  0.768518  1
  O  O12  1  0.773267  0.639899  0.548286  1
  O  O13  1  0.269698  0.359516  0.953200  1
  O  O14  1  0.226733  0.360101  0.451714  1
  O  O15  1  0.730302  0.640484  0.046800  1
  O  O16  1  0.191785  0.729781  0.041049  1
  O  O17  1  0.691995  0.269700  0.457011  1
  O  O18  1  0.808215  0.270219  0.958951  1
  O  O19  1  0.308005  0.730300  0.542989  1
