# generated using pymatgen
data_Ce2Ho3Al2Os3
_symmetry_space_group_name_H-M   'P 1'
_cell_length_a   8.40827802
_cell_length_b   8.43427206
_cell_length_c   8.44859577
_cell_angle_alpha   110.13850687
_cell_angle_beta   110.23105711
_cell_angle_gamma   109.69649129
_symmetry_Int_Tables_number   1
_chemical_formula_structural   Ce2Ho3Al2Os3
_chemical_formula_sum   'Ce4 Ho6 Al4 Os6'
_cell_volume   451.57094983
_cell_formula_units_Z   2
loop_
 _symmetry_equiv_pos_site_id
 _symmetry_equiv_pos_as_xyz
  1  'x, y, z'
loop_
 _atom_site_type_symbol
 _atom_site_label
 _atom_site_symmetry_multiplicity
 _atom_site_fract_x
 _atom_site_fract_y
 _atom_site_fract_z
 _atom_site_occupancy
  Ce  Ce0  1  0.505520  0.994174  0.706505  1
  Ce  Ce1  1  0.253993  0.196827  0.941693  1
  Ce  Ce2  1  0.937080  0.250533  0.190484  1
  Ce  Ce3  1  0.192529  0.938826  0.249474  1
  Ho  Ho4  1  0.776588  0.777537  0.778120  1
  Ho  Ho5  1  0.316756  0.568737  0.750944  1
  Ho  Ho6  1  0.754403  0.321780  0.570096  1
  Ho  Ho7  1  0.569530  0.746545  0.311857  1
  Ho  Ho8  1  0.722490  0.509732  0.998688  1
  Ho  Ho9  1  0.995872  0.721362  0.509290  1
  Al  Al10  1  0.407786  0.405277  0.407526  1
  Al  Al11  1  0.096121  0.498686  0.005279  1
  Al  Al12  1  0.998963  0.093067  0.498725  1
  Al  Al13  1  0.497070  0.000941  0.092035  1
  Os  Os14  1  0.886690  0.119987  0.750087  1
  Os  Os15  1  0.749323  0.891523  0.120473  1
  Os  Os16  1  0.119775  0.749116  0.895184  1
  Os  Os17  1  0.240434  0.612990  0.379008  1
  Os  Os18  1  0.370765  0.232951  0.610703  1
  Os  Os19  1  0.608308  0.369409  0.233830  1
