# generated using pymatgen
data_Pr20Ga7Si5
_symmetry_space_group_name_H-M   'P 1'
_cell_length_a   7.93058204
_cell_length_b   7.92463884
_cell_length_c   14.49148415
_cell_angle_alpha   89.97381198
_cell_angle_beta   89.96283437
_cell_angle_gamma   89.90666874
_symmetry_Int_Tables_number   1
_chemical_formula_structural   Pr20Ga7Si5
_chemical_formula_sum   'Pr20 Ga7 Si5'
_cell_volume   910.74478701
_cell_formula_units_Z   1
loop_
 _symmetry_equiv_pos_site_id
 _symmetry_equiv_pos_as_xyz
  1  'x, y, z'
loop_
 _atom_site_type_symbol
 _atom_site_label
 _atom_site_symmetry_multiplicity
 _atom_site_fract_x
 _atom_site_fract_y
 _atom_site_fract_z
 _atom_site_occupancy
  Pr  Pr0  1  0.816548  0.838191  0.604619  1
  Pr  Pr1  1  0.185759  0.833954  0.107277  1
  Pr  Pr2  1  0.163558  0.811177  0.391990  1
  Pr  Pr3  1  0.005206  0.502329  0.718251  1
  Pr  Pr4  1  0.834552  0.185815  0.393122  1
  Pr  Pr5  1  0.686059  0.662453  0.392748  1
  Pr  Pr6  1  0.657926  0.311947  0.605296  1
  Pr  Pr7  1  0.335744  0.686108  0.606343  1
  Pr  Pr8  1  0.998198  0.503786  0.219697  1
  Pr  Pr9  1  0.663222  0.685368  0.107566  1
  Pr  Pr10  1  0.684617  0.339498  0.895565  1
  Pr  Pr11  1  0.839744  0.813477  0.894349  1
  Pr  Pr12  1  0.316495  0.339745  0.393905  1
  Pr  Pr13  1  0.187943  0.163399  0.606892  1
  Pr  Pr14  1  0.810617  0.163703  0.107537  1
  Pr  Pr15  1  0.311057  0.661957  0.892905  1
  Pr  Pr16  1  0.340668  0.315727  0.106195  1
  Pr  Pr17  1  0.504324  0.999383  0.280492  1
  Pr  Pr18  1  0.164855  0.185204  0.893822  1
  Pr  Pr19  1  0.494765  0.003105  0.781545  1
  Ga  Ga20  1  0.619118  0.618670  0.749230  1
  Ga  Ga21  1  0.998750  0.498276  0.502326  1
  Ga  Ga22  1  0.881175  0.118637  0.750654  1
  Ga  Ga23  1  0.498093  0.997550  0.496672  1
  Ga  Ga24  1  0.499689  0.996974  0.997543  1
  Ga  Ga25  1  0.118952  0.119141  0.250258  1
  Ga  Ga26  1  0.000466  0.497908  0.003387  1
  Si  Si27  1  0.615780  0.384655  0.250592  1
  Si  Si28  1  0.118527  0.882246  0.749262  1
  Si  Si29  1  0.381299  0.381893  0.750420  1
  Si  Si30  1  0.384627  0.615794  0.249673  1
  Si  Si31  1  0.881667  0.881929  0.249867  1
