# generated using pymatgen
data_Sc8Nb9Re3Si15P
_symmetry_space_group_name_H-M   'P 1'
_cell_length_a   6.59381862
_cell_length_b   6.85414723
_cell_length_c   13.00958741
_cell_angle_alpha   90.06898151
_cell_angle_beta   90.10078786
_cell_angle_gamma   90.09448288
_symmetry_Int_Tables_number   1
_chemical_formula_structural   Sc8Nb9Re3Si15P
_chemical_formula_sum   'Sc8 Nb9 Re3 Si15 P1'
_cell_volume   587.96621315
_cell_formula_units_Z   1
loop_
 _symmetry_equiv_pos_site_id
 _symmetry_equiv_pos_as_xyz
  1  'x, y, z'
loop_
 _atom_site_type_symbol
 _atom_site_label
 _atom_site_symmetry_multiplicity
 _atom_site_fract_x
 _atom_site_fract_y
 _atom_site_fract_z
 _atom_site_occupancy
  Sc  Sc0  1  0.496528  0.675275  0.589460  1
  Sc  Sc1  1  0.996949  0.825871  0.908809  1
  Sc  Sc2  1  0.501909  0.325387  0.091636  1
  Sc  Sc3  1  0.996579  0.172449  0.409062  1
  Sc  Sc4  1  0.502380  0.321881  0.408513  1
  Sc  Sc5  1  0.999379  0.173418  0.091371  1
  Sc  Sc6  1  0.496606  0.671203  0.909521  1
  Sc  Sc7  1  0.994616  0.824224  0.590823  1
  Nb  Nb8  1  0.671864  0.160433  0.624738  1
  Nb  Nb9  1  0.173194  0.334551  0.873628  1
  Nb  Nb10  1  0.329852  0.835071  0.124424  1
  Nb  Nb11  1  0.827197  0.670661  0.377231  1
  Nb  Nb12  1  0.332625  0.835973  0.377433  1
  Nb  Nb13  1  0.828863  0.667679  0.124866  1
  Nb  Nb14  1  0.672948  0.164851  0.872135  1
  Nb  Nb15  1  0.171486  0.336464  0.625754  1
  Nb  Nb16  1  0.657629  0.996136  0.251729  1
  Re  Re17  1  0.842783  0.504093  0.748930  1
  Re  Re18  1  0.341238  0.994559  0.749394  1
  Re  Re19  1  0.158950  0.504433  0.251436  1
  Si  Si20  1  0.170094  0.536527  0.042001  1
  Si  Si21  1  0.332530  0.034518  0.954631  1
  Si  Si22  1  0.830560  0.463973  0.544267  1
  Si  Si23  1  0.324282  0.036731  0.546047  1
  Si  Si24  1  0.832732  0.464557  0.955923  1
  Si  Si25  1  0.669038  0.964268  0.039330  1
  Si  Si26  1  0.170419  0.536418  0.457372  1
  Si  Si27  1  0.477135  0.389982  0.748794  1
  Si  Si28  1  0.975478  0.109639  0.749177  1
  Si  Si29  1  0.525326  0.609109  0.250335  1
  Si  Si30  1  0.034578  0.886679  0.250467  1
  Si  Si31  1  0.701738  0.849987  0.750563  1
  Si  Si32  1  0.203483  0.648495  0.750024  1
  Si  Si33  1  0.289781  0.151346  0.250014  1
  Si  Si34  1  0.798820  0.360437  0.250275  1
  P  P35  1  0.670426  0.962728  0.459887  1
