# generated using pymatgen
data_Tm3Ni6B2Ir
_symmetry_space_group_name_H-M   'P 1'
_cell_length_a   5.03573600
_cell_length_b   5.03573624
_cell_length_c   14.55704600
_cell_angle_alpha   90.00000000
_cell_angle_beta   90.00000000
_cell_angle_gamma   120.00001158
_symmetry_Int_Tables_number   1
_chemical_formula_structural   Tm3Ni6B2Ir
_chemical_formula_sum   'Tm6 Ni12 B4 Ir2'
_cell_volume   319.69052435
_cell_formula_units_Z   2
loop_
 _symmetry_equiv_pos_site_id
 _symmetry_equiv_pos_as_xyz
  1  'x, y, z'
loop_
 _atom_site_type_symbol
 _atom_site_label
 _atom_site_symmetry_multiplicity
 _atom_site_fract_x
 _atom_site_fract_y
 _atom_site_fract_z
 _atom_site_occupancy
  Tm  Tm0  1  0.333333  0.666667  0.531937  1
  Tm  Tm1  1  0.666667  0.333333  0.031937  1
  Tm  Tm2  1  0.666667  0.333333  0.468063  1
  Tm  Tm3  1  0.333333  0.666667  0.968063  1
  Tm  Tm4  1  0.333333  0.666667  0.750000  1
  Tm  Tm5  1  0.666667  0.333333  0.250000  1
  Ni  Ni6  1  0.165851  0.331702  0.151311  1
  Ni  Ni7  1  0.834149  0.668298  0.651311  1
  Ni  Ni8  1  0.668298  0.834149  0.151311  1
  Ni  Ni9  1  0.165851  0.834149  0.151311  1
  Ni  Ni10  1  0.834149  0.165851  0.651311  1
  Ni  Ni11  1  0.331702  0.165851  0.651311  1
  Ni  Ni12  1  0.834149  0.668298  0.848689  1
  Ni  Ni13  1  0.834149  0.165851  0.848689  1
  Ni  Ni14  1  0.331702  0.165851  0.848689  1
  Ni  Ni15  1  0.668298  0.834149  0.348689  1
  Ni  Ni16  1  0.165851  0.834149  0.348689  1
  Ni  Ni17  1  0.165851  0.331702  0.348689  1
  B  B18  1  0.333333  0.666667  0.250000  1
  B  B19  1  0.666667  0.333333  0.750000  1
  B  B20  1  0.000000  0.000000  0.250000  1
  B  B21  1  0.000000  0.000000  0.750000  1
  Ir  Ir22  1  0.000000  0.000000  0.000000  1
  Ir  Ir23  1  0.000000  0.000000  0.500000  1
