# generated using pymatgen
data_TbIn(SbO4)2
_symmetry_space_group_name_H-M   'P 1'
_cell_length_a   5.37416280
_cell_length_b   7.55414284
_cell_length_c   7.63170699
_cell_angle_alpha   80.38352788
_cell_angle_beta   87.28643917
_cell_angle_gamma   91.53319000
_symmetry_Int_Tables_number   1
_chemical_formula_structural   TbIn(SbO4)2
_chemical_formula_sum   'Tb2 In2 Sb4 O16'
_cell_volume   304.94062719
_cell_formula_units_Z   2
loop_
 _symmetry_equiv_pos_site_id
 _symmetry_equiv_pos_as_xyz
  1  'x, y, z'
loop_
 _atom_site_type_symbol
 _atom_site_label
 _atom_site_symmetry_multiplicity
 _atom_site_fract_x
 _atom_site_fract_y
 _atom_site_fract_z
 _atom_site_occupancy
  Tb  Tb0  1  0.753940  0.880557  0.370457  1
  Tb  Tb1  1  0.246060  0.119443  0.629543  1
  In  In2  1  0.719647  0.372283  0.330415  1
  In  In3  1  0.280353  0.627717  0.669585  1
  Sb  Sb4  1  0.774124  0.809071  0.839992  1
  Sb  Sb5  1  0.225876  0.190929  0.160008  1
  Sb  Sb6  1  0.248574  0.688699  0.172448  1
  Sb  Sb7  1  0.751426  0.311301  0.827552  1
  O  O8  1  0.905813  0.305103  0.064484  1
  O  O9  1  0.094187  0.694897  0.935516  1
  O  O10  1  0.377826  0.439278  0.175809  1
  O  O11  1  0.622174  0.560722  0.824191  1
  O  O12  1  0.103182  0.935437  0.174471  1
  O  O13  1  0.896818  0.064563  0.825529  1
  O  O14  1  0.579996  0.809949  0.069146  1
  O  O15  1  0.420004  0.190051  0.930854  1
  O  O16  1  0.993396  0.824838  0.613745  1
  O  O17  1  0.006604  0.175162  0.386255  1
  O  O18  1  0.423422  0.682954  0.397824  1
  O  O19  1  0.576578  0.317046  0.602176  1
  O  O20  1  0.489515  0.116989  0.329183  1
  O  O21  1  0.510485  0.883011  0.670817  1
  O  O22  1  0.930712  0.612693  0.307790  1
  O  O23  1  0.069288  0.387307  0.692210  1
