# generated using pymatgen
data_Er20IrRu5Au6
_symmetry_space_group_name_H-M   'P 1'
_cell_length_a   11.06149881
_cell_length_b   11.06149773
_cell_length_c   6.38879161
_cell_angle_alpha   90.00329094
_cell_angle_beta   90.00329335
_cell_angle_gamma   91.01199786
_symmetry_Int_Tables_number   1
_chemical_formula_structural   Er20IrRu5Au6
_chemical_formula_sum   'Er20 Ir1 Ru5 Au6'
_cell_volume   781.58980383
_cell_formula_units_Z   1
loop_
 _symmetry_equiv_pos_site_id
 _symmetry_equiv_pos_as_xyz
  1  'x, y, z'
loop_
 _atom_site_type_symbol
 _atom_site_label
 _atom_site_symmetry_multiplicity
 _atom_site_fract_x
 _atom_site_fract_y
 _atom_site_fract_z
 _atom_site_occupancy
  Er  Er0  1  0.304679  0.080163  0.365996  1
  Er  Er1  1  0.298885  0.907809  0.866055  1
  Er  Er2  1  0.705832  0.087783  0.873193  1
  Er  Er3  1  0.704609  0.924602  0.359475  1
  Er  Er4  1  0.576230  0.796876  0.860214  1
  Er  Er5  1  0.593125  0.201335  0.365928  1
  Er  Er6  1  0.413496  0.795589  0.373592  1
  Er  Er7  1  0.420125  0.195837  0.865241  1
  Er  Er8  1  0.203124  0.423770  0.639786  1
  Er  Er9  1  0.204411  0.586504  0.126408  1
  Er  Er10  1  0.798665  0.406875  0.134072  1
  Er  Er11  1  0.804163  0.579875  0.634759  1
  Er  Er12  1  0.919837  0.695321  0.134004  1
  Er  Er13  1  0.912217  0.294168  0.626807  1
  Er  Er14  1  0.092191  0.701115  0.633945  1
  Er  Er15  1  0.075398  0.295391  0.140525  1
  Er  Er16  1  0.995957  0.008319  0.498410  1
  Er  Er17  1  0.991681  0.004043  0.001590  1
  Er  Er18  1  0.492801  0.504581  0.999173  1
  Er  Er19  1  0.495419  0.507199  0.500827  1
  Ir  Ir20  1  0.347430  0.652570  0.750000  1
  Ru  Ru21  1  0.848333  0.151667  0.250000  1
  Ru  Ru22  1  0.500471  0.999682  0.119855  1
  Ru  Ru23  1  0.500598  0.999973  0.620424  1
  Ru  Ru24  1  0.000027  0.499402  0.879576  1
  Ru  Ru25  1  0.000318  0.499529  0.380145  1
  Au  Au26  1  0.841085  0.842456  0.748589  1
  Au  Au27  1  0.157544  0.158915  0.751411  1
  Au  Au28  1  0.151757  0.848243  0.250000  1
  Au  Au29  1  0.651165  0.348835  0.750000  1
  Au  Au30  1  0.656979  0.658548  0.249417  1
  Au  Au31  1  0.341452  0.343021  0.250583  1
