# generated using pymatgen
data_Cs2TcO4
_symmetry_space_group_name_H-M   'P 1'
_cell_length_a   6.67207200
_cell_length_b   8.70312000
_cell_length_c   11.77079600
_cell_angle_alpha   90.00000000
_cell_angle_beta   90.00000000
_cell_angle_gamma   90.00000000
_symmetry_Int_Tables_number   1
_chemical_formula_structural   Cs2TcO4
_chemical_formula_sum   'Cs8 Tc4 O16'
_cell_volume   683.50473723
_cell_formula_units_Z   4
loop_
 _symmetry_equiv_pos_site_id
 _symmetry_equiv_pos_as_xyz
  1  'x, y, z'
loop_
 _atom_site_type_symbol
 _atom_site_label
 _atom_site_symmetry_multiplicity
 _atom_site_fract_x
 _atom_site_fract_y
 _atom_site_fract_z
 _atom_site_occupancy
  Cs  Cs0  1  0.250000  0.998600  0.294477  1
  Cs  Cs1  1  0.750000  0.001400  0.705523  1
  Cs  Cs2  1  0.250000  0.498600  0.205523  1
  Cs  Cs3  1  0.750000  0.501400  0.794477  1
  Cs  Cs4  1  0.250000  0.179520  0.920027  1
  Cs  Cs5  1  0.750000  0.820480  0.079973  1
  Cs  Cs6  1  0.250000  0.679520  0.579973  1
  Cs  Cs7  1  0.750000  0.320480  0.420027  1
  Tc  Tc8  1  0.250000  0.226123  0.582189  1
  Tc  Tc9  1  0.750000  0.773877  0.417811  1
  Tc  Tc10  1  0.250000  0.726123  0.917811  1
  Tc  Tc11  1  0.750000  0.273877  0.082189  1
  O  O12  1  0.750000  0.693941  0.559136  1
  O  O13  1  0.250000  0.306059  0.440864  1
  O  O14  1  0.250000  0.806059  0.059136  1
  O  O15  1  0.750000  0.193941  0.940864  1
  O  O16  1  0.532518  0.708013  0.342263  1
  O  O17  1  0.032518  0.291987  0.657737  1
  O  O18  1  0.967482  0.208013  0.157737  1
  O  O19  1  0.467482  0.791987  0.842263  1
  O  O20  1  0.467482  0.291987  0.657737  1
  O  O21  1  0.967482  0.708013  0.342263  1
  O  O22  1  0.032518  0.791987  0.842263  1
  O  O23  1  0.532518  0.208013  0.157737  1
  O  O24  1  0.750000  0.478318  0.069662  1
  O  O25  1  0.250000  0.521682  0.930338  1
  O  O26  1  0.250000  0.021682  0.569662  1
  O  O27  1  0.750000  0.978318  0.430338  1
