# generated using pymatgen
data_CsRb2AgSn4
_symmetry_space_group_name_H-M   'P 1'
_cell_length_a   6.87281000
_cell_length_b   7.46101600
_cell_length_c   13.07396800
_cell_angle_alpha   90.00000000
_cell_angle_beta   90.00000000
_cell_angle_gamma   90.00000000
_symmetry_Int_Tables_number   1
_chemical_formula_structural   CsRb2AgSn4
_chemical_formula_sum   'Cs2 Rb4 Ag2 Sn8'
_cell_volume   670.40883173
_cell_formula_units_Z   2
loop_
 _symmetry_equiv_pos_site_id
 _symmetry_equiv_pos_as_xyz
  1  'x, y, z'
loop_
 _atom_site_type_symbol
 _atom_site_label
 _atom_site_symmetry_multiplicity
 _atom_site_fract_x
 _atom_site_fract_y
 _atom_site_fract_z
 _atom_site_occupancy
  Cs  Cs0  1  0.563759  0.000000  0.000000  1
  Cs  Cs1  1  0.436241  0.500000  0.500000  1
  Rb  Rb2  1  0.835041  0.500000  0.740938  1
  Rb  Rb3  1  0.835041  0.500000  0.259062  1
  Rb  Rb4  1  0.164959  0.000000  0.759062  1
  Rb  Rb5  1  0.164959  0.000000  0.240938  1
  Ag  Ag6  1  0.686654  0.500000  0.000000  1
  Ag  Ag7  1  0.313346  0.000000  0.500000  1
  Sn  Sn8  1  0.332029  0.500000  0.880169  1
  Sn  Sn9  1  0.332029  0.500000  0.119831  1
  Sn  Sn10  1  0.045591  0.289290  0.000000  1
  Sn  Sn11  1  0.045591  0.710710  0.000000  1
  Sn  Sn12  1  0.954409  0.789290  0.500000  1
  Sn  Sn13  1  0.954409  0.210710  0.500000  1
  Sn  Sn14  1  0.667971  0.000000  0.380169  1
  Sn  Sn15  1  0.667971  0.000000  0.619831  1
