# generated using pymatgen
data_Tb16Ho3TmIr12
_symmetry_space_group_name_H-M   'P 1'
_cell_length_a   10.93055100
_cell_length_b   10.93055100
_cell_length_c   6.38369000
_cell_angle_alpha   90.00000000
_cell_angle_beta   90.00000000
_cell_angle_gamma   90.00000000
_symmetry_Int_Tables_number   1
_chemical_formula_structural   Tb16Ho3TmIr12
_chemical_formula_sum   'Tb16 Ho3 Tm1 Ir12'
_cell_volume   762.70378007
_cell_formula_units_Z   1
loop_
 _symmetry_equiv_pos_site_id
 _symmetry_equiv_pos_as_xyz
  1  'x, y, z'
loop_
 _atom_site_type_symbol
 _atom_site_label
 _atom_site_symmetry_multiplicity
 _atom_site_fract_x
 _atom_site_fract_y
 _atom_site_fract_z
 _atom_site_occupancy
  Tb  Tb0  1  0.290461  0.087845  0.378384  1
  Tb  Tb1  1  0.290650  0.912105  0.878276  1
  Tb  Tb2  1  0.709350  0.087895  0.878276  1
  Tb  Tb3  1  0.709539  0.912155  0.378384  1
  Tb  Tb4  1  0.587913  0.790765  0.878327  1
  Tb  Tb5  1  0.587971  0.209228  0.378296  1
  Tb  Tb6  1  0.412029  0.790772  0.378296  1
  Tb  Tb7  1  0.412087  0.209235  0.878327  1
  Tb  Tb8  1  0.209228  0.412029  0.621704  1
  Tb  Tb9  1  0.209235  0.587913  0.121673  1
  Tb  Tb10  1  0.790765  0.412087  0.121673  1
  Tb  Tb11  1  0.790772  0.587971  0.621704  1
  Tb  Tb12  1  0.912105  0.709350  0.121724  1
  Tb  Tb13  1  0.912155  0.290461  0.621616  1
  Tb  Tb14  1  0.087845  0.709539  0.621616  1
  Tb  Tb15  1  0.087895  0.290650  0.121724  1
  Ho  Ho16  1  0.000000  0.000000  0.000000  1
  Ho  Ho17  1  0.500000  0.500000  0.000000  1
  Ho  Ho18  1  0.500000  0.500000  0.500000  1
  Tm  Tm19  1  0.000000  0.000000  0.500000  1
  Ir  Ir20  1  0.847829  0.152175  0.250594  1
  Ir  Ir21  1  0.847825  0.847829  0.749406  1
  Ir  Ir22  1  0.152175  0.152171  0.749406  1
  Ir  Ir23  1  0.152171  0.847825  0.250594  1
  Ir  Ir24  1  0.652575  0.347408  0.750017  1
  Ir  Ir25  1  0.652592  0.652575  0.249983  1
  Ir  Ir26  1  0.347408  0.347425  0.249983  1
  Ir  Ir27  1  0.347425  0.652592  0.750017  1
  Ir  Ir28  1  0.500000  0.000000  0.121984  1
  Ir  Ir29  1  0.500000  0.000000  0.621976  1
  Ir  Ir30  1  0.000000  0.500000  0.878016  1
  Ir  Ir31  1  0.000000  0.500000  0.378024  1
