# generated using pymatgen
data_Ce2Hf3SnRh10
_symmetry_space_group_name_H-M   'P 1'
_cell_length_a   4.25185900
_cell_length_b   5.76982124
_cell_length_c   11.22538951
_cell_angle_alpha   88.96549241
_cell_angle_beta   90.00000000
_cell_angle_gamma   90.00000000
_symmetry_Int_Tables_number   1
_chemical_formula_structural   Ce2Hf3SnRh10
_chemical_formula_sum   'Ce2 Hf3 Sn1 Rh10'
_cell_volume   275.34160352
_cell_formula_units_Z   1
loop_
 _symmetry_equiv_pos_site_id
 _symmetry_equiv_pos_as_xyz
  1  'x, y, z'
loop_
 _atom_site_type_symbol
 _atom_site_label
 _atom_site_symmetry_multiplicity
 _atom_site_fract_x
 _atom_site_fract_y
 _atom_site_fract_z
 _atom_site_occupancy
  Ce  Ce0  1  0.500000  0.173157  0.646981  1
  Ce  Ce1  1  0.500000  0.826843  0.353019  1
  Hf  Hf2  1  0.500000  0.662383  0.859485  1
  Hf  Hf3  1  0.500000  0.337617  0.140515  1
  Hf  Hf4  1  0.000000  0.000000  0.000000  1
  Sn  Sn5  1  0.000000  0.500000  0.500000  1
  Rh  Rh6  1  0.500000  0.190803  0.897008  1
  Rh  Rh7  1  0.500000  0.809197  0.102992  1
  Rh  Rh8  1  0.500000  0.696598  0.618607  1
  Rh  Rh9  1  0.500000  0.303402  0.381393  1
  Rh  Rh10  1  0.000000  0.428527  0.751677  1
  Rh  Rh11  1  0.000000  0.571473  0.248323  1
  Rh  Rh12  1  0.000000  0.000000  0.500000  1
  Rh  Rh13  1  0.000000  0.500000  0.000000  1
  Rh  Rh14  1  0.000000  0.085649  0.236777  1
  Rh  Rh15  1  0.000000  0.914351  0.763223  1
