# generated using pymatgen
data_TbNd7Hf11Si16Hg
_symmetry_space_group_name_H-M   'P 1'
_cell_length_a   7.39324211
_cell_length_b   7.39244076
_cell_length_c   13.48220117
_cell_angle_alpha   89.72166241
_cell_angle_beta   90.32151278
_cell_angle_gamma   89.66765928
_symmetry_Int_Tables_number   1
_chemical_formula_structural   TbNd7Hf11Si16Hg
_chemical_formula_sum   'Tb1 Nd7 Hf11 Si16 Hg1'
_cell_volume   736.82482050
_cell_formula_units_Z   1
loop_
 _symmetry_equiv_pos_site_id
 _symmetry_equiv_pos_as_xyz
  1  'x, y, z'
loop_
 _atom_site_type_symbol
 _atom_site_label
 _atom_site_symmetry_multiplicity
 _atom_site_fract_x
 _atom_site_fract_y
 _atom_site_fract_z
 _atom_site_occupancy
  Tb  Tb0  1  0.655575  0.003398  0.284260  1
  Nd  Nd1  1  0.996676  0.345271  0.211737  1
  Nd  Nd2  1  0.005603  0.656677  0.715853  1
  Nd  Nd3  1  0.155662  0.494222  0.464862  1
  Nd  Nd4  1  0.499523  0.847771  0.033095  1
  Nd  Nd5  1  0.847231  0.499189  0.967765  1
  Nd  Nd6  1  0.494287  0.155906  0.534205  1
  Nd  Nd7  1  0.345421  0.996762  0.788587  1
  Hf  Hf8  1  0.823661  0.824555  0.499511  1
  Hf  Hf9  1  0.323208  0.677240  0.249972  1
  Hf  Hf10  1  0.676778  0.322928  0.749995  1
  Hf  Hf11  1  0.145435  0.995295  0.374477  1
  Hf  Hf12  1  0.855203  0.003465  0.878368  1
  Hf  Hf13  1  0.506176  0.649415  0.625695  1
  Hf  Hf14  1  0.354643  0.489478  0.878302  1
  Hf  Hf15  1  0.490489  0.354668  0.122481  1
  Hf  Hf16  1  0.649207  0.505621  0.373406  1
  Hf  Hf17  1  0.994627  0.146475  0.624506  1
  Hf  Hf18  1  0.003567  0.856416  0.122592  1
  Si  Si19  1  0.365210  0.295425  0.315057  1
  Si  Si20  1  0.636954  0.702601  0.817592  1
  Si  Si21  1  0.206808  0.864252  0.566263  1
  Si  Si22  1  0.129130  0.772796  0.929007  1
  Si  Si23  1  0.771451  0.128981  0.072892  1
  Si  Si24  1  0.861798  0.204738  0.431492  1
  Si  Si25  1  0.297488  0.363326  0.685071  1
  Si  Si26  1  0.702051  0.639544  0.183057  1
  Si  Si27  1  0.297506  0.047562  0.193962  1
  Si  Si28  1  0.708740  0.950218  0.686500  1
  Si  Si29  1  0.451195  0.792996  0.435146  1
  Si  Si30  1  0.214159  0.571687  0.065524  1
  Si  Si31  1  0.571708  0.213727  0.934905  1
  Si  Si32  1  0.791454  0.449159  0.563668  1
  Si  Si33  1  0.048416  0.294127  0.806824  1
  Si  Si34  1  0.948356  0.709972  0.313287  1
  Hg  Hg35  1  0.174602  0.174138  0.000083  1
