# generated using pymatgen
data_ErZr(Al3Rh)3
_symmetry_space_group_name_H-M   'P 1'
_cell_length_a   7.50994404
_cell_length_b   7.49628227
_cell_length_c   9.35301100
_cell_angle_alpha   90.00000000
_cell_angle_beta   90.00000000
_cell_angle_gamma   119.61188317
_symmetry_Int_Tables_number   1
_chemical_formula_structural   ErZr(Al3Rh)3
_chemical_formula_sum   'Er2 Zr2 Al18 Rh6'
_cell_volume   457.77276425
_cell_formula_units_Z   2
loop_
 _symmetry_equiv_pos_site_id
 _symmetry_equiv_pos_as_xyz
  1  'x, y, z'
loop_
 _atom_site_type_symbol
 _atom_site_label
 _atom_site_symmetry_multiplicity
 _atom_site_fract_x
 _atom_site_fract_y
 _atom_site_fract_z
 _atom_site_occupancy
  Er  Er0  1  0.670719  0.994066  0.750000  1
  Er  Er1  1  0.329281  0.005934  0.250000  1
  Zr  Zr2  1  0.994717  0.670729  0.750000  1
  Zr  Zr3  1  0.005283  0.329271  0.250000  1
  Al  Al4  1  0.124661  0.122987  0.750000  1
  Al  Al5  1  0.875339  0.877013  0.250000  1
  Al  Al6  1  0.999242  0.336973  0.575280  1
  Al  Al7  1  0.000758  0.663027  0.424720  1
  Al  Al8  1  0.000758  0.663027  0.075280  1
  Al  Al9  1  0.332291  0.997840  0.921718  1
  Al  Al10  1  0.999242  0.336973  0.924720  1
  Al  Al11  1  0.667709  0.002160  0.078282  1
  Al  Al12  1  0.667709  0.002160  0.421718  1
  Al  Al13  1  0.332291  0.997840  0.578282  1
  Al  Al14  1  0.330972  0.333162  0.055506  1
  Al  Al15  1  0.669028  0.666838  0.944494  1
  Al  Al16  1  0.669028  0.666838  0.555506  1
  Al  Al17  1  0.330972  0.333162  0.444494  1
  Al  Al18  1  0.334577  0.549120  0.750000  1
  Al  Al19  1  0.665423  0.450880  0.250000  1
  Al  Al20  1  0.555519  0.343472  0.750000  1
  Al  Al21  1  0.444481  0.656528  0.250000  1
  Rh  Rh22  1  0.671866  0.326417  0.499168  1
  Rh  Rh23  1  0.328134  0.673583  0.500832  1
  Rh  Rh24  1  0.328134  0.673583  0.999168  1
  Rh  Rh25  1  0.671866  0.326417  0.000832  1
  Rh  Rh26  1  0.000000  0.000000  0.500000  1
  Rh  Rh27  1  0.000000  0.000000  0.000000  1
