# generated using pymatgen
data_Nd2GdCd3Sn2Au
_symmetry_space_group_name_H-M   'P 1'
_cell_length_a   7.63777100
_cell_length_b   7.63041962
_cell_length_c   4.61607500
_cell_angle_alpha   90.00000000
_cell_angle_beta   90.00000000
_cell_angle_gamma   120.03187080
_symmetry_Int_Tables_number   1
_chemical_formula_structural   Nd2GdCd3Sn2Au
_chemical_formula_sum   'Nd2 Gd1 Cd3 Sn2 Au1'
_cell_volume   232.90508961
_cell_formula_units_Z   1
loop_
 _symmetry_equiv_pos_site_id
 _symmetry_equiv_pos_as_xyz
  1  'x, y, z'
loop_
 _atom_site_type_symbol
 _atom_site_label
 _atom_site_symmetry_multiplicity
 _atom_site_fract_x
 _atom_site_fract_y
 _atom_site_fract_z
 _atom_site_occupancy
  Nd  Nd0  1  0.000325  0.594237  0.000000  1
  Nd  Nd1  1  0.406087  0.405763  0.000000  1
  Gd  Gd2  1  0.594258  0.000000  0.000000  1
  Cd  Cd3  1  0.239816  0.000000  0.500000  1
  Cd  Cd4  1  0.998051  0.236713  0.500000  1
  Cd  Cd5  1  0.761339  0.763287  0.500000  1
  Sn  Sn6  1  0.335517  0.669444  0.500000  1
  Sn  Sn7  1  0.666074  0.330556  0.500000  1
  Au  Au8  1  0.998533  0.000000  0.000000  1
