# generated using pymatgen
data_TmReF7
_symmetry_space_group_name_H-M   'P 1'
_cell_length_a   5.59761100
_cell_length_b   5.95889325
_cell_length_c   8.12399913
_cell_angle_alpha   102.50249005
_cell_angle_beta   90.00000000
_cell_angle_gamma   90.00000000
_symmetry_Int_Tables_number   1
_chemical_formula_structural   TmReF7
_chemical_formula_sum   'Tm2 Re2 F14'
_cell_volume   264.55472160
_cell_formula_units_Z   2
loop_
 _symmetry_equiv_pos_site_id
 _symmetry_equiv_pos_as_xyz
  1  'x, y, z'
loop_
 _atom_site_type_symbol
 _atom_site_label
 _atom_site_symmetry_multiplicity
 _atom_site_fract_x
 _atom_site_fract_y
 _atom_site_fract_z
 _atom_site_occupancy
  Tm  Tm0  1  0.698039  0.655521  0.685168  1
  Tm  Tm1  1  0.198039  0.344479  0.314832  1
  Re  Re2  1  0.709079  0.812574  0.225386  1
  Re  Re3  1  0.209079  0.187426  0.774614  1
  F  F4  1  0.892917  0.455606  0.478739  1
  F  F5  1  0.392917  0.544394  0.521261  1
  F  F6  1  0.426556  0.924747  0.769170  1
  F  F7  1  0.926556  0.075253  0.230830  1
  F  F8  1  0.942963  0.963090  0.761547  1
  F  F9  1  0.442963  0.036910  0.238453  1
  F  F10  1  0.995574  0.455828  0.789590  1
  F  F11  1  0.495574  0.544172  0.210410  1
  F  F12  1  0.703083  0.758977  0.976868  1
  F  F13  1  0.203083  0.241023  0.023132  1
  F  F14  1  0.710941  0.869223  0.474656  1
  F  F15  1  0.210941  0.130777  0.525344  1
  F  F16  1  0.497207  0.384978  0.785662  1
  F  F17  1  0.997207  0.615022  0.214338  1
