# generated using pymatgen
data_SrCaDy2(Ir2O7)2
_symmetry_space_group_name_H-M   'P 1'
_cell_length_a   7.28717040
_cell_length_b   7.31266343
_cell_length_c   7.29048000
_cell_angle_alpha   60.10029886
_cell_angle_beta   59.98497511
_cell_angle_gamma   60.07474406
_symmetry_Int_Tables_number   1
_chemical_formula_structural   SrCaDy2(Ir2O7)2
_chemical_formula_sum   'Sr1 Ca1 Dy2 Ir4 O14'
_cell_volume   275.04223023
_cell_formula_units_Z   1
loop_
 _symmetry_equiv_pos_site_id
 _symmetry_equiv_pos_as_xyz
  1  'x, y, z'
loop_
 _atom_site_type_symbol
 _atom_site_label
 _atom_site_symmetry_multiplicity
 _atom_site_fract_x
 _atom_site_fract_y
 _atom_site_fract_z
 _atom_site_occupancy
  Sr  Sr0  1  0.125000  0.625000  0.125000  1
  Ca  Ca1  1  0.625000  0.125000  0.125000  1
  Dy  Dy2  1  0.125000  0.125000  0.625000  1
  Dy  Dy3  1  0.125000  0.125000  0.125000  1
  Ir  Ir4  1  0.125000  0.625000  0.625000  1
  Ir  Ir5  1  0.625000  0.125000  0.625000  1
  Ir  Ir6  1  0.625000  0.625000  0.125000  1
  Ir  Ir7  1  0.625000  0.625000  0.625000  1
  O  O8  1  0.694606  0.706734  0.299330  1
  O  O9  1  0.294862  0.294099  0.705520  1
  O  O10  1  0.711502  0.295870  0.694037  1
  O  O11  1  0.294568  0.717943  0.296154  1
  O  O12  1  0.294568  0.717943  0.691334  1
  O  O13  1  0.711502  0.295870  0.298590  1
  O  O14  1  0.555394  0.543266  0.950670  1
  O  O15  1  0.955138  0.955901  0.544480  1
  O  O16  1  0.538498  0.954130  0.555963  1
  O  O17  1  0.955432  0.532057  0.953846  1
  O  O18  1  0.955432  0.532057  0.558666  1
  O  O19  1  0.538498  0.954130  0.951410  1
  O  O20  1  0.250937  0.228423  0.260321  1
  O  O21  1  0.999063  0.021577  0.989679  1
