# generated using pymatgen
data_Ca5Cu2Hg
_symmetry_space_group_name_H-M   'P 1'
_cell_length_a   9.21813765
_cell_length_b   9.21813719
_cell_length_c   9.21813721
_cell_angle_alpha   129.69892771
_cell_angle_beta   129.69892335
_cell_angle_gamma   73.88854282
_symmetry_Int_Tables_number   1
_chemical_formula_structural   Ca5Cu2Hg
_chemical_formula_sum   'Ca10 Cu4 Hg2'
_cell_volume   452.30345901
_cell_formula_units_Z   2
loop_
 _symmetry_equiv_pos_site_id
 _symmetry_equiv_pos_as_xyz
  1  'x, y, z'
loop_
 _atom_site_type_symbol
 _atom_site_label
 _atom_site_symmetry_multiplicity
 _atom_site_fract_x
 _atom_site_fract_y
 _atom_site_fract_z
 _atom_site_occupancy
  Ca  Ca0  1  0.528517  0.028517  0.838625  1
  Ca  Ca1  1  0.189893  0.689893  0.161375  1
  Ca  Ca2  1  0.028517  0.189893  0.500000  1
  Ca  Ca3  1  0.689893  0.528517  0.500000  1
  Ca  Ca4  1  0.471483  0.971483  0.161375  1
  Ca  Ca5  1  0.810107  0.310107  0.838625  1
  Ca  Ca6  1  0.971483  0.810107  0.500000  1
  Ca  Ca7  1  0.310107  0.471483  0.500000  1
  Ca  Ca8  1  0.500000  0.500000  0.000000  1
  Ca  Ca9  1  0.000000  0.000000  0.000000  1
  Cu  Cu10  1  0.614170  0.885830  0.500000  1
  Cu  Cu11  1  0.385830  0.114170  0.500000  1
  Cu  Cu12  1  0.114170  0.614170  0.728340  1
  Cu  Cu13  1  0.885830  0.385830  0.271660  1
  Hg  Hg14  1  0.250000  0.250000  0.000000  1
  Hg  Hg15  1  0.750000  0.750000  0.000000  1
