# generated using pymatgen
data_Sc2UMn2Co
_symmetry_space_group_name_H-M   'P 1'
_cell_length_a   5.19735977
_cell_length_b   4.82327262
_cell_length_c   8.54450000
_cell_angle_alpha   90.00000000
_cell_angle_beta   90.00000000
_cell_angle_gamma   117.64630742
_symmetry_Int_Tables_number   1
_chemical_formula_structural   Sc2UMn2Co
_chemical_formula_sum   'Sc4 U2 Mn4 Co2'
_cell_volume   189.74094643
_cell_formula_units_Z   2
loop_
 _symmetry_equiv_pos_site_id
 _symmetry_equiv_pos_as_xyz
  1  'x, y, z'
loop_
 _atom_site_type_symbol
 _atom_site_label
 _atom_site_symmetry_multiplicity
 _atom_site_fract_x
 _atom_site_fract_y
 _atom_site_fract_z
 _atom_site_occupancy
  Sc  Sc0  1  0.334378  0.641388  0.058583  1
  Sc  Sc1  1  0.665622  0.307009  0.558583  1
  Sc  Sc2  1  0.665622  0.307009  0.941417  1
  Sc  Sc3  1  0.334378  0.641388  0.441417  1
  U  U4  1  0.876146  0.705461  0.250000  1
  U  U5  1  0.123854  0.829315  0.750000  1
  Mn  Mn6  1  0.000000  0.973872  0.000000  1
  Mn  Mn7  1  0.000000  0.973872  0.500000  1
  Mn  Mn8  1  0.851622  0.228518  0.250000  1
  Mn  Mn9  1  0.148378  0.376896  0.750000  1
  Co  Co10  1  0.645270  0.830272  0.750000  1
  Co  Co11  1  0.354730  0.185002  0.250000  1
