# generated using pymatgen
data_K4UPaTe6
_symmetry_space_group_name_H-M   'P 1'
_cell_length_a   8.11787045
_cell_length_b   8.11837795
_cell_length_c   8.65045162
_cell_angle_alpha   80.84928133
_cell_angle_beta   80.85121269
_cell_angle_gamma   120.02343560
_symmetry_Int_Tables_number   1
_chemical_formula_structural   K4UPaTe6
_chemical_formula_sum   'K4 U1 Pa1 Te6'
_cell_volume   467.95707278
_cell_formula_units_Z   1
loop_
 _symmetry_equiv_pos_site_id
 _symmetry_equiv_pos_as_xyz
  1  'x, y, z'
loop_
 _atom_site_type_symbol
 _atom_site_label
 _atom_site_symmetry_multiplicity
 _atom_site_fract_x
 _atom_site_fract_y
 _atom_site_fract_z
 _atom_site_occupancy
  K  K0  1  0.345526  0.654477  0.499998  1
  K  K1  1  0.654716  0.345284  0.499998  1
  K  K2  1  0.999890  0.000112  0.499999  1
  K  K3  1  0.499996  0.500005  0.000000  1
  U  U4  1  0.831972  0.168033  0.000001  1
  Pa  Pa5  1  0.167931  0.832063  0.000003  1
  Te  Te6  1  0.800133  0.793891  0.210723  1
  Te  Te7  1  0.420648  0.054059  0.214424  1
  Te  Te8  1  0.060805  0.433664  0.214753  1
  Te  Te9  1  0.566337  0.939198  0.785245  1
  Te  Te10  1  0.945941  0.579352  0.785576  1
  Te  Te11  1  0.206107  0.199863  0.789279  1
