# generated using pymatgen
data_CsCaLa2(SbAu)4
_symmetry_space_group_name_H-M   'P 1'
_cell_length_a   4.68025300
_cell_length_b   4.68025189
_cell_length_c   18.49602800
_cell_angle_alpha   90.00000000
_cell_angle_beta   90.00000000
_cell_angle_gamma   120.00000078
_symmetry_Int_Tables_number   1
_chemical_formula_structural   CsCaLa2(SbAu)4
_chemical_formula_sum   'Cs1 Ca1 La2 Sb4 Au4'
_cell_volume   350.87114978
_cell_formula_units_Z   1
loop_
 _symmetry_equiv_pos_site_id
 _symmetry_equiv_pos_as_xyz
  1  'x, y, z'
loop_
 _atom_site_type_symbol
 _atom_site_label
 _atom_site_symmetry_multiplicity
 _atom_site_fract_x
 _atom_site_fract_y
 _atom_site_fract_z
 _atom_site_occupancy
  Cs  Cs0  1  0.000000  0.000000  0.250000  1
  Ca  Ca1  1  0.000000  0.000000  0.750000  1
  La  La2  1  0.000000  0.000000  0.521829  1
  La  La3  1  0.000000  0.000000  0.978171  1
  Sb  Sb4  1  0.333333  0.666667  0.402393  1
  Sb  Sb5  1  0.666667  0.333333  0.624105  1
  Sb  Sb6  1  0.666667  0.333333  0.875895  1
  Sb  Sb7  1  0.333333  0.666667  0.097607  1
  Au  Au8  1  0.666667  0.333333  0.424897  1
  Au  Au9  1  0.333333  0.666667  0.662507  1
  Au  Au10  1  0.333333  0.666667  0.837493  1
  Au  Au11  1  0.666667  0.333333  0.075103  1
