# generated using pymatgen
data_Zr5Ge3N
_symmetry_space_group_name_H-M   'P 1'
_cell_length_a   8.03482300
_cell_length_b   8.03482289
_cell_length_c   5.68365400
_cell_angle_alpha   90.00000000
_cell_angle_beta   90.00000000
_cell_angle_gamma   119.99999632
_symmetry_Int_Tables_number   1
_chemical_formula_structural   Zr5Ge3N
_chemical_formula_sum   'Zr10 Ge6 N2'
_cell_volume   317.76854256
_cell_formula_units_Z   2
loop_
 _symmetry_equiv_pos_site_id
 _symmetry_equiv_pos_as_xyz
  1  'x, y, z'
loop_
 _atom_site_type_symbol
 _atom_site_label
 _atom_site_symmetry_multiplicity
 _atom_site_fract_x
 _atom_site_fract_y
 _atom_site_fract_z
 _atom_site_occupancy
  Zr  Zr0  1  0.231726  0.000000  0.750000  1
  Zr  Zr1  1  0.768274  0.000000  0.250000  1
  Zr  Zr2  1  0.000000  0.231726  0.750000  1
  Zr  Zr3  1  0.000000  0.768274  0.250000  1
  Zr  Zr4  1  0.768274  0.768274  0.750000  1
  Zr  Zr5  1  0.231726  0.231726  0.250000  1
  Zr  Zr6  1  0.333333  0.666667  0.500000  1
  Zr  Zr7  1  0.666667  0.333333  0.500000  1
  Zr  Zr8  1  0.666667  0.333333  0.000000  1
  Zr  Zr9  1  0.333333  0.666667  0.000000  1
  Ge  Ge10  1  0.596246  0.000000  0.750000  1
  Ge  Ge11  1  0.403754  0.000000  0.250000  1
  Ge  Ge12  1  0.000000  0.596246  0.750000  1
  Ge  Ge13  1  0.000000  0.403754  0.250000  1
  Ge  Ge14  1  0.403754  0.403754  0.750000  1
  Ge  Ge15  1  0.596246  0.596246  0.250000  1
  N  N16  1  0.000000  0.000000  0.500000  1
  N  N17  1  0.000000  0.000000  0.000000  1
