# generated using pymatgen
data_TiFe4Re2P4Ru
_symmetry_space_group_name_H-M   'P 1'
_cell_length_a   3.70347100
_cell_length_b   5.86535918
_cell_length_c   6.61469318
_cell_angle_alpha   89.94310249
_cell_angle_beta   90.00000000
_cell_angle_gamma   90.00000000
_symmetry_Int_Tables_number   1
_chemical_formula_structural   TiFe4Re2P4Ru
_chemical_formula_sum   'Ti1 Fe4 Re2 P4 Ru1'
_cell_volume   143.68553550
_cell_formula_units_Z   1
loop_
 _symmetry_equiv_pos_site_id
 _symmetry_equiv_pos_as_xyz
  1  'x, y, z'
loop_
 _atom_site_type_symbol
 _atom_site_label
 _atom_site_symmetry_multiplicity
 _atom_site_fract_x
 _atom_site_fract_y
 _atom_site_fract_z
 _atom_site_occupancy
  Ti  Ti0  1  0.750000  0.475219  0.323776  1
  Fe  Fe1  1  0.250000  0.140732  0.440507  1
  Fe  Fe2  1  0.250000  0.640395  0.068166  1
  Fe  Fe3  1  0.750000  0.859511  0.565476  1
  Fe  Fe4  1  0.750000  0.356615  0.933027  1
  Re  Re5  1  0.250000  0.023540  0.833363  1
  Re  Re6  1  0.750000  0.971050  0.166807  1
  P  P7  1  0.250000  0.775299  0.378347  1
  P  P8  1  0.250000  0.263249  0.117128  1
  P  P9  1  0.750000  0.225883  0.627273  1
  P  P10  1  0.750000  0.729099  0.882247  1
  Ru  Ru11  1  0.250000  0.539409  0.663884  1
