# generated using pymatgen
data_PuBi(PS4)2
_symmetry_space_group_name_H-M   'P 1'
_cell_length_a   6.68370800
_cell_length_b   9.05872177
_cell_length_c   12.97016267
_cell_angle_alpha   59.41662619
_cell_angle_beta   90.00000000
_cell_angle_gamma   90.00000000
_symmetry_Int_Tables_number   1
_chemical_formula_structural   PuBi(PS4)2
_chemical_formula_sum   'Pu2 Bi2 P4 S16'
_cell_volume   676.04767960
_cell_formula_units_Z   2
loop_
 _symmetry_equiv_pos_site_id
 _symmetry_equiv_pos_as_xyz
  1  'x, y, z'
loop_
 _atom_site_type_symbol
 _atom_site_label
 _atom_site_symmetry_multiplicity
 _atom_site_fract_x
 _atom_site_fract_y
 _atom_site_fract_z
 _atom_site_occupancy
  Pu  Pu0  1  0.672795  0.440649  0.165063  1
  Pu  Pu1  1  0.172795  0.559351  0.334936  1
  Bi  Bi2  1  0.331357  0.566418  0.832488  1
  Bi  Bi3  1  0.831357  0.433582  0.667512  1
  P  P4  1  0.227198  0.686402  0.041642  1
  P  P5  1  0.727198  0.313598  0.458358  1
  P  P6  1  0.770747  0.311634  0.959642  1
  P  P7  1  0.270747  0.688366  0.540358  1
  S  S8  1  0.241835  0.432406  0.586389  1
  S  S9  1  0.741835  0.567594  0.913611  1
  S  S10  1  0.763151  0.568942  0.410024  1
  S  S11  1  0.263151  0.431058  0.089976  1
  S  S12  1  0.257038  0.840800  0.361137  1
  S  S13  1  0.757038  0.159200  0.138863  1
  S  S14  1  0.742015  0.157525  0.638538  1
  S  S15  1  0.242015  0.842475  0.861462  1
  S  S16  1  0.533031  0.723757  0.610352  1
  S  S17  1  0.033031  0.276243  0.889648  1
  S  S18  1  0.463038  0.283688  0.388325  1
  S  S19  1  0.963038  0.716312  0.111675  1
  S  S20  1  0.051552  0.739094  0.630144  1
  S  S21  1  0.551552  0.260906  0.869856  1
  S  S22  1  0.946242  0.266690  0.366678  1
  S  S23  1  0.446242  0.733310  0.133322  1
