# generated using pymatgen
data_DyHo3RuRh3O14
_symmetry_space_group_name_H-M   'P 1'
_cell_length_a   7.24129204
_cell_length_b   7.24643755
_cell_length_c   7.24129090
_cell_angle_alpha   59.56280171
_cell_angle_beta   59.55090240
_cell_angle_gamma   59.56279441
_symmetry_Int_Tables_number   1
_chemical_formula_structural   DyHo3RuRh3O14
_chemical_formula_sum   'Dy1 Ho3 Ru1 Rh3 O14'
_cell_volume   265.98904495
_cell_formula_units_Z   1
loop_
 _symmetry_equiv_pos_site_id
 _symmetry_equiv_pos_as_xyz
  1  'x, y, z'
loop_
 _atom_site_type_symbol
 _atom_site_label
 _atom_site_symmetry_multiplicity
 _atom_site_fract_x
 _atom_site_fract_y
 _atom_site_fract_z
 _atom_site_occupancy
  Dy  Dy0  1  0.125000  0.625000  0.125000  1
  Ho  Ho1  1  0.125000  0.125000  0.625000  1
  Ho  Ho2  1  0.625000  0.125000  0.125000  1
  Ho  Ho3  1  0.125000  0.125000  0.125000  1
  Ru  Ru4  1  0.625000  0.625000  0.625000  1
  Rh  Rh5  1  0.625000  0.625000  0.125000  1
  Rh  Rh6  1  0.625000  0.125000  0.625000  1
  Rh  Rh7  1  0.125000  0.625000  0.625000  1
  O  O8  1  0.250720  0.248699  0.250720  1
  O  O9  1  0.999280  0.001301  0.999280  1
  O  O10  1  0.285376  0.712526  0.285376  1
  O  O11  1  0.540067  0.957737  0.540067  1
  O  O12  1  0.285424  0.285208  0.711388  1
  O  O13  1  0.711388  0.285208  0.285424  1
  O  O14  1  0.292107  0.710863  0.709289  1
  O  O15  1  0.709289  0.710863  0.292107  1
  O  O16  1  0.709933  0.292263  0.709933  1
  O  O17  1  0.957893  0.539137  0.540711  1
  O  O18  1  0.538612  0.964792  0.964576  1
  O  O19  1  0.964624  0.537474  0.964624  1
  O  O20  1  0.540711  0.539137  0.957893  1
  O  O21  1  0.964576  0.964792  0.538612  1
