# generated using pymatgen
data_Ba7Fe4Ni2O19
_symmetry_space_group_name_H-M   'P 1'
_cell_length_a   7.84237478
_cell_length_b   7.84237485
_cell_length_c   10.96426773
_cell_angle_alpha   81.15176687
_cell_angle_beta   81.15176707
_cell_angle_gamma   43.22830276
_symmetry_Int_Tables_number   1
_chemical_formula_structural   Ba7Fe4Ni2O19
_chemical_formula_sum   'Ba7 Fe4 Ni2 O19'
_cell_volume   455.49058702
_cell_formula_units_Z   1
loop_
 _symmetry_equiv_pos_site_id
 _symmetry_equiv_pos_as_xyz
  1  'x, y, z'
loop_
 _atom_site_type_symbol
 _atom_site_label
 _atom_site_symmetry_multiplicity
 _atom_site_fract_x
 _atom_site_fract_y
 _atom_site_fract_z
 _atom_site_occupancy
  Ba  Ba0  1  0.500000  0.500000  0.500000  1
  Ba  Ba1  1  0.846379  0.846379  0.950510  1
  Ba  Ba2  1  0.153621  0.153621  0.049490  1
  Ba  Ba3  1  0.573677  0.573677  0.834150  1
  Ba  Ba4  1  0.426323  0.426323  0.165850  1
  Ba  Ba5  1  0.798078  0.798078  0.594311  1
  Ba  Ba6  1  0.201922  0.201922  0.405689  1
  Fe  Fe7  1  0.347987  0.347987  0.781004  1
  Fe  Fe8  1  0.652013  0.652013  0.218996  1
  Fe  Fe9  1  0.021075  0.021075  0.672490  1
  Fe  Fe10  1  0.978925  0.978925  0.327510  1
  Ni  Ni11  1  0.183680  0.183680  0.730304  1
  Ni  Ni12  1  0.816320  0.816320  0.269696  1
  O  O13  1  0.000000  0.000000  0.500000  1
  O  O14  1  0.699933  0.699933  0.375720  1
  O  O15  1  0.300067  0.300067  0.624280  1
  O  O16  1  0.066979  0.066979  0.839282  1
  O  O17  1  0.933021  0.933021  0.160718  1
  O  O18  1  0.381356  0.381356  0.935870  1
  O  O19  1  0.618644  0.618644  0.064130  1
  O  O20  1  0.814598  0.318710  0.278437  1
  O  O21  1  0.681290  0.185402  0.721563  1
  O  O22  1  0.185402  0.681290  0.721563  1
  O  O23  1  0.318710  0.814598  0.278437  1
  O  O24  1  0.539411  0.979043  0.176858  1
  O  O25  1  0.020957  0.460589  0.823142  1
  O  O26  1  0.648691  0.090892  0.364134  1
  O  O27  1  0.909108  0.351309  0.635866  1
  O  O28  1  0.351309  0.909108  0.635866  1
  O  O29  1  0.090892  0.648691  0.364134  1
  O  O30  1  0.979043  0.539411  0.176858  1
  O  O31  1  0.460589  0.020957  0.823142  1
