# generated using pymatgen
data_YbIn2Pd3
_symmetry_space_group_name_H-M   'P 1'
_cell_length_a   4.61093500
_cell_length_b   9.80002500
_cell_length_c   10.42375500
_cell_angle_alpha   90.00000000
_cell_angle_beta   90.00000000
_cell_angle_gamma   90.00000000
_symmetry_Int_Tables_number   1
_chemical_formula_structural   YbIn2Pd3
_chemical_formula_sum   'Yb4 In8 Pd12'
_cell_volume   471.02111784
_cell_formula_units_Z   4
loop_
 _symmetry_equiv_pos_site_id
 _symmetry_equiv_pos_as_xyz
  1  'x, y, z'
loop_
 _atom_site_type_symbol
 _atom_site_label
 _atom_site_symmetry_multiplicity
 _atom_site_fract_x
 _atom_site_fract_y
 _atom_site_fract_z
 _atom_site_occupancy
  Yb  Yb0  1  0.250000  0.445993  0.723782  1
  Yb  Yb1  1  0.250000  0.054007  0.223782  1
  Yb  Yb2  1  0.750000  0.554007  0.276218  1
  Yb  Yb3  1  0.750000  0.945993  0.776218  1
  In  In4  1  0.250000  0.890295  0.516407  1
  In  In5  1  0.250000  0.609705  0.016407  1
  In  In6  1  0.750000  0.109705  0.483593  1
  In  In7  1  0.750000  0.390295  0.983593  1
  In  In8  1  0.250000  0.160387  0.890457  1
  In  In9  1  0.250000  0.339613  0.390457  1
  In  In10  1  0.750000  0.839613  0.109543  1
  In  In11  1  0.750000  0.660387  0.609543  1
  Pd  Pd12  1  0.250000  0.155228  0.618039  1
  Pd  Pd13  1  0.250000  0.344772  0.118039  1
  Pd  Pd14  1  0.750000  0.844772  0.381961  1
  Pd  Pd15  1  0.750000  0.655228  0.881961  1
  Pd  Pd16  1  0.250000  0.742136  0.740832  1
  Pd  Pd17  1  0.250000  0.757864  0.240832  1
  Pd  Pd18  1  0.750000  0.257864  0.259168  1
  Pd  Pd19  1  0.750000  0.242136  0.759168  1
  Pd  Pd20  1  0.250000  0.893928  0.974749  1
  Pd  Pd21  1  0.250000  0.606072  0.474749  1
  Pd  Pd22  1  0.750000  0.106072  0.025251  1
  Pd  Pd23  1  0.750000  0.393928  0.525251  1
