# generated using pymatgen
data_Tb4PdPb2Au3
_symmetry_space_group_name_H-M   'P 1'
_cell_length_a   8.11954004
_cell_length_b   8.11954004
_cell_length_c   3.69271900
_cell_angle_alpha   90.00000000
_cell_angle_beta   90.00000000
_cell_angle_gamma   90.18893163
_symmetry_Int_Tables_number   1
_chemical_formula_structural   Tb4PdPb2Au3
_chemical_formula_sum   'Tb4 Pd1 Pb2 Au3'
_cell_volume   243.44830492
_cell_formula_units_Z   1
loop_
 _symmetry_equiv_pos_site_id
 _symmetry_equiv_pos_as_xyz
  1  'x, y, z'
loop_
 _atom_site_type_symbol
 _atom_site_label
 _atom_site_symmetry_multiplicity
 _atom_site_fract_x
 _atom_site_fract_y
 _atom_site_fract_z
 _atom_site_occupancy
  Tb  Tb0  1  0.676082  0.176082  0.500000  1
  Tb  Tb1  1  0.162902  0.329854  0.500000  1
  Tb  Tb2  1  0.829854  0.662902  0.500000  1
  Tb  Tb3  1  0.329865  0.829865  0.500000  1
  Pd  Pd4  1  0.874055  0.374055  0.000000  1
  Pb  Pb5  1  0.998490  0.003812  0.000000  1
  Pb  Pb6  1  0.503812  0.498490  0.000000  1
  Au  Au7  1  0.375495  0.126130  0.000000  1
  Au  Au8  1  0.123316  0.623316  0.000000  1
  Au  Au9  1  0.626130  0.875495  0.000000  1
