# generated using pymatgen
data_Eu10Cd3Co
_symmetry_space_group_name_H-M   'P 1'
_cell_length_a   10.26956800
_cell_length_b   10.26956820
_cell_length_c   10.39720700
_cell_angle_alpha   90.00000000
_cell_angle_beta   90.00000000
_cell_angle_gamma   119.99999937
_symmetry_Int_Tables_number   1
_chemical_formula_structural   Eu10Cd3Co
_chemical_formula_sum   'Eu20 Cd6 Co2'
_cell_volume   949.62400227
_cell_formula_units_Z   2
loop_
 _symmetry_equiv_pos_site_id
 _symmetry_equiv_pos_as_xyz
  1  'x, y, z'
loop_
 _atom_site_type_symbol
 _atom_site_label
 _atom_site_symmetry_multiplicity
 _atom_site_fract_x
 _atom_site_fract_y
 _atom_site_fract_z
 _atom_site_occupancy
  Eu  Eu0  1  0.000000  0.000000  0.500000  1
  Eu  Eu1  1  0.000000  0.000000  0.000000  1
  Eu  Eu2  1  0.540287  0.459713  0.250000  1
  Eu  Eu3  1  0.540287  0.080575  0.250000  1
  Eu  Eu4  1  0.919425  0.459713  0.250000  1
  Eu  Eu5  1  0.459713  0.540287  0.750000  1
  Eu  Eu6  1  0.459713  0.919425  0.750000  1
  Eu  Eu7  1  0.080575  0.540287  0.750000  1
  Eu  Eu8  1  0.209847  0.790153  0.432265  1
  Eu  Eu9  1  0.209847  0.419696  0.432265  1
  Eu  Eu10  1  0.580304  0.790153  0.432265  1
  Eu  Eu11  1  0.790153  0.209847  0.567735  1
  Eu  Eu12  1  0.790153  0.580304  0.567735  1
  Eu  Eu13  1  0.419696  0.209847  0.567735  1
  Eu  Eu14  1  0.790153  0.209847  0.932265  1
  Eu  Eu15  1  0.790153  0.580304  0.932265  1
  Eu  Eu16  1  0.419696  0.209847  0.932265  1
  Eu  Eu17  1  0.209847  0.790153  0.067735  1
  Eu  Eu18  1  0.209847  0.419696  0.067735  1
  Eu  Eu19  1  0.580304  0.790153  0.067735  1
  Cd  Cd20  1  0.882047  0.117953  0.250000  1
  Cd  Cd21  1  0.882047  0.764094  0.250000  1
  Cd  Cd22  1  0.235906  0.117953  0.250000  1
  Cd  Cd23  1  0.117953  0.882047  0.750000  1
  Cd  Cd24  1  0.117953  0.235906  0.750000  1
  Cd  Cd25  1  0.764094  0.882047  0.750000  1
  Co  Co26  1  0.333333  0.666667  0.250000  1
  Co  Co27  1  0.666667  0.333333  0.750000  1
