# generated using pymatgen
data_Yb2Ag2Ru3PtO14
_symmetry_space_group_name_H-M   'P 1'
_cell_length_a   7.23582199
_cell_length_b   7.16592747
_cell_length_c   7.33218400
_cell_angle_alpha   59.22950357
_cell_angle_beta   59.55847888
_cell_angle_gamma   58.74441304
_symmetry_Int_Tables_number   1
_chemical_formula_structural   Yb2Ag2Ru3PtO14
_chemical_formula_sum   'Yb2 Ag2 Ru3 Pt1 O14'
_cell_volume   263.76431880
_cell_formula_units_Z   1
loop_
 _symmetry_equiv_pos_site_id
 _symmetry_equiv_pos_as_xyz
  1  'x, y, z'
loop_
 _atom_site_type_symbol
 _atom_site_label
 _atom_site_symmetry_multiplicity
 _atom_site_fract_x
 _atom_site_fract_y
 _atom_site_fract_z
 _atom_site_occupancy
  Yb  Yb0  1  0.125000  0.125000  0.125000  1
  Yb  Yb1  1  0.125000  0.125000  0.625000  1
  Ag  Ag2  1  0.625000  0.125000  0.125000  1
  Ag  Ag3  1  0.125000  0.625000  0.125000  1
  Ru  Ru4  1  0.625000  0.625000  0.625000  1
  Ru  Ru5  1  0.125000  0.625000  0.625000  1
  Ru  Ru6  1  0.625000  0.625000  0.125000  1
  Pt  Pt7  1  0.625000  0.125000  0.625000  1
  O  O8  1  0.984300  0.985020  0.015340  1
  O  O9  1  0.265700  0.264980  0.234660  1
  O  O10  1  0.283688  0.288608  0.713852  1
  O  O11  1  0.556491  0.574247  0.934631  1
  O  O12  1  0.708238  0.294573  0.706459  1
  O  O13  1  0.708238  0.294573  0.290729  1
  O  O14  1  0.308470  0.684221  0.697292  1
  O  O15  1  0.308470  0.684221  0.310017  1
  O  O16  1  0.693509  0.675753  0.315369  1
  O  O17  1  0.941530  0.565779  0.552708  1
  O  O18  1  0.541762  0.955427  0.959271  1
  O  O19  1  0.966312  0.961392  0.536148  1
  O  O20  1  0.941530  0.565779  0.939983  1
  O  O21  1  0.541762  0.955427  0.543541  1
