# generated using pymatgen
data_Sm7Dy(BeSi3)4
_symmetry_space_group_name_H-M   'P 1'
_cell_length_a   7.91497958
_cell_length_b   7.91046084
_cell_length_c   8.35839300
_cell_angle_alpha   90.00000000
_cell_angle_beta   90.00000000
_cell_angle_gamma   119.98111585
_symmetry_Int_Tables_number   1
_chemical_formula_structural   Sm7Dy(BeSi3)4
_chemical_formula_sum   'Sm7 Dy1 Be4 Si12'
_cell_volume   453.30197615
_cell_formula_units_Z   1
loop_
 _symmetry_equiv_pos_site_id
 _symmetry_equiv_pos_as_xyz
  1  'x, y, z'
loop_
 _atom_site_type_symbol
 _atom_site_label
 _atom_site_symmetry_multiplicity
 _atom_site_fract_x
 _atom_site_fract_y
 _atom_site_fract_z
 _atom_site_occupancy
  Sm  Sm0  1  0.000082  0.000041  0.250000  1
  Sm  Sm1  1  0.999941  0.999971  0.750000  1
  Sm  Sm2  1  0.500022  0.499906  0.250000  1
  Sm  Sm3  1  0.500022  0.000117  0.250000  1
  Sm  Sm4  1  0.999897  0.499948  0.250000  1
  Sm  Sm5  1  0.499801  0.500210  0.750000  1
  Sm  Sm6  1  0.499801  0.999590  0.750000  1
  Dy  Dy7  1  0.000009  0.500004  0.750000  1
  Be  Be8  1  0.333274  0.666637  0.498590  1
  Be  Be9  1  0.666836  0.333417  0.505685  1
  Be  Be10  1  0.666836  0.333417  0.994315  1
  Be  Be11  1  0.333274  0.666637  0.001410  1
  Si  Si12  1  0.172066  0.826649  0.501585  1
  Si  Si13  1  0.172066  0.345419  0.501585  1
  Si  Si14  1  0.655511  0.827756  0.500554  1
  Si  Si15  1  0.827926  0.173339  0.501401  1
  Si  Si16  1  0.827926  0.654587  0.501401  1
  Si  Si17  1  0.344608  0.172303  0.500582  1
  Si  Si18  1  0.827926  0.173339  0.998599  1
  Si  Si19  1  0.827926  0.654587  0.998599  1
  Si  Si20  1  0.344608  0.172303  0.999418  1
  Si  Si21  1  0.172066  0.826649  0.998415  1
  Si  Si22  1  0.172066  0.345419  0.998415  1
  Si  Si23  1  0.655511  0.827756  0.999446  1
