# generated using pymatgen
data_Ca3Er(Al3Pt4)2
_symmetry_space_group_name_H-M   'P 1'
_cell_length_a   8.15336351
_cell_length_b   8.15336298
_cell_length_c   7.47724100
_cell_angle_alpha   90.10428456
_cell_angle_beta   89.89571545
_cell_angle_gamma   139.46742963
_symmetry_Int_Tables_number   1
_chemical_formula_structural   Ca3Er(Al3Pt4)2
_chemical_formula_sum   'Ca3 Er1 Al6 Pt8'
_cell_volume   323.03341719
_cell_formula_units_Z   1
loop_
 _symmetry_equiv_pos_site_id
 _symmetry_equiv_pos_as_xyz
  1  'x, y, z'
loop_
 _atom_site_type_symbol
 _atom_site_label
 _atom_site_symmetry_multiplicity
 _atom_site_fract_x
 _atom_site_fract_y
 _atom_site_fract_z
 _atom_site_occupancy
  Ca  Ca0  1  0.104456  0.895544  0.407879  1
  Ca  Ca1  1  0.895348  0.104652  0.591466  1
  Ca  Ca2  1  0.393451  0.606549  0.907921  1
  Er  Er3  1  0.606147  0.393853  0.089159  1
  Al  Al4  1  0.000566  0.999434  0.002056  1
  Al  Al5  1  0.501687  0.498313  0.499455  1
  Al  Al6  1  0.020917  0.478979  0.251652  1
  Al  Al7  1  0.479400  0.021493  0.747934  1
  Al  Al8  1  0.978507  0.520600  0.747934  1
  Al  Al9  1  0.521021  0.979083  0.251652  1
  Pt  Pt10  1  0.190638  0.313803  0.247929  1
  Pt  Pt11  1  0.315293  0.188362  0.753955  1
  Pt  Pt12  1  0.811638  0.684707  0.753955  1
  Pt  Pt13  1  0.686197  0.809362  0.247929  1
  Pt  Pt14  1  0.182902  0.817098  0.028452  1
  Pt  Pt15  1  0.813346  0.186654  0.975648  1
  Pt  Pt16  1  0.318057  0.681943  0.524561  1
  Pt  Pt17  1  0.680427  0.319573  0.470462  1
