# generated using pymatgen
data_Dy4Er3Lu5Co5Bi
_symmetry_space_group_name_H-M   'P 1'
_cell_length_a   8.20352383
_cell_length_b   8.20450828
_cell_length_c   8.20352324
_cell_angle_alpha   110.88808968
_cell_angle_beta   110.77282248
_cell_angle_gamma   106.78105249
_symmetry_Int_Tables_number   1
_chemical_formula_structural   Dy4Er3Lu5Co5Bi
_chemical_formula_sum   'Dy4 Er3 Lu5 Co5 Bi1'
_cell_volume   424.36815395
_cell_formula_units_Z   1
loop_
 _symmetry_equiv_pos_site_id
 _symmetry_equiv_pos_as_xyz
  1  'x, y, z'
loop_
 _atom_site_type_symbol
 _atom_site_label
 _atom_site_symmetry_multiplicity
 _atom_site_fract_x
 _atom_site_fract_y
 _atom_site_fract_z
 _atom_site_occupancy
  Dy  Dy0  1  0.287198  0.184809  0.471494  1
  Dy  Dy1  1  0.712202  0.815000  0.527622  1
  Dy  Dy2  1  0.287378  0.815000  0.102799  1
  Dy  Dy3  1  0.713315  0.184809  0.897610  1
  Er  Er4  1  0.791045  0.596248  0.805203  1
  Er  Er5  1  0.208889  0.014698  0.805810  1
  Er  Er6  1  0.791375  0.986152  0.194776  1
  Lu  Lu7  1  0.622608  0.312341  0.310657  1
  Lu  Lu8  1  0.376840  0.687407  0.688641  1
  Lu  Lu9  1  0.001686  0.312341  0.689733  1
  Lu  Lu10  1  0.998764  0.687407  0.310568  1
  Lu  Lu11  1  0.208243  0.403203  0.194961  1
  Co  Co12  1  0.000412  0.375599  0.375188  1
  Co  Co13  1  0.999870  0.624282  0.624413  1
  Co  Co14  1  0.387170  0.886825  0.499655  1
  Co  Co15  1  0.612628  0.112725  0.500098  1
  Co  Co16  1  0.000591  0.001166  0.000576  1
  Bi  Bi17  1  0.499791  0.499986  0.000196  1
