# generated using pymatgen
data_Tm2Ga2RuPt
_symmetry_space_group_name_H-M   'P 1'
_cell_length_a   4.29572500
_cell_length_b   6.82031300
_cell_length_c   7.77436700
_cell_angle_alpha   90.00000000
_cell_angle_beta   90.00000000
_cell_angle_gamma   90.00000000
_symmetry_Int_Tables_number   1
_chemical_formula_structural   Tm2Ga2RuPt
_chemical_formula_sum   'Tm4 Ga4 Ru2 Pt2'
_cell_volume   227.77487420
_cell_formula_units_Z   2
loop_
 _symmetry_equiv_pos_site_id
 _symmetry_equiv_pos_as_xyz
  1  'x, y, z'
loop_
 _atom_site_type_symbol
 _atom_site_label
 _atom_site_symmetry_multiplicity
 _atom_site_fract_x
 _atom_site_fract_y
 _atom_site_fract_z
 _atom_site_occupancy
  Tm  Tm0  1  0.250000  0.974709  0.315007  1
  Tm  Tm1  1  0.250000  0.474709  0.184993  1
  Tm  Tm2  1  0.750000  0.018800  0.693451  1
  Tm  Tm3  1  0.750000  0.518800  0.806549  1
  Ga  Ga4  1  0.250000  0.343758  0.573255  1
  Ga  Ga5  1  0.250000  0.843758  0.926745  1
  Ga  Ga6  1  0.750000  0.664029  0.434564  1
  Ga  Ga7  1  0.750000  0.164029  0.065436  1
  Ru  Ru8  1  0.250000  0.230705  0.891198  1
  Ru  Ru9  1  0.250000  0.730705  0.608802  1
  Pt  Pt10  1  0.750000  0.768000  0.109485  1
  Pt  Pt11  1  0.750000  0.268000  0.390515  1
