# generated using pymatgen
data_Y2BeNiBr2
_symmetry_space_group_name_H-M   'P 1'
_cell_length_a   3.88762100
_cell_length_b   3.88762028
_cell_length_c   11.54370400
_cell_angle_alpha   90.00000000
_cell_angle_beta   90.00000000
_cell_angle_gamma   119.99999764
_symmetry_Int_Tables_number   1
_chemical_formula_structural   Y2BeNiBr2
_chemical_formula_sum   'Y2 Be1 Ni1 Br2'
_cell_volume   151.09273486
_cell_formula_units_Z   1
loop_
 _symmetry_equiv_pos_site_id
 _symmetry_equiv_pos_as_xyz
  1  'x, y, z'
loop_
 _atom_site_type_symbol
 _atom_site_label
 _atom_site_symmetry_multiplicity
 _atom_site_fract_x
 _atom_site_fract_y
 _atom_site_fract_z
 _atom_site_occupancy
  Y  Y0  1  0.000000  0.000000  0.836127  1
  Y  Y1  1  0.000000  0.000000  0.163908  1
  Be  Be2  1  0.333333  0.666667  0.997874  1
  Ni  Ni3  1  0.666667  0.333333  0.002887  1
  Br  Br4  1  0.666667  0.333333  0.668520  1
  Br  Br5  1  0.333333  0.666667  0.330684  1
