# generated using pymatgen
data_HSe11
_symmetry_space_group_name_H-M   'P 1'
_cell_length_a   5.11246366
_cell_length_b   11.10534931
_cell_length_c   17.55079868
_cell_angle_alpha   89.87910010
_cell_angle_beta   88.51651816
_cell_angle_gamma   90.81127846
_symmetry_Int_Tables_number   1
_chemical_formula_structural   HSe11
_chemical_formula_sum   'H2 Se22'
_cell_volume   996.02189267
_cell_formula_units_Z   2
loop_
 _symmetry_equiv_pos_site_id
 _symmetry_equiv_pos_as_xyz
  1  'x, y, z'
loop_
 _atom_site_type_symbol
 _atom_site_label
 _atom_site_symmetry_multiplicity
 _atom_site_fract_x
 _atom_site_fract_y
 _atom_site_fract_z
 _atom_site_occupancy
  H  H0  1  0.514123  0.172754  0.441175  1
  H  H1  1  0.504592  0.830638  0.442366  1
  Se  Se2  1  0.008816  0.303492  0.109668  1
  Se  Se3  1  0.736706  0.207096  0.490159  1
  Se  Se4  1  0.279640  0.784140  0.489976  1
  Se  Se5  1  0.251681  0.261137  0.996520  1
  Se  Se6  1  0.743071  0.744636  0.996934  1
  Se  Se7  1  0.153053  0.428155  0.356292  1
  Se  Se8  1  0.824271  0.576877  0.352354  1
  Se  Se9  1  0.755211  0.130685  0.143503  1
  Se  Se10  1  0.240617  0.870907  0.134242  1
  Se  Se11  1  0.744256  0.634879  0.626483  1
  Se  Se12  1  0.260562  0.367692  0.626294  1
  Se  Se13  1  0.253625  0.873495  0.858337  1
  Se  Se14  1  0.755646  0.123681  0.862915  1
  Se  Se15  1  0.983057  0.698930  0.106280  1
  Se  Se16  1  0.487286  0.806490  0.607846  1
  Se  Se17  1  0.499822  0.189991  0.607310  1
  Se  Se18  1  0.001236  0.698881  0.887603  1
  Se  Se19  1  0.998394  0.301065  0.888837  1
  Se  Se20  1  0.496023  0.497579  0.271903  1
  Se  Se21  1  0.003256  0.998470  0.217609  1
  Se  Se22  1  0.500610  0.498987  0.705071  1
  Se  Se23  1  0.004447  0.999342  0.780323  1
