# generated using pymatgen
data_Nd6TiAlSiSe14
_symmetry_space_group_name_H-M   'P 1'
_cell_length_a   10.51391900
_cell_length_b   10.51391980
_cell_length_c   6.22022000
_cell_angle_alpha   90.00000000
_cell_angle_beta   90.00000000
_cell_angle_gamma   120.00000694
_symmetry_Int_Tables_number   1
_chemical_formula_structural   Nd6TiAlSiSe14
_chemical_formula_sum   'Nd6 Ti1 Al1 Si1 Se14'
_cell_volume   595.47787959
_cell_formula_units_Z   1
loop_
 _symmetry_equiv_pos_site_id
 _symmetry_equiv_pos_as_xyz
  1  'x, y, z'
loop_
 _atom_site_type_symbol
 _atom_site_label
 _atom_site_symmetry_multiplicity
 _atom_site_fract_x
 _atom_site_fract_y
 _atom_site_fract_z
 _atom_site_occupancy
  Nd  Nd0  1  0.805045  0.698287  0.522332  1
  Nd  Nd1  1  0.893242  0.194955  0.522332  1
  Nd  Nd2  1  0.301713  0.106758  0.522332  1
  Nd  Nd3  1  0.522408  0.966584  0.040626  1
  Nd  Nd4  1  0.444175  0.477592  0.040626  1
  Nd  Nd5  1  0.033416  0.555825  0.040626  1
  Ti  Ti6  1  0.666667  0.333333  0.323175  1
  Al  Al7  1  0.333333  0.666667  0.450904  1
  Si  Si8  1  0.000000  0.000000  0.941921  1
  Se  Se9  1  0.000000  0.000000  0.308149  1
  Se  Se10  1  0.333333  0.666667  0.829776  1
  Se  Se11  1  0.084515  0.854096  0.798421  1
  Se  Se12  1  0.769581  0.915485  0.798421  1
  Se  Se13  1  0.145904  0.230419  0.798421  1
  Se  Se14  1  0.239706  0.814574  0.301362  1
  Se  Se15  1  0.574867  0.760294  0.301362  1
  Se  Se16  1  0.185426  0.425133  0.301362  1
  Se  Se17  1  0.910798  0.485135  0.552125  1
  Se  Se18  1  0.574339  0.089202  0.552125  1
  Se  Se19  1  0.514865  0.425661  0.552125  1
  Se  Se20  1  0.427281  0.190469  0.081163  1
  Se  Se21  1  0.763188  0.572719  0.081163  1
  Se  Se22  1  0.809531  0.236812  0.081163  1
