# generated using pymatgen
data_Sr10PdRh3
_symmetry_space_group_name_H-M   'P 1'
_cell_length_a   9.32380113
_cell_length_b   9.29480587
_cell_length_c   8.29398300
_cell_angle_alpha   82.66925425
_cell_angle_beta   82.90727989
_cell_angle_gamma   44.08801058
_symmetry_Int_Tables_number   1
_chemical_formula_structural   Sr10PdRh3
_chemical_formula_sum   'Sr10 Pd1 Rh3'
_cell_volume   495.48516599
_cell_formula_units_Z   1
loop_
 _symmetry_equiv_pos_site_id
 _symmetry_equiv_pos_as_xyz
  1  'x, y, z'
loop_
 _atom_site_type_symbol
 _atom_site_label
 _atom_site_symmetry_multiplicity
 _atom_site_fract_x
 _atom_site_fract_y
 _atom_site_fract_z
 _atom_site_occupancy
  Sr  Sr0  1  0.027042  0.794057  0.914498  1
  Sr  Sr1  1  0.196179  0.985324  0.585401  1
  Sr  Sr2  1  0.985282  0.198459  0.084492  1
  Sr  Sr3  1  0.807365  0.014537  0.420021  1
  Sr  Sr4  1  0.363276  0.202767  0.818798  1
  Sr  Sr5  1  0.794728  0.636350  0.675795  1
  Sr  Sr6  1  0.633477  0.793809  0.175367  1
  Sr  Sr7  1  0.197798  0.368239  0.328449  1
  Sr  Sr8  1  0.572399  0.430463  0.743972  1
  Sr  Sr9  1  0.428289  0.573592  0.254339  1
  Pd  Pd10  1  0.599724  0.178123  0.081990  1
  Rh  Rh11  1  0.175215  0.601892  0.585170  1
  Rh  Rh12  1  0.393841  0.826591  0.917029  1
  Rh  Rh13  1  0.825385  0.395798  0.414680  1
