# generated using pymatgen
data_Rb3NaPrUTe6
_symmetry_space_group_name_H-M   'P 1'
_cell_length_a   8.06948974
_cell_length_b   8.06948971
_cell_length_c   8.90508885
_cell_angle_alpha   81.35766869
_cell_angle_beta   81.35766674
_cell_angle_gamma   119.97197943
_symmetry_Int_Tables_number   1
_chemical_formula_structural   Rb3NaPrUTe6
_chemical_formula_sum   'Rb3 Na1 Pr1 U1 Te6'
_cell_volume   479.12224345
_cell_formula_units_Z   1
loop_
 _symmetry_equiv_pos_site_id
 _symmetry_equiv_pos_as_xyz
  1  'x, y, z'
loop_
 _atom_site_type_symbol
 _atom_site_label
 _atom_site_symmetry_multiplicity
 _atom_site_fract_x
 _atom_site_fract_y
 _atom_site_fract_z
 _atom_site_occupancy
  Rb  Rb0  1  0.659276  0.340724  0.500000  1
  Rb  Rb1  1  0.344323  0.655677  0.500000  1
  Rb  Rb2  1  0.996907  0.003093  0.500000  1
  Na  Na3  1  0.500041  0.499959  0.000000  1
  Pr  Pr4  1  0.831816  0.168184  0.000000  1
  U  U5  1  0.167494  0.832506  0.000000  1
  Te  Te6  1  0.795377  0.778337  0.197856  1
  Te  Te7  1  0.221663  0.204623  0.802144  1
  Te  Te8  1  0.413690  0.066498  0.203582  1
  Te  Te9  1  0.550167  0.914257  0.796918  1
  Te  Te10  1  0.933502  0.586310  0.796418  1
  Te  Te11  1  0.085743  0.449833  0.203082  1
