# generated using pymatgen
data_Pr10Si4IrRh
_symmetry_space_group_name_H-M   'P 1'
_cell_length_a   8.02391500
_cell_length_b   8.91463400
_cell_length_c   12.45578300
_cell_angle_alpha   90.00000000
_cell_angle_beta   90.00000000
_cell_angle_gamma   90.00000000
_symmetry_Int_Tables_number   1
_chemical_formula_structural   Pr10Si4IrRh
_chemical_formula_sum   'Pr20 Si8 Ir2 Rh2'
_cell_volume   890.96546465
_cell_formula_units_Z   2
loop_
 _symmetry_equiv_pos_site_id
 _symmetry_equiv_pos_as_xyz
  1  'x, y, z'
loop_
 _atom_site_type_symbol
 _atom_site_label
 _atom_site_symmetry_multiplicity
 _atom_site_fract_x
 _atom_site_fract_y
 _atom_site_fract_z
 _atom_site_occupancy
  Pr  Pr0  1  0.681102  0.464403  0.076766  1
  Pr  Pr1  1  0.181102  0.535597  0.423234  1
  Pr  Pr2  1  0.319418  0.965330  0.924435  1
  Pr  Pr3  1  0.819418  0.034670  0.575565  1
  Pr  Pr4  1  0.319418  0.534670  0.924435  1
  Pr  Pr5  1  0.819418  0.465330  0.575565  1
  Pr  Pr6  1  0.681102  0.035597  0.076766  1
  Pr  Pr7  1  0.181102  0.964403  0.423234  1
  Pr  Pr8  1  0.959738  0.750000  0.999117  1
  Pr  Pr9  1  0.459738  0.250000  0.500883  1
  Pr  Pr10  1  0.037448  0.250000  0.998639  1
  Pr  Pr11  1  0.537448  0.750000  0.501361  1
  Pr  Pr12  1  0.348076  0.750000  0.203063  1
  Pr  Pr13  1  0.848076  0.250000  0.296937  1
  Pr  Pr14  1  0.652628  0.250000  0.795246  1
  Pr  Pr15  1  0.152628  0.750000  0.704754  1
  Pr  Pr16  1  0.824530  0.750000  0.281410  1
  Pr  Pr17  1  0.324530  0.250000  0.218590  1
  Pr  Pr18  1  0.172614  0.250000  0.717015  1
  Pr  Pr19  1  0.672614  0.750000  0.782985  1
  Si  Si20  1  0.557002  0.494772  0.329039  1
  Si  Si21  1  0.057002  0.505228  0.170961  1
  Si  Si22  1  0.444460  0.995566  0.671928  1
  Si  Si23  1  0.944460  0.004434  0.828072  1
  Si  Si24  1  0.444460  0.504434  0.671928  1
  Si  Si25  1  0.944460  0.495566  0.828072  1
  Si  Si26  1  0.557002  0.005228  0.329039  1
  Si  Si27  1  0.057002  0.994772  0.170961  1
  Ir  Ir28  1  0.572240  0.750000  0.014025  1
  Ir  Ir29  1  0.072240  0.250000  0.485975  1
  Rh  Rh30  1  0.428764  0.250000  0.985518  1
  Rh  Rh31  1  0.928764  0.750000  0.514482  1
