# generated using pymatgen
data_Pr3Sm(SeO3)6
_symmetry_space_group_name_H-M   'P 1'
_cell_length_a   7.18076530
_cell_length_b   8.12903714
_cell_length_c   9.36765373
_cell_angle_alpha   69.69755795
_cell_angle_beta   76.43982376
_cell_angle_gamma   64.61725036
_symmetry_Int_Tables_number   1
_chemical_formula_structural   Pr3Sm(SeO3)6
_chemical_formula_sum   'Pr3 Sm1 Se6 O18'
_cell_volume   460.95861231
_cell_formula_units_Z   1
loop_
 _symmetry_equiv_pos_site_id
 _symmetry_equiv_pos_as_xyz
  1  'x, y, z'
loop_
 _atom_site_type_symbol
 _atom_site_label
 _atom_site_symmetry_multiplicity
 _atom_site_fract_x
 _atom_site_fract_y
 _atom_site_fract_z
 _atom_site_occupancy
  Pr  Pr0  1  0.628327  0.350074  0.324705  1
  Pr  Pr1  1  0.372091  0.648904  0.675877  1
  Pr  Pr2  1  0.228615  0.310179  0.127249  1
  Sm  Sm3  1  0.768791  0.691798  0.872639  1
  Se  Se4  1  0.453423  0.175097  0.745939  1
  Se  Se5  1  0.193588  0.763273  0.030636  1
  Se  Se6  1  0.863108  0.781675  0.495997  1
  Se  Se7  1  0.806079  0.239675  0.966724  1
  Se  Se8  1  0.548964  0.822507  0.251775  1
  Se  Se9  1  0.134575  0.217435  0.507814  1
  O  O10  1  0.671778  0.017982  0.835349  1
  O  O11  1  0.329014  0.976300  0.164225  1
  O  O12  1  0.637983  0.789915  0.621300  1
  O  O13  1  0.359540  0.213103  0.383011  1
  O  O14  1  0.394174  0.778201  0.890724  1
  O  O15  1  0.327589  0.333237  0.855776  1
  O  O16  1  0.901478  0.348065  0.051464  1
  O  O17  1  0.537308  0.333174  0.594955  1
  O  O18  1  0.699900  0.440683  0.823219  1
  O  O19  1  0.096295  0.656351  0.944598  1
  O  O20  1  0.172662  0.987167  0.582571  1
  O  O21  1  0.022696  0.688359  0.645604  1
  O  O22  1  0.608854  0.221262  0.108616  1
  O  O23  1  0.675453  0.664776  0.141100  1
  O  O24  1  0.468313  0.664029  0.404991  1
  O  O25  1  0.298288  0.564154  0.175935  1
  O  O26  1  0.827871  0.011141  0.417808  1
  O  O27  1  0.973245  0.311485  0.359400  1
