# generated using pymatgen
data_V3AsSe3
_symmetry_space_group_name_H-M   'P 1'
_cell_length_a   9.49171100
_cell_length_b   9.49170951
_cell_length_c   3.41247400
_cell_angle_alpha   90.00000000
_cell_angle_beta   90.00000000
_cell_angle_gamma   119.99999473
_symmetry_Int_Tables_number   1
_chemical_formula_structural   V3AsSe3
_chemical_formula_sum   'V6 As2 Se6'
_cell_volume   266.24959196
_cell_formula_units_Z   2
loop_
 _symmetry_equiv_pos_site_id
 _symmetry_equiv_pos_as_xyz
  1  'x, y, z'
loop_
 _atom_site_type_symbol
 _atom_site_label
 _atom_site_symmetry_multiplicity
 _atom_site_fract_x
 _atom_site_fract_y
 _atom_site_fract_z
 _atom_site_occupancy
  V  V0  1  0.628245  0.122234  0.750000  1
  V  V1  1  0.493988  0.371755  0.750000  1
  V  V2  1  0.371755  0.877766  0.250000  1
  V  V3  1  0.877766  0.506012  0.750000  1
  V  V4  1  0.506012  0.628245  0.250000  1
  V  V5  1  0.122234  0.493988  0.250000  1
  As  As6  1  0.333333  0.666667  0.750000  1
  As  As7  1  0.666667  0.333333  0.250000  1
  Se  Se8  1  0.709809  0.657618  0.750000  1
  Se  Se9  1  0.290191  0.342382  0.250000  1
  Se  Se10  1  0.657618  0.947809  0.250000  1
  Se  Se11  1  0.947809  0.290191  0.750000  1
  Se  Se12  1  0.052191  0.709809  0.250000  1
  Se  Se13  1  0.342382  0.052191  0.750000  1
