# generated using pymatgen
data_Sb12Pd4Br
_symmetry_space_group_name_H-M   'P 1'
_cell_length_a   8.28228050
_cell_length_b   8.28228059
_cell_length_c   8.28228000
_cell_angle_alpha   109.47121920
_cell_angle_beta   109.47121941
_cell_angle_gamma   109.47123203
_symmetry_Int_Tables_number   1
_chemical_formula_structural   Sb12Pd4Br
_chemical_formula_sum   'Sb12 Pd4 Br1'
_cell_volume   437.34870544
_cell_formula_units_Z   1
loop_
 _symmetry_equiv_pos_site_id
 _symmetry_equiv_pos_as_xyz
  1  'x, y, z'
loop_
 _atom_site_type_symbol
 _atom_site_label
 _atom_site_symmetry_multiplicity
 _atom_site_fract_x
 _atom_site_fract_y
 _atom_site_fract_z
 _atom_site_occupancy
  Sb  Sb0  1  0.655269  0.808514  0.153245  1
  Sb  Sb1  1  0.846755  0.344731  0.191486  1
  Sb  Sb2  1  0.502025  0.846755  0.655269  1
  Sb  Sb3  1  0.846755  0.655269  0.502025  1
  Sb  Sb4  1  0.497975  0.153245  0.344731  1
  Sb  Sb5  1  0.153245  0.655269  0.808514  1
  Sb  Sb6  1  0.808514  0.153245  0.655269  1
  Sb  Sb7  1  0.191486  0.846755  0.344731  1
  Sb  Sb8  1  0.153245  0.344731  0.497975  1
  Sb  Sb9  1  0.655269  0.502025  0.846755  1
  Sb  Sb10  1  0.344731  0.497975  0.153245  1
  Sb  Sb11  1  0.344731  0.191486  0.846755  1
  Pd  Pd12  1  0.000000  0.000000  0.500000  1
  Pd  Pd13  1  0.000000  0.500000  0.000000  1
  Pd  Pd14  1  0.500000  0.500000  0.500000  1
  Pd  Pd15  1  0.500000  0.000000  0.000000  1
  Br  Br16  1  0.000000  0.000000  0.000000  1
