# generated using pymatgen
data_Ho9Mg(Ni2Pd)2
_symmetry_space_group_name_H-M   'P 1'
_cell_length_a   8.39511659
_cell_length_b   8.39510189
_cell_length_c   8.39522574
_cell_angle_alpha   128.06758275
_cell_angle_beta   128.06891525
_cell_angle_gamma   76.51223826
_symmetry_Int_Tables_number   1
_chemical_formula_structural   Ho9Mg(Ni2Pd)2
_chemical_formula_sum   'Ho9 Mg1 Ni4 Pd2'
_cell_volume   356.26726902
_cell_formula_units_Z   1
loop_
 _symmetry_equiv_pos_site_id
 _symmetry_equiv_pos_as_xyz
  1  'x, y, z'
loop_
 _atom_site_type_symbol
 _atom_site_label
 _atom_site_symmetry_multiplicity
 _atom_site_fract_x
 _atom_site_fract_y
 _atom_site_fract_z
 _atom_site_occupancy
  Ho  Ho0  1  0.542059  0.707126  0.522866  1
  Ho  Ho1  1  0.019186  0.542068  0.834934  1
  Ho  Ho2  1  0.707134  0.184252  0.165066  1
  Ho  Ho3  1  0.980814  0.457932  0.165066  1
  Ho  Ho4  1  0.184261  0.019193  0.477134  1
  Ho  Ho5  1  0.457941  0.292874  0.477134  1
  Ho  Ho6  1  0.815739  0.980807  0.522866  1
  Ho  Ho7  1  0.292866  0.815748  0.834934  1
  Ho  Ho8  1  0.500000  0.500000  0.000000  1
  Mg  Mg9  1  0.000000  0.000000  0.000000  1
  Ni  Ni10  1  0.375541  0.871568  0.247112  1
  Ni  Ni11  1  0.871517  0.624403  0.495918  1
  Ni  Ni12  1  0.624459  0.128432  0.752888  1
  Ni  Ni13  1  0.128483  0.375597  0.504082  1
  Pd  Pd14  1  0.745091  0.745091  0.000001  1
  Pd  Pd15  1  0.254909  0.254909  0.999999  1
