# generated using pymatgen
data_Y19Mg(IrPt2)4
_symmetry_space_group_name_H-M   'P 1'
_cell_length_a   11.05907800
_cell_length_b   11.05907800
_cell_length_c   6.33022900
_cell_angle_alpha   90.00000000
_cell_angle_beta   90.00000000
_cell_angle_gamma   90.00000000
_symmetry_Int_Tables_number   1
_chemical_formula_structural   Y19Mg(IrPt2)4
_chemical_formula_sum   'Y19 Mg1 Ir4 Pt8'
_cell_volume   774.20730274
_cell_formula_units_Z   1
loop_
 _symmetry_equiv_pos_site_id
 _symmetry_equiv_pos_as_xyz
  1  'x, y, z'
loop_
 _atom_site_type_symbol
 _atom_site_label
 _atom_site_symmetry_multiplicity
 _atom_site_fract_x
 _atom_site_fract_y
 _atom_site_fract_z
 _atom_site_occupancy
  Y  Y0  1  0.286999  0.083467  0.375020  1
  Y  Y1  1  0.293740  0.911983  0.875621  1
  Y  Y2  1  0.706260  0.088017  0.875621  1
  Y  Y3  1  0.713001  0.916533  0.375020  1
  Y  Y4  1  0.589504  0.795010  0.873768  1
  Y  Y5  1  0.585801  0.204592  0.372003  1
  Y  Y6  1  0.414199  0.795408  0.372003  1
  Y  Y7  1  0.410496  0.204990  0.873768  1
  Y  Y8  1  0.204592  0.414199  0.627997  1
  Y  Y9  1  0.204990  0.589504  0.126232  1
  Y  Y10  1  0.795010  0.410496  0.126232  1
  Y  Y11  1  0.795408  0.585801  0.627997  1
  Y  Y12  1  0.911983  0.706260  0.124379  1
  Y  Y13  1  0.916533  0.286999  0.624980  1
  Y  Y14  1  0.083467  0.713001  0.624980  1
  Y  Y15  1  0.088017  0.293740  0.124379  1
  Y  Y16  1  0.000000  0.000000  0.000000  1
  Y  Y17  1  0.500000  0.500000  0.000000  1
  Y  Y18  1  0.500000  0.500000  0.500000  1
  Mg  Mg19  1  0.000000  0.000000  0.500000  1
  Ir  Ir20  1  0.500000  0.000000  0.123985  1
  Ir  Ir21  1  0.500000  0.000000  0.620631  1
  Ir  Ir22  1  0.000000  0.500000  0.876015  1
  Ir  Ir23  1  0.000000  0.500000  0.379369  1
  Pt  Pt24  1  0.848391  0.153698  0.249782  1
  Pt  Pt25  1  0.846302  0.848391  0.750218  1
  Pt  Pt26  1  0.153698  0.151609  0.750218  1
  Pt  Pt27  1  0.151609  0.846302  0.249782  1
  Pt  Pt28  1  0.654581  0.346053  0.747373  1
  Pt  Pt29  1  0.653947  0.654581  0.252627  1
  Pt  Pt30  1  0.346053  0.345419  0.252627  1
  Pt  Pt31  1  0.345419  0.653947  0.747373  1
