# generated using pymatgen
data_Tb15Lu5(SnPb)8
_symmetry_space_group_name_H-M   'P 1'
_cell_length_a   8.05870571
_cell_length_b   8.21047465
_cell_length_c   15.56049903
_cell_angle_alpha   90.03341723
_cell_angle_beta   89.96675830
_cell_angle_gamma   90.07990765
_symmetry_Int_Tables_number   1
_chemical_formula_structural   Tb15Lu5(SnPb)8
_chemical_formula_sum   'Tb15 Lu5 Sn8 Pb8'
_cell_volume   1029.57150082
_cell_formula_units_Z   1
loop_
 _symmetry_equiv_pos_site_id
 _symmetry_equiv_pos_as_xyz
  1  'x, y, z'
loop_
 _atom_site_type_symbol
 _atom_site_label
 _atom_site_symmetry_multiplicity
 _atom_site_fract_x
 _atom_site_fract_y
 _atom_site_fract_z
 _atom_site_occupancy
  Tb  Tb0  1  0.865156  0.661679  0.624851  1
  Tb  Tb1  1  0.634393  0.161446  0.375959  1
  Tb  Tb2  1  0.135580  0.338290  0.122550  1
  Tb  Tb3  1  0.634395  0.162200  0.124265  1
  Tb  Tb4  1  0.134233  0.338026  0.375988  1
  Tb  Tb5  1  0.365873  0.838270  0.624599  1
  Tb  Tb6  1  0.866070  0.661334  0.876512  1
  Tb  Tb7  1  0.519707  0.320436  0.901486  1
  Tb  Tb8  1  0.020754  0.178728  0.599424  1
  Tb  Tb9  1  0.480144  0.679472  0.401620  1
  Tb  Tb10  1  0.979296  0.820557  0.098547  1
  Tb  Tb11  1  0.480579  0.680122  0.097171  1
  Tb  Tb12  1  0.980110  0.820797  0.401213  1
  Tb  Tb13  1  0.520113  0.321025  0.599498  1
  Tb  Tb14  1  0.019630  0.178349  0.901025  1
  Lu  Lu15  1  0.364429  0.839350  0.874221  1
  Lu  Lu16  1  0.197059  0.503280  0.750823  1
  Lu  Lu17  1  0.695994  0.996865  0.750564  1
  Lu  Lu18  1  0.803842  0.497118  0.250015  1
  Lu  Lu19  1  0.303534  0.002549  0.249408  1
  Sn  Sn20  1  0.560405  0.619547  0.751120  1
  Sn  Sn21  1  0.061942  0.881693  0.751109  1
  Sn  Sn22  1  0.438581  0.382561  0.249953  1
  Sn  Sn23  1  0.939163  0.117945  0.249372  1
  Sn  Sn24  1  0.329062  0.150183  0.750706  1
  Sn  Sn25  1  0.828841  0.348772  0.750379  1
  Sn  Sn26  1  0.671107  0.848770  0.249760  1
  Sn  Sn27  1  0.171229  0.650396  0.249680  1
  Pb  Pb28  1  0.292669  0.035424  0.040034  1
  Pb  Pb29  1  0.792301  0.463084  0.458050  1
  Pb  Pb30  1  0.708474  0.962872  0.542681  1
  Pb  Pb31  1  0.210322  0.540906  0.957197  1
  Pb  Pb32  1  0.703097  0.961457  0.957405  1
  Pb  Pb33  1  0.207655  0.536908  0.542630  1
  Pb  Pb34  1  0.292010  0.036904  0.457832  1
  Pb  Pb35  1  0.792253  0.462687  0.042348  1
