# generated using pymatgen
data_Dy15Er(C2Br3)4
_symmetry_space_group_name_H-M   'P 1'
_cell_length_a   3.68773400
_cell_length_b   10.73439007
_cell_length_c   20.44885314
_cell_angle_alpha   89.98652564
_cell_angle_beta   90.00000000
_cell_angle_gamma   90.00000000
_symmetry_Int_Tables_number   1
_chemical_formula_structural   Dy15Er(C2Br3)4
_chemical_formula_sum   'Dy15 Er1 C8 Br12'
_cell_volume   809.47959234
_cell_formula_units_Z   1
loop_
 _symmetry_equiv_pos_site_id
 _symmetry_equiv_pos_as_xyz
  1  'x, y, z'
loop_
 _atom_site_type_symbol
 _atom_site_label
 _atom_site_symmetry_multiplicity
 _atom_site_fract_x
 _atom_site_fract_y
 _atom_site_fract_z
 _atom_site_occupancy
  Dy  Dy0  1  0.250000  0.865588  0.580309  1
  Dy  Dy1  1  0.750000  0.134362  0.419583  1
  Dy  Dy2  1  0.750000  0.633867  0.080403  1
  Dy  Dy3  1  0.250000  0.365600  0.919664  1
  Dy  Dy4  1  0.250000  0.865314  0.744440  1
  Dy  Dy5  1  0.750000  0.134500  0.255472  1
  Dy  Dy6  1  0.750000  0.634466  0.244371  1
  Dy  Dy7  1  0.250000  0.365461  0.755512  1
  Dy  Dy8  1  0.250000  0.868804  0.168825  1
  Dy  Dy9  1  0.750000  0.131360  0.831196  1
  Dy  Dy10  1  0.750000  0.631242  0.668760  1
  Dy  Dy11  1  0.250000  0.368339  0.330904  1
  Dy  Dy12  1  0.250000  0.900428  0.328630  1
  Dy  Dy13  1  0.750000  0.099578  0.671362  1
  Dy  Dy14  1  0.750000  0.599603  0.828615  1
  Er  Er15  1  0.250000  0.401375  0.172212  1
  C  C16  1  0.250000  0.614345  0.750365  1
  C  C17  1  0.750000  0.386068  0.248903  1
  C  C18  1  0.750000  0.885290  0.250267  1
  C  C19  1  0.250000  0.114239  0.749595  1
  C  C20  1  0.250000  0.631984  0.156279  1
  C  C21  1  0.750000  0.366637  0.843801  1
  C  C22  1  0.750000  0.866761  0.656177  1
  C  C23  1  0.250000  0.133653  0.343613  1
  Br  Br24  1  0.250000  0.612111  0.554902  1
  Br  Br25  1  0.750000  0.387952  0.444810  1
  Br  Br26  1  0.750000  0.887701  0.055069  1
  Br  Br27  1  0.250000  0.112137  0.945100  1
  Br  Br28  1  0.250000  0.627482  0.953142  1
  Br  Br29  1  0.750000  0.372367  0.047863  1
  Br  Br30  1  0.750000  0.872373  0.452945  1
  Br  Br31  1  0.250000  0.127550  0.546835  1
  Br  Br32  1  0.250000  0.636042  0.357158  1
  Br  Br33  1  0.750000  0.363770  0.642768  1
  Br  Br34  1  0.750000  0.863780  0.857188  1
  Br  Br35  1  0.250000  0.137871  0.142956  1
