# generated using pymatgen
data_Dy8Sc12Si15Se
_symmetry_space_group_name_H-M   'P 1'
_cell_length_a   7.15431834
_cell_length_b   7.35552580
_cell_length_c   13.96598031
_cell_angle_alpha   89.95128093
_cell_angle_beta   88.35310395
_cell_angle_gamma   90.14027362
_symmetry_Int_Tables_number   1
_chemical_formula_structural   Dy8Sc12Si15Se
_chemical_formula_sum   'Dy8 Sc12 Si15 Se1'
_cell_volume   734.63648059
_cell_formula_units_Z   1
loop_
 _symmetry_equiv_pos_site_id
 _symmetry_equiv_pos_as_xyz
  1  'x, y, z'
loop_
 _atom_site_type_symbol
 _atom_site_label
 _atom_site_symmetry_multiplicity
 _atom_site_fract_x
 _atom_site_fract_y
 _atom_site_fract_z
 _atom_site_occupancy
  Dy  Dy0  1  0.011624  0.176222  0.097398  1
  Dy  Dy1  1  0.988760  0.824844  0.902439  1
  Dy  Dy2  1  0.488919  0.676108  0.902825  1
  Dy  Dy3  1  0.996416  0.824561  0.596125  1
  Dy  Dy4  1  0.511424  0.324823  0.097469  1
  Dy  Dy5  1  0.999167  0.175388  0.402263  1
  Dy  Dy6  1  0.502211  0.317948  0.400807  1
  Dy  Dy7  1  0.506665  0.681298  0.598631  1
  Sc  Sc8  1  0.166481  0.500609  0.752308  1
  Sc  Sc9  1  0.833108  0.498975  0.253395  1
  Sc  Sc10  1  0.332268  0.000574  0.251491  1
  Sc  Sc11  1  0.668047  0.999058  0.749097  1
  Sc  Sc12  1  0.347779  0.166838  0.626934  1
  Sc  Sc13  1  0.654116  0.829108  0.373950  1
  Sc  Sc14  1  0.152786  0.670677  0.377248  1
  Sc  Sc15  1  0.667037  0.823597  0.125510  1
  Sc  Sc16  1  0.841729  0.330882  0.621526  1
  Sc  Sc17  1  0.332487  0.175999  0.873825  1
  Sc  Sc18  1  0.833460  0.323740  0.874023  1
  Sc  Sc19  1  0.166720  0.676635  0.125442  1
  Si  Si20  1  0.039657  0.118575  0.748362  1
  Si  Si21  1  0.959857  0.882389  0.249884  1
  Si  Si22  1  0.457214  0.616623  0.249380  1
  Si  Si23  1  0.541141  0.384095  0.749766  1
  Si  Si24  1  0.290923  0.869901  0.750167  1
  Si  Si25  1  0.709398  0.127303  0.248503  1
  Si  Si26  1  0.207917  0.373071  0.249819  1
  Si  Si27  1  0.794457  0.628049  0.750143  1
  Si  Si28  1  0.802820  0.540627  0.456836  1
  Si  Si29  1  0.321621  0.960453  0.460468  1
  Si  Si30  1  0.843299  0.535064  0.039341  1
  Si  Si31  1  0.676448  0.039477  0.540461  1
  Si  Si32  1  0.156011  0.465899  0.960464  1
  Si  Si33  1  0.655787  0.035172  0.959665  1
  Si  Si34  1  0.343809  0.966134  0.040220  1
  Se  Se35  1  0.198440  0.459282  0.543819  1
