# generated using pymatgen
data_Y20CdTc2Hg5
_symmetry_space_group_name_H-M   'P 1'
_cell_length_a   9.66506648
_cell_length_b   9.64040507
_cell_length_c   9.76550200
_cell_angle_alpha   90.00000000
_cell_angle_beta   90.00000000
_cell_angle_gamma   119.91562715
_symmetry_Int_Tables_number   1
_chemical_formula_structural   Y20CdTc2Hg5
_chemical_formula_sum   'Y20 Cd1 Tc2 Hg5'
_cell_volume   788.66749408
_cell_formula_units_Z   1
loop_
 _symmetry_equiv_pos_site_id
 _symmetry_equiv_pos_as_xyz
  1  'x, y, z'
loop_
 _atom_site_type_symbol
 _atom_site_label
 _atom_site_symmetry_multiplicity
 _atom_site_fract_x
 _atom_site_fract_y
 _atom_site_fract_z
 _atom_site_occupancy
  Y  Y0  1  0.003420  0.001710  0.496698  1
  Y  Y1  1  0.003420  0.001710  0.003302  1
  Y  Y2  1  0.209247  0.790534  0.439886  1
  Y  Y3  1  0.209247  0.418712  0.439886  1
  Y  Y4  1  0.581269  0.790634  0.440848  1
  Y  Y5  1  0.789862  0.208604  0.559605  1
  Y  Y6  1  0.789862  0.581259  0.559605  1
  Y  Y7  1  0.418842  0.209421  0.559165  1
  Y  Y8  1  0.789862  0.208604  0.940395  1
  Y  Y9  1  0.789862  0.581259  0.940395  1
  Y  Y10  1  0.418842  0.209421  0.940835  1
  Y  Y11  1  0.209247  0.790534  0.060114  1
  Y  Y12  1  0.209247  0.418712  0.060114  1
  Y  Y13  1  0.581269  0.790634  0.059152  1
  Y  Y14  1  0.538936  0.460503  0.250000  1
  Y  Y15  1  0.538936  0.078434  0.250000  1
  Y  Y16  1  0.920750  0.460376  0.250000  1
  Y  Y17  1  0.458397  0.537264  0.750000  1
  Y  Y18  1  0.458397  0.921132  0.750000  1
  Y  Y19  1  0.078560  0.539279  0.750000  1
  Cd  Cd20  1  0.769992  0.884995  0.750000  1
  Tc  Tc21  1  0.332797  0.666399  0.250000  1
  Tc  Tc22  1  0.666711  0.333355  0.750000  1
  Hg  Hg23  1  0.881601  0.118605  0.250000  1
  Hg  Hg24  1  0.881601  0.762997  0.250000  1
  Hg  Hg25  1  0.238281  0.119141  0.250000  1
  Hg  Hg26  1  0.115772  0.882099  0.750000  1
  Hg  Hg27  1  0.115772  0.233672  0.750000  1
