# generated using pymatgen
data_La5Pr5(SiC)4
_symmetry_space_group_name_H-M   'P 1'
_cell_length_a   8.12415765
_cell_length_b   12.84550224
_cell_length_c   4.27847600
_cell_angle_alpha   90.00000000
_cell_angle_beta   90.00000000
_cell_angle_gamma   90.15768991
_symmetry_Int_Tables_number   1
_chemical_formula_structural   La5Pr5(SiC)4
_chemical_formula_sum   'La5 Pr5 Si4 C4'
_cell_volume   446.49529471
_cell_formula_units_Z   1
loop_
 _symmetry_equiv_pos_site_id
 _symmetry_equiv_pos_as_xyz
  1  'x, y, z'
loop_
 _atom_site_type_symbol
 _atom_site_label
 _atom_site_symmetry_multiplicity
 _atom_site_fract_x
 _atom_site_fract_y
 _atom_site_fract_z
 _atom_site_occupancy
  La  La0  1  0.822451  0.786507  0.000000  1
  La  La1  1  0.831989  0.063000  0.499998  1
  La  La2  1  0.330926  0.438029  0.499998  1
  La  La3  1  0.669342  0.561220  0.499998  1
  La  La4  1  0.169828  0.939689  0.499998  1
  Pr  Pr5  1  0.499139  0.001300  0.000000  1
  Pr  Pr6  1  0.176488  0.213409  0.000000  1
  Pr  Pr7  1  0.675544  0.286820  0.000000  1
  Pr  Pr8  1  0.000029  0.498601  0.000000  1
  Pr  Pr9  1  0.323185  0.712418  0.000000  1
  Si  Si10  1  0.454632  0.171779  0.499998  1
  Si  Si11  1  0.955607  0.327735  0.499998  1
  Si  Si12  1  0.047139  0.668758  0.499998  1
  Si  Si13  1  0.539461  0.829964  0.499998  1
  C  C14  1  0.042074  0.046909  0.000000  1
  C  C15  1  0.541863  0.453450  0.000000  1
  C  C16  1  0.460564  0.546957  0.000000  1
  C  C17  1  0.959741  0.953456  0.000000  1
