# generated using pymatgen
data_Ho9Si16Tc11
_symmetry_space_group_name_H-M   'P 1'
_cell_length_a   6.82785554
_cell_length_b   6.82785515
_cell_length_c   12.84772860
_cell_angle_alpha   89.99993628
_cell_angle_beta   90.00005234
_cell_angle_gamma   89.85285854
_symmetry_Int_Tables_number   1
_chemical_formula_structural   Ho9Si16Tc11
_chemical_formula_sum   'Ho9 Si16 Tc11'
_cell_volume   598.95410276
_cell_formula_units_Z   1
loop_
 _symmetry_equiv_pos_site_id
 _symmetry_equiv_pos_as_xyz
  1  'x, y, z'
loop_
 _atom_site_type_symbol
 _atom_site_label
 _atom_site_symmetry_multiplicity
 _atom_site_fract_x
 _atom_site_fract_y
 _atom_site_fract_z
 _atom_site_occupancy
  Ho  Ho0  1  0.328199  0.993432  0.467613  1
  Ho  Ho1  1  0.498602  0.840720  0.724230  1
  Ho  Ho2  1  0.491740  0.156530  0.214521  1
  Ho  Ho3  1  0.840720  0.498602  0.275770  1
  Ho  Ho4  1  0.156530  0.491740  0.785479  1
  Ho  Ho5  1  0.662597  0.011259  0.967808  1
  Ho  Ho6  1  0.993432  0.328199  0.532387  1
  Ho  Ho7  1  0.011259  0.662597  0.032192  1
  Ho  Ho8  1  0.661954  0.661954  0.500000  1
  Si  Si9  1  0.190721  0.117032  0.685190  1
  Si  Si10  1  0.387936  0.696469  0.932895  1
  Si  Si11  1  0.621042  0.279957  0.429244  1
  Si  Si12  1  0.696469  0.387936  0.067105  1
  Si  Si13  1  0.279957  0.621042  0.570756  1
  Si  Si14  1  0.809311  0.887195  0.185701  1
  Si  Si15  1  0.117032  0.190721  0.314810  1
  Si  Si16  1  0.887195  0.809311  0.814299  1
  Si  Si17  1  0.270219  0.987486  0.055787  1
  Si  Si18  1  0.509806  0.764134  0.298562  1
  Si  Si19  1  0.488154  0.245208  0.810046  1
  Si  Si20  1  0.764134  0.509806  0.701438  1
  Si  Si21  1  0.245208  0.488154  0.189954  1
  Si  Si22  1  0.706222  0.043439  0.571313  1
  Si  Si23  1  0.987486  0.270219  0.944213  1
  Si  Si24  1  0.043439  0.706222  0.428687  1
  Tc  Tc25  1  0.338382  0.338382  0.000000  1
  Tc  Tc26  1  0.164488  0.832501  0.248967  1
  Tc  Tc27  1  0.832501  0.164488  0.751033  1
  Tc  Tc28  1  0.186018  0.985213  0.866310  1
  Tc  Tc29  1  0.526315  0.696412  0.111423  1
  Tc  Tc30  1  0.477326  0.323321  0.616940  1
  Tc  Tc31  1  0.696412  0.526315  0.888577  1
  Tc  Tc32  1  0.323321  0.477326  0.383060  1
  Tc  Tc33  1  0.825280  0.995375  0.376210  1
  Tc  Tc34  1  0.985213  0.186018  0.133690  1
  Tc  Tc35  1  0.995375  0.825280  0.623790  1
