# generated using pymatgen
data_Ac7La12HoPb16
_symmetry_space_group_name_H-M   'P 1'
_cell_length_a   8.62310844
_cell_length_b   16.56003610
_cell_length_c   8.69854100
_cell_angle_alpha   90.08878754
_cell_angle_beta   89.77339057
_cell_angle_gamma   90.14144421
_symmetry_Int_Tables_number   1
_chemical_formula_structural   Ac7La12HoPb16
_chemical_formula_sum   'Ac7 La12 Ho1 Pb16'
_cell_volume   1242.12787105
_cell_formula_units_Z   1
loop_
 _symmetry_equiv_pos_site_id
 _symmetry_equiv_pos_as_xyz
  1  'x, y, z'
loop_
 _atom_site_type_symbol
 _atom_site_label
 _atom_site_symmetry_multiplicity
 _atom_site_fract_x
 _atom_site_fract_y
 _atom_site_fract_z
 _atom_site_occupancy
  Ac  Ac0  1  0.973781  0.901238  0.820879  1
  Ac  Ac1  1  0.527161  0.098555  0.320388  1
  Ac  Ac2  1  0.027540  0.401828  0.178064  1
  Ac  Ac3  1  0.527936  0.401512  0.322352  1
  Ac  Ac4  1  0.025573  0.098507  0.177324  1
  Ac  Ac5  1  0.474278  0.901669  0.677665  1
  Ac  Ac6  1  0.973072  0.597527  0.819773  1
  La  La7  1  0.626767  0.617544  0.156253  1
  La  La8  1  0.128314  0.881098  0.344372  1
  La  La9  1  0.372688  0.119463  0.845031  1
  La  La10  1  0.872908  0.381614  0.655326  1
  La  La11  1  0.375583  0.381229  0.844918  1
  La  La12  1  0.871542  0.119308  0.655550  1
  La  La13  1  0.627842  0.880625  0.155410  1
  La  La14  1  0.126751  0.617474  0.343515  1
  La  La15  1  0.469660  0.600865  0.676327  1
  La  La16  1  0.790818  0.749569  0.498164  1
  La  La17  1  0.289723  0.749567  0.002082  1
  La  La18  1  0.209726  0.250767  0.502041  1
  Ho  Ho19  1  0.711050  0.250178  0.996538  1
  Pb  Pb20  1  0.710813  0.452207  0.963291  1
  Pb  Pb21  1  0.209287  0.045201  0.540568  1
  Pb  Pb22  1  0.291293  0.954734  0.039298  1
  Pb  Pb23  1  0.783174  0.546402  0.466666  1
  Pb  Pb24  1  0.292012  0.546005  0.033916  1
  Pb  Pb25  1  0.790783  0.955222  0.459281  1
  Pb  Pb26  1  0.709632  0.047341  0.961722  1
  Pb  Pb27  1  0.214110  0.457902  0.543685  1
  Pb  Pb28  1  0.427705  0.748481  0.372845  1
  Pb  Pb29  1  0.928034  0.749275  0.129211  1
  Pb  Pb30  1  0.572744  0.250005  0.634607  1
  Pb  Pb31  1  0.066955  0.250673  0.872078  1
  Pb  Pb32  1  0.659790  0.747017  0.855395  1
  Pb  Pb33  1  0.168309  0.748616  0.641891  1
  Pb  Pb34  1  0.338326  0.250264  0.141186  1
  Pb  Pb35  1  0.834314  0.250519  0.352392  1
