# generated using pymatgen
data_Ho5Cr3Fe2(Co7P6)2
_symmetry_space_group_name_H-M   'P 1'
_cell_length_a   11.99703716
_cell_length_b   11.99658041
_cell_length_c   3.66286400
_cell_angle_alpha   90.00000000
_cell_angle_beta   90.00000000
_cell_angle_gamma   119.85965234
_symmetry_Int_Tables_number   1
_chemical_formula_structural   Ho5Cr3Fe2(Co7P6)2
_chemical_formula_sum   'Ho5 Cr3 Fe2 Co14 P12'
_cell_volume   457.18856358
_cell_formula_units_Z   1
loop_
 _symmetry_equiv_pos_site_id
 _symmetry_equiv_pos_as_xyz
  1  'x, y, z'
loop_
 _atom_site_type_symbol
 _atom_site_label
 _atom_site_symmetry_multiplicity
 _atom_site_fract_x
 _atom_site_fract_y
 _atom_site_fract_z
 _atom_site_occupancy
  Ho  Ho0  1  0.666932  0.333452  0.000000  1
  Ho  Ho1  1  0.333808  0.666923  0.000000  1
  Ho  Ho2  1  0.813156  0.813589  0.500000  1
  Ho  Ho3  1  0.186304  0.999295  0.500000  1
  Ho  Ho4  1  0.999723  0.186539  0.500000  1
  Cr  Cr5  1  0.444508  0.444372  0.000000  1
  Cr  Cr6  1  0.554479  0.999250  0.000000  1
  Cr  Cr7  1  0.001361  0.557071  0.000000  1
  Fe  Fe8  1  0.798863  0.176621  0.000000  1
  Fe  Fe9  1  0.822948  0.622167  0.000000  1
  Co  Co10  1  0.875359  0.358598  0.500000  1
  Co  Co11  1  0.641815  0.517383  0.500000  1
  Co  Co12  1  0.482774  0.126157  0.500000  1
  Co  Co13  1  0.356305  0.874568  0.500000  1
  Co  Co14  1  0.517454  0.643972  0.500000  1
  Co  Co15  1  0.126306  0.482033  0.500000  1
  Co  Co16  1  0.376633  0.199630  0.000000  1
  Co  Co17  1  0.178014  0.800618  0.000000  1
  Co  Co18  1  0.622047  0.821584  0.000000  1
  Co  Co19  1  0.199933  0.377315  0.000000  1
  Co  Co20  1  0.283011  0.283282  0.500000  1
  Co  Co21  1  0.715877  0.998127  0.500000  1
  Co  Co22  1  0.001846  0.717482  0.500000  1
  Co  Co23  1  0.000226  0.999830  0.000000  1
  P  P24  1  0.685710  0.164344  0.500000  1
  P  P25  1  0.835204  0.521267  0.500000  1
  P  P26  1  0.480306  0.316361  0.500000  1
  P  P27  1  0.164577  0.683780  0.500000  1
  P  P28  1  0.519603  0.836836  0.500000  1
  P  P29  1  0.316402  0.480487  0.500000  1
  P  P30  1  0.179379  0.179582  0.000000  1
  P  P31  1  0.819952  0.001180  0.000000  1
  P  P32  1  0.997960  0.818373  0.000000  1
  P  P33  1  0.637564  0.635391  0.000000  1
  P  P34  1  0.366786  0.000231  0.000000  1
  P  P35  1  0.996875  0.362310  0.000000  1
