# generated using pymatgen
data_Nd3Dy2P12Ir10Ru9
_symmetry_space_group_name_H-M   'P 1'
_cell_length_a   12.69615904
_cell_length_b   12.61705644
_cell_length_c   3.99476800
_cell_angle_alpha   90.00000000
_cell_angle_beta   90.00000000
_cell_angle_gamma   119.96532640
_symmetry_Int_Tables_number   1
_chemical_formula_structural   Nd3Dy2P12Ir10Ru9
_chemical_formula_sum   'Nd3 Dy2 P12 Ir10 Ru9'
_cell_volume   554.37575376
_cell_formula_units_Z   1
loop_
 _symmetry_equiv_pos_site_id
 _symmetry_equiv_pos_as_xyz
  1  'x, y, z'
loop_
 _atom_site_type_symbol
 _atom_site_label
 _atom_site_symmetry_multiplicity
 _atom_site_fract_x
 _atom_site_fract_y
 _atom_site_fract_z
 _atom_site_occupancy
  Nd  Nd0  1  0.812306  0.001053  0.500000  1
  Nd  Nd1  1  0.185200  0.186977  0.500000  1
  Nd  Nd2  1  0.999682  0.814104  0.500000  1
  Dy  Dy3  1  0.666760  0.331912  0.000000  1
  Dy  Dy4  1  0.334963  0.667615  0.000000  1
  P  P5  1  0.630048  0.997879  0.000000  1
  P  P6  1  0.366356  0.371836  0.000000  1
  P  P7  1  0.001017  0.633502  0.000000  1
  P  P8  1  0.689848  0.518364  0.500000  1
  P  P9  1  0.827695  0.306202  0.500000  1
  P  P10  1  0.315448  0.831312  0.500000  1
  P  P11  1  0.517033  0.687871  0.500000  1
  P  P12  1  0.182710  0.000721  0.000000  1
  P  P13  1  0.816432  0.817453  0.000000  1
  P  P14  1  0.996470  0.184296  0.000000  1
  P  P15  1  0.480195  0.169123  0.500000  1
  P  P16  1  0.174963  0.482356  0.500000  1
  Ir  Ir17  1  0.620943  0.801133  0.000000  1
  Ir  Ir18  1  0.181264  0.380754  0.000000  1
  Ir  Ir19  1  0.378028  0.183427  0.000000  1
  Ir  Ir20  1  0.196555  0.817988  0.000000  1
  Ir  Ir21  1  0.803949  0.620524  0.000000  1
  Ir  Ir22  1  0.869703  0.505741  0.500000  1
  Ir  Ir23  1  0.494686  0.362077  0.500000  1
  Ir  Ir24  1  0.634918  0.128406  0.500000  1
  Ir  Ir25  1  0.131157  0.637935  0.500000  1
  Ir  Ir26  1  0.999818  0.000658  0.000000  1
  Ru  Ru27  1  0.363721  0.489060  0.500000  1
  Ru  Ru28  1  0.509821  0.870603  0.500000  1
  Ru  Ru29  1  0.711323  0.710159  0.500000  1
  Ru  Ru30  1  0.000878  0.290741  0.500000  1
  Ru  Ru31  1  0.449829  0.999793  0.000000  1
  Ru  Ru32  1  0.550834  0.546937  0.000000  1
  Ru  Ru33  1  0.000269  0.453243  0.000000  1
  Ru  Ru34  1  0.816652  0.198188  0.000000  1
  Ru  Ru35  1  0.288524  0.000057  0.500000  1
