# generated using pymatgen
data_Nd4Dy4Tc(B8Ru)3
_symmetry_space_group_name_H-M   'P 1'
_cell_length_a   3.73046400
_cell_length_b   9.23231468
_cell_length_c   11.65816102
_cell_angle_alpha   89.89479067
_cell_angle_beta   90.00000000
_cell_angle_gamma   90.00000000
_symmetry_Int_Tables_number   1
_chemical_formula_structural   Nd4Dy4Tc(B8Ru)3
_chemical_formula_sum   'Nd4 Dy4 Tc1 B24 Ru3'
_cell_volume   401.51591970
_cell_formula_units_Z   1
loop_
 _symmetry_equiv_pos_site_id
 _symmetry_equiv_pos_as_xyz
  1  'x, y, z'
loop_
 _atom_site_type_symbol
 _atom_site_label
 _atom_site_symmetry_multiplicity
 _atom_site_fract_x
 _atom_site_fract_y
 _atom_site_fract_z
 _atom_site_occupancy
  Nd  Nd0  1  0.000000  0.324188  0.413549  1
  Nd  Nd1  1  0.000000  0.676687  0.583667  1
  Nd  Nd2  1  0.000000  0.821501  0.087221  1
  Nd  Nd3  1  0.000000  0.176285  0.915235  1
  Dy  Dy4  1  0.000000  0.943332  0.371505  1
  Dy  Dy5  1  0.000000  0.057199  0.629258  1
  Dy  Dy6  1  0.000000  0.444390  0.128957  1
  Dy  Dy7  1  0.000000  0.556591  0.870278  1
  Tc  Tc8  1  0.000000  0.639257  0.319638  1
  B  B9  1  0.500000  0.555230  0.430502  1
  B  B10  1  0.500000  0.444008  0.569778  1
  B  B11  1  0.500000  0.056132  0.069886  1
  B  B12  1  0.500000  0.943583  0.930604  1
  B  B13  1  0.500000  0.749319  0.416879  1
  B  B14  1  0.500000  0.250791  0.583158  1
  B  B15  1  0.500000  0.249268  0.082675  1
  B  B16  1  0.500000  0.750457  0.917133  1
  B  B17  1  0.500000  0.790732  0.266555  1
  B  B18  1  0.500000  0.209986  0.733554  1
  B  B19  1  0.500000  0.290226  0.232753  1
  B  B20  1  0.500000  0.710510  0.766475  1
  B  B21  1  0.500000  0.630791  0.185805  1
  B  B22  1  0.500000  0.368940  0.814751  1
  B  B23  1  0.500000  0.130838  0.314156  1
  B  B24  1  0.500000  0.869732  0.685420  1
  B  B25  1  0.500000  0.985857  0.213604  1
  B  B26  1  0.500000  0.013904  0.787103  1
  B  B27  1  0.500000  0.485054  0.286469  1
  B  B28  1  0.500000  0.513660  0.713366  1
  B  B29  1  0.500000  0.602417  0.027277  1
  B  B30  1  0.500000  0.397133  0.971377  1
  B  B31  1  0.500000  0.103136  0.472321  1
  B  B32  1  0.500000  0.898488  0.528581  1
  Ru  Ru33  1  0.000000  0.360386  0.680931  1
  Ru  Ru34  1  0.000000  0.139279  0.180025  1
  Ru  Ru35  1  0.000000  0.860714  0.819557  1
