# generated using pymatgen
data_TbY3Al18(IrPd2)2
_symmetry_space_group_name_H-M   'P 1'
_cell_length_a   7.61630598
_cell_length_b   7.61651038
_cell_length_c   9.47228601
_cell_angle_alpha   89.99091070
_cell_angle_beta   89.99010363
_cell_angle_gamma   119.62520652
_symmetry_Int_Tables_number   1
_chemical_formula_structural   TbY3Al18(IrPd2)2
_chemical_formula_sum   'Tb1 Y3 Al18 Ir2 Pd4'
_cell_volume   477.65426547
_cell_formula_units_Z   1
loop_
 _symmetry_equiv_pos_site_id
 _symmetry_equiv_pos_as_xyz
  1  'x, y, z'
loop_
 _atom_site_type_symbol
 _atom_site_label
 _atom_site_symmetry_multiplicity
 _atom_site_fract_x
 _atom_site_fract_y
 _atom_site_fract_z
 _atom_site_occupancy
  Tb  Tb0  1  0.994849  0.669570  0.250858  1
  Y  Y1  1  0.006734  0.330793  0.749021  1
  Y  Y2  1  0.669166  0.993278  0.250979  1
  Y  Y3  1  0.330404  0.005167  0.749095  1
  Al  Al4  1  0.129097  0.130175  0.252613  1
  Al  Al5  1  0.869851  0.870962  0.747388  1
  Al  Al6  1  0.000761  0.334510  0.077763  1
  Al  Al7  1  0.998904  0.665041  0.921806  1
  Al  Al8  1  0.997408  0.665347  0.573286  1
  Al  Al9  1  0.334717  0.002644  0.426775  1
  Al  Al10  1  0.995664  0.330336  0.426243  1
  Al  Al11  1  0.669607  0.004346  0.573796  1
  Al  Al12  1  0.665427  0.999236  0.922195  1
  Al  Al13  1  0.335032  0.001145  0.078172  1
  Al  Al14  1  0.332646  0.329619  0.552508  1
  Al  Al15  1  0.670312  0.667354  0.447548  1
  Al  Al16  1  0.665881  0.665796  0.058475  1
  Al  Al17  1  0.334206  0.334082  0.941476  1
  Al  Al18  1  0.339159  0.547179  0.251304  1
  Al  Al19  1  0.659724  0.452132  0.747044  1
  Al  Al20  1  0.547819  0.340261  0.252950  1
  Al  Al21  1  0.452800  0.660822  0.748709  1
  Ir  Ir22  1  0.671490  0.328445  0.500047  1
  Ir  Ir23  1  0.000432  0.999598  0.500035  1
  Pd  Pd24  1  0.672116  0.327747  0.999946  1
  Pd  Pd25  1  0.327710  0.672355  0.999964  1
  Pd  Pd26  1  0.327938  0.672130  0.500053  1
  Pd  Pd27  1  0.000146  0.999927  0.999951  1
