# generated using pymatgen
data_Dy4HfIr3
_symmetry_space_group_name_H-M   'P 1'
_cell_length_a   10.84848900
_cell_length_b   10.84848900
_cell_length_c   6.26395100
_cell_angle_alpha   90.00000000
_cell_angle_beta   90.00000000
_cell_angle_gamma   90.00000000
_symmetry_Int_Tables_number   1
_chemical_formula_structural   Dy4HfIr3
_chemical_formula_sum   'Dy16 Hf4 Ir12'
_cell_volume   737.20259909
_cell_formula_units_Z   4
loop_
 _symmetry_equiv_pos_site_id
 _symmetry_equiv_pos_as_xyz
  1  'x, y, z'
loop_
 _atom_site_type_symbol
 _atom_site_label
 _atom_site_symmetry_multiplicity
 _atom_site_fract_x
 _atom_site_fract_y
 _atom_site_fract_z
 _atom_site_occupancy
  Dy  Dy0  1  0.289355  0.085759  0.375505  1
  Dy  Dy1  1  0.289355  0.914241  0.875505  1
  Dy  Dy2  1  0.710645  0.085759  0.875505  1
  Dy  Dy3  1  0.710645  0.914241  0.375505  1
  Dy  Dy4  1  0.585759  0.789355  0.875505  1
  Dy  Dy5  1  0.585759  0.210645  0.375505  1
  Dy  Dy6  1  0.414241  0.789355  0.375505  1
  Dy  Dy7  1  0.414241  0.210645  0.875505  1
  Dy  Dy8  1  0.210645  0.414241  0.624495  1
  Dy  Dy9  1  0.210645  0.585759  0.124495  1
  Dy  Dy10  1  0.789355  0.414241  0.124495  1
  Dy  Dy11  1  0.789355  0.585759  0.624495  1
  Dy  Dy12  1  0.914241  0.710645  0.124495  1
  Dy  Dy13  1  0.914241  0.289355  0.624495  1
  Dy  Dy14  1  0.085759  0.710645  0.624495  1
  Dy  Dy15  1  0.085759  0.289355  0.124495  1
  Hf  Hf16  1  0.000000  0.000000  0.500000  1
  Hf  Hf17  1  0.000000  0.000000  0.000000  1
  Hf  Hf18  1  0.500000  0.500000  0.000000  1
  Hf  Hf19  1  0.500000  0.500000  0.500000  1
  Ir  Ir20  1  0.857276  0.142724  0.250000  1
  Ir  Ir21  1  0.857276  0.857276  0.750000  1
  Ir  Ir22  1  0.142724  0.142724  0.750000  1
  Ir  Ir23  1  0.142724  0.857276  0.250000  1
  Ir  Ir24  1  0.642724  0.357276  0.750000  1
  Ir  Ir25  1  0.642724  0.642724  0.250000  1
  Ir  Ir26  1  0.357276  0.357276  0.250000  1
  Ir  Ir27  1  0.357276  0.642724  0.750000  1
  Ir  Ir28  1  0.500000  0.000000  0.122273  1
  Ir  Ir29  1  0.500000  0.000000  0.622273  1
  Ir  Ir30  1  0.000000  0.500000  0.877727  1
  Ir  Ir31  1  0.000000  0.500000  0.377727  1
