# generated using pymatgen
data_Lu3TiSn2Ir3
_symmetry_space_group_name_H-M   'P 1'
_cell_length_a   7.18953552
_cell_length_b   7.07866326
_cell_length_c   4.15017500
_cell_angle_alpha   90.00000000
_cell_angle_beta   90.00000000
_cell_angle_gamma   119.49116301
_symmetry_Int_Tables_number   1
_chemical_formula_structural   Lu3TiSn2Ir3
_chemical_formula_sum   'Lu3 Ti1 Sn2 Ir3'
_cell_volume   183.84556740
_cell_formula_units_Z   1
loop_
 _symmetry_equiv_pos_site_id
 _symmetry_equiv_pos_as_xyz
  1  'x, y, z'
loop_
 _atom_site_type_symbol
 _atom_site_label
 _atom_site_symmetry_multiplicity
 _atom_site_fract_x
 _atom_site_fract_y
 _atom_site_fract_z
 _atom_site_occupancy
  Lu  Lu0  1  0.000000  0.404237  0.500000  1
  Lu  Lu1  1  0.593157  0.588742  0.500000  1
  Lu  Lu2  1  0.406843  0.995585  0.500000  1
  Ti  Ti3  1  0.000000  0.754207  0.000000  1
  Sn  Sn4  1  0.257306  0.253520  0.000000  1
  Sn  Sn5  1  0.742694  0.996214  0.000000  1
  Ir  Ir6  1  0.311525  0.673133  0.000000  1
  Ir  Ir7  1  0.688475  0.361607  0.000000  1
  Ir  Ir8  1  0.000000  0.972755  0.500000  1
