# generated using pymatgen
data_Er5Ti8Al9(CoIr3)2
_symmetry_space_group_name_H-M   'P 1'
_cell_length_a   8.94477028
_cell_length_b   8.93794390
_cell_length_c   8.94476964
_cell_angle_alpha   60.14814363
_cell_angle_beta   59.95809404
_cell_angle_gamma   60.14814634
_symmetry_Int_Tables_number   1
_chemical_formula_structural   Er5Ti8Al9(CoIr3)2
_chemical_formula_sum   'Er5 Ti8 Al9 Co2 Ir6'
_cell_volume   506.63068607
_cell_formula_units_Z   1
loop_
 _symmetry_equiv_pos_site_id
 _symmetry_equiv_pos_as_xyz
  1  'x, y, z'
loop_
 _atom_site_type_symbol
 _atom_site_label
 _atom_site_symmetry_multiplicity
 _atom_site_fract_x
 _atom_site_fract_y
 _atom_site_fract_z
 _atom_site_occupancy
  Er  Er0  1  0.206545  0.205413  0.796898  1
  Er  Er1  1  0.796898  0.205413  0.206545  1
  Er  Er2  1  0.200028  0.800215  0.200028  1
  Er  Er3  1  0.799558  0.797859  0.193702  1
  Er  Er4  1  0.193702  0.797859  0.799558  1
  Ti  Ti5  1  0.795085  0.194456  0.795085  1
  Ti  Ti6  1  0.381973  0.380963  0.381973  1
  Ti  Ti7  1  0.383059  0.855759  0.383059  1
  Ti  Ti8  1  0.853506  0.379803  0.390462  1
  Ti  Ti9  1  0.390462  0.379803  0.853506  1
  Ti  Ti10  1  0.833861  0.493161  0.833861  1
  Ti  Ti11  1  0.508623  0.831225  0.830694  1
  Ti  Ti12  1  0.830694  0.831225  0.508623  1
  Al  Al13  1  0.173402  0.171934  0.173402  1
  Al  Al14  1  0.172026  0.483900  0.172026  1
  Al  Al15  1  0.501487  0.169123  0.162586  1
  Al  Al16  1  0.162586  0.169123  0.501487  1
  Al  Al17  1  0.619179  0.610880  0.619179  1
  Al  Al18  1  0.619602  0.151185  0.619602  1
  Al  Al19  1  0.151097  0.615830  0.616084  1
  Al  Al20  1  0.616084  0.615830  0.151097  1
  Al  Al21  1  0.827733  0.828538  0.827733  1
  Co  Co22  1  0.501256  0.499739  0.501256  1
  Co  Co23  1  0.981184  0.026769  0.981184  1
  Ir  Ir24  1  0.998706  0.001723  0.499217  1
  Ir  Ir25  1  0.499217  0.001723  0.998706  1
  Ir  Ir26  1  0.000509  0.495733  0.000509  1
  Ir  Ir27  1  0.502379  0.502081  0.998202  1
  Ir  Ir28  1  0.998202  0.502081  0.502379  1
  Ir  Ir29  1  0.501354  0.000656  0.501354  1
