# generated using pymatgen
data_Ho3Zn4InPt4
_symmetry_space_group_name_H-M   'P 1'
_cell_length_a   4.18415000
_cell_length_b   6.84492177
_cell_length_c   8.06478473
_cell_angle_alpha   92.42539548
_cell_angle_beta   90.00000000
_cell_angle_gamma   90.00000000
_symmetry_Int_Tables_number   1
_chemical_formula_structural   Ho3Zn4InPt4
_chemical_formula_sum   'Ho3 Zn4 In1 Pt4'
_cell_volume   230.76996600
_cell_formula_units_Z   1
loop_
 _symmetry_equiv_pos_site_id
 _symmetry_equiv_pos_as_xyz
  1  'x, y, z'
loop_
 _atom_site_type_symbol
 _atom_site_label
 _atom_site_symmetry_multiplicity
 _atom_site_fract_x
 _atom_site_fract_y
 _atom_site_fract_z
 _atom_site_occupancy
  Ho  Ho0  1  0.750000  0.466804  0.830804  1
  Ho  Ho1  1  0.750000  0.960953  0.679795  1
  Ho  Ho2  1  0.250000  0.033463  0.311305  1
  Zn  Zn3  1  0.250000  0.637501  0.557551  1
  Zn  Zn4  1  0.750000  0.364558  0.443165  1
  Zn  Zn5  1  0.750000  0.861970  0.059197  1
  Zn  Zn6  1  0.250000  0.139690  0.938551  1
  In  In7  1  0.250000  0.538168  0.177576  1
  Pt  Pt8  1  0.250000  0.755747  0.875224  1
  Pt  Pt9  1  0.750000  0.244422  0.126341  1
  Pt  Pt10  1  0.750000  0.740311  0.372159  1
  Pt  Pt11  1  0.250000  0.256413  0.628331  1
