# generated using pymatgen
data_Sc11Os3Au
_symmetry_space_group_name_H-M   'P 1'
_cell_length_a   9.58391280
_cell_length_b   9.58391300
_cell_length_c   9.50566700
_cell_angle_alpha   60.26971100
_cell_angle_beta   60.26971032
_cell_angle_gamma   59.46059016
_symmetry_Int_Tables_number   1
_chemical_formula_structural   Sc11Os3Au
_chemical_formula_sum   'Sc22 Os6 Au2'
_cell_volume   617.29949240
_cell_formula_units_Z   2
loop_
 _symmetry_equiv_pos_site_id
 _symmetry_equiv_pos_as_xyz
  1  'x, y, z'
loop_
 _atom_site_type_symbol
 _atom_site_label
 _atom_site_symmetry_multiplicity
 _atom_site_fract_x
 _atom_site_fract_y
 _atom_site_fract_z
 _atom_site_occupancy
  Sc  Sc0  1  0.838478  0.838478  0.853270  1
  Sc  Sc1  1  0.530226  0.146730  0.161522  1
  Sc  Sc2  1  0.161522  0.161522  0.530226  1
  Sc  Sc3  1  0.146730  0.530226  0.161522  1
  Sc  Sc4  1  0.838478  0.838478  0.469774  1
  Sc  Sc5  1  0.853270  0.469774  0.838478  1
  Sc  Sc6  1  0.469774  0.853270  0.838478  1
  Sc  Sc7  1  0.161522  0.161522  0.146730  1
  Sc  Sc8  1  0.196409  0.803591  0.196409  1
  Sc  Sc9  1  0.196409  0.803591  0.803591  1
  Sc  Sc10  1  0.803591  0.196409  0.196409  1
  Sc  Sc11  1  0.803629  0.803629  0.196371  1
  Sc  Sc12  1  0.196371  0.196371  0.803629  1
  Sc  Sc13  1  0.803591  0.196409  0.803591  1
  Sc  Sc14  1  0.380255  0.380255  0.390550  1
  Sc  Sc15  1  0.151061  0.609450  0.619745  1
  Sc  Sc16  1  0.609450  0.151061  0.619745  1
  Sc  Sc17  1  0.619745  0.619745  0.151061  1
  Sc  Sc18  1  0.390550  0.848939  0.380255  1
  Sc  Sc19  1  0.380255  0.380255  0.848939  1
  Sc  Sc20  1  0.848939  0.390550  0.380255  1
  Sc  Sc21  1  0.619745  0.619745  0.609450  1
  Os  Os22  1  0.500000  0.000000  0.500000  1
  Os  Os23  1  0.000000  0.500000  0.500000  1
  Os  Os24  1  0.500000  0.000000  0.000000  1
  Os  Os25  1  0.000000  0.500000  0.000000  1
  Os  Os26  1  0.500000  0.500000  0.500000  1
  Os  Os27  1  0.000000  0.000000  0.000000  1
  Au  Au28  1  0.500000  0.500000  0.000000  1
  Au  Au29  1  0.000000  0.000000  0.500000  1
