# generated using pymatgen
data_YbY(HoRu4)2
_symmetry_space_group_name_H-M   'P 1'
_cell_length_a   5.23540103
_cell_length_b   5.23524750
_cell_length_c   8.97966805
_cell_angle_alpha   89.98766474
_cell_angle_beta   90.00629537
_cell_angle_gamma   120.00696505
_symmetry_Int_Tables_number   1
_chemical_formula_structural   YbY(HoRu4)2
_chemical_formula_sum   'Yb1 Y1 Ho2 Ru8'
_cell_volume   213.13147534
_cell_formula_units_Z   1
loop_
 _symmetry_equiv_pos_site_id
 _symmetry_equiv_pos_as_xyz
  1  'x, y, z'
loop_
 _atom_site_type_symbol
 _atom_site_label
 _atom_site_symmetry_multiplicity
 _atom_site_fract_x
 _atom_site_fract_y
 _atom_site_fract_z
 _atom_site_occupancy
  Yb  Yb0  1  0.666666  0.333318  0.935352  1
  Y  Y1  1  0.333350  0.666657  0.062120  1
  Ho  Ho2  1  0.666675  0.333352  0.572893  1
  Ho  Ho3  1  0.333362  0.666671  0.431941  1
  Ru  Ru4  1  0.000003  0.000013  0.498344  1
  Ru  Ru5  1  0.999994  0.999993  0.999283  1
  Ru  Ru6  1  0.170662  0.341323  0.749003  1
  Ru  Ru7  1  0.170635  0.829376  0.749010  1
  Ru  Ru8  1  0.658648  0.829328  0.749013  1
  Ru  Ru9  1  0.828584  0.657112  0.251004  1
  Ru  Ru10  1  0.828574  0.171452  0.251021  1
  Ru  Ru11  1  0.342846  0.171405  0.251016  1
