# generated using pymatgen
data_LaTh(Co5P3)2
_symmetry_space_group_name_H-M   'P 1'
_cell_length_a   5.99470555
_cell_length_b   5.99470486
_cell_length_c   11.40699200
_cell_angle_alpha   90.00000000
_cell_angle_beta   90.00000000
_cell_angle_gamma   144.77562153
_symmetry_Int_Tables_number   1
_chemical_formula_structural   LaTh(Co5P3)2
_chemical_formula_sum   'La1 Th1 Co10 P6'
_cell_volume   236.43782280
_cell_formula_units_Z   1
loop_
 _symmetry_equiv_pos_site_id
 _symmetry_equiv_pos_as_xyz
  1  'x, y, z'
loop_
 _atom_site_type_symbol
 _atom_site_label
 _atom_site_symmetry_multiplicity
 _atom_site_fract_x
 _atom_site_fract_y
 _atom_site_fract_z
 _atom_site_occupancy
  La  La0  1  0.662333  0.337667  0.750000  1
  Th  Th1  1  0.338916  0.661084  0.250000  1
  Co  Co2  1  0.052969  0.947031  0.142585  1
  Co  Co3  1  0.052969  0.947031  0.357415  1
  Co  Co4  1  0.699281  0.300719  0.427701  1
  Co  Co5  1  0.301641  0.698359  0.566999  1
  Co  Co6  1  0.301641  0.698359  0.933001  1
  Co  Co7  1  0.699281  0.300719  0.072299  1
  Co  Co8  1  0.500589  0.499411  0.498744  1
  Co  Co9  1  0.500589  0.499411  0.001256  1
  Co  Co10  1  0.945422  0.054578  0.641787  1
  Co  Co11  1  0.945422  0.054578  0.858213  1
  P  P12  1  0.609457  0.390543  0.250000  1
  P  P13  1  0.390423  0.609577  0.750000  1
  P  P14  1  0.116623  0.883377  0.538241  1
  P  P15  1  0.882911  0.117089  0.461603  1
  P  P16  1  0.882911  0.117089  0.038397  1
  P  P17  1  0.116623  0.883377  0.961759  1
