# generated using pymatgen
data_Ca6Ti5V4GeO24
_symmetry_space_group_name_H-M   'P 1'
_cell_length_a   10.93861438
_cell_length_b   10.94247453
_cell_length_c   10.94453985
_cell_angle_alpha   109.55242114
_cell_angle_beta   109.41833543
_cell_angle_gamma   109.42608873
_symmetry_Int_Tables_number   1
_chemical_formula_structural   Ca6Ti5V4GeO24
_chemical_formula_sum   'Ca12 Ti10 V8 Ge2 O48'
_cell_volume   1008.65584769
_cell_formula_units_Z   2
loop_
 _symmetry_equiv_pos_site_id
 _symmetry_equiv_pos_as_xyz
  1  'x, y, z'
loop_
 _atom_site_type_symbol
 _atom_site_label
 _atom_site_symmetry_multiplicity
 _atom_site_fract_x
 _atom_site_fract_y
 _atom_site_fract_z
 _atom_site_occupancy
  Ca  Ca0  1  0.248804  0.874978  0.624728  1
  Ca  Ca1  1  0.749197  0.624959  0.874128  1
  Ca  Ca2  1  0.625460  0.876268  0.750450  1
  Ca  Ca3  1  0.874045  0.624359  0.248699  1
  Ca  Ca4  1  0.624770  0.249697  0.874708  1
  Ca  Ca5  1  0.874661  0.750191  0.624670  1
  Ca  Ca6  1  0.751196  0.125022  0.375272  1
  Ca  Ca7  1  0.250803  0.375041  0.125872  1
  Ca  Ca8  1  0.374540  0.123732  0.249550  1
  Ca  Ca9  1  0.125955  0.375641  0.751301  1
  Ca  Ca10  1  0.375230  0.750303  0.125292  1
  Ca  Ca11  1  0.125339  0.249809  0.375330  1
  Ti  Ti12  1  0.125182  0.750415  0.875501  1
  Ti  Ti13  1  0.874818  0.249585  0.124499  1
  Ti  Ti14  1  0.624602  0.374898  0.249726  1
  Ti  Ti15  1  0.750238  0.874734  0.125067  1
  Ti  Ti16  1  0.874689  0.124813  0.749484  1
  Ti  Ti17  1  0.250024  0.625111  0.375222  1
  Ti  Ti18  1  0.749976  0.374889  0.624778  1
  Ti  Ti19  1  0.249762  0.125266  0.874933  1
  Ti  Ti20  1  0.125311  0.875187  0.250516  1
  Ti  Ti21  1  0.375398  0.625102  0.750274  1
  V  V22  1  0.500000  0.500000  0.500000  1
  V  V23  1  0.500000  0.000000  0.500000  1
  V  V24  1  0.000000  0.500000  0.500000  1
  V  V25  1  0.500000  0.500000  0.000000  1
  V  V26  1  0.000000  0.000000  0.500000  1
  V  V27  1  0.000000  0.500000  0.000000  1
  V  V28  1  0.500000  0.000000  0.000000  1
  V  V29  1  0.000000  0.000000  0.000000  1
  Ge  Ge30  1  0.625070  0.750048  0.375252  1
  Ge  Ge31  1  0.374930  0.249952  0.624748  1
  O  O32  1  0.416415  0.816797  0.798109  1
  O  O33  1  0.881241  0.400310  0.084143  1
  O  O34  1  0.099375  0.980511  0.682953  1
  O  O35  1  0.520064  0.620639  0.701985  1
  O  O36  1  0.682590  0.083721  0.702304  1
  O  O37  1  0.617425  0.701052  0.514223  1
  O  O38  1  0.618557  0.416462  0.099036  1
  O  O39  1  0.702268  0.519140  0.618763  1
  O  O40  1  0.816742  0.519089  0.399808  1
  O  O41  1  0.980952  0.799546  0.882193  1
  O  O42  1  0.797524  0.881202  0.981057  1
  O  O43  1  0.702375  0.682378  0.081894  1
  O  O44  1  0.416771  0.103051  0.616975  1
  O  O45  1  0.399002  0.817134  0.520000  1
  O  O46  1  0.083793  0.702803  0.683900  1
  O  O47  1  0.099406  0.617901  0.416979  1
  O  O48  1  0.514183  0.396481  0.813173  1
  O  O49  1  0.081671  0.879085  0.399580  1
  O  O50  1  0.981053  0.683392  0.099357  1
  O  O51  1  0.183258  0.480911  0.600192  1
  O  O52  1  0.683187  0.099664  0.980834  1
  O  O53  1  0.798842  0.417288  0.817612  1
  O  O54  1  0.400333  0.082980  0.881216  1
  O  O55  1  0.880428  0.980555  0.796479  1
  O  O56  1  0.583585  0.183203  0.201891  1
  O  O57  1  0.118759  0.599690  0.915857  1
  O  O58  1  0.900625  0.019489  0.317047  1
  O  O59  1  0.479936  0.379361  0.298015  1
  O  O60  1  0.317410  0.916279  0.297696  1
  O  O61  1  0.382575  0.298948  0.485777  1
  O  O62  1  0.381443  0.583538  0.900964  1
  O  O63  1  0.297732  0.480860  0.381237  1
  O  O64  1  0.119572  0.019445  0.203521  1
  O  O65  1  0.599667  0.917020  0.118784  1
  O  O66  1  0.201158  0.582712  0.182388  1
  O  O67  1  0.186562  0.200581  0.583445  1
  O  O68  1  0.316813  0.900336  0.019166  1
  O  O69  1  0.018947  0.316608  0.900643  1
  O  O70  1  0.918329  0.120915  0.600420  1
  O  O71  1  0.485817  0.603519  0.186827  1
  O  O72  1  0.900594  0.382099  0.583021  1
  O  O73  1  0.916207  0.297197  0.316100  1
  O  O74  1  0.600998  0.182866  0.480000  1
  O  O75  1  0.583229  0.896949  0.383025  1
  O  O76  1  0.297625  0.317622  0.918106  1
  O  O77  1  0.202476  0.118798  0.018943  1
  O  O78  1  0.019048  0.200454  0.117807  1
  O  O79  1  0.813438  0.799419  0.416555  1
