# generated using pymatgen
data_Lu16CdIn3Ir4
_symmetry_space_group_name_H-M   'P 1'
_cell_length_a   9.47530889
_cell_length_b   9.47028373
_cell_length_c   9.47028300
_cell_angle_alpha   59.99999905
_cell_angle_beta   60.01754110
_cell_angle_gamma   60.01753643
_symmetry_Int_Tables_number   1
_chemical_formula_structural   Lu16CdIn3Ir4
_chemical_formula_sum   'Lu16 Cd1 In3 Ir4'
_cell_volume   601.06218173
_cell_formula_units_Z   1
loop_
 _symmetry_equiv_pos_site_id
 _symmetry_equiv_pos_as_xyz
  1  'x, y, z'
loop_
 _atom_site_type_symbol
 _atom_site_label
 _atom_site_symmetry_multiplicity
 _atom_site_fract_x
 _atom_site_fract_y
 _atom_site_fract_z
 _atom_site_occupancy
  Lu  Lu0  1  0.349258  0.348852  0.348852  1
  Lu  Lu1  1  0.349258  0.348852  0.953037  1
  Lu  Lu2  1  0.349258  0.953037  0.348852  1
  Lu  Lu3  1  0.952062  0.349312  0.349312  1
  Lu  Lu4  1  0.809736  0.190255  0.190255  1
  Lu  Lu5  1  0.189003  0.810835  0.810835  1
  Lu  Lu6  1  0.189003  0.810835  0.189327  1
  Lu  Lu7  1  0.809736  0.190255  0.809753  1
  Lu  Lu8  1  0.189003  0.189327  0.810835  1
  Lu  Lu9  1  0.809736  0.809753  0.190255  1
  Lu  Lu10  1  0.940574  0.560826  0.560826  1
  Lu  Lu11  1  0.561338  0.939535  0.939535  1
  Lu  Lu12  1  0.561338  0.939535  0.559591  1
  Lu  Lu13  1  0.940574  0.560826  0.937774  1
  Lu  Lu14  1  0.561338  0.559591  0.939535  1
  Lu  Lu15  1  0.940574  0.937774  0.560826  1
  Cd  Cd16  1  0.250369  0.583210  0.583210  1
  In  In17  1  0.581914  0.583874  0.583874  1
  In  In18  1  0.581914  0.583874  0.250339  1
  In  In19  1  0.581914  0.250339  0.583874  1
  Ir  Ir20  1  0.141753  0.141342  0.141342  1
  Ir  Ir21  1  0.141753  0.141342  0.575562  1
  Ir  Ir22  1  0.141753  0.575562  0.141342  1
  Ir  Ir23  1  0.576840  0.141053  0.141053  1
