# generated using pymatgen
data_Tm3Lu17SnBi11
_symmetry_space_group_name_H-M   'P 1'
_cell_length_a   8.11070077
_cell_length_b   9.39421500
_cell_length_c   11.80452199
_cell_angle_alpha   90.00000000
_cell_angle_beta   89.80024287
_cell_angle_gamma   90.00000000
_symmetry_Int_Tables_number   1
_chemical_formula_structural   Tm3Lu17SnBi11
_chemical_formula_sum   'Tm3 Lu17 Sn1 Bi11'
_cell_volume   899.42434911
_cell_formula_units_Z   1
loop_
 _symmetry_equiv_pos_site_id
 _symmetry_equiv_pos_as_xyz
  1  'x, y, z'
loop_
 _atom_site_type_symbol
 _atom_site_label
 _atom_site_symmetry_multiplicity
 _atom_site_fract_x
 _atom_site_fract_y
 _atom_site_fract_z
 _atom_site_occupancy
  Tm  Tm0  1  0.811882  0.750000  0.217230  1
  Tm  Tm1  1  0.312377  0.750000  0.282322  1
  Tm  Tm2  1  0.684048  0.250000  0.715010  1
  Lu  Lu3  1  0.029923  0.250000  0.510821  1
  Lu  Lu4  1  0.977173  0.750000  0.489446  1
  Lu  Lu5  1  0.476195  0.750000  0.010502  1
  Lu  Lu6  1  0.523908  0.250000  0.989267  1
  Lu  Lu7  1  0.354978  0.250000  0.285968  1
  Lu  Lu8  1  0.645372  0.750000  0.718277  1
  Lu  Lu9  1  0.145540  0.750000  0.782147  1
  Lu  Lu10  1  0.855544  0.250000  0.217445  1
  Lu  Lu11  1  0.190433  0.250000  0.780015  1
  Lu  Lu12  1  0.193118  0.066684  0.060003  1
  Lu  Lu13  1  0.806703  0.933121  0.940189  1
  Lu  Lu14  1  0.307198  0.938040  0.560004  1
  Lu  Lu15  1  0.806703  0.566879  0.940189  1
  Lu  Lu16  1  0.689487  0.069688  0.441556  1
  Lu  Lu17  1  0.193118  0.433316  0.060003  1
  Lu  Lu18  1  0.689487  0.430312  0.441556  1
  Lu  Lu19  1  0.307198  0.561960  0.560004  1
  Sn  Sn20  1  0.404550  0.250000  0.542153  1
  Bi  Bi21  1  0.595894  0.750000  0.457721  1
  Bi  Bi22  1  0.096085  0.750000  0.042147  1
  Bi  Bi23  1  0.904766  0.250000  0.956345  1
  Bi  Bi24  1  0.065356  0.003492  0.325032  1
  Bi  Bi25  1  0.934291  0.996354  0.674716  1
  Bi  Bi26  1  0.433486  0.996086  0.825775  1
  Bi  Bi27  1  0.934291  0.503646  0.674716  1
  Bi  Bi28  1  0.566028  0.004314  0.174317  1
  Bi  Bi29  1  0.065356  0.496508  0.325032  1
  Bi  Bi30  1  0.566028  0.495686  0.174317  1
  Bi  Bi31  1  0.433486  0.503914  0.825775  1
