# generated using pymatgen
data_Ce2Zn4FeNi
_symmetry_space_group_name_H-M   'P 1'
_cell_length_a   5.01652148
_cell_length_b   5.01652053
_cell_length_c   7.34793500
_cell_angle_alpha   90.00000000
_cell_angle_beta   90.00000000
_cell_angle_gamma   130.56860788
_symmetry_Int_Tables_number   1
_chemical_formula_structural   Ce2Zn4FeNi
_chemical_formula_sum   'Ce2 Zn4 Fe1 Ni1'
_cell_volume   140.46605894
_cell_formula_units_Z   1
loop_
 _symmetry_equiv_pos_site_id
 _symmetry_equiv_pos_as_xyz
  1  'x, y, z'
loop_
 _atom_site_type_symbol
 _atom_site_label
 _atom_site_symmetry_multiplicity
 _atom_site_fract_x
 _atom_site_fract_y
 _atom_site_fract_z
 _atom_site_occupancy
  Ce  Ce0  1  0.545611  0.454389  0.250000  1
  Ce  Ce1  1  0.438951  0.561049  0.750000  1
  Zn  Zn2  1  0.845152  0.154848  0.047644  1
  Zn  Zn3  1  0.151476  0.848524  0.951163  1
  Zn  Zn4  1  0.151476  0.848524  0.548837  1
  Zn  Zn5  1  0.845152  0.154848  0.452356  1
  Fe  Fe6  1  0.317020  0.682980  0.250000  1
  Ni  Ni7  1  0.705162  0.294838  0.750000  1
