# generated using pymatgen
data_VP2W
_symmetry_space_group_name_H-M   'P 1'
_cell_length_a   5.90462371
_cell_length_b   5.90462348
_cell_length_c   5.90462364
_cell_angle_alpha   148.43977461
_cell_angle_beta   148.55811398
_cell_angle_gamma   45.14943279
_symmetry_Int_Tables_number   1
_chemical_formula_structural   VP2W
_chemical_formula_sum   'V1 P2 W1'
_cell_volume   56.02642473
_cell_formula_units_Z   1
loop_
 _symmetry_equiv_pos_site_id
 _symmetry_equiv_pos_as_xyz
  1  'x, y, z'
loop_
 _atom_site_type_symbol
 _atom_site_label
 _atom_site_symmetry_multiplicity
 _atom_site_fract_x
 _atom_site_fract_y
 _atom_site_fract_z
 _atom_site_occupancy
  V  V0  1  0.003035  0.003035  0.000000  1
  P  P1  1  0.338199  0.838199  0.500000  1
  P  P2  1  0.577425  0.577425  0.000000  1
  W  W3  1  0.749341  0.249341  0.500000  1
