# generated using pymatgen
data_TmTl(ReH9)2
_symmetry_space_group_name_H-M   'P 1'
_cell_length_a   5.18838846
_cell_length_b   5.18844353
_cell_length_c   8.40177100
_cell_angle_alpha   92.94207742
_cell_angle_beta   87.05731633
_cell_angle_gamma   125.59122843
_symmetry_Int_Tables_number   1
_chemical_formula_structural   TmTl(ReH9)2
_chemical_formula_sum   'Tm1 Tl1 Re2 H18'
_cell_volume   183.61485799
_cell_formula_units_Z   1
loop_
 _symmetry_equiv_pos_site_id
 _symmetry_equiv_pos_as_xyz
  1  'x, y, z'
loop_
 _atom_site_type_symbol
 _atom_site_label
 _atom_site_symmetry_multiplicity
 _atom_site_fract_x
 _atom_site_fract_y
 _atom_site_fract_z
 _atom_site_occupancy
  Tm  Tm0  1  0.000000  0.000000  0.500000  1
  Tl  Tl1  1  0.000000  0.000000  0.000000  1
  Re  Re2  1  0.338058  0.661914  0.718563  1
  Re  Re3  1  0.661942  0.338086  0.281437  1
  H  H4  1  0.386796  0.613247  0.518703  1
  H  H5  1  0.613204  0.386753  0.481297  1
  H  H6  1  0.414770  0.585213  0.893089  1
  H  H7  1  0.585230  0.414787  0.106911  1
  H  H8  1  0.470482  0.960152  0.855583  1
  H  H9  1  0.960165  0.470478  0.144428  1
  H  H10  1  0.603628  0.023654  0.646596  1
  H  H11  1  0.023640  0.603572  0.353424  1
  H  H12  1  0.529518  0.039848  0.144417  1
  H  H13  1  0.039835  0.529522  0.855572  1
  H  H14  1  0.396372  0.976346  0.353404  1
  H  H15  1  0.976360  0.396428  0.646576  1
  H  H16  1  0.700959  0.720988  0.712951  1
  H  H17  1  0.721036  0.700972  0.287048  1
  H  H18  1  0.299041  0.279012  0.287049  1
  H  H19  1  0.278964  0.299028  0.712952  1
  H  H20  1  0.156594  0.843483  0.686388  1
  H  H21  1  0.843406  0.156517  0.313612  1
