# generated using pymatgen
data_Er6Al24Co3CuOs4
_symmetry_space_group_name_H-M   'P 1'
_cell_length_a   8.76236446
_cell_length_b   8.74044574
_cell_length_c   9.39695798
_cell_angle_alpha   90.38220134
_cell_angle_beta   89.61307582
_cell_angle_gamma   120.39301486
_symmetry_Int_Tables_number   1
_chemical_formula_structural   Er6Al24Co3CuOs4
_chemical_formula_sum   'Er6 Al24 Co3 Cu1 Os4'
_cell_volume   620.76358335
_cell_formula_units_Z   1
loop_
 _symmetry_equiv_pos_site_id
 _symmetry_equiv_pos_as_xyz
  1  'x, y, z'
loop_
 _atom_site_type_symbol
 _atom_site_label
 _atom_site_symmetry_multiplicity
 _atom_site_fract_x
 _atom_site_fract_y
 _atom_site_fract_z
 _atom_site_occupancy
  Er  Er0  1  0.199900  0.392822  0.251841  1
  Er  Er1  1  0.800100  0.607178  0.748159  1
  Er  Er2  1  0.608558  0.799228  0.248517  1
  Er  Er3  1  0.391442  0.200772  0.751483  1
  Er  Er4  1  0.193857  0.804023  0.251965  1
  Er  Er5  1  0.806143  0.195977  0.748035  1
  Al  Al6  1  0.325009  0.661482  0.021612  1
  Al  Al7  1  0.674991  0.338518  0.978388  1
  Al  Al8  1  0.666706  0.333564  0.518089  1
  Al  Al9  1  0.333294  0.666436  0.481911  1
  Al  Al10  1  0.159433  0.321204  0.577030  1
  Al  Al11  1  0.840567  0.678796  0.422970  1
  Al  Al12  1  0.679037  0.840629  0.575773  1
  Al  Al13  1  0.840540  0.676577  0.076886  1
  Al  Al14  1  0.320963  0.159371  0.424227  1
  Al  Al15  1  0.159460  0.323423  0.923114  1
  Al  Al16  1  0.160038  0.839901  0.578306  1
  Al  Al17  1  0.320348  0.163737  0.078548  1
  Al  Al18  1  0.839962  0.160099  0.421694  1
  Al  Al19  1  0.679652  0.836263  0.921452  1
  Al  Al20  1  0.847372  0.166493  0.077642  1
  Al  Al21  1  0.152628  0.833507  0.922358  1
  Al  Al22  1  0.563119  0.122631  0.248388  1
  Al  Al23  1  0.436881  0.877369  0.751612  1
  Al  Al24  1  0.882243  0.440094  0.243292  1
  Al  Al25  1  0.117757  0.559906  0.756708  1
  Al  Al26  1  0.563667  0.436814  0.248248  1
  Al  Al27  1  0.436333  0.563186  0.751752  1
  Al  Al28  1  0.000174  0.997669  0.250885  1
  Al  Al29  1  0.999826  0.002331  0.749115  1
  Co  Co30  1  0.000000  0.500000  0.000000  1
  Co  Co31  1  0.000000  0.000000  0.000000  1
  Co  Co32  1  0.000000  0.000000  0.500000  1
  Cu  Cu33  1  0.500000  0.000000  0.000000  1
  Os  Os34  1  0.500000  0.000000  0.500000  1
  Os  Os35  1  0.500000  0.500000  0.000000  1
  Os  Os36  1  0.000000  0.500000  0.500000  1
  Os  Os37  1  0.500000  0.500000  0.500000  1
