# generated using pymatgen
data_Pr6Ga2IrRh5
_symmetry_space_group_name_H-M   'P 1'
_cell_length_a   4.15671201
_cell_length_b   5.76385685
_cell_length_c   14.24548400
_cell_angle_alpha   90.00000000
_cell_angle_beta   90.00000000
_cell_angle_gamma   111.12709019
_symmetry_Int_Tables_number   1
_chemical_formula_structural   Pr6Ga2IrRh5
_chemical_formula_sum   'Pr6 Ga2 Ir1 Rh5'
_cell_volume   318.36187718
_cell_formula_units_Z   1
loop_
 _symmetry_equiv_pos_site_id
 _symmetry_equiv_pos_as_xyz
  1  'x, y, z'
loop_
 _atom_site_type_symbol
 _atom_site_label
 _atom_site_symmetry_multiplicity
 _atom_site_fract_x
 _atom_site_fract_y
 _atom_site_fract_z
 _atom_site_occupancy
  Pr  Pr0  1  0.209914  0.419859  0.393176  1
  Pr  Pr1  1  0.789383  0.578743  0.605850  1
  Pr  Pr2  1  0.209914  0.419859  0.106824  1
  Pr  Pr3  1  0.789383  0.578743  0.894150  1
  Pr  Pr4  1  0.488918  0.977770  0.250000  1
  Pr  Pr5  1  0.511719  0.023488  0.750000  1
  Ga  Ga6  1  0.499921  0.999842  0.500285  1
  Ga  Ga7  1  0.499921  0.999842  0.999715  1
  Ir  Ir8  1  0.766539  0.533075  0.250000  1
  Rh  Rh9  1  0.924896  0.849812  0.411911  1
  Rh  Rh10  1  0.074802  0.149584  0.588110  1
  Rh  Rh11  1  0.924896  0.849812  0.088089  1
  Rh  Rh12  1  0.074802  0.149584  0.911890  1
  Rh  Rh13  1  0.234992  0.469988  0.750000  1
