# generated using pymatgen
data_ScNbBIr6
_symmetry_space_group_name_H-M   'P 1'
_cell_length_a   5.69434178
_cell_length_b   5.69434160
_cell_length_c   5.69434100
_cell_angle_alpha   59.99998603
_cell_angle_beta   59.99998711
_cell_angle_gamma   59.99999704
_symmetry_Int_Tables_number   1
_chemical_formula_structural   ScNbBIr6
_chemical_formula_sum   'Sc1 Nb1 B1 Ir6'
_cell_volume   130.56158750
_cell_formula_units_Z   1
loop_
 _symmetry_equiv_pos_site_id
 _symmetry_equiv_pos_as_xyz
  1  'x, y, z'
loop_
 _atom_site_type_symbol
 _atom_site_label
 _atom_site_symmetry_multiplicity
 _atom_site_fract_x
 _atom_site_fract_y
 _atom_site_fract_z
 _atom_site_occupancy
  Sc  Sc0  1  0.750000  0.750000  0.750000  1
  Nb  Nb1  1  0.250000  0.250000  0.250000  1
  B  B2  1  0.000000  0.000000  0.000000  1
  Ir  Ir3  1  0.741192  0.741192  0.258808  1
  Ir  Ir4  1  0.258808  0.741192  0.258808  1
  Ir  Ir5  1  0.741192  0.258808  0.258808  1
  Ir  Ir6  1  0.258808  0.258808  0.741192  1
  Ir  Ir7  1  0.741192  0.258808  0.741192  1
  Ir  Ir8  1  0.258808  0.741192  0.741192  1
