# generated using pymatgen
data_Dy3Lu5B24(MoOs)2
_symmetry_space_group_name_H-M   'P 1'
_cell_length_a   3.61670900
_cell_length_b   9.13205481
_cell_length_c   11.52107528
_cell_angle_alpha   89.81821937
_cell_angle_beta   90.00000000
_cell_angle_gamma   90.00000000
_symmetry_Int_Tables_number   1
_chemical_formula_structural   Dy3Lu5B24(MoOs)2
_chemical_formula_sum   'Dy3 Lu5 B24 Mo2 Os2'
_cell_volume   380.51598445
_cell_formula_units_Z   1
loop_
 _symmetry_equiv_pos_site_id
 _symmetry_equiv_pos_as_xyz
  1  'x, y, z'
loop_
 _atom_site_type_symbol
 _atom_site_label
 _atom_site_symmetry_multiplicity
 _atom_site_fract_x
 _atom_site_fract_y
 _atom_site_fract_z
 _atom_site_occupancy
  Dy  Dy0  1  0.000000  0.321204  0.414168  1
  Dy  Dy1  1  0.000000  0.678676  0.586037  1
  Dy  Dy2  1  0.000000  0.821462  0.085713  1
  Lu  Lu3  1  0.000000  0.178944  0.914058  1
  Lu  Lu4  1  0.000000  0.944638  0.371389  1
  Lu  Lu5  1  0.000000  0.055665  0.628761  1
  Lu  Lu6  1  0.000000  0.442319  0.127720  1
  Lu  Lu7  1  0.000000  0.557042  0.872037  1
  B  B8  1  0.500000  0.551973  0.433803  1
  B  B9  1  0.500000  0.447711  0.566540  1
  B  B10  1  0.500000  0.054605  0.066190  1
  B  B11  1  0.500000  0.946742  0.932969  1
  B  B12  1  0.500000  0.752104  0.420417  1
  B  B13  1  0.500000  0.248034  0.579925  1
  B  B14  1  0.500000  0.249942  0.080139  1
  B  B15  1  0.500000  0.750090  0.918575  1
  B  B16  1  0.500000  0.795773  0.264236  1
  B  B17  1  0.500000  0.203884  0.736793  1
  B  B18  1  0.500000  0.291184  0.233265  1
  B  B19  1  0.500000  0.708852  0.766422  1
  B  B20  1  0.500000  0.630541  0.182031  1
  B  B21  1  0.500000  0.368403  0.818622  1
  B  B22  1  0.500000  0.129795  0.313622  1
  B  B23  1  0.500000  0.870603  0.686381  1
  B  B24  1  0.500000  0.983122  0.212017  1
  B  B25  1  0.500000  0.018053  0.788294  1
  B  B26  1  0.500000  0.478306  0.286002  1
  B  B27  1  0.500000  0.521252  0.714006  1
  B  B28  1  0.500000  0.600380  0.027165  1
  B  B29  1  0.500000  0.398240  0.972451  1
  B  B30  1  0.500000  0.100393  0.471469  1
  B  B31  1  0.500000  0.899771  0.528660  1
  Mo  Mo32  1  0.000000  0.639827  0.318232  1
  Mo  Mo33  1  0.000000  0.359550  0.682476  1
  Os  Os34  1  0.000000  0.138489  0.177502  1
  Os  Os35  1  0.000000  0.862427  0.821913  1
