# generated using pymatgen
data_Er4Lu12MgCd3Ni4
_symmetry_space_group_name_H-M   'P 1'
_cell_length_a   9.36774762
_cell_length_b   9.38103043
_cell_length_c   9.38582089
_cell_angle_alpha   60.07523938
_cell_angle_beta   60.07722185
_cell_angle_gamma   60.07858456
_symmetry_Int_Tables_number   1
_chemical_formula_structural   Er4Lu12MgCd3Ni4
_chemical_formula_sum   'Er4 Lu12 Mg1 Cd3 Ni4'
_cell_volume   584.25211630
_cell_formula_units_Z   1
loop_
 _symmetry_equiv_pos_site_id
 _symmetry_equiv_pos_as_xyz
  1  'x, y, z'
loop_
 _atom_site_type_symbol
 _atom_site_label
 _atom_site_symmetry_multiplicity
 _atom_site_fract_x
 _atom_site_fract_y
 _atom_site_fract_z
 _atom_site_occupancy
  Er  Er0  1  0.599355  0.597820  0.597803  1
  Er  Er1  1  0.598717  0.597230  0.206169  1
  Er  Er2  1  0.598735  0.206122  0.597250  1
  Er  Er3  1  0.201158  0.599232  0.599256  1
  Lu  Lu4  1  0.061785  0.437815  0.437815  1
  Lu  Lu5  1  0.435884  0.063309  0.063305  1
  Lu  Lu6  1  0.436239  0.063590  0.437387  1
  Lu  Lu7  1  0.061371  0.437971  0.062587  1
  Lu  Lu8  1  0.436221  0.437362  0.063605  1
  Lu  Lu9  1  0.061378  0.062612  0.437934  1
  Lu  Lu10  1  0.184594  0.814423  0.814476  1
  Lu  Lu11  1  0.814344  0.185616  0.185618  1
  Lu  Lu12  1  0.814527  0.186054  0.814079  1
  Lu  Lu13  1  0.184182  0.814734  0.185948  1
  Lu  Lu14  1  0.814570  0.814070  0.186057  1
  Lu  Lu15  1  0.184146  0.185952  0.814776  1
  Mg  Mg16  1  0.521213  0.826425  0.826255  1
  Cd  Cd17  1  0.832331  0.832822  0.832832  1
  Cd  Cd18  1  0.832527  0.832797  0.501945  1
  Cd  Cd19  1  0.832508  0.501962  0.832803  1
  Ni  Ni20  1  0.389953  0.392456  0.392446  1
  Ni  Ni21  1  0.389846  0.392460  0.825105  1
  Ni  Ni22  1  0.389842  0.825083  0.392475  1
  Ni  Ni23  1  0.824570  0.392076  0.392068  1
