# generated using pymatgen
data_CaHo3Sb6Rh7
_symmetry_space_group_name_H-M   'P 1'
_cell_length_a   7.57960149
_cell_length_b   7.61484057
_cell_length_c   7.61484013
_cell_angle_alpha   109.56478055
_cell_angle_beta   109.37751213
_cell_angle_gamma   109.37750053
_symmetry_Int_Tables_number   1
_chemical_formula_structural   CaHo3Sb6Rh7
_chemical_formula_sum   'Ca1 Ho3 Sb6 Rh7'
_cell_volume   338.72482187
_cell_formula_units_Z   1
loop_
 _symmetry_equiv_pos_site_id
 _symmetry_equiv_pos_as_xyz
  1  'x, y, z'
loop_
 _atom_site_type_symbol
 _atom_site_label
 _atom_site_symmetry_multiplicity
 _atom_site_fract_x
 _atom_site_fract_y
 _atom_site_fract_z
 _atom_site_occupancy
  Ca  Ca0  1  0.500000  0.000000  0.000000  1
  Ho  Ho1  1  0.000000  0.500000  0.000000  1
  Ho  Ho2  1  0.000000  0.000000  0.500000  1
  Ho  Ho3  1  0.500000  0.500000  0.500000  1
  Sb  Sb4  1  0.318493  0.000000  0.316311  1
  Sb  Sb5  1  0.002182  0.683689  0.683689  1
  Sb  Sb6  1  0.681507  0.683689  0.000000  1
  Sb  Sb7  1  0.681507  0.000000  0.683689  1
  Sb  Sb8  1  0.997818  0.316311  0.316311  1
  Sb  Sb9  1  0.318493  0.316311  0.000000  1
  Rh  Rh10  1  0.246408  0.492816  0.746408  1
  Rh  Rh11  1  0.500000  0.253592  0.746408  1
  Rh  Rh12  1  0.753592  0.253592  0.507184  1
  Rh  Rh13  1  0.500000  0.746408  0.253592  1
  Rh  Rh14  1  0.000000  0.000000  0.000000  1
  Rh  Rh15  1  0.246408  0.746408  0.492816  1
  Rh  Rh16  1  0.753592  0.507184  0.253592  1
