# generated using pymatgen
data_Zr3U(InPt2)2
_symmetry_space_group_name_H-M   'P 1'
_cell_length_a   7.55164630
_cell_length_b   7.55164630
_cell_length_c   7.09880200
_cell_angle_alpha   90.00000000
_cell_angle_beta   90.00000000
_cell_angle_gamma   87.42177653
_symmetry_Int_Tables_number   1
_chemical_formula_structural   Zr3U(InPt2)2
_chemical_formula_sum   'Zr6 U2 In4 Pt8'
_cell_volume   404.41616085
_cell_formula_units_Z   2
loop_
 _symmetry_equiv_pos_site_id
 _symmetry_equiv_pos_as_xyz
  1  'x, y, z'
loop_
 _atom_site_type_symbol
 _atom_site_label
 _atom_site_symmetry_multiplicity
 _atom_site_fract_x
 _atom_site_fract_y
 _atom_site_fract_z
 _atom_site_occupancy
  Zr  Zr0  1  0.692398  0.307602  0.500000  1
  Zr  Zr1  1  0.307602  0.692398  0.500000  1
  Zr  Zr2  1  0.186120  0.186120  0.000000  1
  Zr  Zr3  1  0.813880  0.813880  0.000000  1
  Zr  Zr4  1  0.851843  0.851843  0.500000  1
  Zr  Zr5  1  0.148157  0.148157  0.500000  1
  U  U6  1  0.364375  0.635625  0.000000  1
  U  U7  1  0.635625  0.364375  0.000000  1
  In  In8  1  0.500000  0.000000  0.257992  1
  In  In9  1  0.000000  0.500000  0.742008  1
  In  In10  1  0.500000  0.000000  0.742008  1
  In  In11  1  0.000000  0.500000  0.257992  1
  Pt  Pt12  1  0.865380  0.134620  0.207340  1
  Pt  Pt13  1  0.134620  0.865380  0.207340  1
  Pt  Pt14  1  0.365906  0.365906  0.706415  1
  Pt  Pt15  1  0.634094  0.634094  0.706415  1
  Pt  Pt16  1  0.134620  0.865380  0.792660  1
  Pt  Pt17  1  0.865380  0.134620  0.792660  1
  Pt  Pt18  1  0.634094  0.634094  0.293585  1
  Pt  Pt19  1  0.365906  0.365906  0.293585  1
