# generated using pymatgen
data_GdTh2NpN6
_symmetry_space_group_name_H-M   'P 1'
_cell_length_a   5.89165580
_cell_length_b   6.04006900
_cell_length_c   8.57161405
_cell_angle_alpha   90.00000000
_cell_angle_beta   90.64476931
_cell_angle_gamma   90.00000000
_symmetry_Int_Tables_number   1
_chemical_formula_structural   GdTh2NpN6
_chemical_formula_sum   'Gd2 Th4 Np2 N12'
_cell_volume   305.01020822
_cell_formula_units_Z   2
loop_
 _symmetry_equiv_pos_site_id
 _symmetry_equiv_pos_as_xyz
  1  'x, y, z'
loop_
 _atom_site_type_symbol
 _atom_site_label
 _atom_site_symmetry_multiplicity
 _atom_site_fract_x
 _atom_site_fract_y
 _atom_site_fract_z
 _atom_site_occupancy
  Gd  Gd0  1  0.000000  0.500000  0.000000  1
  Gd  Gd1  1  0.500000  0.000000  0.500000  1
  Th  Th2  1  0.509545  0.548594  0.248594  1
  Th  Th3  1  0.990455  0.048594  0.251406  1
  Th  Th4  1  0.490455  0.451406  0.751406  1
  Th  Th5  1  0.009545  0.951406  0.748594  1
  Np  Np6  1  0.000000  0.500000  0.500000  1
  Np  Np7  1  0.500000  0.000000  0.000000  1
  N  N8  1  0.371993  0.940303  0.235196  1
  N  N9  1  0.128007  0.440303  0.264804  1
  N  N10  1  0.628007  0.059697  0.764804  1
  N  N11  1  0.871993  0.559697  0.735196  1
  N  N12  1  0.784797  0.825721  0.061768  1
  N  N13  1  0.715203  0.325721  0.438232  1
  N  N14  1  0.178007  0.207803  0.572250  1
  N  N15  1  0.321993  0.707803  0.927750  1
  N  N16  1  0.215203  0.174279  0.938232  1
  N  N17  1  0.284797  0.674279  0.561768  1
  N  N18  1  0.821993  0.792197  0.427750  1
  N  N19  1  0.678007  0.292197  0.072250  1
