# generated using pymatgen
data_Ti13Al9Co2(Ir2Pt)2
_symmetry_space_group_name_H-M   'P 1'
_cell_length_a   8.71110455
_cell_length_b   8.72198180
_cell_length_c   8.71110437
_cell_angle_alpha   59.85634405
_cell_angle_beta   59.85118099
_cell_angle_gamma   59.85634747
_symmetry_Int_Tables_number   1
_chemical_formula_structural   Ti13Al9Co2(Ir2Pt)2
_chemical_formula_sum   'Ti13 Al9 Co2 Ir4 Pt2'
_cell_volume   466.45687436
_cell_formula_units_Z   1
loop_
 _symmetry_equiv_pos_site_id
 _symmetry_equiv_pos_as_xyz
  1  'x, y, z'
loop_
 _atom_site_type_symbol
 _atom_site_label
 _atom_site_symmetry_multiplicity
 _atom_site_fract_x
 _atom_site_fract_y
 _atom_site_fract_z
 _atom_site_occupancy
  Ti  Ti0  1  0.199683  0.201745  0.797085  1
  Ti  Ti1  1  0.797085  0.201745  0.199683  1
  Ti  Ti2  1  0.200917  0.796298  0.200917  1
  Ti  Ti3  1  0.805295  0.803834  0.187686  1
  Ti  Ti4  1  0.187686  0.803834  0.805295  1
  Ti  Ti5  1  0.805058  0.188013  0.805058  1
  Ti  Ti6  1  0.381139  0.381867  0.381139  1
  Ti  Ti7  1  0.384662  0.853696  0.384662  1
  Ti  Ti8  1  0.855109  0.385987  0.381073  1
  Ti  Ti9  1  0.381073  0.385987  0.855109  1
  Ti  Ti10  1  0.839030  0.484710  0.839030  1
  Ti  Ti11  1  0.482923  0.837742  0.838074  1
  Ti  Ti12  1  0.838074  0.837742  0.482923  1
  Al  Al13  1  0.157275  0.159342  0.157275  1
  Al  Al14  1  0.161118  0.517708  0.161118  1
  Al  Al15  1  0.518282  0.161993  0.161811  1
  Al  Al16  1  0.161811  0.161993  0.518282  1
  Al  Al17  1  0.617710  0.615983  0.617710  1
  Al  Al18  1  0.615218  0.152764  0.615218  1
  Al  Al19  1  0.152134  0.613752  0.618147  1
  Al  Al20  1  0.618147  0.613752  0.152134  1
  Al  Al21  1  0.830648  0.828523  0.830648  1
  Co  Co22  1  0.501094  0.501855  0.501094  1
  Co  Co23  1  0.004491  0.004291  0.004491  1
  Ir  Ir24  1  0.002939  0.497655  0.002939  1
  Ir  Ir25  1  0.498715  0.499422  0.002562  1
  Ir  Ir26  1  0.002562  0.499422  0.498715  1
  Ir  Ir27  1  0.499159  0.001944  0.499159  1
  Pt  Pt28  1  0.003233  0.003202  0.497727  1
  Pt  Pt29  1  0.497727  0.003202  0.003233  1
