# generated using pymatgen
data_HoCoP3Ir3Ru
_symmetry_space_group_name_H-M   'P 1'
_cell_length_a   3.88857400
_cell_length_b   10.76316300
_cell_length_c   12.28910500
_cell_angle_alpha   90.00000000
_cell_angle_beta   90.00000000
_cell_angle_gamma   90.00000000
_symmetry_Int_Tables_number   1
_chemical_formula_structural   HoCoP3Ir3Ru
_chemical_formula_sum   'Ho4 Co4 P12 Ir12 Ru4'
_cell_volume   514.34028402
_cell_formula_units_Z   4
loop_
 _symmetry_equiv_pos_site_id
 _symmetry_equiv_pos_as_xyz
  1  'x, y, z'
loop_
 _atom_site_type_symbol
 _atom_site_label
 _atom_site_symmetry_multiplicity
 _atom_site_fract_x
 _atom_site_fract_y
 _atom_site_fract_z
 _atom_site_occupancy
  Ho  Ho0  1  0.250000  0.585841  0.708255  1
  Ho  Ho1  1  0.250000  0.914159  0.208255  1
  Ho  Ho2  1  0.750000  0.414159  0.291745  1
  Ho  Ho3  1  0.750000  0.085841  0.791745  1
  Co  Co4  1  0.250000  0.459875  0.932643  1
  Co  Co5  1  0.250000  0.040125  0.432643  1
  Co  Co6  1  0.750000  0.540125  0.067357  1
  Co  Co7  1  0.750000  0.959875  0.567357  1
  P  P8  1  0.250000  0.425685  0.105193  1
  P  P9  1  0.250000  0.074315  0.605193  1
  P  P10  1  0.750000  0.574315  0.894807  1
  P  P11  1  0.750000  0.925685  0.394807  1
  P  P12  1  0.250000  0.269685  0.874353  1
  P  P13  1  0.250000  0.230315  0.374353  1
  P  P14  1  0.750000  0.730315  0.125647  1
  P  P15  1  0.750000  0.769685  0.625647  1
  P  P16  1  0.250000  0.597313  0.388701  1
  P  P17  1  0.250000  0.902687  0.888701  1
  P  P18  1  0.750000  0.402687  0.611299  1
  P  P19  1  0.750000  0.097313  0.111299  1
  Ir  Ir20  1  0.250000  0.407503  0.484003  1
  Ir  Ir21  1  0.250000  0.092497  0.984003  1
  Ir  Ir22  1  0.750000  0.592497  0.515997  1
  Ir  Ir23  1  0.750000  0.907503  0.015997  1
  Ir  Ir24  1  0.250000  0.234062  0.181191  1
  Ir  Ir25  1  0.250000  0.265938  0.681191  1
  Ir  Ir26  1  0.750000  0.765938  0.818809  1
  Ir  Ir27  1  0.750000  0.734062  0.318809  1
  Ir  Ir28  1  0.250000  0.889839  0.701211  1
  Ir  Ir29  1  0.250000  0.610161  0.201211  1
  Ir  Ir30  1  0.750000  0.110161  0.298789  1
  Ir  Ir31  1  0.750000  0.389839  0.798789  1
  Ru  Ru32  1  0.250000  0.719755  0.987033  1
  Ru  Ru33  1  0.250000  0.780245  0.487033  1
  Ru  Ru34  1  0.750000  0.280245  0.012967  1
  Ru  Ru35  1  0.750000  0.219755  0.512967  1
