# generated using pymatgen
data_Li3PrTm2(TeO6)2
_symmetry_space_group_name_H-M   'P 1'
_cell_length_a   10.81042066
_cell_length_b   10.74955264
_cell_length_c   10.78624112
_cell_angle_alpha   109.29144730
_cell_angle_beta   109.52036555
_cell_angle_gamma   109.57856421
_symmetry_Int_Tables_number   1
_chemical_formula_structural   Li3PrTm2(TeO6)2
_chemical_formula_sum   'Li12 Pr4 Tm8 Te8 O48'
_cell_volume   965.16968354
_cell_formula_units_Z   4
loop_
 _symmetry_equiv_pos_site_id
 _symmetry_equiv_pos_as_xyz
  1  'x, y, z'
loop_
 _atom_site_type_symbol
 _atom_site_label
 _atom_site_symmetry_multiplicity
 _atom_site_fract_x
 _atom_site_fract_y
 _atom_site_fract_z
 _atom_site_occupancy
  Li  Li0  1  0.877285  0.750086  0.127580  1
  Li  Li1  1  0.250293  0.877493  0.127574  1
  Li  Li2  1  0.876473  0.126121  0.251204  1
  Li  Li3  1  0.374731  0.625084  0.251206  1
  Li  Li4  1  0.750608  0.625346  0.374548  1
  Li  Li5  1  0.623944  0.249206  0.374552  1
  Li  Li6  1  0.372690  0.749331  0.621874  1
  Li  Li7  1  0.249184  0.372545  0.621876  1
  Li  Li8  1  0.125192  0.875935  0.749579  1
  Li  Li9  1  0.624387  0.373645  0.749577  1
  Li  Li10  1  0.124317  0.248699  0.875034  1
  Li  Li11  1  0.750719  0.126336  0.875037  1
  Pr  Pr12  1  0.375043  0.125044  0.750086  1
  Pr  Pr13  1  0.873643  0.623643  0.747285  1
  Pr  Pr14  1  0.250021  0.623618  0.876339  1
  Pr  Pr15  1  0.626319  0.752721  0.876340  1
  Tm  Tm16  1  0.751841  0.376159  0.127590  1
  Tm  Tm17  1  0.375751  0.251433  0.127591  1
  Tm  Tm18  1  0.626729  0.876728  0.253457  1
  Tm  Tm19  1  0.124824  0.374823  0.249648  1
  Tm  Tm20  1  0.248733  0.124465  0.372258  1
  Tm  Tm21  1  0.123527  0.747795  0.372257  1
  Tm  Tm22  1  0.749671  0.876802  0.622878  1
  Tm  Tm23  1  0.873208  0.246077  0.622879  1
  Te  Te24  1  0.004378  0.006040  0.001691  1
  Te  Te25  1  0.502829  0.006139  0.008432  1
  Te  Te26  1  0.505603  0.502292  0.008432  1
  Te  Te27  1  0.997314  0.495652  0.001690  1
  Te  Te28  1  0.996487  0.997209  0.495777  1
  Te  Te29  1  0.495380  0.498509  0.494049  1
  Te  Te30  1  0.499289  0.998568  0.495776  1
  Te  Te31  1  0.998669  0.495540  0.494049  1
  O  O32  1  0.906106  0.326448  0.032149  1
  O  O33  1  0.126043  0.205703  0.032150  1
  O  O34  1  0.412980  0.887171  0.089652  1
  O  O35  1  0.676674  0.702481  0.089653  1
  O  O36  1  0.672204  0.976900  0.101607  1
  O  O37  1  0.429403  0.624708  0.101607  1
  O  O38  1  0.922432  0.592304  0.124477  1
  O  O39  1  0.202045  0.032174  0.124478  1
  O  O40  1  0.580273  0.206373  0.175419  1
  O  O41  1  0.595147  0.469048  0.175421  1
  O  O42  1  0.170805  0.575778  0.200057  1
  O  O43  1  0.029253  0.124277  0.200058  1
  O  O44  1  0.373928  0.468505  0.295167  1
  O  O45  1  0.921239  0.326663  0.295167  1
  O  O46  1  0.298938  0.922474  0.327188  1
  O  O47  1  0.028250  0.904713  0.327188  1
  O  O48  1  0.905051  0.575515  0.375304  1
  O  O49  1  0.470253  0.299790  0.375305  1
  O  O50  1  0.528447  0.828253  0.403722  1
  O  O51  1  0.875275  0.075469  0.403723  1
  O  O52  1  0.797505  0.828274  0.422338  1
  O  O53  1  0.624831  0.094063  0.422336  1
  O  O54  1  0.297380  0.376212  0.467882  1
  O  O55  1  0.170502  0.591671  0.467883  1
  O  O56  1  0.694089  0.623433  0.522764  1
  O  O57  1  0.828674  0.399332  0.522764  1
  O  O58  1  0.193924  0.169089  0.569989  1
  O  O59  1  0.376066  0.900900  0.569989  1
  O  O60  1  0.111775  0.913603  0.586671  1
  O  O61  1  0.474898  0.173070  0.586672  1
  O  O62  1  0.523206  0.698772  0.611656  1
  O  O63  1  0.088449  0.412884  0.611656  1
  O  O64  1  0.971783  0.094452  0.669170  1
  O  O65  1  0.697390  0.074720  0.669170  1
  O  O66  1  0.611087  0.519281  0.690188  1
  O  O67  1  0.079100  0.670906  0.690189  1
  O  O68  1  0.977228  0.888943  0.802137  1
  O  O69  1  0.824908  0.413193  0.802137  1
  O  O70  1  0.408640  0.519202  0.830078  1
  O  O71  1  0.421440  0.810876  0.830080  1
  O  O72  1  0.806166  0.977432  0.876547  1
  O  O73  1  0.070382  0.399116  0.876547  1
  O  O74  1  0.588623  0.387874  0.915926  1
  O  O75  1  0.327302  0.028050  0.915924  1
  O  O76  1  0.330790  0.305435  0.930420  1
  O  O77  1  0.599632  0.124985  0.930419  1
  O  O78  1  0.092079  0.671482  0.980414  1
  O  O79  1  0.888336  0.808932  0.980413  1
