# generated using pymatgen
data_Th2TaSb3O14
_symmetry_space_group_name_H-M   'P 1'
_cell_length_a   8.05916468
_cell_length_b   8.05916372
_cell_length_c   8.48738233
_cell_angle_alpha   85.18363120
_cell_angle_beta   85.18363137
_cell_angle_gamma   28.21730486
_symmetry_Int_Tables_number   1
_chemical_formula_structural   Th2TaSb3O14
_chemical_formula_sum   'Th2 Ta1 Sb3 O14'
_cell_volume   259.66482537
_cell_formula_units_Z   1
loop_
 _symmetry_equiv_pos_site_id
 _symmetry_equiv_pos_as_xyz
  1  'x, y, z'
loop_
 _atom_site_type_symbol
 _atom_site_label
 _atom_site_symmetry_multiplicity
 _atom_site_fract_x
 _atom_site_fract_y
 _atom_site_fract_z
 _atom_site_occupancy
  Th  Th0  1  0.314926  0.314926  0.667072  1
  Th  Th1  1  0.686503  0.686503  0.332633  1
  Ta  Ta2  1  0.926469  0.926469  0.369523  1
  Sb  Sb3  1  0.106481  0.106481  0.014320  1
  Sb  Sb4  1  0.893456  0.893456  0.986354  1
  Sb  Sb5  1  0.072292  0.072292  0.630143  1
  O  O6  1  0.013667  0.013667  0.859540  1
  O  O7  1  0.986344  0.986344  0.143197  1
  O  O8  1  0.054414  0.054414  0.390576  1
  O  O9  1  0.942505  0.942505  0.609815  1
  O  O10  1  0.390871  0.390871  0.933071  1
  O  O11  1  0.609153  0.609153  0.067673  1
  O  O12  1  0.589253  0.589253  0.601817  1
  O  O13  1  0.413269  0.413269  0.390731  1
  O  O14  1  0.805198  0.805198  0.498934  1
  O  O15  1  0.194963  0.194963  0.503240  1
  O  O16  1  0.806194  0.806194  0.832812  1
  O  O17  1  0.193825  0.193825  0.168349  1
  O  O18  1  0.831133  0.831133  0.199634  1
  O  O19  1  0.169084  0.169084  0.800567  1
