# generated using pymatgen
data_Pr3Re4BiF28
_symmetry_space_group_name_H-M   'P 1'
_cell_length_a   5.75172860
_cell_length_b   9.27681757
_cell_length_c   12.44135540
_cell_angle_alpha   62.00439833
_cell_angle_beta   90.05110784
_cell_angle_gamma   89.93968792
_symmetry_Int_Tables_number   1
_chemical_formula_structural   Pr3Re4BiF28
_chemical_formula_sum   'Pr3 Re4 Bi1 F28'
_cell_volume   586.16107333
_cell_formula_units_Z   1
loop_
 _symmetry_equiv_pos_site_id
 _symmetry_equiv_pos_as_xyz
  1  'x, y, z'
loop_
 _atom_site_type_symbol
 _atom_site_label
 _atom_site_symmetry_multiplicity
 _atom_site_fract_x
 _atom_site_fract_y
 _atom_site_fract_z
 _atom_site_occupancy
  Pr  Pr0  1  0.258397  0.189961  0.735997  1
  Pr  Pr1  1  0.241925  0.188728  0.235393  1
  Pr  Pr2  1  0.742278  0.811144  0.264430  1
  Re  Re3  1  0.756319  0.274160  0.957332  1
  Re  Re4  1  0.257070  0.727355  0.543355  1
  Re  Re5  1  0.243146  0.726847  0.040842  1
  Re  Re6  1  0.744968  0.272429  0.458730  1
  Bi  Bi7  1  0.762860  0.817240  0.762254  1
  F  F8  1  0.437774  0.709085  0.917283  1
  F  F9  1  0.941518  0.289706  0.582968  1
  F  F10  1  0.559975  0.290428  0.081707  1
  F  F11  1  0.060474  0.710024  0.418658  1
  F  F12  1  0.457665  0.279503  0.544922  1
  F  F13  1  0.951741  0.721402  0.955438  1
  F  F14  1  0.543820  0.718808  0.457064  1
  F  F15  1  0.044327  0.281268  0.043103  1
  F  F16  1  0.766761  0.513559  0.860896  1
  F  F17  1  0.267126  0.485318  0.638988  1
  F  F18  1  0.231183  0.485625  0.137824  1
  F  F19  1  0.733942  0.513189  0.362532  1
  F  F20  1  0.759432  0.032324  0.052445  1
  F  F21  1  0.260212  0.968316  0.448237  1
  F  F22  1  0.242297  0.968273  0.946193  1
  F  F23  1  0.741953  0.030155  0.552947  1
  F  F24  1  0.974529  0.730672  0.632912  1
  F  F25  1  0.476464  0.268880  0.865750  1
  F  F26  1  0.024611  0.269560  0.367385  1
  F  F27  1  0.521950  0.728928  0.133889  1
  F  F28  1  0.051279  0.743316  0.167656  1
  F  F29  1  0.552747  0.256316  0.332374  1
  F  F30  1  0.947379  0.256287  0.830974  1
  F  F31  1  0.446185  0.744775  0.670023  1
  F  F32  1  0.408537  0.967044  0.230560  1
  F  F33  1  0.908657  0.033331  0.269363  1
  F  F34  1  0.596320  0.028771  0.769379  1
  F  F35  1  0.084179  0.967270  0.730199  1
