# generated using pymatgen
data_Ac2Pr2TmPb4
_symmetry_space_group_name_H-M   'P 1'
_cell_length_a   8.60306800
_cell_length_b   8.65928800
_cell_length_c   16.58084100
_cell_angle_alpha   90.00000000
_cell_angle_beta   90.00000000
_cell_angle_gamma   90.00000000
_symmetry_Int_Tables_number   1
_chemical_formula_structural   Ac2Pr2TmPb4
_chemical_formula_sum   'Ac8 Pr8 Tm4 Pb16'
_cell_volume   1235.21368467
_cell_formula_units_Z   4
loop_
 _symmetry_equiv_pos_site_id
 _symmetry_equiv_pos_as_xyz
  1  'x, y, z'
loop_
 _atom_site_type_symbol
 _atom_site_label
 _atom_site_symmetry_multiplicity
 _atom_site_fract_x
 _atom_site_fract_y
 _atom_site_fract_z
 _atom_site_occupancy
  Ac  Ac0  1  0.527669  0.322428  0.901830  1
  Ac  Ac1  1  0.027669  0.177572  0.598170  1
  Ac  Ac2  1  0.472331  0.677572  0.401830  1
  Ac  Ac3  1  0.972331  0.822428  0.098170  1
  Ac  Ac4  1  0.472331  0.677572  0.098170  1
  Ac  Ac5  1  0.972331  0.822428  0.401830  1
  Ac  Ac6  1  0.527669  0.322428  0.598170  1
  Ac  Ac7  1  0.027669  0.177572  0.901830  1
  Pr  Pr8  1  0.370176  0.846049  0.879710  1
  Pr  Pr9  1  0.870176  0.653951  0.620290  1
  Pr  Pr10  1  0.629824  0.153951  0.379710  1
  Pr  Pr11  1  0.129824  0.346049  0.120290  1
  Pr  Pr12  1  0.629824  0.153951  0.120290  1
  Pr  Pr13  1  0.129824  0.346049  0.379710  1
  Pr  Pr14  1  0.370176  0.846049  0.620290  1
  Pr  Pr15  1  0.870176  0.653951  0.879710  1
  Tm  Tm16  1  0.209043  0.504804  0.750000  1
  Tm  Tm17  1  0.709043  0.995196  0.750000  1
  Tm  Tm18  1  0.790957  0.495196  0.250000  1
  Tm  Tm19  1  0.290957  0.004804  0.250000  1
  Pb  Pb20  1  0.291288  0.039203  0.048101  1
  Pb  Pb21  1  0.791288  0.460797  0.451899  1
  Pb  Pb22  1  0.708712  0.960797  0.548101  1
  Pb  Pb23  1  0.208712  0.539203  0.951899  1
  Pb  Pb24  1  0.708712  0.960797  0.951899  1
  Pb  Pb25  1  0.208712  0.539203  0.548101  1
  Pb  Pb26  1  0.291288  0.039203  0.451899  1
  Pb  Pb27  1  0.791288  0.460797  0.048101  1
  Pb  Pb28  1  0.565934  0.633703  0.750000  1
  Pb  Pb29  1  0.065934  0.866297  0.750000  1
  Pb  Pb30  1  0.434066  0.366297  0.250000  1
  Pb  Pb31  1  0.934066  0.133703  0.250000  1
  Pb  Pb32  1  0.338779  0.148589  0.750000  1
  Pb  Pb33  1  0.838779  0.351411  0.750000  1
  Pb  Pb34  1  0.661221  0.851411  0.250000  1
  Pb  Pb35  1  0.161221  0.648589  0.250000  1
