# generated using pymatgen
data_Sr4Te2IrWO16
_symmetry_space_group_name_H-M   'P 1'
_cell_length_a   5.13854874
_cell_length_b   5.63716191
_cell_length_c   13.13389700
_cell_angle_alpha   90.00000000
_cell_angle_beta   90.00000000
_cell_angle_gamma   90.08568960
_symmetry_Int_Tables_number   1
_chemical_formula_structural   Sr4Te2IrWO16
_chemical_formula_sum   'Sr4 Te2 Ir1 W1 O16'
_cell_volume   380.44695177
_cell_formula_units_Z   1
loop_
 _symmetry_equiv_pos_site_id
 _symmetry_equiv_pos_as_xyz
  1  'x, y, z'
loop_
 _atom_site_type_symbol
 _atom_site_label
 _atom_site_symmetry_multiplicity
 _atom_site_fract_x
 _atom_site_fract_y
 _atom_site_fract_z
 _atom_site_occupancy
  Sr  Sr0  1  0.750000  0.000000  0.659743  1
  Sr  Sr1  1  0.250000  0.500000  0.834424  1
  Sr  Sr2  1  0.250000  0.000000  0.336043  1
  Sr  Sr3  1  0.750000  0.500000  0.162345  1
  Te  Te4  1  0.250000  0.000000  0.072681  1
  Te  Te5  1  0.250000  0.500000  0.569099  1
  Ir  Ir6  1  0.750000  0.500000  0.432133  1
  W  W7  1  0.750000  0.000000  0.926391  1
  O  O8  1  0.126991  0.286330  0.668479  1
  O  O9  1  0.639139  0.216851  0.831911  1
  O  O10  1  0.860861  0.783149  0.831911  1
  O  O11  1  0.373009  0.713670  0.668479  1
  O  O12  1  0.874964  0.708550  0.332840  1
  O  O13  1  0.378622  0.788940  0.171423  1
  O  O14  1  0.121378  0.211060  0.171423  1
  O  O15  1  0.625036  0.291450  0.332840  1
  O  O16  1  0.566337  0.309641  0.542801  1
  O  O17  1  0.066588  0.186812  0.957510  1
  O  O18  1  0.433412  0.813188  0.957510  1
  O  O19  1  0.933663  0.690359  0.542801  1
  O  O20  1  0.429137  0.687863  0.454540  1
  O  O21  1  0.938776  0.810845  0.044067  1
  O  O22  1  0.561224  0.189155  0.044067  1
  O  O23  1  0.070863  0.312137  0.454540  1
