# generated using pymatgen
data_Yb5SmTh2(Pt2Pb)4
_symmetry_space_group_name_H-M   'P 1'
_cell_length_a   7.94352664
_cell_length_b   7.94352613
_cell_length_c   7.41678700
_cell_angle_alpha   90.00000000
_cell_angle_beta   90.00000000
_cell_angle_gamma   91.51542363
_symmetry_Int_Tables_number   1
_chemical_formula_structural   Yb5SmTh2(Pt2Pb)4
_chemical_formula_sum   'Yb5 Sm1 Th2 Pt8 Pb4'
_cell_volume   467.83269218
_cell_formula_units_Z   1
loop_
 _symmetry_equiv_pos_site_id
 _symmetry_equiv_pos_as_xyz
  1  'x, y, z'
loop_
 _atom_site_type_symbol
 _atom_site_label
 _atom_site_symmetry_multiplicity
 _atom_site_fract_x
 _atom_site_fract_y
 _atom_site_fract_z
 _atom_site_occupancy
  Yb  Yb0  1  0.338273  0.340453  0.500000  1
  Yb  Yb1  1  0.659547  0.661727  0.500000  1
  Yb  Yb2  1  0.172191  0.827809  0.500000  1
  Yb  Yb3  1  0.838529  0.161471  0.000000  1
  Yb  Yb4  1  0.161442  0.838558  0.000000  1
  Sm  Sm5  1  0.826328  0.173672  0.500000  1
  Th  Th6  1  0.677294  0.675165  0.000000  1
  Th  Th7  1  0.324835  0.322706  0.000000  1
  Pt  Pt8  1  0.870508  0.870274  0.741948  1
  Pt  Pt9  1  0.129726  0.129492  0.741948  1
  Pt  Pt10  1  0.627601  0.372399  0.764470  1
  Pt  Pt11  1  0.627601  0.372399  0.235530  1
  Pt  Pt12  1  0.374564  0.625436  0.232079  1
  Pt  Pt13  1  0.129726  0.129492  0.258052  1
  Pt  Pt14  1  0.870508  0.870274  0.258052  1
  Pt  Pt15  1  0.374564  0.625436  0.767921  1
  Pb  Pb16  1  0.496386  0.998004  0.743467  1
  Pb  Pb17  1  0.496386  0.998004  0.256533  1
  Pb  Pb18  1  0.001996  0.503614  0.743467  1
  Pb  Pb19  1  0.001996  0.503614  0.256533  1
