# generated using pymatgen
data_Ho5Th3TlZnRu2
_symmetry_space_group_name_H-M   'P 1'
_cell_length_a   9.65743954
_cell_length_b   9.72120845
_cell_length_c   9.73363009
_cell_angle_alpha   59.52457206
_cell_angle_beta   60.17375153
_cell_angle_gamma   60.11020040
_symmetry_Int_Tables_number   1
_chemical_formula_structural   Ho5Th3TlZnRu2
_chemical_formula_sum   'Ho10 Th6 Tl2 Zn2 Ru4'
_cell_volume   645.17734663
_cell_formula_units_Z   2
loop_
 _symmetry_equiv_pos_site_id
 _symmetry_equiv_pos_as_xyz
  1  'x, y, z'
loop_
 _atom_site_type_symbol
 _atom_site_label
 _atom_site_symmetry_multiplicity
 _atom_site_fract_x
 _atom_site_fract_y
 _atom_site_fract_z
 _atom_site_occupancy
  Ho  Ho0  1  0.191839  0.808818  0.191135  1
  Ho  Ho1  1  0.808818  0.191839  0.808208  1
  Ho  Ho2  1  0.191759  0.191759  0.808241  1
  Ho  Ho3  1  0.807862  0.807862  0.192138  1
  Ho  Ho4  1  0.927843  0.565422  0.567629  1
  Ho  Ho5  1  0.565422  0.927843  0.939107  1
  Ho  Ho6  1  0.561783  0.933430  0.563012  1
  Ho  Ho7  1  0.933430  0.561783  0.941775  1
  Ho  Ho8  1  0.562750  0.562750  0.937250  1
  Ho  Ho9  1  0.938735  0.938735  0.561265  1
  Th  Th10  1  0.344705  0.352474  0.349013  1
  Th  Th11  1  0.352474  0.344705  0.953808  1
  Th  Th12  1  0.355373  0.948230  0.345360  1
  Th  Th13  1  0.948230  0.355373  0.351037  1
  Th  Th14  1  0.815552  0.184764  0.184197  1
  Th  Th15  1  0.184764  0.815552  0.815487  1
  Tl  Tl16  1  0.585071  0.250779  0.583795  1
  Tl  Tl17  1  0.250779  0.585071  0.580357  1
  Zn  Zn18  1  0.588755  0.584577  0.583834  1
  Zn  Zn19  1  0.584577  0.588755  0.242834  1
  Ru  Ru20  1  0.129061  0.147826  0.150496  1
  Ru  Ru21  1  0.147826  0.129061  0.572615  1
  Ru  Ru22  1  0.147122  0.575468  0.127926  1
  Ru  Ru23  1  0.575468  0.147122  0.149482  1
