# generated using pymatgen
data_YTh3(GaRu)4
_symmetry_space_group_name_H-M   'P 1'
_cell_length_a   7.23403395
_cell_length_b   4.69825100
_cell_length_c   7.19032919
_cell_angle_alpha   90.00000000
_cell_angle_beta   91.41132785
_cell_angle_gamma   90.00000000
_symmetry_Int_Tables_number   1
_chemical_formula_structural   YTh3(GaRu)4
_chemical_formula_sum   'Y1 Th3 Ga4 Ru4'
_cell_volume   244.30579224
_cell_formula_units_Z   1
loop_
 _symmetry_equiv_pos_site_id
 _symmetry_equiv_pos_as_xyz
  1  'x, y, z'
loop_
 _atom_site_type_symbol
 _atom_site_label
 _atom_site_symmetry_multiplicity
 _atom_site_fract_x
 _atom_site_fract_y
 _atom_site_fract_z
 _atom_site_occupancy
  Y  Y0  1  0.971589  0.249999  0.804625  1
  Th  Th1  1  0.031288  0.749999  0.196864  1
  Th  Th2  1  0.531263  0.749999  0.302149  1
  Th  Th3  1  0.466624  0.249999  0.698545  1
  Ga  Ga4  1  0.299895  0.249999  0.105490  1
  Ga  Ga5  1  0.807741  0.249999  0.394364  1
  Ga  Ga6  1  0.185921  0.749999  0.617824  1
  Ga  Ga7  1  0.705289  0.749999  0.889654  1
  Ru  Ru8  1  0.652923  0.249999  0.048977  1
  Ru  Ru9  1  0.167959  0.249999  0.444366  1
  Ru  Ru10  1  0.834982  0.749999  0.547664  1
  Ru  Ru11  1  0.344521  0.749999  0.949478  1
