# generated using pymatgen
data_Nd7U(ZnRh)8
_symmetry_space_group_name_H-M   'P 1'
_cell_length_a   7.34906530
_cell_length_b   3.96907100
_cell_length_c   16.59788725
_cell_angle_alpha   90.00005303
_cell_angle_beta   89.14169041
_cell_angle_gamma   89.99999242
_symmetry_Int_Tables_number   1
_chemical_formula_structural   Nd7U(ZnRh)8
_chemical_formula_sum   'Nd7 U1 Zn8 Rh8'
_cell_volume   484.08881949
_cell_formula_units_Z   1
loop_
 _symmetry_equiv_pos_site_id
 _symmetry_equiv_pos_as_xyz
  1  'x, y, z'
loop_
 _atom_site_type_symbol
 _atom_site_label
 _atom_site_symmetry_multiplicity
 _atom_site_fract_x
 _atom_site_fract_y
 _atom_site_fract_z
 _atom_site_occupancy
  Nd  Nd0  1  0.449676  0.749999  0.784701  1
  Nd  Nd1  1  0.552823  0.250000  0.217183  1
  Nd  Nd2  1  0.951369  0.749999  0.715183  1
  Nd  Nd3  1  0.164225  0.249999  0.060834  1
  Nd  Nd4  1  0.332356  0.749999  0.559366  1
  Nd  Nd5  1  0.678456  0.250000  0.438901  1
  Nd  Nd6  1  0.827355  0.749999  0.939581  1
  U  U7  1  0.056629  0.250001  0.285152  1
  Zn  Zn8  1  0.119862  0.249999  0.848564  1
  Zn  Zn9  1  0.387444  0.750000  0.347407  1
  Zn  Zn10  1  0.618106  0.249999  0.651571  1
  Zn  Zn11  1  0.877655  0.750000  0.150144  1
  Zn  Zn12  1  0.999641  0.249999  0.559609  1
  Zn  Zn13  1  0.493825  0.749999  0.061458  1
  Zn  Zn14  1  0.495805  0.249999  0.940486  1
  Zn  Zn15  1  0.002405  0.749999  0.442916  1
  Rh  Rh16  1  0.232711  0.249999  0.423043  1
  Rh  Rh17  1  0.251024  0.749999  0.935191  1
  Rh  Rh18  1  0.735906  0.249999  0.065843  1
  Rh  Rh19  1  0.750417  0.749999  0.565541  1
  Rh  Rh20  1  0.245401  0.250001  0.683590  1
  Rh  Rh21  1  0.230629  0.749999  0.199984  1
  Rh  Rh22  1  0.744991  0.250000  0.813614  1
  Rh  Rh23  1  0.801288  0.750003  0.310132  1
