# generated using pymatgen
data_La7Pr4In9Pt4
_symmetry_space_group_name_H-M   'P 1'
_cell_length_a   13.66470048
_cell_length_b   13.66472740
_cell_length_c   3.89523900
_cell_angle_alpha   90.00000000
_cell_angle_beta   90.00000000
_cell_angle_gamma   111.53507180
_symmetry_Int_Tables_number   1
_chemical_formula_structural   La7Pr4In9Pt4
_chemical_formula_sum   'La7 Pr4 In9 Pt4'
_cell_volume   676.56307260
_cell_formula_units_Z   1
loop_
 _symmetry_equiv_pos_site_id
 _symmetry_equiv_pos_as_xyz
  1  'x, y, z'
loop_
 _atom_site_type_symbol
 _atom_site_label
 _atom_site_symmetry_multiplicity
 _atom_site_fract_x
 _atom_site_fract_y
 _atom_site_fract_z
 _atom_site_occupancy
  La  La0  1  0.809742  0.810137  0.500000  1
  La  La1  1  0.189873  0.190257  0.500000  1
  La  La2  1  0.572555  0.918313  0.500000  1
  La  La3  1  0.427916  0.082046  0.500000  1
  La  La4  1  0.917962  0.572086  0.500000  1
  La  La5  1  0.081688  0.427447  0.500000  1
  La  La6  1  0.127898  0.872099  0.500000  1
  Pr  Pr7  1  0.499994  0.500004  0.500000  1
  Pr  Pr8  1  0.871907  0.128092  0.500000  1
  Pr  Pr9  1  0.340621  0.659379  0.500000  1
  Pr  Pr10  1  0.659487  0.340511  0.500000  1
  In  In11  1  0.338329  0.865048  0.000000  1
  In  In12  1  0.662445  0.135194  0.000000  1
  In  In13  1  0.864804  0.337555  0.000000  1
  In  In14  1  0.134953  0.661673  0.000000  1
  In  In15  1  0.575646  0.717349  0.000000  1
  In  In16  1  0.424336  0.282796  0.000000  1
  In  In17  1  0.717202  0.575666  0.000000  1
  In  In18  1  0.282651  0.424354  0.000000  1
  In  In19  1  0.999593  0.000406  0.000000  1
  Pt  Pt20  1  0.745800  0.948378  0.000000  1
  Pt  Pt21  1  0.253808  0.050821  0.000000  1
  Pt  Pt22  1  0.949173  0.746191  0.000000  1
  Pt  Pt23  1  0.051617  0.254199  0.000000  1
