# generated using pymatgen
data_La15Y(HgRu)4
_symmetry_space_group_name_H-M   'P 1'
_cell_length_a   10.01019094
_cell_length_b   10.06832321
_cell_length_c   10.00311115
_cell_angle_alpha   59.72962775
_cell_angle_beta   60.18023328
_cell_angle_gamma   59.72305213
_symmetry_Int_Tables_number   1
_chemical_formula_structural   La15Y(HgRu)4
_chemical_formula_sum   'La15 Y1 Hg4 Ru4'
_cell_volume   710.87601964
_cell_formula_units_Z   1
loop_
 _symmetry_equiv_pos_site_id
 _symmetry_equiv_pos_as_xyz
  1  'x, y, z'
loop_
 _atom_site_type_symbol
 _atom_site_label
 _atom_site_symmetry_multiplicity
 _atom_site_fract_x
 _atom_site_fract_y
 _atom_site_fract_z
 _atom_site_occupancy
  La  La0  1  0.315749  0.309577  0.691551  1
  La  La1  1  0.848501  0.847306  0.455505  1
  La  La2  1  0.690629  0.685916  0.314904  1
  La  La3  1  0.455510  0.845830  0.848574  1
  La  La4  1  0.058346  0.443463  0.058167  1
  La  La5  1  0.844543  0.458946  0.844618  1
  La  La6  1  0.443670  0.058422  0.443682  1
  La  La7  1  0.311519  0.689663  0.311422  1
  La  La8  1  0.442515  0.438735  0.060981  1
  La  La9  1  0.061181  0.062427  0.439504  1
  La  La10  1  0.441635  0.061185  0.058967  1
  La  La11  1  0.844221  0.847993  0.844377  1
  La  La12  1  0.691499  0.309920  0.315528  1
  La  La13  1  0.058629  0.440381  0.444360  1
  La  La14  1  0.314702  0.685921  0.690502  1
  Y  Y15  1  0.691907  0.308089  0.691953  1
  Hg  Hg16  1  0.082140  0.752282  0.081091  1
  Hg  Hg17  1  0.078008  0.084031  0.752607  1
  Hg  Hg18  1  0.752538  0.084921  0.077975  1
  Hg  Hg19  1  0.081620  0.082855  0.082198  1
  Ru  Ru20  1  0.630471  0.087602  0.636195  1
  Ru  Ru21  1  0.635921  0.644352  0.630795  1
  Ru  Ru22  1  0.634246  0.635917  0.090175  1
  Ru  Ru23  1  0.090300  0.634265  0.634370  1
