# generated using pymatgen
data_Nd3Sm9Fe2I17
_symmetry_space_group_name_H-M   'P 1'
_cell_length_a   9.92129793
_cell_length_b   11.93198578
_cell_length_c   11.97481381
_cell_angle_alpha   93.44121518
_cell_angle_beta   104.72354425
_cell_angle_gamma   114.25384669
_symmetry_Int_Tables_number   1
_chemical_formula_structural   Nd3Sm9Fe2I17
_chemical_formula_sum   'Nd3 Sm9 Fe2 I17'
_cell_volume   1228.09958104
_cell_formula_units_Z   1
loop_
 _symmetry_equiv_pos_site_id
 _symmetry_equiv_pos_as_xyz
  1  'x, y, z'
loop_
 _atom_site_type_symbol
 _atom_site_label
 _atom_site_symmetry_multiplicity
 _atom_site_fract_x
 _atom_site_fract_y
 _atom_site_fract_z
 _atom_site_occupancy
  Nd  Nd0  1  0.058173  0.510268  0.322266  1
  Nd  Nd1  1  0.990407  0.809459  0.586620  1
  Nd  Nd2  1  0.653375  0.240107  0.280372  1
  Sm  Sm3  1  0.009753  0.189416  0.415087  1
  Sm  Sm4  1  0.219545  0.671788  0.982455  1
  Sm  Sm5  1  0.255026  0.978972  0.889508  1
  Sm  Sm6  1  0.348798  0.758378  0.718660  1
  Sm  Sm7  1  0.948056  0.496485  0.681193  1
  Sm  Sm8  1  0.743704  0.017771  0.108854  1
  Sm  Sm9  1  0.137970  0.285507  0.153223  1
  Sm  Sm10  1  0.777588  0.328092  0.012387  1
  Sm  Sm11  1  0.854937  0.713211  0.847851  1
  Fe  Fe12  1  0.103904  0.738278  0.786006  1
  Fe  Fe13  1  0.895387  0.261512  0.213997  1
  I  I14  1  0.783592  0.527314  0.419095  1
  I  I15  1  0.644777  0.420050  0.761166  1
  I  I16  1  0.842945  0.896981  0.323810  1
  I  I17  1  0.322914  0.213211  0.368137  1
  I  I18  1  0.158523  0.106568  0.676442  1
  I  I19  1  0.587041  0.052620  0.844456  1
  I  I20  1  0.760759  0.186696  0.539147  1
  I  I21  1  0.549819  0.710301  0.953651  1
  I  I22  1  0.357006  0.578356  0.236345  1
  I  I23  1  0.215105  0.470301  0.583464  1
  I  I24  1  0.054965  0.368170  0.898486  1
  I  I25  1  0.449875  0.290174  0.043958  1
  I  I26  1  0.000796  0.000960  0.000479  1
  I  I27  1  0.247897  0.816114  0.464071  1
  I  I28  1  0.413573  0.945903  0.154757  1
  I  I29  1  0.671085  0.786110  0.633197  1
  I  I30  1  0.942703  0.630927  0.100860  1
