# generated using pymatgen
data_Ho3Co29(Si2B5)2
_symmetry_space_group_name_H-M   'P 1'
_cell_length_a   11.10897500
_cell_length_b   11.10897500
_cell_length_c   7.80901000
_cell_angle_alpha   90.00000000
_cell_angle_beta   90.00000000
_cell_angle_gamma   90.00000000
_symmetry_Int_Tables_number   1
_chemical_formula_structural   Ho3Co29(Si2B5)2
_chemical_formula_sum   'Ho6 Co58 Si8 B20'
_cell_volume   963.70465732
_cell_formula_units_Z   2
loop_
 _symmetry_equiv_pos_site_id
 _symmetry_equiv_pos_as_xyz
  1  'x, y, z'
loop_
 _atom_site_type_symbol
 _atom_site_label
 _atom_site_symmetry_multiplicity
 _atom_site_fract_x
 _atom_site_fract_y
 _atom_site_fract_z
 _atom_site_occupancy
  Ho  Ho0  1  0.500000  0.500000  0.500000  1
  Ho  Ho1  1  0.000000  0.000000  0.500000  1
  Ho  Ho2  1  0.750000  0.250000  0.000000  1
  Ho  Ho3  1  0.750000  0.750000  0.000000  1
  Ho  Ho4  1  0.250000  0.250000  0.000000  1
  Ho  Ho5  1  0.250000  0.750000  0.000000  1
  Co  Co6  1  0.000000  0.500000  0.464958  1
  Co  Co7  1  0.500000  0.000000  0.535042  1
  Co  Co8  1  0.389716  0.500000  0.888374  1
  Co  Co9  1  0.000000  0.110284  0.888374  1
  Co  Co10  1  0.000000  0.889716  0.888374  1
  Co  Co11  1  0.610284  0.500000  0.888374  1
  Co  Co12  1  0.110284  0.000000  0.111626  1
  Co  Co13  1  0.889716  0.000000  0.111626  1
  Co  Co14  1  0.500000  0.389716  0.111626  1
  Co  Co15  1  0.500000  0.610284  0.111626  1
  Co  Co16  1  0.771877  0.500000  0.472781  1
  Co  Co17  1  0.000000  0.728123  0.472781  1
  Co  Co18  1  0.000000  0.271877  0.472781  1
  Co  Co19  1  0.228123  0.500000  0.472781  1
  Co  Co20  1  0.728123  0.000000  0.527219  1
  Co  Co21  1  0.271877  0.000000  0.527219  1
  Co  Co22  1  0.500000  0.771877  0.527219  1
  Co  Co23  1  0.500000  0.228123  0.527219  1
  Co  Co24  1  0.835139  0.500000  0.969324  1
  Co  Co25  1  0.000000  0.664861  0.969324  1
  Co  Co26  1  0.000000  0.335139  0.969324  1
  Co  Co27  1  0.164861  0.500000  0.969324  1
  Co  Co28  1  0.664861  0.000000  0.030676  1
  Co  Co29  1  0.335139  0.000000  0.030676  1
  Co  Co30  1  0.500000  0.835139  0.030676  1
  Co  Co31  1  0.500000  0.164861  0.030676  1
  Co  Co32  1  0.884103  0.384103  0.247533  1
  Co  Co33  1  0.884103  0.615897  0.247533  1
  Co  Co34  1  0.115897  0.384103  0.247533  1
  Co  Co35  1  0.115897  0.615897  0.247533  1
  Co  Co36  1  0.615897  0.884103  0.752467  1
  Co  Co37  1  0.384103  0.115897  0.752467  1
  Co  Co38  1  0.384103  0.884103  0.752467  1
  Co  Co39  1  0.615897  0.115897  0.752467  1
  Co  Co40  1  0.890032  0.390032  0.697515  1
  Co  Co41  1  0.890032  0.609968  0.697515  1
  Co  Co42  1  0.109968  0.390032  0.697515  1
  Co  Co43  1  0.109968  0.609968  0.697515  1
  Co  Co44  1  0.609968  0.890032  0.302485  1
  Co  Co45  1  0.390032  0.109968  0.302485  1
  Co  Co46  1  0.390032  0.890032  0.302485  1
  Co  Co47  1  0.609968  0.109968  0.302485  1
  Co  Co48  1  0.338474  0.325590  0.335859  1
  Co  Co49  1  0.825590  0.161526  0.335859  1
  Co  Co50  1  0.174410  0.838474  0.335859  1
  Co  Co51  1  0.661526  0.674410  0.335859  1
  Co  Co52  1  0.161526  0.825590  0.664141  1
  Co  Co53  1  0.838474  0.174410  0.664141  1
  Co  Co54  1  0.325590  0.338474  0.664141  1
  Co  Co55  1  0.674410  0.661526  0.664141  1
  Co  Co56  1  0.161526  0.174410  0.664141  1
  Co  Co57  1  0.674410  0.338474  0.664141  1
  Co  Co58  1  0.325590  0.661526  0.664141  1
  Co  Co59  1  0.838474  0.825590  0.664141  1
  Co  Co60  1  0.338474  0.674410  0.335859  1
  Co  Co61  1  0.661526  0.325590  0.335859  1
  Co  Co62  1  0.174410  0.161526  0.335859  1
  Co  Co63  1  0.825590  0.838474  0.335859  1
  Si  Si64  1  0.317686  0.500000  0.174638  1
  Si  Si65  1  0.000000  0.182314  0.174638  1
  Si  Si66  1  0.000000  0.817686  0.174638  1
  Si  Si67  1  0.682314  0.500000  0.174638  1
  Si  Si68  1  0.182314  0.000000  0.825362  1
  Si  Si69  1  0.817686  0.000000  0.825362  1
  Si  Si70  1  0.500000  0.317686  0.825362  1
  Si  Si71  1  0.500000  0.682314  0.825362  1
  B  B72  1  0.000000  0.500000  0.105931  1
  B  B73  1  0.500000  0.000000  0.894069  1
  B  B74  1  0.000000  0.500000  0.850341  1
  B  B75  1  0.500000  0.000000  0.149659  1
  B  B76  1  0.743720  0.500000  0.735405  1
  B  B77  1  0.000000  0.756280  0.735405  1
  B  B78  1  0.000000  0.243720  0.735405  1
  B  B79  1  0.256280  0.500000  0.735405  1
  B  B80  1  0.756280  0.000000  0.264595  1
  B  B81  1  0.243720  0.000000  0.264595  1
  B  B82  1  0.500000  0.743720  0.264595  1
  B  B83  1  0.500000  0.256280  0.264595  1
  B  B84  1  0.813874  0.313874  0.481280  1
  B  B85  1  0.813874  0.686126  0.481280  1
  B  B86  1  0.186126  0.313874  0.481280  1
  B  B87  1  0.186126  0.686126  0.481280  1
  B  B88  1  0.686126  0.813874  0.518720  1
  B  B89  1  0.313874  0.186126  0.518720  1
  B  B90  1  0.313874  0.813874  0.518720  1
  B  B91  1  0.686126  0.186126  0.518720  1
