# generated using pymatgen
data_Tb2Ga2IrPt
_symmetry_space_group_name_H-M   'P 1'
_cell_length_a   4.42102400
_cell_length_b   6.88383000
_cell_length_c   7.75081800
_cell_angle_alpha   90.00000000
_cell_angle_beta   90.00000000
_cell_angle_gamma   90.00000000
_symmetry_Int_Tables_number   1
_chemical_formula_structural   Tb2Ga2IrPt
_chemical_formula_sum   'Tb4 Ga4 Ir2 Pt2'
_cell_volume   235.88512139
_cell_formula_units_Z   2
loop_
 _symmetry_equiv_pos_site_id
 _symmetry_equiv_pos_as_xyz
  1  'x, y, z'
loop_
 _atom_site_type_symbol
 _atom_site_label
 _atom_site_symmetry_multiplicity
 _atom_site_fract_x
 _atom_site_fract_y
 _atom_site_fract_z
 _atom_site_occupancy
  Tb  Tb0  1  0.750000  0.513434  0.801182  1
  Tb  Tb1  1  0.250000  0.978752  0.308654  1
  Tb  Tb2  1  0.250000  0.478752  0.191346  1
  Tb  Tb3  1  0.750000  0.013434  0.698818  1
  Ga  Ga4  1  0.750000  0.670946  0.428437  1
  Ga  Ga5  1  0.250000  0.335182  0.576622  1
  Ga  Ga6  1  0.750000  0.170946  0.071563  1
  Ga  Ga7  1  0.250000  0.835182  0.923378  1
  Ir  Ir8  1  0.250000  0.726307  0.600758  1
  Ir  Ir9  1  0.250000  0.226307  0.899242  1
  Pt  Pt10  1  0.750000  0.775380  0.100633  1
  Pt  Pt11  1  0.750000  0.275380  0.399367  1
