# generated using pymatgen
data_Nd6TiCo16P12Ru
_symmetry_space_group_name_H-M   'P 1'
_cell_length_a   3.76591000
_cell_length_b   10.69589700
_cell_length_c   12.45578200
_cell_angle_alpha   90.00000000
_cell_angle_beta   90.00000000
_cell_angle_gamma   90.00000000
_symmetry_Int_Tables_number   1
_chemical_formula_structural   Nd6TiCo16P12Ru
_chemical_formula_sum   'Nd6 Ti1 Co16 P12 Ru1'
_cell_volume   501.71622684
_cell_formula_units_Z   1
loop_
 _symmetry_equiv_pos_site_id
 _symmetry_equiv_pos_as_xyz
  1  'x, y, z'
loop_
 _atom_site_type_symbol
 _atom_site_label
 _atom_site_symmetry_multiplicity
 _atom_site_fract_x
 _atom_site_fract_y
 _atom_site_fract_z
 _atom_site_occupancy
  Nd  Nd0  1  0.000000  0.500000  0.524321  1
  Nd  Nd1  1  0.500000  0.000000  0.475684  1
  Nd  Nd2  1  0.500000  0.818777  0.206583  1
  Nd  Nd3  1  0.500000  0.181223  0.206583  1
  Nd  Nd4  1  0.000000  0.682350  0.795553  1
  Nd  Nd5  1  0.000000  0.317650  0.795553  1
  Ti  Ti6  1  0.500000  0.500000  0.150002  1
  Co  Co7  1  0.500000  0.500000  0.704897  1
  Co  Co8  1  0.000000  0.000000  0.295219  1
  Co  Co9  1  0.000000  0.500000  0.987653  1
  Co  Co10  1  0.500000  0.000000  0.012514  1
  Co  Co11  1  0.500000  0.330723  0.993304  1
  Co  Co12  1  0.500000  0.669277  0.993304  1
  Co  Co13  1  0.000000  0.165482  0.006725  1
  Co  Co14  1  0.000000  0.834518  0.006725  1
  Co  Co15  1  0.500000  0.295906  0.431951  1
  Co  Co16  1  0.500000  0.704094  0.431951  1
  Co  Co17  1  0.000000  0.202560  0.570004  1
  Co  Co18  1  0.000000  0.797440  0.570004  1
  Co  Co19  1  0.500000  0.881611  0.708435  1
  Co  Co20  1  0.500000  0.118389  0.708435  1
  Co  Co21  1  0.000000  0.619678  0.292061  1
  Co  Co22  1  0.000000  0.380322  0.292061  1
  P  P23  1  0.500000  0.500000  0.886591  1
  P  P24  1  0.000000  0.000000  0.113823  1
  P  P25  1  0.500000  0.500000  0.347727  1
  P  P26  1  0.000000  0.000000  0.654644  1
  P  P27  1  0.500000  0.306650  0.614853  1
  P  P28  1  0.500000  0.693350  0.614853  1
  P  P29  1  0.000000  0.193581  0.386553  1
  P  P30  1  0.000000  0.806419  0.386553  1
  P  P31  1  0.500000  0.849293  0.894405  1
  P  P32  1  0.500000  0.150707  0.894405  1
  P  P33  1  0.000000  0.656079  0.102618  1
  P  P34  1  0.000000  0.343921  0.102618  1
  Ru  Ru35  1  0.000000  0.000000  0.840834  1
