# generated using pymatgen
data_Hf4Nb4SiAs3
_symmetry_space_group_name_H-M   'P 1'
_cell_length_a   3.60166600
_cell_length_b   7.03837147
_cell_length_c   8.54646505
_cell_angle_alpha   89.94744984
_cell_angle_beta   90.00000000
_cell_angle_gamma   90.00000000
_symmetry_Int_Tables_number   1
_chemical_formula_structural   Hf4Nb4SiAs3
_chemical_formula_sum   'Hf4 Nb4 Si1 As3'
_cell_volume   216.65162900
_cell_formula_units_Z   1
loop_
 _symmetry_equiv_pos_site_id
 _symmetry_equiv_pos_as_xyz
  1  'x, y, z'
loop_
 _atom_site_type_symbol
 _atom_site_label
 _atom_site_symmetry_multiplicity
 _atom_site_fract_x
 _atom_site_fract_y
 _atom_site_fract_z
 _atom_site_occupancy
  Hf  Hf0  1  0.250000  0.042937  0.661005  1
  Hf  Hf1  1  0.250000  0.539639  0.834193  1
  Hf  Hf2  1  0.750000  0.455680  0.168839  1
  Hf  Hf3  1  0.750000  0.965845  0.334904  1
  Nb  Nb4  1  0.750000  0.860809  0.939531  1
  Nb  Nb5  1  0.250000  0.634684  0.439022  1
  Nb  Nb6  1  0.750000  0.362227  0.558577  1
  Nb  Nb7  1  0.250000  0.136408  0.062255  1
  Si  Si8  1  0.250000  0.258690  0.357716  1
  As  As9  1  0.250000  0.757339  0.145190  1
  As  As10  1  0.750000  0.744515  0.642708  1
  As  As11  1  0.750000  0.241228  0.856060  1
