# generated using pymatgen
data_Ho16In4OsRh3
_symmetry_space_group_name_H-M   'P 1'
_cell_length_a   9.59844544
_cell_length_b   9.62784989
_cell_length_c   9.59844500
_cell_angle_alpha   60.10098254
_cell_angle_beta   60.00000495
_cell_angle_gamma   60.10098486
_symmetry_Int_Tables_number   1
_chemical_formula_structural   Ho16In4OsRh3
_chemical_formula_sum   'Ho16 In4 Os1 Rh3'
_cell_volume   628.17018507
_cell_formula_units_Z   1
loop_
 _symmetry_equiv_pos_site_id
 _symmetry_equiv_pos_as_xyz
  1  'x, y, z'
loop_
 _atom_site_type_symbol
 _atom_site_label
 _atom_site_symmetry_multiplicity
 _atom_site_fract_x
 _atom_site_fract_y
 _atom_site_fract_z
 _atom_site_occupancy
  Ho  Ho0  1  0.187032  0.187880  0.812544  1
  Ho  Ho1  1  0.599424  0.600700  0.200452  1
  Ho  Ho2  1  0.438982  0.058702  0.438982  1
  Ho  Ho3  1  0.438837  0.439590  0.060787  1
  Ho  Ho4  1  0.812544  0.187880  0.812544  1
  Ho  Ho5  1  0.189929  0.813497  0.189929  1
  Ho  Ho6  1  0.438982  0.058702  0.063334  1
  Ho  Ho7  1  0.189929  0.813497  0.806645  1
  Ho  Ho8  1  0.060787  0.439590  0.060787  1
  Ho  Ho9  1  0.806645  0.813497  0.189929  1
  Ho  Ho10  1  0.200452  0.600700  0.599424  1
  Ho  Ho11  1  0.060787  0.439590  0.438837  1
  Ho  Ho12  1  0.063334  0.058702  0.438982  1
  Ho  Ho13  1  0.812544  0.187880  0.187032  1
  Ho  Ho14  1  0.600107  0.199679  0.600107  1
  Ho  Ho15  1  0.599424  0.600700  0.599424  1
  In  In16  1  0.832788  0.833322  0.832788  1
  In  In17  1  0.832788  0.833322  0.501104  1
  In  In18  1  0.501104  0.833322  0.832788  1
  In  In19  1  0.832714  0.501858  0.832714  1
  Os  Os20  1  0.392750  0.821750  0.392750  1
  Rh  Rh21  1  0.392288  0.391881  0.392288  1
  Rh  Rh22  1  0.823542  0.391881  0.392288  1
  Rh  Rh23  1  0.392288  0.391881  0.823542  1
