# generated using pymatgen
data_Mg4CuP5Ir7
_symmetry_space_group_name_H-M   'P 1'
_cell_length_a   6.88659393
_cell_length_b   6.88659352
_cell_length_c   6.88659366
_cell_angle_alpha   110.73739405
_cell_angle_beta   106.96753065
_cell_angle_gamma   110.73738390
_symmetry_Int_Tables_number   1
_chemical_formula_structural   Mg4CuP5Ir7
_chemical_formula_sum   'Mg4 Cu1 P5 Ir7'
_cell_volume   251.05707429
_cell_formula_units_Z   1
loop_
 _symmetry_equiv_pos_site_id
 _symmetry_equiv_pos_as_xyz
  1  'x, y, z'
loop_
 _atom_site_type_symbol
 _atom_site_label
 _atom_site_symmetry_multiplicity
 _atom_site_fract_x
 _atom_site_fract_y
 _atom_site_fract_z
 _atom_site_occupancy
  Mg  Mg0  1  0.498573  0.486813  0.498573  1
  Mg  Mg1  1  0.011760  0.000000  0.498573  1
  Mg  Mg2  1  0.498573  0.000000  0.011760  1
  Mg  Mg3  1  0.011760  0.513187  0.011760  1
  Cu  Cu4  1  0.294272  0.000000  0.294272  1
  P  P5  1  0.674266  0.000000  0.674266  1
  P  P6  1  0.996094  0.686781  0.682875  1
  P  P7  1  0.996094  0.313219  0.309313  1
  P  P8  1  0.682875  0.686781  0.996094  1
  P  P9  1  0.309313  0.313219  0.996094  1
  Ir  Ir10  1  0.974243  0.000000  0.974243  1
  Ir  Ir11  1  0.257008  0.746194  0.510813  1
  Ir  Ir12  1  0.254462  0.500000  0.754462  1
  Ir  Ir13  1  0.510813  0.746194  0.257008  1
  Ir  Ir14  1  0.510813  0.253806  0.764619  1
  Ir  Ir15  1  0.764619  0.253806  0.510813  1
  Ir  Ir16  1  0.754462  0.500000  0.254462  1
