# generated using pymatgen
data_Tb4Nd3DyCdInIr2
_symmetry_space_group_name_H-M   'P 1'
_cell_length_a   9.76836330
_cell_length_b   9.76836353
_cell_length_c   9.76753800
_cell_angle_alpha   60.00279556
_cell_angle_beta   60.00279477
_cell_angle_gamma   59.99441444
_symmetry_Int_Tables_number   1
_chemical_formula_structural   Tb4Nd3DyCdInIr2
_chemical_formula_sum   'Tb8 Nd6 Dy2 Cd2 In2 Ir4'
_cell_volume   659.04297941
_cell_formula_units_Z   2
loop_
 _symmetry_equiv_pos_site_id
 _symmetry_equiv_pos_as_xyz
  1  'x, y, z'
loop_
 _atom_site_type_symbol
 _atom_site_label
 _atom_site_symmetry_multiplicity
 _atom_site_fract_x
 _atom_site_fract_y
 _atom_site_fract_z
 _atom_site_occupancy
  Tb  Tb0  1  0.348035  0.348035  0.347210  1
  Tb  Tb1  1  0.348035  0.348035  0.956719  1
  Tb  Tb2  1  0.349453  0.955162  0.347692  1
  Tb  Tb3  1  0.955162  0.349453  0.347692  1
  Tb  Tb4  1  0.811345  0.187593  0.189001  1
  Tb  Tb5  1  0.187593  0.811345  0.812062  1
  Tb  Tb6  1  0.187593  0.811345  0.189001  1
  Tb  Tb7  1  0.811345  0.187593  0.812062  1
  Nd  Nd8  1  0.942438  0.559025  0.558352  1
  Nd  Nd9  1  0.559025  0.942438  0.940186  1
  Nd  Nd10  1  0.559025  0.942438  0.558352  1
  Nd  Nd11  1  0.942438  0.559025  0.940186  1
  Nd  Nd12  1  0.558870  0.558870  0.941130  1
  Nd  Nd13  1  0.941819  0.941819  0.558181  1
  Dy  Dy14  1  0.187361  0.187361  0.812639  1
  Dy  Dy15  1  0.810699  0.810699  0.189301  1
  Cd  Cd16  1  0.578557  0.260550  0.580447  1
  Cd  Cd17  1  0.260550  0.578557  0.580447  1
  In  In18  1  0.579472  0.579472  0.580568  1
  In  In19  1  0.579472  0.579472  0.260488  1
  Ir  Ir20  1  0.141988  0.141988  0.140783  1
  Ir  Ir21  1  0.141988  0.141988  0.575242  1
  Ir  Ir22  1  0.141554  0.576183  0.141132  1
  Ir  Ir23  1  0.576183  0.141554  0.141132  1
