# generated using pymatgen
data_YbTmFeIr3
_symmetry_space_group_name_H-M   'P 1'
_cell_length_a   5.10865110
_cell_length_b   5.10865346
_cell_length_c   5.10865201
_cell_angle_alpha   64.32025508
_cell_angle_beta   64.32024280
_cell_angle_gamma   64.32024707
_symmetry_Int_Tables_number   1
_chemical_formula_structural   YbTmFeIr3
_chemical_formula_sum   'Yb1 Tm1 Fe1 Ir3'
_cell_volume   103.22292761
_cell_formula_units_Z   1
loop_
 _symmetry_equiv_pos_site_id
 _symmetry_equiv_pos_as_xyz
  1  'x, y, z'
loop_
 _atom_site_type_symbol
 _atom_site_label
 _atom_site_symmetry_multiplicity
 _atom_site_fract_x
 _atom_site_fract_y
 _atom_site_fract_z
 _atom_site_occupancy
  Yb  Yb0  1  0.999334  0.999334  0.999334  1
  Tm  Tm1  1  0.250640  0.250640  0.250640  1
  Fe  Fe2  1  0.624891  0.624891  0.624891  1
  Ir  Ir3  1  0.625495  0.625495  0.124142  1
  Ir  Ir4  1  0.625495  0.124142  0.625495  1
  Ir  Ir5  1  0.124142  0.625495  0.625495  1
