# generated using pymatgen
data_NpPbO4
_symmetry_space_group_name_H-M   'P 1'
_cell_length_a   5.62018402
_cell_length_b   8.01452504
_cell_length_c   8.24037302
_cell_angle_alpha   90.00683823
_cell_angle_beta   89.99730515
_cell_angle_gamma   90.00891611
_symmetry_Int_Tables_number   1
_chemical_formula_structural   NpPbO4
_chemical_formula_sum   'Np4 Pb4 O16'
_cell_volume   371.17198393
_cell_formula_units_Z   4
loop_
 _symmetry_equiv_pos_site_id
 _symmetry_equiv_pos_as_xyz
  1  'x, y, z'
loop_
 _atom_site_type_symbol
 _atom_site_label
 _atom_site_symmetry_multiplicity
 _atom_site_fract_x
 _atom_site_fract_y
 _atom_site_fract_z
 _atom_site_occupancy
  Np  Np0  1  0.000000  0.000000  0.000000  1
  Np  Np1  1  0.000000  0.500000  0.000000  1
  Np  Np2  1  0.000000  0.500000  0.500000  1
  Np  Np3  1  0.000000  0.000000  0.500000  1
  Pb  Pb4  1  0.503679  0.202843  0.250006  1
  Pb  Pb5  1  0.503660  0.297134  0.749998  1
  Pb  Pb6  1  0.496340  0.702866  0.250002  1
  Pb  Pb7  1  0.496321  0.797157  0.749994  1
  O  O8  1  0.296170  0.915891  0.077305  1
  O  O9  1  0.296172  0.584119  0.922688  1
  O  O10  1  0.703808  0.415875  0.422688  1
  O  O11  1  0.703821  0.084123  0.577318  1
  O  O12  1  0.703830  0.084109  0.922695  1
  O  O13  1  0.703828  0.415881  0.077312  1
  O  O14  1  0.296192  0.584125  0.577312  1
  O  O15  1  0.296179  0.915877  0.422682  1
  O  O16  1  0.153678  0.250006  0.999998  1
  O  O17  1  0.846316  0.749997  0.500000  1
  O  O18  1  0.846322  0.749994  0.000002  1
  O  O19  1  0.153684  0.250003  0.500000  1
  O  O20  1  0.868072  0.037512  0.250011  1
  O  O21  1  0.868074  0.462487  0.749998  1
  O  O22  1  0.131926  0.537513  0.250002  1
  O  O23  1  0.131928  0.962488  0.749989  1
