# generated using pymatgen
data_YHo3Ir3PdO14
_symmetry_space_group_name_H-M   'P 1'
_cell_length_a   7.26033701
_cell_length_b   7.23007571
_cell_length_c   7.25703444
_cell_angle_alpha   59.84155390
_cell_angle_beta   59.98494020
_cell_angle_gamma   59.86144009
_symmetry_Int_Tables_number   1
_chemical_formula_structural   YHo3Ir3PdO14
_chemical_formula_sum   'Y1 Ho3 Ir3 Pd1 O14'
_cell_volume   268.72995087
_cell_formula_units_Z   1
loop_
 _symmetry_equiv_pos_site_id
 _symmetry_equiv_pos_as_xyz
  1  'x, y, z'
loop_
 _atom_site_type_symbol
 _atom_site_label
 _atom_site_symmetry_multiplicity
 _atom_site_fract_x
 _atom_site_fract_y
 _atom_site_fract_z
 _atom_site_occupancy
  Y  Y0  1  0.125000  0.125000  0.625000  1
  Ho  Ho1  1  0.625000  0.125000  0.125000  1
  Ho  Ho2  1  0.125000  0.625000  0.125000  1
  Ho  Ho3  1  0.125000  0.125000  0.125000  1
  Ir  Ir4  1  0.125000  0.625000  0.625000  1
  Ir  Ir5  1  0.625000  0.625000  0.125000  1
  Ir  Ir6  1  0.625000  0.625000  0.625000  1
  Pd  Pd7  1  0.625000  0.125000  0.625000  1
  O  O8  1  0.716684  0.706195  0.288341  1
  O  O9  1  0.279305  0.287436  0.717930  1
  O  O10  1  0.715330  0.287436  0.717930  1
  O  O11  1  0.288779  0.706195  0.288341  1
  O  O12  1  0.288828  0.704649  0.717694  1
  O  O13  1  0.716882  0.287480  0.278756  1
  O  O14  1  0.533316  0.543805  0.961659  1
  O  O15  1  0.970695  0.962564  0.532070  1
  O  O16  1  0.534670  0.962564  0.532070  1
  O  O17  1  0.961221  0.543805  0.961659  1
  O  O18  1  0.961172  0.545351  0.532306  1
  O  O19  1  0.533118  0.962520  0.971244  1
  O  O20  1  0.250687  0.250827  0.247798  1
  O  O21  1  0.999313  0.999173  0.002202  1
