# generated using pymatgen
data_Ti5Nb9As8
_symmetry_space_group_name_H-M   'P 1'
_cell_length_a   3.53436100
_cell_length_b   7.88865283
_cell_length_c   14.13203501
_cell_angle_alpha   104.08251156
_cell_angle_beta   90.00000000
_cell_angle_gamma   102.94499645
_symmetry_Int_Tables_number   1
_chemical_formula_structural   Ti5Nb9As8
_chemical_formula_sum   'Ti5 Nb9 As8'
_cell_volume   371.84585720
_cell_formula_units_Z   1
loop_
 _symmetry_equiv_pos_site_id
 _symmetry_equiv_pos_as_xyz
  1  'x, y, z'
loop_
 _atom_site_type_symbol
 _atom_site_label
 _atom_site_symmetry_multiplicity
 _atom_site_fract_x
 _atom_site_fract_y
 _atom_site_fract_z
 _atom_site_occupancy
  Ti  Ti0  1  0.431182  0.862365  0.826704  1
  Ti  Ti1  1  0.568289  0.136576  0.173486  1
  Ti  Ti2  1  0.197970  0.395940  0.309001  1
  Ti  Ti3  1  0.801588  0.603175  0.691118  1
  Ti  Ti4  1  0.211563  0.423126  0.798362  1
  Nb  Nb5  1  0.999025  0.998050  0.998318  1
  Nb  Nb6  1  0.500459  0.000917  0.500827  1
  Nb  Nb7  1  0.787865  0.575729  0.201351  1
  Nb  Nb8  1  0.334252  0.668504  0.029825  1
  Nb  Nb9  1  0.667408  0.334817  0.970819  1
  Nb  Nb10  1  0.001878  0.003755  0.659557  1
  Nb  Nb11  1  0.998912  0.997824  0.339890  1
  Nb  Nb12  1  0.177763  0.355524  0.545480  1
  Nb  Nb13  1  0.821995  0.643991  0.454450  1
  As  As14  1  0.169530  0.339060  0.112720  1
  As  As15  1  0.825643  0.651287  0.884661  1
  As  As16  1  0.369283  0.738567  0.605648  1
  As  As17  1  0.630404  0.260807  0.395622  1
  As  As18  1  0.369949  0.739898  0.334427  1
  As  As19  1  0.631899  0.263800  0.668101  1
  As  As20  1  0.064776  0.129553  0.846854  1
  As  As21  1  0.938369  0.876737  0.152781  1
