# generated using pymatgen
data_CaPuTa8O22
_symmetry_space_group_name_H-M   'P 1'
_cell_length_a   6.30594200
_cell_length_b   6.30594116
_cell_length_c   12.43351200
_cell_angle_alpha   90.00000000
_cell_angle_beta   90.00000000
_cell_angle_gamma   120.00000439
_symmetry_Int_Tables_number   1
_chemical_formula_structural   CaPuTa8O22
_chemical_formula_sum   'Ca1 Pu1 Ta8 O22'
_cell_volume   428.17796772
_cell_formula_units_Z   1
loop_
 _symmetry_equiv_pos_site_id
 _symmetry_equiv_pos_as_xyz
  1  'x, y, z'
loop_
 _atom_site_type_symbol
 _atom_site_label
 _atom_site_symmetry_multiplicity
 _atom_site_fract_x
 _atom_site_fract_y
 _atom_site_fract_z
 _atom_site_occupancy
  Ca  Ca0  1  0.666667  0.333333  0.250000  1
  Pu  Pu1  1  0.333333  0.666667  0.750000  1
  Ta  Ta2  1  0.666667  0.333333  0.750000  1
  Ta  Ta3  1  0.333333  0.666667  0.250000  1
  Ta  Ta4  1  0.644260  0.000754  0.498875  1
  Ta  Ta5  1  0.644260  0.643507  0.001125  1
  Ta  Ta6  1  0.999246  0.355740  0.001125  1
  Ta  Ta7  1  0.999246  0.643507  0.498875  1
  Ta  Ta8  1  0.356493  0.355740  0.498875  1
  Ta  Ta9  1  0.356493  0.000754  0.001125  1
  O  O10  1  0.333333  0.666667  0.535464  1
  O  O11  1  0.666667  0.333333  0.032712  1
  O  O12  1  0.666667  0.333333  0.467288  1
  O  O13  1  0.333333  0.666667  0.964536  1
  O  O14  1  0.243852  0.000422  0.499107  1
  O  O15  1  0.243852  0.243430  0.000893  1
  O  O16  1  0.999578  0.756148  0.000893  1
  O  O17  1  0.999578  0.243430  0.499107  1
  O  O18  1  0.756570  0.756148  0.499107  1
  O  O19  1  0.756570  0.000422  0.000893  1
  O  O20  1  0.379370  0.944669  0.155812  1
  O  O21  1  0.433592  0.380253  0.656054  1
  O  O22  1  0.946661  0.566408  0.656054  1
  O  O23  1  0.055331  0.434700  0.155812  1
  O  O24  1  0.565300  0.620630  0.155812  1
  O  O25  1  0.433592  0.053339  0.843946  1
  O  O26  1  0.619747  0.566408  0.843946  1
  O  O27  1  0.619747  0.053339  0.656054  1
  O  O28  1  0.946661  0.380253  0.843946  1
  O  O29  1  0.055331  0.620630  0.344188  1
  O  O30  1  0.565300  0.944669  0.344188  1
  O  O31  1  0.379370  0.434700  0.344188  1
