# generated using pymatgen
data_TbY7ZnIn3
_symmetry_space_group_name_H-M   'P 1'
_cell_length_a   10.70300501
_cell_length_b   10.70295208
_cell_length_c   6.81459401
_cell_angle_alpha   89.98852207
_cell_angle_beta   90.01156920
_cell_angle_gamma   120.03278576
_symmetry_Int_Tables_number   1
_chemical_formula_structural   TbY7ZnIn3
_chemical_formula_sum   'Tb2 Y14 Zn2 In6'
_cell_volume   675.82825356
_cell_formula_units_Z   2
loop_
 _symmetry_equiv_pos_site_id
 _symmetry_equiv_pos_as_xyz
  1  'x, y, z'
loop_
 _atom_site_type_symbol
 _atom_site_label
 _atom_site_symmetry_multiplicity
 _atom_site_fract_x
 _atom_site_fract_y
 _atom_site_fract_z
 _atom_site_occupancy
  Tb  Tb0  1  0.521709  0.043286  0.517714  1
  Tb  Tb1  1  0.956716  0.478291  0.517714  1
  Y  Y2  1  0.521574  0.478426  0.517794  1
  Y  Y3  1  0.478578  0.957161  0.017716  1
  Y  Y4  1  0.042840  0.521422  0.017718  1
  Y  Y5  1  0.478452  0.521546  0.017876  1
  Y  Y6  1  0.172480  0.344971  0.734709  1
  Y  Y7  1  0.655031  0.827521  0.734707  1
  Y  Y8  1  0.172395  0.827605  0.734370  1
  Y  Y9  1  0.827857  0.655218  0.235296  1
  Y  Y10  1  0.344782  0.172142  0.235293  1
  Y  Y11  1  0.827572  0.172428  0.235680  1
  Y  Y12  1  0.666606  0.333395  0.868513  1
  Y  Y13  1  0.333343  0.666658  0.368146  1
  Y  Y14  1  0.000152  0.999848  0.498669  1
  Y  Y15  1  0.999983  0.000014  0.998654  1
  Zn  Zn16  1  0.666601  0.333400  0.300964  1
  Zn  Zn17  1  0.333247  0.666751  0.801267  1
  In  In18  1  0.834940  0.670492  0.751188  1
  In  In19  1  0.329507  0.165059  0.751189  1
  In  In20  1  0.835343  0.164658  0.751630  1
  In  In21  1  0.165172  0.329744  0.250560  1
  In  In22  1  0.670257  0.834828  0.250560  1
  In  In23  1  0.164862  0.835137  0.250076  1
