# generated using pymatgen
data_Na4ErAuO6
_symmetry_space_group_name_H-M   'P 1'
_cell_length_a   5.69325278
_cell_length_b   5.69326489
_cell_length_c   5.85324417
_cell_angle_alpha   99.35100016
_cell_angle_beta   99.35138634
_cell_angle_gamma   119.97643577
_symmetry_Int_Tables_number   1
_chemical_formula_structural   Na4ErAuO6
_chemical_formula_sum   'Na4 Er1 Au1 O6'
_cell_volume   155.43000397
_cell_formula_units_Z   1
loop_
 _symmetry_equiv_pos_site_id
 _symmetry_equiv_pos_as_xyz
  1  'x, y, z'
loop_
 _atom_site_type_symbol
 _atom_site_label
 _atom_site_symmetry_multiplicity
 _atom_site_fract_x
 _atom_site_fract_y
 _atom_site_fract_z
 _atom_site_occupancy
  Na  Na0  1  0.501138  0.498887  0.000013  1
  Na  Na1  1  0.984006  0.016017  0.500005  1
  Na  Na2  1  0.666069  0.333919  0.499991  1
  Na  Na3  1  0.343511  0.656515  0.500007  1
  Er  Er4  1  0.167248  0.832734  0.999952  1
  Au  Au5  1  0.833815  0.166193  0.000004  1
  O  O6  1  0.593932  0.945021  0.212027  1
  O  O7  1  0.924329  0.547068  0.217786  1
  O  O8  1  0.198385  0.220309  0.217922  1
  O  O9  1  0.779671  0.801605  0.782091  1
  O  O10  1  0.452947  0.075700  0.782217  1
  O  O11  1  0.054952  0.406032  0.787989  1
