# generated using pymatgen
data_Ac4PrNdSn10
_symmetry_space_group_name_H-M   'P 1'
_cell_length_a   6.79209135
_cell_length_b   6.79209197
_cell_length_c   10.99753400
_cell_angle_alpha   90.00000000
_cell_angle_beta   90.00000000
_cell_angle_gamma   102.88140044
_symmetry_Int_Tables_number   1
_chemical_formula_structural   Ac4PrNdSn10
_chemical_formula_sum   'Ac4 Pr1 Nd1 Sn10'
_cell_volume   494.57582707
_cell_formula_units_Z   1
loop_
 _symmetry_equiv_pos_site_id
 _symmetry_equiv_pos_as_xyz
  1  'x, y, z'
loop_
 _atom_site_type_symbol
 _atom_site_label
 _atom_site_symmetry_multiplicity
 _atom_site_fract_x
 _atom_site_fract_y
 _atom_site_fract_z
 _atom_site_occupancy
  Ac  Ac0  1  0.199976  0.800064  0.499932  1
  Ac  Ac1  1  0.199976  0.800064  0.000068  1
  Ac  Ac2  1  0.800064  0.199976  0.499932  1
  Ac  Ac3  1  0.800064  0.199976  0.000068  1
  Pr  Pr4  1  0.363900  0.363900  0.750000  1
  Nd  Nd5  1  0.636106  0.636106  0.250000  1
  Sn  Sn6  1  0.025665  0.025665  0.250000  1
  Sn  Sn7  1  0.974004  0.974004  0.750000  1
  Sn  Sn8  1  0.328973  0.328973  0.049553  1
  Sn  Sn9  1  0.671255  0.671255  0.950959  1
  Sn  Sn10  1  0.328973  0.328973  0.450447  1
  Sn  Sn11  1  0.671255  0.671255  0.549041  1
  Sn  Sn12  1  0.488734  0.070797  0.250000  1
  Sn  Sn13  1  0.928922  0.511336  0.750000  1
  Sn  Sn14  1  0.511336  0.928922  0.750000  1
  Sn  Sn15  1  0.070797  0.488734  0.250000  1
