# generated using pymatgen
data_Lu7Pa(AlCo)2
_symmetry_space_group_name_H-M   'P 1'
_cell_length_a   9.10864918
_cell_length_b   9.10864907
_cell_length_c   9.23416700
_cell_angle_alpha   59.54309828
_cell_angle_beta   59.54309869
_cell_angle_gamma   59.79715352
_symmetry_Int_Tables_number   1
_chemical_formula_structural   Lu7Pa(AlCo)2
_chemical_formula_sum   'Lu14 Pa2 Al4 Co4'
_cell_volume   537.15021346
_cell_formula_units_Z   2
loop_
 _symmetry_equiv_pos_site_id
 _symmetry_equiv_pos_as_xyz
  1  'x, y, z'
loop_
 _atom_site_type_symbol
 _atom_site_label
 _atom_site_symmetry_multiplicity
 _atom_site_fract_x
 _atom_site_fract_y
 _atom_site_fract_z
 _atom_site_occupancy
  Lu  Lu0  1  0.604018  0.193811  0.601086  1
  Lu  Lu1  1  0.193811  0.604018  0.601086  1
  Lu  Lu2  1  0.059410  0.441376  0.441322  1
  Lu  Lu3  1  0.441376  0.059410  0.057891  1
  Lu  Lu4  1  0.441376  0.059410  0.441322  1
  Lu  Lu5  1  0.059410  0.441376  0.057891  1
  Lu  Lu6  1  0.440781  0.440781  0.059219  1
  Lu  Lu7  1  0.061040  0.061040  0.438960  1
  Lu  Lu8  1  0.186464  0.812732  0.815458  1
  Lu  Lu9  1  0.812732  0.186464  0.185346  1
  Lu  Lu10  1  0.812732  0.186464  0.815458  1
  Lu  Lu11  1  0.186464  0.812732  0.185346  1
  Lu  Lu12  1  0.809941  0.809941  0.190059  1
  Lu  Lu13  1  0.185421  0.185421  0.814579  1
  Pa  Pa14  1  0.588623  0.588623  0.600244  1
  Pa  Pa15  1  0.588623  0.588623  0.222511  1
  Al  Al16  1  0.826291  0.826291  0.833454  1
  Al  Al17  1  0.826291  0.826291  0.513964  1
  Al  Al18  1  0.825757  0.514572  0.829835  1
  Al  Al19  1  0.514572  0.825757  0.829835  1
  Co  Co20  1  0.403502  0.403502  0.377825  1
  Co  Co21  1  0.403502  0.403502  0.815170  1
  Co  Co22  1  0.413852  0.814011  0.386068  1
  Co  Co23  1  0.814011  0.413852  0.386068  1
