# generated using pymatgen
data_La2Al4NiRu
_symmetry_space_group_name_H-M   'P 1'
_cell_length_a   5.74830552
_cell_length_b   5.74830567
_cell_length_c   7.24579600
_cell_angle_alpha   90.00000000
_cell_angle_beta   90.00000000
_cell_angle_gamma   137.50096230
_symmetry_Int_Tables_number   1
_chemical_formula_structural   La2Al4NiRu
_chemical_formula_sum   'La2 Al4 Ni1 Ru1'
_cell_volume   161.74884367
_cell_formula_units_Z   1
loop_
 _symmetry_equiv_pos_site_id
 _symmetry_equiv_pos_as_xyz
  1  'x, y, z'
loop_
 _atom_site_type_symbol
 _atom_site_label
 _atom_site_symmetry_multiplicity
 _atom_site_fract_x
 _atom_site_fract_y
 _atom_site_fract_z
 _atom_site_occupancy
  La  La0  1  0.551602  0.448401  0.250000  1
  La  La1  1  0.448022  0.551981  0.750000  1
  Al  Al2  1  0.828226  0.171776  0.049060  1
  Al  Al3  1  0.828226  0.171776  0.450941  1
  Al  Al4  1  0.167350  0.832652  0.563876  1
  Al  Al5  1  0.167350  0.832652  0.936124  1
  Ni  Ni6  1  0.720043  0.279960  0.750000  1
  Ru  Ru7  1  0.289190  0.710813  0.250000  1
