# generated using pymatgen
data_Ca4MnIr7
_symmetry_space_group_name_H-M   'P 1'
_cell_length_a   5.41646700
_cell_length_b   5.41646723
_cell_length_c   8.55889200
_cell_angle_alpha   90.00000000
_cell_angle_beta   90.00000000
_cell_angle_gamma   120.00000469
_symmetry_Int_Tables_number   1
_chemical_formula_structural   Ca4MnIr7
_chemical_formula_sum   'Ca4 Mn1 Ir7'
_cell_volume   217.46049844
_cell_formula_units_Z   1
loop_
 _symmetry_equiv_pos_site_id
 _symmetry_equiv_pos_as_xyz
  1  'x, y, z'
loop_
 _atom_site_type_symbol
 _atom_site_label
 _atom_site_symmetry_multiplicity
 _atom_site_fract_x
 _atom_site_fract_y
 _atom_site_fract_z
 _atom_site_occupancy
  Ca  Ca0  1  0.333334  0.666667  0.070992  1
  Ca  Ca1  1  0.333334  0.666667  0.432593  1
  Ca  Ca2  1  0.666666  0.333334  0.567408  1
  Ca  Ca3  1  0.666666  0.333334  0.929009  1
  Mn  Mn4  1  0.000000  0.000000  0.000000  1
  Ir  Ir5  1  0.341725  0.170863  0.247639  1
  Ir  Ir6  1  0.829137  0.170863  0.247639  1
  Ir  Ir7  1  0.829137  0.658274  0.247639  1
  Ir  Ir8  1  0.000000  0.000000  0.500000  1
  Ir  Ir9  1  0.170862  0.341724  0.752361  1
  Ir  Ir10  1  0.170863  0.829137  0.752361  1
  Ir  Ir11  1  0.658274  0.829137  0.752361  1
