# generated using pymatgen
data_LaZr4Bi3F28
_symmetry_space_group_name_H-M   'P 1'
_cell_length_a   5.90094475
_cell_length_b   9.40965455
_cell_length_c   12.56604893
_cell_angle_alpha   61.94564283
_cell_angle_beta   89.94016640
_cell_angle_gamma   90.05064666
_symmetry_Int_Tables_number   1
_chemical_formula_structural   LaZr4Bi3F28
_chemical_formula_sum   'La1 Zr4 Bi3 F28'
_cell_volume   615.75622611
_cell_formula_units_Z   1
loop_
 _symmetry_equiv_pos_site_id
 _symmetry_equiv_pos_as_xyz
  1  'x, y, z'
loop_
 _atom_site_type_symbol
 _atom_site_label
 _atom_site_symmetry_multiplicity
 _atom_site_fract_x
 _atom_site_fract_y
 _atom_site_fract_z
 _atom_site_occupancy
  La  La0  1  0.756248  0.813178  0.765928  1
  Zr  Zr1  1  0.743989  0.275784  0.454535  1
  Zr  Zr2  1  0.244757  0.724963  0.046737  1
  Zr  Zr3  1  0.255749  0.725113  0.542442  1
  Zr  Zr4  1  0.756036  0.272451  0.956597  1
  Bi  Bi5  1  0.742568  0.817153  0.264237  1
  Bi  Bi6  1  0.243166  0.182570  0.236792  1
  Bi  Bi7  1  0.258481  0.183741  0.735942  1
  F  F8  1  0.458245  0.711396  0.924642  1
  F  F9  1  0.959375  0.287617  0.575908  1
  F  F10  1  0.539447  0.287726  0.076924  1
  F  F11  1  0.037083  0.712783  0.422236  1
  F  F12  1  0.458901  0.280330  0.547073  1
  F  F13  1  0.963298  0.717196  0.954414  1
  F  F14  1  0.543090  0.720567  0.451642  1
  F  F15  1  0.040188  0.280812  0.047899  1
  F  F16  1  0.766511  0.516760  0.860803  1
  F  F17  1  0.267596  0.483292  0.639552  1
  F  F18  1  0.233240  0.481697  0.139950  1
  F  F19  1  0.732553  0.519450  0.359387  1
  F  F20  1  0.759753  0.026125  0.059053  1
  F  F21  1  0.259718  0.972892  0.441321  1
  F  F22  1  0.239809  0.971498  0.942388  1
  F  F23  1  0.739885  0.030651  0.555036  1
  F  F24  1  0.993037  0.733825  0.644802  1
  F  F25  1  0.490438  0.265362  0.855346  1
  F  F26  1  0.010632  0.264929  0.353851  1
  F  F27  1  0.512696  0.735613  0.145447  1
  F  F28  1  0.037098  0.747792  0.169255  1
  F  F29  1  0.538077  0.252676  0.330404  1
  F  F30  1  0.959835  0.252942  0.831684  1
  F  F31  1  0.457418  0.745596  0.667870  1
  F  F32  1  0.422305  0.971489  0.233433  1
  F  F33  1  0.922656  0.027423  0.266840  1
  F  F34  1  0.570270  0.031959  0.766634  1
  F  F35  1  0.085849  0.974649  0.732994  1
