# generated using pymatgen
data_Sc4MnZnCoB4Ir9
_symmetry_space_group_name_H-M   'P 1'
_cell_length_a   9.36858400
_cell_length_b   9.36858466
_cell_length_c   3.04101800
_cell_angle_alpha   90.00000000
_cell_angle_beta   90.00000000
_cell_angle_gamma   89.68050013
_symmetry_Int_Tables_number   1
_chemical_formula_structural   Sc4MnZnCoB4Ir9
_chemical_formula_sum   'Sc4 Mn1 Zn1 Co1 B4 Ir9'
_cell_volume   266.90713232
_cell_formula_units_Z   1
loop_
 _symmetry_equiv_pos_site_id
 _symmetry_equiv_pos_as_xyz
  1  'x, y, z'
loop_
 _atom_site_type_symbol
 _atom_site_label
 _atom_site_symmetry_multiplicity
 _atom_site_fract_x
 _atom_site_fract_y
 _atom_site_fract_z
 _atom_site_occupancy
  Sc  Sc0  1  0.671353  0.172688  0.000000  1
  Sc  Sc1  1  0.181339  0.320681  0.000000  1
  Sc  Sc2  1  0.818661  0.679319  0.000000  1
  Sc  Sc3  1  0.328647  0.827312  0.000000  1
  Mn  Mn4  1  0.000000  0.000000  0.000000  1
  Zn  Zn5  1  0.500000  0.500000  0.000000  1
  Co  Co6  1  0.500000  0.000000  0.500001  1
  B  B7  1  0.387978  0.115433  0.000000  1
  B  B8  1  0.871729  0.376185  0.000000  1
  B  B9  1  0.128271  0.623814  0.000000  1
  B  B10  1  0.612021  0.884567  0.000000  1
  Ir  Ir11  1  0.223235  0.063674  0.500001  1
  Ir  Ir12  1  0.931672  0.215803  0.500001  1
  Ir  Ir13  1  0.435085  0.275699  0.500001  1
  Ir  Ir14  1  0.716221  0.430551  0.500001  1
  Ir  Ir15  1  0.000000  0.500000  0.500001  1
  Ir  Ir16  1  0.283778  0.569448  0.500001  1
  Ir  Ir17  1  0.564914  0.724300  0.500001  1
  Ir  Ir18  1  0.068328  0.784197  0.500001  1
  Ir  Ir19  1  0.776765  0.936326  0.500001  1
