# generated using pymatgen
data_Dy2YEr3(Si3Ru)8
_symmetry_space_group_name_H-M   'P 1'
_cell_length_a   10.10520185
_cell_length_b   10.10520165
_cell_length_c   8.12630303
_cell_angle_alpha   90.05447240
_cell_angle_beta   89.94553131
_cell_angle_gamma   132.61260294
_symmetry_Int_Tables_number   1
_chemical_formula_structural   Dy2YEr3(Si3Ru)8
_chemical_formula_sum   'Dy2 Y1 Er3 Si24 Ru8'
_cell_volume   610.70291533
_cell_formula_units_Z   1
loop_
 _symmetry_equiv_pos_site_id
 _symmetry_equiv_pos_as_xyz
  1  'x, y, z'
loop_
 _atom_site_type_symbol
 _atom_site_label
 _atom_site_symmetry_multiplicity
 _atom_site_fract_x
 _atom_site_fract_y
 _atom_site_fract_z
 _atom_site_occupancy
  Dy  Dy0  1  0.497747  0.997747  0.250000  1
  Dy  Dy1  1  0.002255  0.502255  0.750000  1
  Y  Y2  1  0.502746  0.002746  0.750000  1
  Er  Er3  1  0.997608  0.497608  0.250000  1
  Er  Er4  1  0.499980  0.499918  0.500009  1
  Er  Er5  1  0.999918  0.999980  0.999991  1
  Si  Si6  1  0.387815  0.154381  0.004443  1
  Si  Si7  1  0.654381  0.887815  0.495557  1
  Si  Si8  1  0.111392  0.343935  0.503683  1
  Si  Si9  1  0.843935  0.611392  0.996317  1
  Si  Si10  1  0.612215  0.845654  0.995237  1
  Si  Si11  1  0.345654  0.112215  0.504763  1
  Si  Si12  1  0.888550  0.655841  0.494887  1
  Si  Si13  1  0.155841  0.388550  0.005113  1
  Si  Si14  1  0.612947  0.378935  0.227809  1
  Si  Si15  1  0.878935  0.112947  0.272191  1
  Si  Si16  1  0.886261  0.120494  0.728704  1
  Si  Si17  1  0.620494  0.386261  0.771296  1
  Si  Si18  1  0.387821  0.621997  0.771529  1
  Si  Si19  1  0.121997  0.887821  0.728471  1
  Si  Si20  1  0.705611  0.294554  0.000338  1
  Si  Si21  1  0.794554  0.205611  0.499662  1
  Si  Si22  1  0.294408  0.705539  0.000456  1
  Si  Si23  1  0.205539  0.794408  0.499544  1
  Si  Si24  1  0.168089  0.167968  0.333149  1
  Si  Si25  1  0.667968  0.668089  0.166851  1
  Si  Si26  1  0.332048  0.331922  0.833094  1
  Si  Si27  1  0.831922  0.832048  0.666906  1
  Si  Si28  1  0.378824  0.612732  0.228260  1
  Si  Si29  1  0.112732  0.878824  0.271740  1
  Ru  Ru30  1  0.625973  0.625747  0.872568  1
  Ru  Ru31  1  0.125747  0.125973  0.627432  1
  Ru  Ru32  1  0.873908  0.874256  0.372764  1
  Ru  Ru33  1  0.374256  0.373908  0.127236  1
  Ru  Ru34  1  0.329080  0.666572  0.499283  1
  Ru  Ru35  1  0.166572  0.829080  0.000717  1
  Ru  Ru36  1  0.670885  0.333390  0.498664  1
  Ru  Ru37  1  0.833390  0.170885  0.001336  1
