# generated using pymatgen
data_Th10InAgBi6
_symmetry_space_group_name_H-M   'P 1'
_cell_length_a   9.76607206
_cell_length_b   9.77343601
_cell_length_c   6.65115700
_cell_angle_alpha   90.01235794
_cell_angle_beta   89.99381637
_cell_angle_gamma   120.02494938
_symmetry_Int_Tables_number   1
_chemical_formula_structural   Th10InAgBi6
_chemical_formula_sum   'Th10 In1 Ag1 Bi6'
_cell_volume   549.64942723
_cell_formula_units_Z   1
loop_
 _symmetry_equiv_pos_site_id
 _symmetry_equiv_pos_as_xyz
  1  'x, y, z'
loop_
 _atom_site_type_symbol
 _atom_site_label
 _atom_site_symmetry_multiplicity
 _atom_site_fract_x
 _atom_site_fract_y
 _atom_site_fract_z
 _atom_site_occupancy
  Th  Th0  1  0.670253  0.335316  0.500520  1
  Th  Th1  1  0.329747  0.665064  0.500520  1
  Th  Th2  1  0.329423  0.661989  0.998857  1
  Th  Th3  1  0.670577  0.332565  0.998857  1
  Th  Th4  1  0.721198  0.720556  0.261992  1
  Th  Th5  1  0.278802  0.999358  0.261992  1
  Th  Th6  1  0.000000  0.280614  0.260673  1
  Th  Th7  1  0.278420  0.282726  0.738696  1
  Th  Th8  1  0.721580  0.004306  0.738696  1
  Th  Th9  1  0.000000  0.718455  0.738214  1
  In  In10  1  0.000000  0.376761  0.752006  1
  Ag  Ag11  1  0.000000  0.001053  0.503708  1
  Bi  Bi12  1  0.000000  0.000076  0.999232  1
  Bi  Bi13  1  0.378415  0.379045  0.246901  1
  Bi  Bi14  1  0.621585  0.000630  0.246901  1
  Bi  Bi15  1  0.000000  0.620126  0.246351  1
  Bi  Bi16  1  0.621302  0.621330  0.752944  1
  Bi  Bi17  1  0.378698  0.000027  0.752944  1
