# generated using pymatgen
data_PrTmZn5Ge
_symmetry_space_group_name_H-M   'P 1'
_cell_length_a   8.29742579
_cell_length_b   8.29742608
_cell_length_c   8.83224800
_cell_angle_alpha   90.00000000
_cell_angle_beta   90.00000000
_cell_angle_gamma   149.64761004
_symmetry_Int_Tables_number   1
_chemical_formula_structural   PrTmZn5Ge
_chemical_formula_sum   'Pr2 Tm2 Zn10 Ge2'
_cell_volume   307.27118240
_cell_formula_units_Z   2
loop_
 _symmetry_equiv_pos_site_id
 _symmetry_equiv_pos_as_xyz
  1  'x, y, z'
loop_
 _atom_site_type_symbol
 _atom_site_label
 _atom_site_symmetry_multiplicity
 _atom_site_fract_x
 _atom_site_fract_y
 _atom_site_fract_z
 _atom_site_occupancy
  Pr  Pr0  1  0.000000  0.000000  0.500000  1
  Pr  Pr1  1  0.000000  0.000000  0.000000  1
  Tm  Tm2  1  0.200629  0.799371  0.250000  1
  Tm  Tm3  1  0.799371  0.200629  0.750000  1
  Zn  Zn4  1  0.812131  0.187869  0.391670  1
  Zn  Zn5  1  0.187869  0.812131  0.608330  1
  Zn  Zn6  1  0.812131  0.187869  0.108330  1
  Zn  Zn7  1  0.187869  0.812131  0.891670  1
  Zn  Zn8  1  0.654617  0.345383  0.475479  1
  Zn  Zn9  1  0.345383  0.654617  0.524521  1
  Zn  Zn10  1  0.654617  0.345383  0.024521  1
  Zn  Zn11  1  0.345383  0.654617  0.975479  1
  Zn  Zn12  1  0.399207  0.600793  0.250000  1
  Zn  Zn13  1  0.600793  0.399207  0.750000  1
  Ge  Ge14  1  0.557462  0.442538  0.250000  1
  Ge  Ge15  1  0.442538  0.557462  0.750000  1
