# generated using pymatgen
data_Dy9LuSi5As
_symmetry_space_group_name_H-M   'P 1'
_cell_length_a   8.44104304
_cell_length_b   8.44515637
_cell_length_c   6.30758609
_cell_angle_alpha   90.00754382
_cell_angle_beta   90.01144271
_cell_angle_gamma   119.98179085
_symmetry_Int_Tables_number   1
_chemical_formula_structural   Dy9LuSi5As
_chemical_formula_sum   'Dy9 Lu1 Si5 As1'
_cell_volume   389.47291648
_cell_formula_units_Z   1
loop_
 _symmetry_equiv_pos_site_id
 _symmetry_equiv_pos_as_xyz
  1  'x, y, z'
loop_
 _atom_site_type_symbol
 _atom_site_label
 _atom_site_symmetry_multiplicity
 _atom_site_fract_x
 _atom_site_fract_y
 _atom_site_fract_z
 _atom_site_occupancy
  Dy  Dy0  1  0.669048  0.336106  0.001064  1
  Dy  Dy1  1  0.333144  0.664467  0.499169  1
  Dy  Dy2  1  0.332990  0.663826  0.001138  1
  Dy  Dy3  1  0.757870  0.999974  0.749098  1
  Dy  Dy4  1  0.755795  0.755557  0.250911  1
  Dy  Dy5  1  0.000092  0.244394  0.251006  1
  Dy  Dy6  1  0.996661  0.753107  0.749134  1
  Dy  Dy7  1  0.243349  0.246714  0.748917  1
  Dy  Dy8  1  0.243423  0.000049  0.250894  1
  Lu  Lu9  1  0.669316  0.336275  0.498583  1
  Si  Si10  1  0.395113  0.392319  0.253580  1
  Si  Si11  1  0.999165  0.605755  0.253453  1
  Si  Si12  1  0.997808  0.392954  0.746602  1
  Si  Si13  1  0.606479  0.604776  0.746541  1
  Si  Si14  1  0.607690  0.001885  0.253008  1
  As  As15  1  0.392056  0.001841  0.746903  1
