# generated using pymatgen
data_HoTmLu4(Co3P2)6
_symmetry_space_group_name_H-M   'P 1'
_cell_length_a   3.66090900
_cell_length_b   10.45648000
_cell_length_c   12.08856800
_cell_angle_alpha   90.00000000
_cell_angle_beta   90.00000000
_cell_angle_gamma   90.00000000
_symmetry_Int_Tables_number   1
_chemical_formula_structural   HoTmLu4(Co3P2)6
_chemical_formula_sum   'Ho1 Tm1 Lu4 Co18 P12'
_cell_volume   462.75306356
_cell_formula_units_Z   1
loop_
 _symmetry_equiv_pos_site_id
 _symmetry_equiv_pos_as_xyz
  1  'x, y, z'
loop_
 _atom_site_type_symbol
 _atom_site_label
 _atom_site_symmetry_multiplicity
 _atom_site_fract_x
 _atom_site_fract_y
 _atom_site_fract_z
 _atom_site_occupancy
  Ho  Ho0  1  0.000000  0.500000  0.523068  1
  Tm  Tm1  1  0.500000  0.000000  0.476932  1
  Lu  Lu2  1  0.500000  0.818530  0.205991  1
  Lu  Lu3  1  0.500000  0.181470  0.205991  1
  Lu  Lu4  1  0.000000  0.681638  0.794191  1
  Lu  Lu5  1  0.000000  0.318362  0.794191  1
  Co  Co6  1  0.500000  0.500000  0.159531  1
  Co  Co7  1  0.000000  0.000000  0.840132  1
  Co  Co8  1  0.500000  0.500000  0.704564  1
  Co  Co9  1  0.000000  0.000000  0.296007  1
  Co  Co10  1  0.000000  0.500000  0.986625  1
  Co  Co11  1  0.500000  0.000000  0.013419  1
  Co  Co12  1  0.500000  0.333066  0.994600  1
  Co  Co13  1  0.500000  0.666934  0.994600  1
  Co  Co14  1  0.000000  0.166892  0.005423  1
  Co  Co15  1  0.000000  0.833108  0.005423  1
  Co  Co16  1  0.500000  0.296832  0.430492  1
  Co  Co17  1  0.500000  0.703168  0.430492  1
  Co  Co18  1  0.000000  0.202172  0.569359  1
  Co  Co19  1  0.000000  0.797828  0.569359  1
  Co  Co20  1  0.500000  0.878281  0.709497  1
  Co  Co21  1  0.500000  0.121719  0.709497  1
  Co  Co22  1  0.000000  0.622057  0.290335  1
  Co  Co23  1  0.000000  0.377943  0.290335  1
  P  P24  1  0.500000  0.500000  0.882509  1
  P  P25  1  0.000000  0.000000  0.117818  1
  P  P26  1  0.500000  0.500000  0.344903  1
  P  P27  1  0.000000  0.000000  0.654428  1
  P  P28  1  0.500000  0.311400  0.617308  1
  P  P29  1  0.500000  0.688600  0.617308  1
  P  P30  1  0.000000  0.187951  0.382938  1
  P  P31  1  0.000000  0.812049  0.382938  1
  P  P32  1  0.500000  0.846411  0.891683  1
  P  P33  1  0.500000  0.153589  0.891683  1
  P  P34  1  0.000000  0.653710  0.108214  1
  P  P35  1  0.000000  0.346290  0.108214  1
