# generated using pymatgen
data_Dy3TmLuPb3
_symmetry_space_group_name_H-M   'P 1'
_cell_length_a   6.54149200
_cell_length_b   9.02065250
_cell_length_c   9.02023300
_cell_angle_alpha   120.00153347
_cell_angle_beta   90.00032762
_cell_angle_gamma   89.99933428
_symmetry_Int_Tables_number   1
_chemical_formula_structural   Dy3TmLuPb3
_chemical_formula_sum   'Dy6 Tm2 Lu2 Pb6'
_cell_volume   460.95278585
_cell_formula_units_Z   2
loop_
 _symmetry_equiv_pos_site_id
 _symmetry_equiv_pos_as_xyz
  1  'x, y, z'
loop_
 _atom_site_type_symbol
 _atom_site_label
 _atom_site_symmetry_multiplicity
 _atom_site_fract_x
 _atom_site_fract_y
 _atom_site_fract_z
 _atom_site_occupancy
  Dy  Dy0  1  0.750065  0.237723  0.000000  1
  Dy  Dy1  1  0.750073  0.762315  0.762289  1
  Dy  Dy2  1  0.750073  0.000026  0.237711  1
  Dy  Dy3  1  0.249928  0.762290  0.000000  1
  Dy  Dy4  1  0.249932  0.237686  0.237716  1
  Dy  Dy5  1  0.249932  0.999969  0.762284  1
  Tm  Tm6  1  0.500003  0.333319  0.666682  1
  Tm  Tm7  1  0.500003  0.666637  0.333318  1
  Lu  Lu8  1  0.000003  0.666681  0.333313  1
  Lu  Lu9  1  0.000003  0.333367  0.666687  1
  Pb  Pb10  1  0.750153  0.604000  0.000000  1
  Pb  Pb11  1  0.750171  0.396042  0.396093  1
  Pb  Pb12  1  0.750171  0.999950  0.603907  1
  Pb  Pb13  1  0.249818  0.396000  0.000000  1
  Pb  Pb14  1  0.249836  0.603956  0.603911  1
  Pb  Pb15  1  0.249836  0.000043  0.396089  1
