# generated using pymatgen
data_Ho11LuIn2Tc2Ru
_symmetry_space_group_name_H-M   'P 1'
_cell_length_a   8.41666129
_cell_length_b   8.40286556
_cell_length_c   8.40286498
_cell_angle_alpha   109.36067458
_cell_angle_beta   109.43152416
_cell_angle_gamma   109.55492078
_symmetry_Int_Tables_number   1
_chemical_formula_structural   Ho11LuIn2Tc2Ru
_chemical_formula_sum   'Ho11 Lu1 In2 Tc2 Ru1'
_cell_volume   457.85497889
_cell_formula_units_Z   1
loop_
 _symmetry_equiv_pos_site_id
 _symmetry_equiv_pos_as_xyz
  1  'x, y, z'
loop_
 _atom_site_type_symbol
 _atom_site_label
 _atom_site_symmetry_multiplicity
 _atom_site_fract_x
 _atom_site_fract_y
 _atom_site_fract_z
 _atom_site_occupancy
  Ho  Ho0  1  0.315933  0.317686  0.633736  1
  Ho  Ho1  1  0.681975  0.682572  0.366923  1
  Ho  Ho2  1  0.681975  0.315053  0.999402  1
  Ho  Ho3  1  0.315933  0.682198  0.998248  1
  Ho  Ho4  1  0.188148  0.431805  0.244241  1
  Ho  Ho5  1  0.813843  0.572669  0.757846  1
  Ho  Ho6  1  0.188148  0.943907  0.756344  1
  Ho  Ho7  1  0.942603  0.185946  0.756658  1
  Ho  Ho8  1  0.813843  0.055998  0.241176  1
  Ho  Ho9  1  0.055964  0.814264  0.241700  1
  Ho  Ho10  1  0.431028  0.186968  0.244059  1
  Lu  Lu11  1  0.576204  0.815724  0.760479  1
  In  In12  1  0.998772  0.499524  0.499249  1
  In  In13  1  0.498497  0.997369  0.501129  1
  Tc  Tc14  1  0.341526  0.341640  0.999886  1
  Tc  Tc15  1  0.998665  0.999288  0.999376  1
  Ru  Ru16  1  0.656941  0.657392  0.999549  1
