# generated using pymatgen
data_Nd4Mg2P5
_symmetry_space_group_name_H-M   'P 1'
_cell_length_a   4.19736500
_cell_length_b   4.19736463
_cell_length_c   17.16235700
_cell_angle_alpha   90.00000000
_cell_angle_beta   90.00000000
_cell_angle_gamma   120.00001082
_symmetry_Int_Tables_number   1
_chemical_formula_structural   Nd4Mg2P5
_chemical_formula_sum   'Nd4 Mg2 P5'
_cell_volume   261.85504828
_cell_formula_units_Z   1
loop_
 _symmetry_equiv_pos_site_id
 _symmetry_equiv_pos_as_xyz
  1  'x, y, z'
loop_
 _atom_site_type_symbol
 _atom_site_label
 _atom_site_symmetry_multiplicity
 _atom_site_fract_x
 _atom_site_fract_y
 _atom_site_fract_z
 _atom_site_occupancy
  Nd  Nd0  1  0.666667  0.333333  0.901827  1
  Nd  Nd1  1  0.333333  0.666667  0.098173  1
  Nd  Nd2  1  0.000000  0.000000  0.708871  1
  Nd  Nd3  1  0.000000  0.000000  0.291129  1
  Mg  Mg4  1  0.666667  0.333333  0.445110  1
  Mg  Mg5  1  0.333333  0.666667  0.554890  1
  P  P6  1  0.666667  0.333333  0.599515  1
  P  P7  1  0.333333  0.666667  0.400485  1
  P  P8  1  0.666667  0.333333  0.198504  1
  P  P9  1  0.333333  0.666667  0.801496  1
  P  P10  1  0.000000  0.000000  0.000000  1
