# generated using pymatgen
data_Dy20TcIr3Pt8
_symmetry_space_group_name_H-M   'P 1'
_cell_length_a   11.02797000
_cell_length_b   11.02797000
_cell_length_c   6.37409800
_cell_angle_alpha   90.00000000
_cell_angle_beta   90.00000000
_cell_angle_gamma   90.00000000
_symmetry_Int_Tables_number   1
_chemical_formula_structural   Dy20TcIr3Pt8
_chemical_formula_sum   'Dy20 Tc1 Ir3 Pt8'
_cell_volume   775.19308205
_cell_formula_units_Z   1
loop_
 _symmetry_equiv_pos_site_id
 _symmetry_equiv_pos_as_xyz
  1  'x, y, z'
loop_
 _atom_site_type_symbol
 _atom_site_label
 _atom_site_symmetry_multiplicity
 _atom_site_fract_x
 _atom_site_fract_y
 _atom_site_fract_z
 _atom_site_occupancy
  Dy  Dy0  1  0.296089  0.086848  0.371080  1
  Dy  Dy1  1  0.296909  0.913703  0.875096  1
  Dy  Dy2  1  0.703091  0.086297  0.875096  1
  Dy  Dy3  1  0.703911  0.913152  0.371080  1
  Dy  Dy4  1  0.586297  0.796909  0.875096  1
  Dy  Dy5  1  0.586848  0.203911  0.371080  1
  Dy  Dy6  1  0.413152  0.796089  0.371080  1
  Dy  Dy7  1  0.413703  0.203091  0.875096  1
  Dy  Dy8  1  0.205395  0.411279  0.626307  1
  Dy  Dy9  1  0.204824  0.588190  0.125835  1
  Dy  Dy10  1  0.795176  0.411810  0.125835  1
  Dy  Dy11  1  0.794605  0.588721  0.626307  1
  Dy  Dy12  1  0.911810  0.704824  0.125835  1
  Dy  Dy13  1  0.911279  0.294605  0.626307  1
  Dy  Dy14  1  0.088721  0.705395  0.626307  1
  Dy  Dy15  1  0.088190  0.295176  0.125835  1
  Dy  Dy16  1  0.000000  0.000000  0.499352  1
  Dy  Dy17  1  0.000000  0.000000  0.999808  1
  Dy  Dy18  1  0.500000  0.500000  0.999808  1
  Dy  Dy19  1  0.500000  0.500000  0.499352  1
  Tc  Tc20  1  0.500000  0.000000  0.128944  1
  Ir  Ir21  1  0.500000  0.000000  0.623511  1
  Ir  Ir22  1  0.000000  0.500000  0.878418  1
  Ir  Ir23  1  0.000000  0.500000  0.379474  1
  Pt  Pt24  1  0.846663  0.154182  0.249895  1
  Pt  Pt25  1  0.847326  0.845655  0.749621  1
  Pt  Pt26  1  0.152674  0.154345  0.749621  1
  Pt  Pt27  1  0.153337  0.845818  0.249895  1
  Pt  Pt28  1  0.654345  0.347326  0.749621  1
  Pt  Pt29  1  0.654182  0.653337  0.249895  1
  Pt  Pt30  1  0.345818  0.346663  0.249895  1
  Pt  Pt31  1  0.345655  0.652674  0.749621  1
