# generated using pymatgen
data_Dy5Er4Tm7(Ga3Co)2
_symmetry_space_group_name_H-M   'P 1'
_cell_length_a   9.90989800
_cell_length_b   9.90989887
_cell_length_c   6.92023300
_cell_angle_alpha   90.00000000
_cell_angle_beta   90.00000000
_cell_angle_gamma   119.99999042
_symmetry_Int_Tables_number   1
_chemical_formula_structural   Dy5Er4Tm7(Ga3Co)2
_chemical_formula_sum   'Dy5 Er4 Tm7 Ga6 Co2'
_cell_volume   588.55871900
_cell_formula_units_Z   1
loop_
 _symmetry_equiv_pos_site_id
 _symmetry_equiv_pos_as_xyz
  1  'x, y, z'
loop_
 _atom_site_type_symbol
 _atom_site_label
 _atom_site_symmetry_multiplicity
 _atom_site_fract_x
 _atom_site_fract_y
 _atom_site_fract_z
 _atom_site_occupancy
  Dy  Dy0  1  0.536143  0.463857  0.708170  1
  Dy  Dy1  1  0.927714  0.463857  0.708170  1
  Dy  Dy2  1  0.536143  0.072286  0.708170  1
  Dy  Dy3  1  0.000000  0.000000  0.232066  1
  Dy  Dy4  1  0.000000  0.000000  0.731186  1
  Er  Er5  1  0.666667  0.333333  0.326877  1
  Er  Er6  1  0.463043  0.536957  0.207655  1
  Er  Er7  1  0.073913  0.536957  0.207655  1
  Er  Er8  1  0.463043  0.926087  0.207655  1
  Tm  Tm9  1  0.173669  0.826331  0.511910  1
  Tm  Tm10  1  0.652660  0.826331  0.511910  1
  Tm  Tm11  1  0.173669  0.347340  0.511910  1
  Tm  Tm12  1  0.826868  0.173132  0.011718  1
  Tm  Tm13  1  0.346263  0.173132  0.011718  1
  Tm  Tm14  1  0.826868  0.653737  0.011718  1
  Tm  Tm15  1  0.333333  0.666667  0.826026  1
  Ga  Ga16  1  0.163763  0.836237  0.957860  1
  Ga  Ga17  1  0.672475  0.836237  0.957860  1
  Ga  Ga18  1  0.163763  0.327525  0.957860  1
  Ga  Ga19  1  0.837014  0.162986  0.458311  1
  Ga  Ga20  1  0.325971  0.162986  0.458311  1
  Ga  Ga21  1  0.837014  0.674029  0.458311  1
  Co  Co22  1  0.333333  0.666667  0.445142  1
  Co  Co23  1  0.666667  0.333333  0.946671  1
