# generated using pymatgen
data_LuSc4Fe(TeO6)3
_symmetry_space_group_name_H-M   'P 1'
_cell_length_a   8.83524500
_cell_length_b   8.84488020
_cell_length_c   4.88457200
_cell_angle_alpha   89.69115653
_cell_angle_beta   90.00000000
_cell_angle_gamma   119.96397475
_symmetry_Int_Tables_number   1
_chemical_formula_structural   LuSc4Fe(TeO6)3
_chemical_formula_sum   'Lu1 Sc4 Fe1 Te3 O18'
_cell_volume   330.68678021
_cell_formula_units_Z   1
loop_
 _symmetry_equiv_pos_site_id
 _symmetry_equiv_pos_as_xyz
  1  'x, y, z'
loop_
 _atom_site_type_symbol
 _atom_site_label
 _atom_site_symmetry_multiplicity
 _atom_site_fract_x
 _atom_site_fract_y
 _atom_site_fract_z
 _atom_site_occupancy
  Lu  Lu0  1  0.628157  0.000000  0.000000  1
  Sc  Sc1  1  0.708867  0.708609  0.499949  1
  Sc  Sc2  1  0.999871  0.628730  0.999197  1
  Sc  Sc3  1  0.371141  0.371270  0.000803  1
  Sc  Sc4  1  0.000258  0.291391  0.500051  1
  Fe  Fe5  1  0.298386  0.000000  0.500000  1
  Te  Te6  1  0.007270  0.000000  0.000000  1
  Te  Te7  1  0.663420  0.333738  0.496800  1
  Te  Te8  1  0.329681  0.666262  0.503200  1
  O  O9  1  0.886234  0.087976  0.223948  1
  O  O10  1  0.455770  0.583112  0.731248  1
  O  O11  1  0.222421  0.772020  0.279436  1
  O  O12  1  0.768895  0.225829  0.714357  1
  O  O13  1  0.543066  0.774171  0.285643  1
  O  O14  1  0.230829  0.456471  0.279458  1
  O  O15  1  0.120310  0.541338  0.726232  1
  O  O16  1  0.578972  0.458662  0.273768  1
  O  O17  1  0.535297  0.123751  0.282018  1
  O  O18  1  0.872658  0.416888  0.268752  1
  O  O19  1  0.450400  0.227980  0.720564  1
  O  O20  1  0.214508  0.115177  0.228759  1
  O  O21  1  0.906945  0.783797  0.207553  1
  O  O22  1  0.123149  0.216203  0.792447  1
  O  O23  1  0.798260  0.912024  0.776052  1
  O  O24  1  0.099332  0.884823  0.771241  1
  O  O25  1  0.411546  0.876249  0.717982  1
  O  O26  1  0.774358  0.543529  0.720542  1
