# generated using pymatgen
data_Ta3Be2CoIr4
_symmetry_space_group_name_H-M   'P 1'
_cell_length_a   8.93260800
_cell_length_b   8.93260800
_cell_length_c   3.46128600
_cell_angle_alpha   90.00000000
_cell_angle_beta   90.00000000
_cell_angle_gamma   90.00000000
_symmetry_Int_Tables_number   1
_chemical_formula_structural   Ta3Be2CoIr4
_chemical_formula_sum   'Ta6 Be4 Co2 Ir8'
_cell_volume   276.18115231
_cell_formula_units_Z   2
loop_
 _symmetry_equiv_pos_site_id
 _symmetry_equiv_pos_as_xyz
  1  'x, y, z'
loop_
 _atom_site_type_symbol
 _atom_site_label
 _atom_site_symmetry_multiplicity
 _atom_site_fract_x
 _atom_site_fract_y
 _atom_site_fract_z
 _atom_site_occupancy
  Ta  Ta0  1  0.500000  0.500000  0.000000  1
  Ta  Ta1  1  0.000000  0.000000  0.000000  1
  Ta  Ta2  1  0.824487  0.324487  0.000000  1
  Ta  Ta3  1  0.175513  0.675513  0.000000  1
  Ta  Ta4  1  0.324487  0.175513  0.000000  1
  Ta  Ta5  1  0.675513  0.824487  0.000000  1
  Be  Be6  1  0.609280  0.109280  0.000000  1
  Be  Be7  1  0.390720  0.890720  0.000000  1
  Be  Be8  1  0.109280  0.390720  0.000000  1
  Be  Be9  1  0.890720  0.609280  0.000000  1
  Co  Co10  1  0.500000  0.000000  0.500000  1
  Co  Co11  1  0.000000  0.500000  0.500000  1
  Ir  Ir12  1  0.718646  0.565578  0.500000  1
  Ir  Ir13  1  0.281354  0.434422  0.500000  1
  Ir  Ir14  1  0.218646  0.934422  0.500000  1
  Ir  Ir15  1  0.781354  0.065578  0.500000  1
  Ir  Ir16  1  0.434422  0.718646  0.500000  1
  Ir  Ir17  1  0.565578  0.281354  0.500000  1
  Ir  Ir18  1  0.065578  0.218646  0.500000  1
  Ir  Ir19  1  0.934422  0.781354  0.500000  1
