# generated using pymatgen
data_Er4Tm(SiBi)2
_symmetry_space_group_name_H-M   'P 1'
_cell_length_a   8.57443892
_cell_length_b   8.57444000
_cell_length_c   7.84816200
_cell_angle_alpha   90.00000000
_cell_angle_beta   90.00000000
_cell_angle_gamma   125.66183497
_symmetry_Int_Tables_number   1
_chemical_formula_structural   Er4Tm(SiBi)2
_chemical_formula_sum   'Er8 Tm2 Si4 Bi4'
_cell_volume   468.80028120
_cell_formula_units_Z   2
loop_
 _symmetry_equiv_pos_site_id
 _symmetry_equiv_pos_as_xyz
  1  'x, y, z'
loop_
 _atom_site_type_symbol
 _atom_site_label
 _atom_site_symmetry_multiplicity
 _atom_site_fract_x
 _atom_site_fract_y
 _atom_site_fract_z
 _atom_site_occupancy
  Er  Er0  1  0.543315  0.787136  0.164951  1
  Er  Er1  1  0.287136  0.043315  0.335049  1
  Er  Er2  1  0.212864  0.456685  0.835049  1
  Er  Er3  1  0.956685  0.712864  0.664951  1
  Er  Er4  1  0.712864  0.956685  0.664951  1
  Er  Er5  1  0.456685  0.212864  0.835049  1
  Er  Er6  1  0.787136  0.543315  0.164951  1
  Er  Er7  1  0.043315  0.287136  0.335049  1
  Tm  Tm8  1  0.500000  0.500000  0.500000  1
  Tm  Tm9  1  0.000000  0.000000  0.000000  1
  Si  Si10  1  0.633773  0.633773  0.867396  1
  Si  Si11  1  0.133773  0.133773  0.632604  1
  Si  Si12  1  0.866227  0.866227  0.367396  1
  Si  Si13  1  0.366227  0.366227  0.132604  1
  Bi  Bi14  1  0.292590  0.707410  0.500000  1
  Bi  Bi15  1  0.207410  0.792590  0.000000  1
  Bi  Bi16  1  0.707410  0.292590  0.500000  1
  Bi  Bi17  1  0.792590  0.207410  0.000000  1
