# generated using pymatgen
data_HoLu3CoB14
_symmetry_space_group_name_H-M   'P 1'
_cell_length_a   7.15426500
_cell_length_b   7.15004143
_cell_length_c   7.40910300
_cell_angle_alpha   90.00000000
_cell_angle_beta   90.00000000
_cell_angle_gamma   89.79801510
_symmetry_Int_Tables_number   1
_chemical_formula_structural   HoLu3CoB14
_chemical_formula_sum   'Ho2 Lu6 Co2 B28'
_cell_volume   378.99764784
_cell_formula_units_Z   2
loop_
 _symmetry_equiv_pos_site_id
 _symmetry_equiv_pos_as_xyz
  1  'x, y, z'
loop_
 _atom_site_type_symbol
 _atom_site_label
 _atom_site_symmetry_multiplicity
 _atom_site_fract_x
 _atom_site_fract_y
 _atom_site_fract_z
 _atom_site_occupancy
  Ho  Ho0  1  0.830466  0.693418  0.500000  1
  Ho  Ho1  1  0.169534  0.306582  0.500000  1
  Lu  Lu2  1  0.193000  0.330716  0.000000  1
  Lu  Lu3  1  0.668880  0.192640  0.000000  1
  Lu  Lu4  1  0.331120  0.807360  0.000000  1
  Lu  Lu5  1  0.692237  0.168868  0.500000  1
  Lu  Lu6  1  0.307763  0.831132  0.500000  1
  Lu  Lu7  1  0.807000  0.669284  0.000000  1
  Co  Co8  1  0.000000  0.000000  0.000000  1
  Co  Co9  1  0.500000  0.500000  0.500000  1
  B  B10  1  0.175501  0.038258  0.229715  1
  B  B11  1  0.960762  0.175368  0.229222  1
  B  B12  1  0.039238  0.824632  0.229222  1
  B  B13  1  0.675276  0.460680  0.268511  1
  B  B14  1  0.324724  0.539320  0.268511  1
  B  B15  1  0.824499  0.961742  0.229715  1
  B  B16  1  0.537908  0.675441  0.268786  1
  B  B17  1  0.462092  0.324559  0.268786  1
  B  B18  1  0.824499  0.961742  0.770285  1
  B  B19  1  0.039238  0.824632  0.770778  1
  B  B20  1  0.960762  0.175368  0.770778  1
  B  B21  1  0.324724  0.539320  0.731489  1
  B  B22  1  0.675276  0.460680  0.731489  1
  B  B23  1  0.175501  0.038258  0.770285  1
  B  B24  1  0.462092  0.324559  0.731214  1
  B  B25  1  0.537908  0.675441  0.731214  1
  B  B26  1  0.087883  0.587546  0.248058  1
  B  B27  1  0.412244  0.087760  0.249502  1
  B  B28  1  0.587756  0.912240  0.249502  1
  B  B29  1  0.912117  0.412454  0.248058  1
  B  B30  1  0.912117  0.412454  0.751942  1
  B  B31  1  0.587756  0.912240  0.750498  1
  B  B32  1  0.412244  0.087760  0.750498  1
  B  B33  1  0.087883  0.587546  0.751942  1
  B  B34  1  0.000000  0.000000  0.387980  1
  B  B35  1  0.500000  0.500000  0.111016  1
  B  B36  1  0.000000  0.000000  0.612020  1
  B  B37  1  0.500000  0.500000  0.888984  1
