# generated using pymatgen
data_NdTh2Zn2GaPt3
_symmetry_space_group_name_H-M   'P 1'
_cell_length_a   7.47067758
_cell_length_b   7.42421540
_cell_length_c   3.99978300
_cell_angle_alpha   90.00000000
_cell_angle_beta   90.00000000
_cell_angle_gamma   119.52904224
_symmetry_Int_Tables_number   1
_chemical_formula_structural   NdTh2Zn2GaPt3
_chemical_formula_sum   'Nd1 Th2 Zn2 Ga1 Pt3'
_cell_volume   193.02748050
_cell_formula_units_Z   1
loop_
 _symmetry_equiv_pos_site_id
 _symmetry_equiv_pos_as_xyz
  1  'x, y, z'
loop_
 _atom_site_type_symbol
 _atom_site_label
 _atom_site_symmetry_multiplicity
 _atom_site_fract_x
 _atom_site_fract_y
 _atom_site_fract_z
 _atom_site_occupancy
  Nd  Nd0  1  0.407694  0.406076  0.500000  1
  Th  Th1  1  0.589455  0.998832  0.500000  1
  Th  Th2  1  0.000486  0.593734  0.500000  1
  Zn  Zn3  1  0.749991  0.750515  0.000000  1
  Zn  Zn4  1  0.242516  0.004790  0.000000  1
  Ga  Ga5  1  0.006883  0.239452  0.000000  1
  Pt  Pt6  1  0.681955  0.330934  0.000000  1
  Pt  Pt7  1  0.328610  0.676063  0.000000  1
  Pt  Pt8  1  0.992409  0.999605  0.500000  1
