# generated using pymatgen
data_Ho4Er6InPb5
_symmetry_space_group_name_H-M   'P 1'
_cell_length_a   8.98877487
_cell_length_b   8.98877436
_cell_length_c   6.62411200
_cell_angle_alpha   90.00000000
_cell_angle_beta   90.00000000
_cell_angle_gamma   120.12111576
_symmetry_Int_Tables_number   1
_chemical_formula_structural   Ho4Er6InPb5
_chemical_formula_sum   'Ho4 Er6 In1 Pb5'
_cell_volume   462.94346106
_cell_formula_units_Z   1
loop_
 _symmetry_equiv_pos_site_id
 _symmetry_equiv_pos_as_xyz
  1  'x, y, z'
loop_
 _atom_site_type_symbol
 _atom_site_label
 _atom_site_symmetry_multiplicity
 _atom_site_fract_x
 _atom_site_fract_y
 _atom_site_fract_z
 _atom_site_occupancy
  Ho  Ho0  1  0.762103  0.762103  0.750000  1
  Ho  Ho1  1  0.236708  0.236708  0.250000  1
  Ho  Ho2  1  0.761406  0.999187  0.250000  1
  Ho  Ho3  1  0.999187  0.761406  0.250000  1
  Er  Er4  1  0.663123  0.334047  0.998260  1
  Er  Er5  1  0.334047  0.663123  0.998260  1
  Er  Er6  1  0.334047  0.663123  0.501740  1
  Er  Er7  1  0.663123  0.334047  0.501740  1
  Er  Er8  1  0.239499  0.005581  0.750000  1
  Er  Er9  1  0.005581  0.239499  0.750000  1
  In  In10  1  0.397987  0.397987  0.750000  1
  Pb  Pb11  1  0.605991  0.001275  0.750000  1
  Pb  Pb12  1  0.001275  0.605991  0.750000  1
  Pb  Pb13  1  0.603695  0.603695  0.250000  1
  Pb  Pb14  1  0.394095  0.998131  0.250000  1
  Pb  Pb15  1  0.998131  0.394095  0.250000  1
