# generated using pymatgen
data_Y4Si4RuRh3
_symmetry_space_group_name_H-M   'P 1'
_cell_length_a   4.28203600
_cell_length_b   6.91940626
_cell_length_c   7.35026305
_cell_angle_alpha   90.18847694
_cell_angle_beta   90.00000000
_cell_angle_gamma   90.00000000
_symmetry_Int_Tables_number   1
_chemical_formula_structural   Y4Si4RuRh3
_chemical_formula_sum   'Y4 Si4 Ru1 Rh3'
_cell_volume   217.78084385
_cell_formula_units_Z   1
loop_
 _symmetry_equiv_pos_site_id
 _symmetry_equiv_pos_as_xyz
  1  'x, y, z'
loop_
 _atom_site_type_symbol
 _atom_site_label
 _atom_site_symmetry_multiplicity
 _atom_site_fract_x
 _atom_site_fract_y
 _atom_site_fract_z
 _atom_site_occupancy
  Y  Y0  1  0.750000  0.502477  0.312659  1
  Y  Y1  1  0.250000  0.992860  0.810718  1
  Y  Y2  1  0.750000  0.005032  0.190258  1
  Y  Y3  1  0.250000  0.498219  0.687007  1
  Si  Si4  1  0.250000  0.300977  0.102922  1
  Si  Si5  1  0.250000  0.796550  0.388249  1
  Si  Si6  1  0.750000  0.700512  0.901597  1
  Si  Si7  1  0.750000  0.202189  0.606949  1
  Ru  Ru8  1  0.250000  0.653663  0.067161  1
  Rh  Rh9  1  0.250000  0.154822  0.432743  1
  Rh  Rh10  1  0.750000  0.847075  0.568014  1
  Rh  Rh11  1  0.750000  0.345624  0.931723  1
