# generated using pymatgen
data_Er12Co2Ni3Bi
_symmetry_space_group_name_H-M   'P 1'
_cell_length_a   8.24529801
_cell_length_b   8.24529742
_cell_length_c   8.24529816
_cell_angle_alpha   109.39425864
_cell_angle_beta   111.21138896
_cell_angle_gamma   107.82576729
_symmetry_Int_Tables_number   1
_chemical_formula_structural   Er12Co2Ni3Bi
_chemical_formula_sum   'Er12 Co2 Ni3 Bi1'
_cell_volume   431.13845069
_cell_formula_units_Z   1
loop_
 _symmetry_equiv_pos_site_id
 _symmetry_equiv_pos_as_xyz
  1  'x, y, z'
loop_
 _atom_site_type_symbol
 _atom_site_label
 _atom_site_symmetry_multiplicity
 _atom_site_fract_x
 _atom_site_fract_y
 _atom_site_fract_z
 _atom_site_occupancy
  Er  Er0  1  0.288553  0.180678  0.469231  1
  Er  Er1  1  0.711447  0.819322  0.530769  1
  Er  Er2  1  0.288553  0.819322  0.107875  1
  Er  Er3  1  0.711447  0.180678  0.892125  1
  Er  Er4  1  0.624122  0.314783  0.309338  1
  Er  Er5  1  0.375878  0.685217  0.690662  1
  Er  Er6  1  0.005446  0.314783  0.690662  1
  Er  Er7  1  0.994554  0.685217  0.309338  1
  Er  Er8  1  0.210562  0.405614  0.195052  1
  Er  Er9  1  0.789438  0.594386  0.804948  1
  Er  Er10  1  0.210562  0.015511  0.804948  1
  Er  Er11  1  0.789438  0.984489  0.195052  1
  Co  Co12  1  0.385951  0.885951  0.500000  1
  Co  Co13  1  0.614049  0.114049  0.500000  1
  Ni  Ni14  1  0.000000  0.368078  0.368078  1
  Ni  Ni15  1  0.000000  0.631922  0.631922  1
  Ni  Ni16  1  0.000000  0.000000  0.000000  1
  Bi  Bi17  1  0.500000  0.500000  0.000000  1
