# generated using pymatgen
data_ErCrCo3P3Rh
_symmetry_space_group_name_H-M   'P 1'
_cell_length_a   3.67294200
_cell_length_b   10.45752800
_cell_length_c   12.04270400
_cell_angle_alpha   90.00000000
_cell_angle_beta   90.00000000
_cell_angle_gamma   90.00000000
_symmetry_Int_Tables_number   1
_chemical_formula_structural   ErCrCo3P3Rh
_chemical_formula_sum   'Er4 Cr4 Co12 P12 Rh4'
_cell_volume   462.55898179
_cell_formula_units_Z   4
loop_
 _symmetry_equiv_pos_site_id
 _symmetry_equiv_pos_as_xyz
  1  'x, y, z'
loop_
 _atom_site_type_symbol
 _atom_site_label
 _atom_site_symmetry_multiplicity
 _atom_site_fract_x
 _atom_site_fract_y
 _atom_site_fract_z
 _atom_site_occupancy
  Er  Er0  1  0.250000  0.583836  0.710999  1
  Er  Er1  1  0.250000  0.916164  0.210999  1
  Er  Er2  1  0.750000  0.416164  0.289001  1
  Er  Er3  1  0.750000  0.083836  0.789001  1
  Cr  Cr4  1  0.250000  0.705075  0.988675  1
  Cr  Cr5  1  0.250000  0.794925  0.488675  1
  Cr  Cr6  1  0.750000  0.294925  0.011325  1
  Cr  Cr7  1  0.750000  0.205075  0.511325  1
  Co  Co8  1  0.250000  0.222992  0.178370  1
  Co  Co9  1  0.250000  0.277008  0.678370  1
  Co  Co10  1  0.750000  0.777008  0.821630  1
  Co  Co11  1  0.750000  0.722992  0.321630  1
  Co  Co12  1  0.250000  0.884225  0.697011  1
  Co  Co13  1  0.250000  0.615775  0.197011  1
  Co  Co14  1  0.750000  0.115775  0.302989  1
  Co  Co15  1  0.750000  0.384225  0.802989  1
  Co  Co16  1  0.250000  0.464840  0.933423  1
  Co  Co17  1  0.250000  0.035160  0.433423  1
  Co  Co18  1  0.750000  0.535160  0.066577  1
  Co  Co19  1  0.750000  0.964840  0.566577  1
  P  P20  1  0.250000  0.419776  0.111620  1
  P  P21  1  0.250000  0.080224  0.611620  1
  P  P22  1  0.750000  0.580224  0.888380  1
  P  P23  1  0.750000  0.919776  0.388380  1
  P  P24  1  0.250000  0.274289  0.863312  1
  P  P25  1  0.250000  0.225711  0.363312  1
  P  P26  1  0.750000  0.725711  0.136688  1
  P  P27  1  0.750000  0.774289  0.636688  1
  P  P28  1  0.250000  0.602942  0.380977  1
  P  P29  1  0.250000  0.897058  0.880977  1
  P  P30  1  0.750000  0.397058  0.619023  1
  P  P31  1  0.750000  0.102942  0.119023  1
  Rh  Rh32  1  0.250000  0.402136  0.484055  1
  Rh  Rh33  1  0.250000  0.097864  0.984055  1
  Rh  Rh34  1  0.750000  0.597864  0.515945  1
  Rh  Rh35  1  0.750000  0.902136  0.015945  1
