# generated using pymatgen
data_HfSc6Sb5Ru12
_symmetry_space_group_name_H-M   'P 1'
_cell_length_a   4.54019201
_cell_length_b   6.40255402
_cell_length_c   13.59764800
_cell_angle_alpha   89.99952237
_cell_angle_beta   89.99889266
_cell_angle_gamma   89.99107975
_symmetry_Int_Tables_number   1
_chemical_formula_structural   HfSc6Sb5Ru12
_chemical_formula_sum   'Hf1 Sc6 Sb5 Ru12'
_cell_volume   395.26764021
_cell_formula_units_Z   1
loop_
 _symmetry_equiv_pos_site_id
 _symmetry_equiv_pos_as_xyz
  1  'x, y, z'
loop_
 _atom_site_type_symbol
 _atom_site_label
 _atom_site_symmetry_multiplicity
 _atom_site_fract_x
 _atom_site_fract_y
 _atom_site_fract_z
 _atom_site_occupancy
  Hf  Hf0  1  0.000003  0.499989  0.999995  1
  Sc  Sc1  1  0.999988  0.999971  0.000013  1
  Sc  Sc2  1  0.499883  0.499995  0.168497  1
  Sc  Sc3  1  0.999857  0.000033  0.333045  1
  Sc  Sc4  1  0.499994  0.499982  0.500013  1
  Sc  Sc5  1  0.000144  0.000005  0.666949  1
  Sc  Sc6  1  0.500125  0.500006  0.831500  1
  Sb  Sb7  1  0.499848  0.999998  0.165663  1
  Sb  Sb8  1  0.999846  0.500016  0.332648  1
  Sb  Sb9  1  0.500001  0.999994  0.500000  1
  Sb  Sb10  1  0.000155  0.500004  0.667353  1
  Sb  Sb11  1  0.500154  0.000007  0.834333  1
  Ru  Ru12  1  0.500076  0.251800  0.999999  1
  Ru  Ru13  1  0.499924  0.748187  0.999995  1
  Ru  Ru14  1  0.999852  0.250999  0.166612  1
  Ru  Ru15  1  0.999893  0.749003  0.166615  1
  Ru  Ru16  1  0.499852  0.249389  0.334387  1
  Ru  Ru17  1  0.499860  0.750613  0.334363  1
  Ru  Ru18  1  0.000013  0.249873  0.500000  1
  Ru  Ru19  1  0.999987  0.750127  0.500000  1
  Ru  Ru20  1  0.500133  0.249384  0.665628  1
  Ru  Ru21  1  0.500162  0.750621  0.665626  1
  Ru  Ru22  1  0.000109  0.250998  0.833383  1
  Ru  Ru23  1  0.000153  0.749007  0.833383  1
