# generated using pymatgen
data_Tm6Zn16PPd7
_symmetry_space_group_name_H-M   'P 1'
_cell_length_a   9.03939687
_cell_length_b   9.03939742
_cell_length_c   9.03939600
_cell_angle_alpha   59.99999787
_cell_angle_beta   59.99999587
_cell_angle_gamma   59.99999924
_symmetry_Int_Tables_number   1
_chemical_formula_structural   Tm6Zn16PPd7
_chemical_formula_sum   'Tm6 Zn16 P1 Pd7'
_cell_volume   522.27991713
_cell_formula_units_Z   1
loop_
 _symmetry_equiv_pos_site_id
 _symmetry_equiv_pos_as_xyz
  1  'x, y, z'
loop_
 _atom_site_type_symbol
 _atom_site_label
 _atom_site_symmetry_multiplicity
 _atom_site_fract_x
 _atom_site_fract_y
 _atom_site_fract_z
 _atom_site_occupancy
  Tm  Tm0  1  0.712881  0.287119  0.287119  1
  Tm  Tm1  1  0.287119  0.712881  0.712881  1
  Tm  Tm2  1  0.287119  0.712881  0.287119  1
  Tm  Tm3  1  0.712881  0.287119  0.712881  1
  Tm  Tm4  1  0.287119  0.287119  0.712881  1
  Tm  Tm5  1  0.712881  0.712881  0.287119  1
  Zn  Zn6  1  0.121673  0.121673  0.121673  1
  Zn  Zn7  1  0.878327  0.878327  0.878327  1
  Zn  Zn8  1  0.121673  0.121673  0.634981  1
  Zn  Zn9  1  0.121673  0.634981  0.121673  1
  Zn  Zn10  1  0.878327  0.878327  0.365019  1
  Zn  Zn11  1  0.878327  0.365019  0.878327  1
  Zn  Zn12  1  0.634981  0.121673  0.121673  1
  Zn  Zn13  1  0.365019  0.878327  0.878327  1
  Zn  Zn14  1  0.333152  0.333152  0.333152  1
  Zn  Zn15  1  0.666848  0.666848  0.666848  1
  Zn  Zn16  1  0.333152  0.333152  0.000545  1
  Zn  Zn17  1  0.333152  0.000545  0.333152  1
  Zn  Zn18  1  0.666848  0.666848  0.999455  1
  Zn  Zn19  1  0.666848  0.999455  0.666848  1
  Zn  Zn20  1  0.000545  0.333152  0.333152  1
  Zn  Zn21  1  0.999455  0.666848  0.666848  1
  P  P22  1  0.500000  0.500000  0.500000  1
  Pd  Pd23  1  0.500000  0.000000  0.000000  1
  Pd  Pd24  1  0.000000  0.500000  0.500000  1
  Pd  Pd25  1  0.000000  0.500000  0.000000  1
  Pd  Pd26  1  0.500000  0.000000  0.500000  1
  Pd  Pd27  1  0.000000  0.000000  0.500000  1
  Pd  Pd28  1  0.500000  0.500000  0.000000  1
  Pd  Pd29  1  0.000000  0.000000  0.000000  1
