# generated using pymatgen
data_Lu4Sc16(Bi3Sb)3
_symmetry_space_group_name_H-M   'P 1'
_cell_length_a   7.78980327
_cell_length_b   9.00084900
_cell_length_c   11.44288604
_cell_angle_alpha   90.00000000
_cell_angle_beta   89.96266504
_cell_angle_gamma   90.00000000
_symmetry_Int_Tables_number   1
_chemical_formula_structural   Lu4Sc16(Bi3Sb)3
_chemical_formula_sum   'Lu4 Sc16 Bi9 Sb3'
_cell_volume   802.31598736
_cell_formula_units_Z   1
loop_
 _symmetry_equiv_pos_site_id
 _symmetry_equiv_pos_as_xyz
  1  'x, y, z'
loop_
 _atom_site_type_symbol
 _atom_site_label
 _atom_site_symmetry_multiplicity
 _atom_site_fract_x
 _atom_site_fract_y
 _atom_site_fract_z
 _atom_site_occupancy
  Lu  Lu0  1  0.188689  0.250000  0.779032  1
  Lu  Lu1  1  0.815944  0.750000  0.217829  1
  Lu  Lu2  1  0.316362  0.750000  0.282311  1
  Lu  Lu3  1  0.682156  0.250000  0.715589  1
  Sc  Sc4  1  0.023226  0.250000  0.510331  1
  Sc  Sc5  1  0.975725  0.750000  0.489540  1
  Sc  Sc6  1  0.474731  0.750000  0.011002  1
  Sc  Sc7  1  0.519891  0.250000  0.989562  1
  Sc  Sc8  1  0.352812  0.250000  0.284269  1
  Sc  Sc9  1  0.647098  0.750000  0.715143  1
  Sc  Sc10  1  0.146793  0.750000  0.784402  1
  Sc  Sc11  1  0.851464  0.250000  0.219460  1
  Sc  Sc12  1  0.193395  0.063515  0.060528  1
  Sc  Sc13  1  0.808699  0.929931  0.940689  1
  Sc  Sc14  1  0.310070  0.933935  0.558890  1
  Sc  Sc15  1  0.808699  0.570069  0.940689  1
  Sc  Sc16  1  0.690067  0.065913  0.441201  1
  Sc  Sc17  1  0.193395  0.436485  0.060528  1
  Sc  Sc18  1  0.690067  0.434087  0.441201  1
  Sc  Sc19  1  0.310070  0.566065  0.558890  1
  Bi  Bi20  1  0.904027  0.250000  0.962894  1
  Bi  Bi21  1  0.064100  0.007811  0.327088  1
  Bi  Bi22  1  0.936124  0.992028  0.673182  1
  Bi  Bi23  1  0.436520  0.991255  0.826875  1
  Bi  Bi24  1  0.936124  0.507972  0.673182  1
  Bi  Bi25  1  0.564509  0.008321  0.173303  1
  Bi  Bi26  1  0.064100  0.492189  0.327088  1
  Bi  Bi27  1  0.564509  0.491679  0.173303  1
  Bi  Bi28  1  0.436520  0.508745  0.826875  1
  Sb  Sb29  1  0.402879  0.250000  0.535288  1
  Sb  Sb30  1  0.595792  0.750000  0.463767  1
  Sb  Sb31  1  0.095444  0.750000  0.036067  1
