# generated using pymatgen
data_Nb6ZnAu3N2
_symmetry_space_group_name_H-M   'P 1'
_cell_length_a   7.15155005
_cell_length_b   7.14237200
_cell_length_c   7.13930905
_cell_angle_alpha   90.00000000
_cell_angle_beta   89.98773928
_cell_angle_gamma   90.00000000
_symmetry_Int_Tables_number   1
_chemical_formula_structural   Nb6ZnAu3N2
_chemical_formula_sum   'Nb12 Zn2 Au6 N4'
_cell_volume   364.66897858
_cell_formula_units_Z   2
loop_
 _symmetry_equiv_pos_site_id
 _symmetry_equiv_pos_as_xyz
  1  'x, y, z'
loop_
 _atom_site_type_symbol
 _atom_site_label
 _atom_site_symmetry_multiplicity
 _atom_site_fract_x
 _atom_site_fract_y
 _atom_site_fract_z
 _atom_site_occupancy
  Nb  Nb0  1  0.788204  0.956481  0.373729  1
  Nb  Nb1  1  0.708446  0.041715  0.876091  1
  Nb  Nb2  1  0.211796  0.456481  0.126271  1
  Nb  Nb3  1  0.291554  0.541715  0.623909  1
  Nb  Nb4  1  0.956572  0.379437  0.787626  1
  Nb  Nb5  1  0.043428  0.879437  0.712374  1
  Nb  Nb6  1  0.459861  0.127729  0.207891  1
  Nb  Nb7  1  0.540139  0.627729  0.292109  1
  Nb  Nb8  1  0.374175  0.788935  0.956810  1
  Nb  Nb9  1  0.874132  0.709496  0.040338  1
  Nb  Nb10  1  0.125868  0.209496  0.459662  1
  Nb  Nb11  1  0.625825  0.288935  0.543190  1
  Zn  Zn12  1  0.933877  0.567442  0.427231  1
  Zn  Zn13  1  0.066123  0.067442  0.072769  1
  Au  Au14  1  0.170139  0.816334  0.312333  1
  Au  Au15  1  0.304933  0.179698  0.827790  1
  Au  Au16  1  0.829861  0.316334  0.187667  1
  Au  Au17  1  0.695067  0.679698  0.672210  1
  Au  Au18  1  0.568606  0.433575  0.934185  1
  Au  Au19  1  0.431394  0.933575  0.565815  1
  N  N20  1  0.873261  0.124185  0.624948  1
  N  N21  1  0.621247  0.874976  0.123852  1
  N  N22  1  0.126739  0.624185  0.875052  1
  N  N23  1  0.378753  0.374976  0.376148  1
