# generated using pymatgen
data_Yb6PuTaO12
_symmetry_space_group_name_H-M   'P 1'
_cell_length_a   5.83019109
_cell_length_b   5.49227110
_cell_length_c   9.62324800
_cell_angle_alpha   55.67453569
_cell_angle_beta   89.77971767
_cell_angle_gamma   89.92826797
_symmetry_Int_Tables_number   1
_chemical_formula_structural   Yb6PuTaO12
_chemical_formula_sum   'Yb6 Pu1 Ta1 O12'
_cell_volume   254.47958752
_cell_formula_units_Z   1
loop_
 _symmetry_equiv_pos_site_id
 _symmetry_equiv_pos_as_xyz
  1  'x, y, z'
loop_
 _atom_site_type_symbol
 _atom_site_label
 _atom_site_symmetry_multiplicity
 _atom_site_fract_x
 _atom_site_fract_y
 _atom_site_fract_z
 _atom_site_occupancy
  Yb  Yb0  1  0.570389  0.240217  0.234215  1
  Yb  Yb1  1  0.059164  0.787625  0.223361  1
  Yb  Yb2  1  0.500000  0.000000  0.000000  1
  Yb  Yb3  1  0.000000  0.000000  0.500000  1
  Yb  Yb4  1  0.940836  0.212375  0.776639  1
  Yb  Yb5  1  0.429611  0.759783  0.765785  1
  Pu  Pu6  1  0.500000  0.500000  0.500000  1
  Ta  Ta7  1  0.000000  0.500000  0.000000  1
  O  O8  1  0.561896  0.404625  0.730428  1
  O  O9  1  0.058865  0.612974  0.765670  1
  O  O10  1  0.438104  0.595375  0.269572  1
  O  O11  1  0.941135  0.387026  0.234330  1
  O  O12  1  0.785552  0.752534  0.415817  1
  O  O13  1  0.287274  0.257224  0.068872  1
  O  O14  1  0.214448  0.247466  0.584183  1
  O  O15  1  0.712726  0.742776  0.931128  1
  O  O16  1  0.179826  0.847247  0.950052  1
  O  O17  1  0.673821  0.142331  0.563981  1
  O  O18  1  0.820174  0.152753  0.049948  1
  O  O19  1  0.326179  0.857669  0.436019  1
