# generated using pymatgen
data_Pm2TiIr3
_symmetry_space_group_name_H-M   'P 1'
_cell_length_a   5.25013555
_cell_length_b   5.25013465
_cell_length_c   5.25013427
_cell_angle_alpha   65.87220451
_cell_angle_beta   65.87221626
_cell_angle_gamma   65.87219399
_symmetry_Int_Tables_number   1
_chemical_formula_structural   Pm2TiIr3
_chemical_formula_sum   'Pm2 Ti1 Ir3'
_cell_volume   115.34750708
_cell_formula_units_Z   1
loop_
 _symmetry_equiv_pos_site_id
 _symmetry_equiv_pos_as_xyz
  1  'x, y, z'
loop_
 _atom_site_type_symbol
 _atom_site_label
 _atom_site_symmetry_multiplicity
 _atom_site_fract_x
 _atom_site_fract_y
 _atom_site_fract_z
 _atom_site_occupancy
  Pm  Pm0  1  0.750479  0.750479  0.750479  1
  Pm  Pm1  1  0.499521  0.499521  0.499521  1
  Ti  Ti2  1  0.125000  0.125000  0.125000  1
  Ir  Ir3  1  0.625000  0.125000  0.125000  1
  Ir  Ir4  1  0.125000  0.625000  0.125000  1
  Ir  Ir5  1  0.125000  0.125000  0.625000  1
