# generated using pymatgen
data_La6TlInI6
_symmetry_space_group_name_H-M   'P 1'
_cell_length_a   11.09822124
_cell_length_b   11.27022243
_cell_length_c   11.27022200
_cell_angle_alpha   110.05919160
_cell_angle_beta   109.48717191
_cell_angle_gamma   109.48717183
_symmetry_Int_Tables_number   1
_chemical_formula_structural   La6TlInI6
_chemical_formula_sum   'La12 Tl2 In2 I12'
_cell_volume   1076.75827645
_cell_formula_units_Z   2
loop_
 _symmetry_equiv_pos_site_id
 _symmetry_equiv_pos_as_xyz
  1  'x, y, z'
loop_
 _atom_site_type_symbol
 _atom_site_label
 _atom_site_symmetry_multiplicity
 _atom_site_fract_x
 _atom_site_fract_y
 _atom_site_fract_z
 _atom_site_occupancy
  La  La0  1  0.013173  0.756585  0.006598  1
  La  La1  1  0.493718  0.249317  0.007085  1
  La  La2  1  0.255602  0.506515  0.013304  1
  La  La3  1  0.486829  0.993398  0.243404  1
  La  La4  1  0.255608  0.249070  0.242315  1
  La  La5  1  0.006294  0.513363  0.255643  1
  La  La6  1  0.749997  0.743214  0.256776  1
  La  La7  1  0.493723  0.744368  0.486631  1
  La  La8  1  0.244408  0.986710  0.493487  1
  La  La9  1  0.750002  0.506773  0.493220  1
  La  La10  1  0.244394  0.757681  0.750920  1
  La  La11  1  0.006282  0.992916  0.750675  1
  Tl  Tl12  1  0.499475  0.499765  0.249733  1
  Tl  Tl13  1  0.000543  0.750278  0.500268  1
  In  In14  1  0.249982  0.999874  0.000104  1
  In  In15  1  0.249952  0.750100  0.249868  1
  I  I16  1  0.758604  0.243501  0.250928  1
  I  I17  1  0.992491  0.006869  0.250638  1
  I  I18  1  0.758606  0.015117  0.507673  1
  I  I19  1  0.250004  0.493387  0.506611  1
  I  I20  1  0.507515  0.258159  0.514372  1
  I  I21  1  0.992493  0.485634  0.741848  1
  I  I22  1  0.250006  0.256630  0.743382  1
  I  I23  1  0.741402  0.749079  0.756504  1
  I  I24  1  0.516158  0.008084  0.758072  1
  I  I25  1  0.741389  0.492324  0.984888  1
  I  I26  1  0.983840  0.241929  0.991918  1
  I  I27  1  0.507510  0.749362  0.993138  1
