# generated using pymatgen
data_Rb8Tb3PrBr20
_symmetry_space_group_name_H-M   'P 1'
_cell_length_a   8.82328264
_cell_length_b   9.28717000
_cell_length_c   14.15476115
_cell_angle_alpha   90.00000000
_cell_angle_beta   90.42471282
_cell_angle_gamma   90.00000000
_symmetry_Int_Tables_number   1
_chemical_formula_structural   Rb8Tb3PrBr20
_chemical_formula_sum   'Rb8 Tb3 Pr1 Br20'
_cell_volume   1159.85633963
_cell_formula_units_Z   1
loop_
 _symmetry_equiv_pos_site_id
 _symmetry_equiv_pos_as_xyz
  1  'x, y, z'
loop_
 _atom_site_type_symbol
 _atom_site_label
 _atom_site_symmetry_multiplicity
 _atom_site_fract_x
 _atom_site_fract_y
 _atom_site_fract_z
 _atom_site_occupancy
  Rb  Rb0  1  0.944641  0.004320  0.826014  1
  Rb  Rb1  1  0.055938  0.997568  0.173915  1
  Rb  Rb2  1  0.443605  0.997021  0.671023  1
  Rb  Rb3  1  0.055938  0.502432  0.173915  1
  Rb  Rb4  1  0.556077  0.003823  0.328880  1
  Rb  Rb5  1  0.944641  0.495680  0.826014  1
  Rb  Rb6  1  0.556077  0.496177  0.328880  1
  Rb  Rb7  1  0.443605  0.502979  0.671023  1
  Tb  Tb8  1  0.928718  0.750000  0.503488  1
  Tb  Tb9  1  0.070575  0.250000  0.496611  1
  Tb  Tb10  1  0.426244  0.250000  0.996140  1
  Pr  Pr11  1  0.573785  0.750000  0.004951  1
  Br  Br12  1  0.112632  0.750000  0.670296  1
  Br  Br13  1  0.887157  0.250000  0.329687  1
  Br  Br14  1  0.611937  0.250000  0.830879  1
  Br  Br15  1  0.379635  0.750000  0.175504  1
  Br  Br16  1  0.841692  0.043699  0.568685  1
  Br  Br17  1  0.157448  0.956493  0.431676  1
  Br  Br18  1  0.339221  0.962353  0.927275  1
  Br  Br19  1  0.157448  0.543507  0.431676  1
  Br  Br20  1  0.660199  0.049442  0.072608  1
  Br  Br21  1  0.841692  0.456301  0.568685  1
  Br  Br22  1  0.660199  0.450558  0.072608  1
  Br  Br23  1  0.339221  0.537647  0.927275  1
  Br  Br24  1  0.600996  0.750000  0.512939  1
  Br  Br25  1  0.398553  0.250000  0.486075  1
  Br  Br26  1  0.097186  0.250000  0.987654  1
  Br  Br27  1  0.912390  0.750000  0.011958  1
  Br  Br28  1  0.654735  0.750000  0.801667  1
  Br  Br29  1  0.348121  0.250000  0.192596  1
  Br  Br30  1  0.152766  0.250000  0.692599  1
  Br  Br31  1  0.846929  0.750000  0.306803  1
