# generated using pymatgen
data_Lu6FeNi
_symmetry_space_group_name_H-M   'P 1'
_cell_length_a   6.19487800
_cell_length_b   6.87023400
_cell_length_c   9.00305300
_cell_angle_alpha   90.00000000
_cell_angle_beta   90.00000000
_cell_angle_gamma   90.00000000
_symmetry_Int_Tables_number   1
_chemical_formula_structural   Lu6FeNi
_chemical_formula_sum   'Lu12 Fe2 Ni2'
_cell_volume   383.17228963
_cell_formula_units_Z   2
loop_
 _symmetry_equiv_pos_site_id
 _symmetry_equiv_pos_as_xyz
  1  'x, y, z'
loop_
 _atom_site_type_symbol
 _atom_site_label
 _atom_site_symmetry_multiplicity
 _atom_site_fract_x
 _atom_site_fract_y
 _atom_site_fract_z
 _atom_site_occupancy
  Lu  Lu0  1  0.319198  0.677486  0.069205  1
  Lu  Lu1  1  0.180802  0.177486  0.430795  1
  Lu  Lu2  1  0.673272  0.320936  0.559303  1
  Lu  Lu3  1  0.826728  0.820936  0.940697  1
  Lu  Lu4  1  0.673272  0.320936  0.940697  1
  Lu  Lu5  1  0.826728  0.820936  0.559303  1
  Lu  Lu6  1  0.319198  0.677486  0.430795  1
  Lu  Lu7  1  0.180802  0.177486  0.069205  1
  Lu  Lu8  1  0.870727  0.540749  0.250000  1
  Lu  Lu9  1  0.629273  0.040749  0.250000  1
  Lu  Lu10  1  0.134242  0.463319  0.750000  1
  Lu  Lu11  1  0.365758  0.963319  0.750000  1
  Fe  Fe12  1  0.030330  0.889907  0.250000  1
  Fe  Fe13  1  0.469670  0.389907  0.250000  1
  Ni  Ni14  1  0.951731  0.109183  0.750000  1
  Ni  Ni15  1  0.548269  0.609183  0.750000  1
