# generated using pymatgen
data_Lu4PdRh3O14
_symmetry_space_group_name_H-M   'P 1'
_cell_length_a   7.13285252
_cell_length_b   7.16269659
_cell_length_c   7.16269600
_cell_angle_alpha   59.99999349
_cell_angle_beta   59.86149008
_cell_angle_gamma   59.86148739
_symmetry_Int_Tables_number   1
_chemical_formula_structural   Lu4PdRh3O14
_chemical_formula_sum   'Lu4 Pd1 Rh3 O14'
_cell_volume   258.21940880
_cell_formula_units_Z   1
loop_
 _symmetry_equiv_pos_site_id
 _symmetry_equiv_pos_as_xyz
  1  'x, y, z'
loop_
 _atom_site_type_symbol
 _atom_site_label
 _atom_site_symmetry_multiplicity
 _atom_site_fract_x
 _atom_site_fract_y
 _atom_site_fract_z
 _atom_site_occupancy
  Lu  Lu0  1  0.625000  0.625000  0.125000  1
  Lu  Lu1  1  0.625000  0.625000  0.625000  1
  Lu  Lu2  1  0.625000  0.125000  0.625000  1
  Lu  Lu3  1  0.125000  0.625000  0.625000  1
  Pd  Pd4  1  0.625000  0.125000  0.125000  1
  Rh  Rh5  1  0.125000  0.125000  0.125000  1
  Rh  Rh6  1  0.125000  0.125000  0.625000  1
  Rh  Rh7  1  0.125000  0.625000  0.125000  1
  O  O8  1  0.037559  0.464275  0.464275  1
  O  O9  1  0.782754  0.780623  0.218311  1
  O  O10  1  0.782754  0.218311  0.218311  1
  O  O11  1  0.467246  0.031689  0.469377  1
  O  O12  1  0.750396  0.749868  0.749868  1
  O  O13  1  0.037559  0.464275  0.033890  1
  O  O14  1  0.037559  0.033890  0.464275  1
  O  O15  1  0.212441  0.785725  0.216110  1
  O  O16  1  0.212441  0.216110  0.785725  1
  O  O17  1  0.782754  0.218311  0.780623  1
  O  O18  1  0.499604  0.500132  0.500132  1
  O  O19  1  0.467246  0.031689  0.031689  1
  O  O20  1  0.467246  0.469377  0.031689  1
  O  O21  1  0.212441  0.785725  0.785725  1
