# generated using pymatgen
data_Mo2AsPO10
_symmetry_space_group_name_H-M   'P 1'
_cell_length_a   5.36417965
_cell_length_b   5.36452048
_cell_length_c   7.58152889
_cell_angle_alpha   69.82166542
_cell_angle_beta   69.99459177
_cell_angle_gamma   89.27540562
_symmetry_Int_Tables_number   1
_chemical_formula_structural   Mo2AsPO10
_chemical_formula_sum   'Mo2 As1 P1 O10'
_cell_volume   191.04346892
_cell_formula_units_Z   1
loop_
 _symmetry_equiv_pos_site_id
 _symmetry_equiv_pos_as_xyz
  1  'x, y, z'
loop_
 _atom_site_type_symbol
 _atom_site_label
 _atom_site_symmetry_multiplicity
 _atom_site_fract_x
 _atom_site_fract_y
 _atom_site_fract_z
 _atom_site_occupancy
  Mo  Mo0  1  0.756494  0.237715  0.010501  1
  Mo  Mo1  1  0.224324  0.760782  0.501505  1
  As  As2  1  0.408368  0.155542  0.721433  1
  P  P3  1  0.154017  0.406754  0.222328  1
  O  O4  1  0.587388  0.960946  0.226266  1
  O  O5  1  0.951294  0.597395  0.723025  1
  O  O6  1  0.109164  0.099820  0.915612  1
  O  O7  1  0.106768  0.127423  0.390887  1
  O  O8  1  0.436920  0.905735  0.625792  1
  O  O9  1  0.933378  0.433873  0.129773  1
  O  O10  1  0.664841  0.122197  0.810897  1
  O  O11  1  0.124686  0.632907  0.308406  1
  O  O12  1  0.454374  0.459162  0.531258  1
  O  O13  1  0.434384  0.446148  0.057659  1
