# generated using pymatgen
data_Yb12Al3Ga9(SbO6)8
_symmetry_space_group_name_H-M   'P 1'
_cell_length_a   10.90667191
_cell_length_b   10.92016915
_cell_length_c   10.91379498
_cell_angle_alpha   109.54212144
_cell_angle_beta   109.59736594
_cell_angle_gamma   109.22608647
_symmetry_Int_Tables_number   1
_chemical_formula_structural   Yb12Al3Ga9(SbO6)8
_chemical_formula_sum   'Yb12 Al3 Ga9 Sb8 O48'
_cell_volume   1001.21883159
_cell_formula_units_Z   1
loop_
 _symmetry_equiv_pos_site_id
 _symmetry_equiv_pos_as_xyz
  1  'x, y, z'
loop_
 _atom_site_type_symbol
 _atom_site_label
 _atom_site_symmetry_multiplicity
 _atom_site_fract_x
 _atom_site_fract_y
 _atom_site_fract_z
 _atom_site_occupancy
  Yb  Yb0  1  0.246703  0.369884  0.124158  1
  Yb  Yb1  1  0.378004  0.755207  0.125110  1
  Yb  Yb2  1  0.371606  0.119884  0.240107  1
  Yb  Yb3  1  0.873126  0.623667  0.249020  1
  Yb  Yb4  1  0.124926  0.248445  0.369946  1
  Yb  Yb5  1  0.746192  0.124041  0.368916  1
  Yb  Yb6  1  0.252564  0.874812  0.628955  1
  Yb  Yb7  1  0.876801  0.754711  0.630248  1
  Yb  Yb8  1  0.125471  0.376102  0.750533  1
  Yb  Yb9  1  0.631503  0.881383  0.762997  1
  Yb  Yb10  1  0.624202  0.244014  0.872879  1
  Yb  Yb11  1  0.750778  0.630107  0.875695  1
  Al  Al12  1  0.741692  0.865446  0.127058  1
  Al  Al13  1  0.883949  0.260624  0.126942  1
  Al  Al14  1  0.626866  0.377850  0.257719  1
  Ga  Ga15  1  0.129766  0.879175  0.256242  1
  Ga  Ga16  1  0.625303  0.749200  0.374977  1
  Ga  Ga17  1  0.249904  0.624458  0.375025  1
  Ga  Ga18  1  0.749814  0.373926  0.624717  1
  Ga  Ga19  1  0.374874  0.251169  0.625560  1
  Ga  Ga20  1  0.869140  0.119447  0.741596  1
  Ga  Ga21  1  0.373237  0.623321  0.742244  1
  Ga  Ga22  1  0.258340  0.132265  0.875653  1
  Ga  Ga23  1  0.117745  0.743651  0.875259  1
  Sb  Sb24  1  0.997728  0.001483  0.002145  1
  Sb  Sb25  1  0.505051  0.002960  0.002395  1
  Sb  Sb26  1  0.500097  0.500386  0.001863  1
  Sb  Sb27  1  0.999261  0.498950  0.000424  1
  Sb  Sb28  1  0.499456  0.999131  0.499171  1
  Sb  Sb29  1  0.997249  0.498071  0.496979  1
  Sb  Sb30  1  0.999198  0.998942  0.498132  1
  Sb  Sb31  1  0.502025  0.500159  0.499727  1
  O  O32  1  0.306116  0.895919  0.029012  1
  O  O33  1  0.223763  0.134292  0.029796  1
  O  O34  1  0.701553  0.675901  0.086856  1
  O  O35  1  0.881984  0.408791  0.085667  1
  O  O36  1  0.981097  0.680297  0.101361  1
  O  O37  1  0.615751  0.420975  0.108981  1
  O  O38  1  0.601016  0.905572  0.138186  1
  O  O39  1  0.037182  0.234912  0.137927  1
  O  O40  1  0.474773  0.598659  0.177512  1
  O  O41  1  0.199875  0.577840  0.177000  1
  O  O42  1  0.136298  0.036169  0.227941  1
  O  O43  1  0.594201  0.198957  0.226334  1
  O  O44  1  0.484246  0.386643  0.302386  1
  O  O45  1  0.324535  0.914351  0.297714  1
  O  O46  1  0.898845  0.011295  0.314797  1
  O  O47  1  0.916318  0.301594  0.315386  1
  O  O48  1  0.303117  0.480127  0.382218  1
  O  O49  1  0.583677  0.903588  0.384475  1
  O  O50  1  0.818895  0.521063  0.398915  1
  O  O51  1  0.079110  0.874020  0.404708  1
  O  O52  1  0.822541  0.798696  0.419859  1
  O  O53  1  0.095480  0.618228  0.417359  1
  O  O54  1  0.599028  0.176587  0.478019  1
  O  O55  1  0.381341  0.302936  0.479800  1
  O  O56  1  0.620827  0.698514  0.521371  1
  O  O57  1  0.400403  0.821950  0.520214  1
  O  O58  1  0.902935  0.380029  0.580232  1
  O  O59  1  0.176470  0.199207  0.577866  1
  O  O60  1  0.920044  0.124391  0.592565  1
  O  O61  1  0.173108  0.469914  0.592625  1
  O  O62  1  0.416851  0.096909  0.614792  1
  O  O63  1  0.700355  0.520125  0.618800  1
  O  O64  1  0.079629  0.697502  0.675671  1
  O  O65  1  0.095485  0.979200  0.677903  1
  O  O66  1  0.674284  0.083965  0.700664  1
  O  O67  1  0.526054  0.616557  0.700235  1
  O  O68  1  0.408021  0.808757  0.772462  1
  O  O69  1  0.864586  0.964252  0.771684  1
  O  O70  1  0.798707  0.420708  0.823151  1
  O  O71  1  0.524018  0.401449  0.825016  1
  O  O72  1  0.958977  0.772720  0.864862  1
  O  O73  1  0.405593  0.092801  0.861997  1
  O  O74  1  0.380992  0.579745  0.897590  1
  O  O75  1  0.016517  0.317669  0.897064  1
  O  O76  1  0.118968  0.587401  0.916321  1
  O  O77  1  0.295889  0.328785  0.915783  1
  O  O78  1  0.704835  0.112055  0.977696  1
  O  O79  1  0.773118  0.865101  0.978823  1
