# generated using pymatgen
data_Na16TiGeP8
_symmetry_space_group_name_H-M   'P 1'
_cell_length_a   9.51422068
_cell_length_b   9.51422081
_cell_length_c   9.51422200
_cell_angle_alpha   60.00000282
_cell_angle_beta   60.00000236
_cell_angle_gamma   60.00000203
_symmetry_Int_Tables_number   1
_chemical_formula_structural   Na16TiGeP8
_chemical_formula_sum   'Na16 Ti1 Ge1 P8'
_cell_volume   608.98241705
_cell_formula_units_Z   1
loop_
 _symmetry_equiv_pos_site_id
 _symmetry_equiv_pos_as_xyz
  1  'x, y, z'
loop_
 _atom_site_type_symbol
 _atom_site_label
 _atom_site_symmetry_multiplicity
 _atom_site_fract_x
 _atom_site_fract_y
 _atom_site_fract_z
 _atom_site_occupancy
  Na  Na0  1  0.626501  0.626501  0.120498  1
  Na  Na1  1  0.626501  0.120498  0.626501  1
  Na  Na2  1  0.120498  0.626501  0.626501  1
  Na  Na3  1  0.626501  0.626501  0.626501  1
  Na  Na4  1  0.031193  0.468807  0.468807  1
  Na  Na5  1  0.774722  0.225278  0.225278  1
  Na  Na6  1  0.468807  0.031193  0.468807  1
  Na  Na7  1  0.468807  0.468807  0.031193  1
  Na  Na8  1  0.031193  0.031193  0.468807  1
  Na  Na9  1  0.031193  0.468807  0.031193  1
  Na  Na10  1  0.468807  0.031193  0.031193  1
  Na  Na11  1  0.774722  0.225278  0.774722  1
  Na  Na12  1  0.225278  0.774722  0.225278  1
  Na  Na13  1  0.225278  0.225278  0.774722  1
  Na  Na14  1  0.774722  0.774722  0.225278  1
  Na  Na15  1  0.225278  0.774722  0.774722  1
  Ti  Ti16  1  0.500000  0.500000  0.500000  1
  Ge  Ge17  1  0.750000  0.750000  0.750000  1
  P  P18  1  0.854191  0.854191  0.437429  1
  P  P19  1  0.854191  0.437429  0.854191  1
  P  P20  1  0.395770  0.395770  0.812688  1
  P  P21  1  0.395770  0.812688  0.395770  1
  P  P22  1  0.812688  0.395770  0.395770  1
  P  P23  1  0.854191  0.854191  0.854191  1
  P  P24  1  0.437429  0.854191  0.854191  1
  P  P25  1  0.395770  0.395770  0.395770  1
