# generated using pymatgen
data_Sc12Rh3Br16
_symmetry_space_group_name_H-M   'P 1'
_cell_length_a   8.94485381
_cell_length_b   10.97839027
_cell_length_c   11.67041285
_cell_angle_alpha   116.79624116
_cell_angle_beta   101.75179050
_cell_angle_gamma   101.41753840
_symmetry_Int_Tables_number   1
_chemical_formula_structural   Sc12Rh3Br16
_chemical_formula_sum   'Sc12 Rh3 Br16'
_cell_volume   944.86456383
_cell_formula_units_Z   1
loop_
 _symmetry_equiv_pos_site_id
 _symmetry_equiv_pos_as_xyz
  1  'x, y, z'
loop_
 _atom_site_type_symbol
 _atom_site_label
 _atom_site_symmetry_multiplicity
 _atom_site_fract_x
 _atom_site_fract_y
 _atom_site_fract_z
 _atom_site_occupancy
  Sc  Sc0  1  0.081258  0.254414  0.348390  1
  Sc  Sc1  1  0.918742  0.745586  0.651610  1
  Sc  Sc2  1  0.776769  0.536568  0.317675  1
  Sc  Sc3  1  0.223231  0.463432  0.682325  1
  Sc  Sc4  1  0.283128  0.746656  0.652017  1
  Sc  Sc5  1  0.716872  0.253344  0.347983  1
  Sc  Sc6  1  0.140931  0.536810  0.318516  1
  Sc  Sc7  1  0.859069  0.463190  0.681484  1
  Sc  Sc8  1  0.398622  0.347585  0.257057  1
  Sc  Sc9  1  0.601378  0.652415  0.742943  1
  Sc  Sc10  1  0.456142  0.298413  0.521469  1
  Sc  Sc11  1  0.543858  0.701587  0.478531  1
  Rh  Rh12  1  0.000000  0.500000  0.500000  1
  Rh  Rh13  1  0.340180  0.500214  0.499343  1
  Rh  Rh14  1  0.659821  0.499786  0.500657  1
  Br  Br15  1  0.398099  0.746137  0.891218  1
  Br  Br16  1  0.601901  0.253863  0.108782  1
  Br  Br17  1  0.192599  0.976397  0.789189  1
  Br  Br18  1  0.807401  0.023603  0.210811  1
  Br  Br19  1  0.335468  0.085913  0.246836  1
  Br  Br20  1  0.664532  0.914087  0.753164  1
  Br  Br21  1  0.554663  0.435350  0.803892  1
  Br  Br22  1  0.445337  0.564650  0.196108  1
  Br  Br23  1  0.309503  0.832036  0.462387  1
  Br  Br24  1  0.690497  0.167964  0.537613  1
  Br  Br25  1  0.164872  0.167014  0.533603  1
  Br  Br26  1  0.835128  0.832986  0.466397  1
  Br  Br27  1  0.925652  0.579534  0.155015  1
  Br  Br28  1  0.074348  0.420466  0.844985  1
  Br  Br29  1  0.927507  0.744222  0.891185  1
  Br  Br30  1  0.072493  0.255778  0.108815  1
