# generated using pymatgen
data_DyH3Cl2O
_symmetry_space_group_name_H-M   'P 1'
_cell_length_a   10.63962790
_cell_length_b   10.83219253
_cell_length_c   3.67993600
_cell_angle_alpha   90.00000000
_cell_angle_beta   90.00000000
_cell_angle_gamma   142.39803023
_symmetry_Int_Tables_number   1
_chemical_formula_structural   DyH3Cl2O
_chemical_formula_sum   'Dy2 H6 Cl4 O2'
_cell_volume   258.78293620
_cell_formula_units_Z   2
loop_
 _symmetry_equiv_pos_site_id
 _symmetry_equiv_pos_as_xyz
  1  'x, y, z'
loop_
 _atom_site_type_symbol
 _atom_site_label
 _atom_site_symmetry_multiplicity
 _atom_site_fract_x
 _atom_site_fract_y
 _atom_site_fract_z
 _atom_site_occupancy
  Dy  Dy0  1  0.669911  0.251305  0.750000  1
  Dy  Dy1  1  0.330089  0.748695  0.250000  1
  H  H2  1  0.106375  0.186991  0.750000  1
  H  H3  1  0.991236  0.925686  0.250000  1
  H  H4  1  0.008764  0.074314  0.750000  1
  H  H5  1  0.893625  0.813009  0.250000  1
  H  H6  1  0.769340  0.138563  0.250000  1
  H  H7  1  0.230660  0.861437  0.750000  1
  Cl  Cl8  1  0.947579  0.584063  0.250000  1
  Cl  Cl9  1  0.549600  0.789825  0.750000  1
  Cl  Cl10  1  0.052421  0.415937  0.750000  1
  Cl  Cl11  1  0.450400  0.210175  0.250000  1
  O  O12  1  0.654358  0.107512  0.250000  1
  O  O13  1  0.345642  0.892488  0.750000  1
