# generated using pymatgen
data_YbErPdPtO7
_symmetry_space_group_name_H-M   'P 1'
_cell_length_a   7.21303524
_cell_length_b   7.22523971
_cell_length_c   7.22524016
_cell_angle_alpha   60.01834414
_cell_angle_beta   60.05587180
_cell_angle_gamma   60.05586033
_symmetry_Int_Tables_number   1
_chemical_formula_structural   YbErPdPtO7
_chemical_formula_sum   'Yb2 Er2 Pd2 Pt2 O14'
_cell_volume   266.52262791
_cell_formula_units_Z   2
loop_
 _symmetry_equiv_pos_site_id
 _symmetry_equiv_pos_as_xyz
  1  'x, y, z'
loop_
 _atom_site_type_symbol
 _atom_site_label
 _atom_site_symmetry_multiplicity
 _atom_site_fract_x
 _atom_site_fract_y
 _atom_site_fract_z
 _atom_site_occupancy
  Yb  Yb0  1  0.625000  0.625000  0.125000  1
  Yb  Yb1  1  0.625000  0.125000  0.625000  1
  Er  Er2  1  0.625000  0.625000  0.625000  1
  Er  Er3  1  0.125000  0.625000  0.625000  1
  Pd  Pd4  1  0.125000  0.625000  0.125000  1
  Pd  Pd5  1  0.125000  0.125000  0.625000  1
  Pt  Pt6  1  0.625000  0.125000  0.125000  1
  Pt  Pt7  1  0.125000  0.125000  0.125000  1
  O  O8  1  0.035972  0.464028  0.464028  1
  O  O9  1  0.787831  0.789858  0.216566  1
  O  O10  1  0.791561  0.208439  0.208439  1
  O  O11  1  0.755532  0.744468  0.744468  1
  O  O12  1  0.044256  0.460142  0.033434  1
  O  O13  1  0.462169  0.033434  0.460142  1
  O  O14  1  0.044256  0.033434  0.460142  1
  O  O15  1  0.494468  0.505532  0.505532  1
  O  O16  1  0.205744  0.216566  0.789858  1
  O  O17  1  0.205744  0.789858  0.216566  1
  O  O18  1  0.787831  0.216566  0.789858  1
  O  O19  1  0.458439  0.041561  0.041561  1
  O  O20  1  0.462169  0.460142  0.033434  1
  O  O21  1  0.214028  0.785972  0.785972  1
