# generated using pymatgen
data_Cs10Cd4Sn4S17
_symmetry_space_group_name_H-M   'P 1'
_cell_length_a   10.81966125
_cell_length_b   10.81966126
_cell_length_c   10.81966238
_cell_angle_alpha   89.49166390
_cell_angle_beta   89.49166381
_cell_angle_gamma   89.49166303
_symmetry_Int_Tables_number   1
_chemical_formula_structural   Cs10Cd4Sn4S17
_chemical_formula_sum   'Cs10 Cd4 Sn4 S17'
_cell_volume   1266.45585814
_cell_formula_units_Z   1
loop_
 _symmetry_equiv_pos_site_id
 _symmetry_equiv_pos_as_xyz
  1  'x, y, z'
loop_
 _atom_site_type_symbol
 _atom_site_label
 _atom_site_symmetry_multiplicity
 _atom_site_fract_x
 _atom_site_fract_y
 _atom_site_fract_z
 _atom_site_occupancy
  Cs  Cs0  1  0.000158  0.000158  0.499373  1
  Cs  Cs1  1  0.499373  0.000158  0.000158  1
  Cs  Cs2  1  0.000158  0.499373  0.000158  1
  Cs  Cs3  1  0.497755  0.961691  0.497755  1
  Cs  Cs4  1  0.497755  0.497755  0.961691  1
  Cs  Cs5  1  0.961691  0.497755  0.497755  1
  Cs  Cs6  1  0.657838  0.327315  0.327315  1
  Cs  Cs7  1  0.327315  0.657838  0.327315  1
  Cs  Cs8  1  0.327315  0.327315  0.657838  1
  Cs  Cs9  1  0.673732  0.673732  0.673732  1
  Cd  Cd10  1  0.866503  0.133188  0.133188  1
  Cd  Cd11  1  0.133188  0.866503  0.133188  1
  Cd  Cd12  1  0.133188  0.133188  0.866503  1
  Cd  Cd13  1  0.867451  0.867451  0.867451  1
  Sn  Sn14  1  0.218671  0.218671  0.218671  1
  Sn  Sn15  1  0.221849  0.779036  0.779036  1
  Sn  Sn16  1  0.779036  0.779036  0.221849  1
  Sn  Sn17  1  0.779036  0.221849  0.779036  1
  S  S18  1  0.999372  0.999372  0.999372  1
  S  S19  1  0.344466  0.344466  0.344466  1
  S  S20  1  0.355848  0.654271  0.654271  1
  S  S21  1  0.654271  0.654271  0.355848  1
  S  S22  1  0.654271  0.355848  0.654271  1
  S  S23  1  0.268683  0.003220  0.268683  1
  S  S24  1  0.268683  0.268683  0.003220  1
  S  S25  1  0.003220  0.268683  0.268683  1
  S  S26  1  0.269622  0.994213  0.728970  1
  S  S27  1  0.269622  0.728970  0.994213  1
  S  S28  1  0.007354  0.730004  0.730004  1
  S  S29  1  0.728970  0.994213  0.269622  1
  S  S30  1  0.730004  0.730004  0.007354  1
  S  S31  1  0.994213  0.728970  0.269622  1
  S  S32  1  0.730004  0.007354  0.730004  1
  S  S33  1  0.728970  0.269622  0.994213  1
  S  S34  1  0.994213  0.269622  0.728970  1
