# generated using pymatgen
data_La12Ga3Ge5Ir8
_symmetry_space_group_name_H-M   'P 1'
_cell_length_a   5.83762400
_cell_length_b   8.29622534
_cell_length_c   13.68534000
_cell_angle_alpha   89.96740251
_cell_angle_beta   90.00000000
_cell_angle_gamma   90.00000000
_symmetry_Int_Tables_number   1
_chemical_formula_structural   La12Ga3Ge5Ir8
_chemical_formula_sum   'La12 Ga3 Ge5 Ir8'
_cell_volume   662.78425048
_cell_formula_units_Z   1
loop_
 _symmetry_equiv_pos_site_id
 _symmetry_equiv_pos_as_xyz
  1  'x, y, z'
loop_
 _atom_site_type_symbol
 _atom_site_label
 _atom_site_symmetry_multiplicity
 _atom_site_fract_x
 _atom_site_fract_y
 _atom_site_fract_z
 _atom_site_occupancy
  La  La0  1  0.150471  0.895944  0.598926  1
  La  La1  1  0.850535  0.107151  0.097891  1
  La  La2  1  0.150471  0.604056  0.401074  1
  La  La3  1  0.850535  0.392849  0.902109  1
  La  La4  1  0.849145  0.103699  0.400966  1
  La  La5  1  0.151858  0.897174  0.900910  1
  La  La6  1  0.849145  0.396301  0.599034  1
  La  La7  1  0.151858  0.602826  0.099090  1
  La  La8  1  0.365543  0.251412  0.750626  1
  La  La9  1  0.636262  0.748369  0.248429  1
  La  La10  1  0.365543  0.248588  0.249374  1
  La  La11  1  0.636262  0.751631  0.751571  1
  Ga  Ga12  1  0.375848  0.250000  0.500000  1
  Ga  Ga13  1  0.623865  0.750000  0.000000  1
  Ga  Ga14  1  0.623472  0.750000  0.500000  1
  Ge  Ge15  1  0.855330  0.104043  0.749952  1
  Ge  Ge16  1  0.144705  0.895800  0.249512  1
  Ge  Ge17  1  0.855330  0.395957  0.250048  1
  Ge  Ge18  1  0.144705  0.604200  0.750488  1
  Ge  Ge19  1  0.368786  0.250000  0.000000  1
  Ir  Ir20  1  0.631128  0.029788  0.592185  1
  Ir  Ir21  1  0.370021  0.968246  0.092393  1
  Ir  Ir22  1  0.631128  0.470212  0.407815  1
  Ir  Ir23  1  0.370021  0.531754  0.907607  1
  Ir  Ir24  1  0.367517  0.970614  0.408105  1
  Ir  Ir25  1  0.631498  0.031691  0.909702  1
  Ir  Ir26  1  0.367517  0.529386  0.591895  1
  Ir  Ir27  1  0.631498  0.468309  0.090298  1
