# generated using pymatgen
data_CeDy5Y2(ReB6)4
_symmetry_space_group_name_H-M   'P 1'
_cell_length_a   3.69974800
_cell_length_b   9.19281348
_cell_length_c   11.58069205
_cell_angle_alpha   90.05507330
_cell_angle_beta   90.00000000
_cell_angle_gamma   90.00000000
_symmetry_Int_Tables_number   1
_chemical_formula_structural   CeDy5Y2(ReB6)4
_chemical_formula_sum   'Ce1 Dy5 Y2 Re4 B24'
_cell_volume   393.87181546
_cell_formula_units_Z   1
loop_
 _symmetry_equiv_pos_site_id
 _symmetry_equiv_pos_as_xyz
  1  'x, y, z'
loop_
 _atom_site_type_symbol
 _atom_site_label
 _atom_site_symmetry_multiplicity
 _atom_site_fract_x
 _atom_site_fract_y
 _atom_site_fract_z
 _atom_site_occupancy
  Ce  Ce0  1  0.000000  0.323086  0.414087  1
  Dy  Dy1  1  0.000000  0.176216  0.914041  1
  Dy  Dy2  1  0.000000  0.942202  0.369918  1
  Dy  Dy3  1  0.000000  0.056932  0.630438  1
  Dy  Dy4  1  0.000000  0.442766  0.129086  1
  Dy  Dy5  1  0.000000  0.557513  0.870273  1
  Y  Y6  1  0.000000  0.677479  0.586623  1
  Y  Y7  1  0.000000  0.823196  0.085478  1
  Re  Re8  1  0.000000  0.637389  0.321257  1
  Re  Re9  1  0.000000  0.362136  0.678669  1
  Re  Re10  1  0.000000  0.138576  0.179405  1
  Re  Re11  1  0.000000  0.862196  0.820896  1
  B  B12  1  0.500000  0.553528  0.432167  1
  B  B13  1  0.500000  0.446318  0.567814  1
  B  B14  1  0.500000  0.053195  0.066911  1
  B  B15  1  0.500000  0.947046  0.932879  1
  B  B16  1  0.500000  0.748895  0.418065  1
  B  B17  1  0.500000  0.251691  0.582740  1
  B  B18  1  0.500000  0.248225  0.081068  1
  B  B19  1  0.500000  0.751396  0.918244  1
  B  B20  1  0.500000  0.791279  0.265515  1
  B  B21  1  0.500000  0.208879  0.735138  1
  B  B22  1  0.500000  0.290613  0.233880  1
  B  B23  1  0.500000  0.708654  0.765654  1
  B  B24  1  0.500000  0.630970  0.185312  1
  B  B25  1  0.500000  0.369804  0.814414  1
  B  B26  1  0.500000  0.130442  0.313612  1
  B  B27  1  0.500000  0.869441  0.686181  1
  B  B28  1  0.500000  0.982245  0.211595  1
  B  B29  1  0.500000  0.017636  0.788401  1
  B  B30  1  0.500000  0.483455  0.287480  1
  B  B31  1  0.500000  0.517939  0.712693  1
  B  B32  1  0.500000  0.601026  0.027977  1
  B  B33  1  0.500000  0.399204  0.971464  1
  B  B34  1  0.500000  0.099912  0.472089  1
  B  B35  1  0.500000  0.898523  0.528535  1
