# generated using pymatgen
data_NaTl2V3F12
_symmetry_space_group_name_H-M   'P 1'
_cell_length_a   7.65141156
_cell_length_b   7.65141085
_cell_length_c   7.65141000
_cell_angle_alpha   59.77741218
_cell_angle_beta   59.77740663
_cell_angle_gamma   59.77741081
_symmetry_Int_Tables_number   1
_chemical_formula_structural   NaTl2V3F12
_chemical_formula_sum   'Na1 Tl2 V3 F12'
_cell_volume   315.14411760
_cell_formula_units_Z   1
loop_
 _symmetry_equiv_pos_site_id
 _symmetry_equiv_pos_as_xyz
  1  'x, y, z'
loop_
 _atom_site_type_symbol
 _atom_site_label
 _atom_site_symmetry_multiplicity
 _atom_site_fract_x
 _atom_site_fract_y
 _atom_site_fract_z
 _atom_site_occupancy
  Na  Na0  1  0.000000  0.000000  0.000000  1
  Tl  Tl1  1  0.650376  0.650376  0.650376  1
  Tl  Tl2  1  0.349624  0.349624  0.349624  1
  V  V3  1  0.500000  0.000000  0.000000  1
  V  V4  1  0.000000  0.500000  0.000000  1
  V  V5  1  0.000000  0.000000  0.500000  1
  F  F6  1  0.916983  0.294339  0.294339  1
  F  F7  1  0.099123  0.099123  0.612267  1
  F  F8  1  0.099123  0.612267  0.099123  1
  F  F9  1  0.900877  0.387733  0.900877  1
  F  F10  1  0.900877  0.900877  0.387733  1
  F  F11  1  0.612267  0.099123  0.099123  1
  F  F12  1  0.294339  0.294339  0.916983  1
  F  F13  1  0.294339  0.916983  0.294339  1
  F  F14  1  0.705661  0.083017  0.705661  1
  F  F15  1  0.083017  0.705661  0.705661  1
  F  F16  1  0.705661  0.705661  0.083017  1
  F  F17  1  0.387733  0.900877  0.900877  1
