# generated using pymatgen
data_Pr3NdZn4Si3Ge
_symmetry_space_group_name_H-M   'P 1'
_cell_length_a   4.22499500
_cell_length_b   4.22499438
_cell_length_c   17.00013300
_cell_angle_alpha   90.00000000
_cell_angle_beta   90.00000000
_cell_angle_gamma   120.00001266
_symmetry_Int_Tables_number   1
_chemical_formula_structural   Pr3NdZn4Si3Ge
_chemical_formula_sum   'Pr3 Nd1 Zn4 Si3 Ge1'
_cell_volume   262.80597244
_cell_formula_units_Z   1
loop_
 _symmetry_equiv_pos_site_id
 _symmetry_equiv_pos_as_xyz
  1  'x, y, z'
loop_
 _atom_site_type_symbol
 _atom_site_label
 _atom_site_symmetry_multiplicity
 _atom_site_fract_x
 _atom_site_fract_y
 _atom_site_fract_z
 _atom_site_occupancy
  Pr  Pr0  1  0.000000  0.000000  0.250793  1
  Pr  Pr1  1  0.000000  0.000000  0.748120  1
  Pr  Pr2  1  0.000000  0.000000  0.001715  1
  Nd  Nd3  1  0.000000  0.000000  0.499749  1
  Zn  Zn4  1  0.333333  0.666667  0.132839  1
  Zn  Zn5  1  0.666667  0.333333  0.863351  1
  Zn  Zn6  1  0.666667  0.333333  0.630737  1
  Zn  Zn7  1  0.333333  0.666667  0.368276  1
  Si  Si8  1  0.333333  0.666667  0.620507  1
  Si  Si9  1  0.666667  0.333333  0.379398  1
  Si  Si10  1  0.666667  0.333333  0.122677  1
  Ge  Ge11  1  0.333333  0.666667  0.881838  1
