# generated using pymatgen
data_Li2PrErSi4
_symmetry_space_group_name_H-M   'P 1'
_cell_length_a   3.84180200
_cell_length_b   7.66292557
_cell_length_c   10.31413518
_cell_angle_alpha   89.59014609
_cell_angle_beta   90.00000000
_cell_angle_gamma   90.00000000
_symmetry_Int_Tables_number   1
_chemical_formula_structural   Li2PrErSi4
_chemical_formula_sum   'Li4 Pr2 Er2 Si8'
_cell_volume   303.63462407
_cell_formula_units_Z   2
loop_
 _symmetry_equiv_pos_site_id
 _symmetry_equiv_pos_as_xyz
  1  'x, y, z'
loop_
 _atom_site_type_symbol
 _atom_site_label
 _atom_site_symmetry_multiplicity
 _atom_site_fract_x
 _atom_site_fract_y
 _atom_site_fract_z
 _atom_site_occupancy
  Li  Li0  1  0.250000  0.994708  0.389050  1
  Li  Li1  1  0.750000  0.005292  0.610950  1
  Li  Li2  1  0.250000  0.489105  0.106150  1
  Li  Li3  1  0.750000  0.510895  0.893850  1
  Pr  Pr4  1  0.250000  0.641163  0.637303  1
  Pr  Pr5  1  0.750000  0.358837  0.362697  1
  Er  Er6  1  0.250000  0.132945  0.864980  1
  Er  Er7  1  0.750000  0.867055  0.135020  1
  Si  Si8  1  0.750000  0.263373  0.062188  1
  Si  Si9  1  0.250000  0.736627  0.937812  1
  Si  Si10  1  0.750000  0.778881  0.423578  1
  Si  Si11  1  0.250000  0.221119  0.576422  1
  Si  Si12  1  0.750000  0.845143  0.827400  1
  Si  Si13  1  0.250000  0.154857  0.172600  1
  Si  Si14  1  0.750000  0.331936  0.685273  1
  Si  Si15  1  0.250000  0.668064  0.314727  1
