# generated using pymatgen
data_Ce2B(IrRh2)2
_symmetry_space_group_name_H-M   'P 1'
_cell_length_a   5.88036859
_cell_length_b   5.88036862
_cell_length_c   5.84769800
_cell_angle_alpha   60.18361747
_cell_angle_beta   60.18361727
_cell_angle_gamma   59.84751422
_symmetry_Int_Tables_number   1
_chemical_formula_structural   Ce2B(IrRh2)2
_chemical_formula_sum   'Ce2 B1 Ir2 Rh4'
_cell_volume   143.20991074
_cell_formula_units_Z   1
loop_
 _symmetry_equiv_pos_site_id
 _symmetry_equiv_pos_as_xyz
  1  'x, y, z'
loop_
 _atom_site_type_symbol
 _atom_site_label
 _atom_site_symmetry_multiplicity
 _atom_site_fract_x
 _atom_site_fract_y
 _atom_site_fract_z
 _atom_site_occupancy
  Ce  Ce0  1  0.750124  0.750124  0.749878  1
  Ce  Ce1  1  0.249876  0.249876  0.250126  1
  B  B2  1  0.000000  0.000000  0.999115  1
  Ir  Ir3  1  0.742717  0.257283  0.743694  1
  Ir  Ir4  1  0.257283  0.742717  0.743694  1
  Rh  Rh5  1  0.742957  0.742957  0.257419  1
  Rh  Rh6  1  0.255984  0.744016  0.256371  1
  Rh  Rh7  1  0.744016  0.255984  0.256371  1
  Rh  Rh8  1  0.257043  0.257043  0.743331  1
