# generated using pymatgen
data_Hf4Fe3Si4Os
_symmetry_space_group_name_H-M   'P 1'
_cell_length_a   4.01129300
_cell_length_b   6.37373119
_cell_length_c   7.04930742
_cell_angle_alpha   89.60031201
_cell_angle_beta   90.00000000
_cell_angle_gamma   90.00000000
_symmetry_Int_Tables_number   1
_chemical_formula_structural   Hf4Fe3Si4Os
_chemical_formula_sum   'Hf4 Fe3 Si4 Os1'
_cell_volume   180.22457593
_cell_formula_units_Z   1
loop_
 _symmetry_equiv_pos_site_id
 _symmetry_equiv_pos_as_xyz
  1  'x, y, z'
loop_
 _atom_site_type_symbol
 _atom_site_label
 _atom_site_symmetry_multiplicity
 _atom_site_fract_x
 _atom_site_fract_y
 _atom_site_fract_z
 _atom_site_occupancy
  Hf  Hf0  1  0.250000  0.990391  0.307568  1
  Hf  Hf1  1  0.250000  0.498185  0.202090  1
  Hf  Hf2  1  0.750000  0.001674  0.690492  1
  Hf  Hf3  1  0.750000  0.500496  0.800515  1
  Fe  Fe4  1  0.250000  0.660173  0.557711  1
  Fe  Fe5  1  0.750000  0.844316  0.061742  1
  Fe  Fe6  1  0.750000  0.346173  0.438207  1
  Si  Si7  1  0.250000  0.293690  0.600504  1
  Si  Si8  1  0.250000  0.782417  0.891498  1
  Si  Si9  1  0.750000  0.709187  0.390059  1
  Si  Si10  1  0.750000  0.211373  0.122526  1
  Os  Os11  1  0.250000  0.161927  0.937086  1
