# generated using pymatgen
data_Tb10Ir3Rh2Au
_symmetry_space_group_name_H-M   'P 1'
_cell_length_a   11.07971453
_cell_length_b   11.03793900
_cell_length_c   6.37263442
_cell_angle_alpha   90.00000000
_cell_angle_beta   89.96147299
_cell_angle_gamma   90.00000000
_symmetry_Int_Tables_number   1
_chemical_formula_structural   Tb10Ir3Rh2Au
_chemical_formula_sum   'Tb20 Ir6 Rh4 Au2'
_cell_volume   779.35525359
_cell_formula_units_Z   2
loop_
 _symmetry_equiv_pos_site_id
 _symmetry_equiv_pos_as_xyz
  1  'x, y, z'
loop_
 _atom_site_type_symbol
 _atom_site_label
 _atom_site_symmetry_multiplicity
 _atom_site_fract_x
 _atom_site_fract_y
 _atom_site_fract_z
 _atom_site_occupancy
  Tb  Tb0  1  0.291086  0.090089  0.377432  1
  Tb  Tb1  1  0.291086  0.909911  0.877432  1
  Tb  Tb2  1  0.699867  0.093352  0.868149  1
  Tb  Tb3  1  0.699867  0.906648  0.368149  1
  Tb  Tb4  1  0.580027  0.788544  0.882173  1
  Tb  Tb5  1  0.580027  0.211456  0.382173  1
  Tb  Tb6  1  0.406918  0.790309  0.381556  1
  Tb  Tb7  1  0.406918  0.209691  0.881556  1
  Tb  Tb8  1  0.210563  0.409510  0.616799  1
  Tb  Tb9  1  0.210563  0.590490  0.116799  1
  Tb  Tb10  1  0.789066  0.417454  0.118737  1
  Tb  Tb11  1  0.789066  0.582546  0.618737  1
  Tb  Tb12  1  0.915076  0.705724  0.135103  1
  Tb  Tb13  1  0.915076  0.294276  0.635103  1
  Tb  Tb14  1  0.097202  0.704513  0.619368  1
  Tb  Tb15  1  0.097202  0.295487  0.119368  1
  Tb  Tb16  1  0.007900  0.998804  0.500080  1
  Tb  Tb17  1  0.007900  0.001196  0.000080  1
  Tb  Tb18  1  0.499502  0.498095  0.000153  1
  Tb  Tb19  1  0.499502  0.501905  0.500153  1
  Ir  Ir20  1  0.154705  0.154893  0.750553  1
  Ir  Ir21  1  0.154705  0.845107  0.250553  1
  Ir  Ir22  1  0.656481  0.345986  0.748286  1
  Ir  Ir23  1  0.656481  0.654014  0.248286  1
  Ir  Ir24  1  0.346833  0.345070  0.251461  1
  Ir  Ir25  1  0.346833  0.654930  0.751461  1
  Rh  Rh26  1  0.500861  0.999439  0.122645  1
  Rh  Rh27  1  0.500861  0.000561  0.622645  1
  Rh  Rh28  1  0.999691  0.501079  0.877596  1
  Rh  Rh29  1  0.999691  0.498921  0.377596  1
  Au  Au30  1  0.844222  0.155082  0.249910  1
  Au  Au31  1  0.844222  0.844918  0.749910  1
