# generated using pymatgen
data_Li4PtO5
_symmetry_space_group_name_H-M   'P 1'
_cell_length_a   5.09876981
_cell_length_b   5.12440644
_cell_length_c   7.81322119
_cell_angle_alpha   108.32367249
_cell_angle_beta   101.68629087
_cell_angle_gamma   100.96316054
_symmetry_Int_Tables_number   1
_chemical_formula_structural   Li4PtO5
_chemical_formula_sum   'Li8 Pt2 O10'
_cell_volume   182.56400407
_cell_formula_units_Z   2
loop_
 _symmetry_equiv_pos_site_id
 _symmetry_equiv_pos_as_xyz
  1  'x, y, z'
loop_
 _atom_site_type_symbol
 _atom_site_label
 _atom_site_symmetry_multiplicity
 _atom_site_fract_x
 _atom_site_fract_y
 _atom_site_fract_z
 _atom_site_occupancy
  Li  Li0  1  0.419186  0.802067  0.311987  1
  Li  Li1  1  0.580814  0.197933  0.688013  1
  Li  Li2  1  0.000000  0.000000  0.500000  1
  Li  Li3  1  0.500000  0.000000  0.000000  1
  Li  Li4  1  0.214171  0.400038  0.893176  1
  Li  Li5  1  0.785829  0.599962  0.106824  1
  Li  Li6  1  0.298147  0.603292  0.599319  1
  Li  Li7  1  0.701853  0.396708  0.400681  1
  Pt  Pt8  1  0.894530  0.792481  0.791587  1
  Pt  Pt9  1  0.105470  0.207519  0.208413  1
  O  O10  1  0.566413  0.606852  0.847202  1
  O  O11  1  0.433587  0.393148  0.152798  1
  O  O12  1  0.054703  0.579679  0.341676  1
  O  O13  1  0.945297  0.420321  0.658324  1
  O  O14  1  0.134986  0.817432  0.043997  1
  O  O15  1  0.865014  0.182568  0.956003  1
  O  O16  1  0.231271  0.991890  0.750859  1
  O  O17  1  0.768729  0.008110  0.249141  1
  O  O18  1  0.337541  0.195178  0.437684  1
  O  O19  1  0.662459  0.804822  0.562316  1
