# generated using pymatgen
data_LuNb8VSe16
_symmetry_space_group_name_H-M   'P 1'
_cell_length_a   7.00140700
_cell_length_b   7.00140834
_cell_length_c   13.46480900
_cell_angle_alpha   90.00000000
_cell_angle_beta   90.00000000
_cell_angle_gamma   120.00000787
_symmetry_Int_Tables_number   1
_chemical_formula_structural   LuNb8VSe16
_chemical_formula_sum   'Lu1 Nb8 V1 Se16'
_cell_volume   571.61224845
_cell_formula_units_Z   1
loop_
 _symmetry_equiv_pos_site_id
 _symmetry_equiv_pos_as_xyz
  1  'x, y, z'
loop_
 _atom_site_type_symbol
 _atom_site_label
 _atom_site_symmetry_multiplicity
 _atom_site_fract_x
 _atom_site_fract_y
 _atom_site_fract_z
 _atom_site_occupancy
  Lu  Lu0  1  0.000000  0.000000  0.000000  1
  Nb  Nb1  1  0.000000  0.000000  0.261326  1
  Nb  Nb2  1  0.000000  0.000000  0.738674  1
  Nb  Nb3  1  0.506443  0.012885  0.263073  1
  Nb  Nb4  1  0.493557  0.987115  0.736927  1
  Nb  Nb5  1  0.987115  0.493557  0.263073  1
  Nb  Nb6  1  0.012885  0.506443  0.736927  1
  Nb  Nb7  1  0.506443  0.493557  0.263073  1
  Nb  Nb8  1  0.493557  0.506443  0.736927  1
  V  V9  1  0.000000  0.000000  0.500000  1
  Se  Se10  1  0.333333  0.666667  0.609447  1
  Se  Se11  1  0.666667  0.333333  0.390553  1
  Se  Se12  1  0.666667  0.333333  0.134754  1
  Se  Se13  1  0.333333  0.666667  0.865246  1
  Se  Se14  1  0.170004  0.340007  0.137848  1
  Se  Se15  1  0.829996  0.659993  0.862152  1
  Se  Se16  1  0.659993  0.829996  0.137848  1
  Se  Se17  1  0.832974  0.665948  0.614554  1
  Se  Se18  1  0.340007  0.170004  0.862152  1
  Se  Se19  1  0.167026  0.334052  0.385446  1
  Se  Se20  1  0.170004  0.829996  0.137848  1
  Se  Se21  1  0.334052  0.167026  0.614554  1
  Se  Se22  1  0.829996  0.170004  0.862152  1
  Se  Se23  1  0.665948  0.832974  0.385446  1
  Se  Se24  1  0.832974  0.167026  0.614554  1
  Se  Se25  1  0.167026  0.832974  0.385446  1
