# generated using pymatgen
data_Ce6Cd22PAu
_symmetry_space_group_name_H-M   'P 1'
_cell_length_a   10.14190133
_cell_length_b   10.14190206
_cell_length_c   10.14190000
_cell_angle_alpha   60.00000019
_cell_angle_beta   59.99999781
_cell_angle_gamma   59.99999339
_symmetry_Int_Tables_number   1
_chemical_formula_structural   Ce6Cd22PAu
_chemical_formula_sum   'Ce6 Cd22 P1 Au1'
_cell_volume   737.63767654
_cell_formula_units_Z   1
loop_
 _symmetry_equiv_pos_site_id
 _symmetry_equiv_pos_as_xyz
  1  'x, y, z'
loop_
 _atom_site_type_symbol
 _atom_site_label
 _atom_site_symmetry_multiplicity
 _atom_site_fract_x
 _atom_site_fract_y
 _atom_site_fract_z
 _atom_site_occupancy
  Ce  Ce0  1  0.797661  0.797661  0.202339  1
  Ce  Ce1  1  0.202339  0.797661  0.202339  1
  Ce  Ce2  1  0.797661  0.202339  0.202339  1
  Ce  Ce3  1  0.202339  0.202339  0.797661  1
  Ce  Ce4  1  0.797661  0.202339  0.797661  1
  Ce  Ce5  1  0.202339  0.797661  0.797661  1
  Cd  Cd6  1  0.833650  0.833650  0.499048  1
  Cd  Cd7  1  0.833650  0.499048  0.833650  1
  Cd  Cd8  1  0.499048  0.833650  0.833650  1
  Cd  Cd9  1  0.833650  0.833650  0.833650  1
  Cd  Cd10  1  0.166350  0.166350  0.500952  1
  Cd  Cd11  1  0.166350  0.500952  0.166350  1
  Cd  Cd12  1  0.500952  0.166350  0.166350  1
  Cd  Cd13  1  0.166350  0.166350  0.166350  1
  Cd  Cd14  1  0.618403  0.618403  0.144790  1
  Cd  Cd15  1  0.618403  0.144790  0.618403  1
  Cd  Cd16  1  0.144790  0.618403  0.618403  1
  Cd  Cd17  1  0.618403  0.618403  0.618403  1
  Cd  Cd18  1  0.381597  0.381597  0.855210  1
  Cd  Cd19  1  0.381597  0.855210  0.381597  1
  Cd  Cd20  1  0.855210  0.381597  0.381597  1
  Cd  Cd21  1  0.381597  0.381597  0.381597  1
  Cd  Cd22  1  0.000000  0.000000  0.500000  1
  Cd  Cd23  1  0.500000  0.000000  0.500000  1
  Cd  Cd24  1  0.000000  0.500000  0.500000  1
  Cd  Cd25  1  0.500000  0.500000  0.000000  1
  Cd  Cd26  1  0.000000  0.500000  0.000000  1
  Cd  Cd27  1  0.500000  0.000000  0.000000  1
  P  P28  1  0.000000  0.000000  0.000000  1
  Au  Au29  1  0.500000  0.500000  0.500000  1
