# generated using pymatgen
data_Dy3Y5Tc3B24Os
_symmetry_space_group_name_H-M   'P 1'
_cell_length_a   3.68404200
_cell_length_b   9.16922701
_cell_length_c   11.55678601
_cell_angle_alpha   89.95615254
_cell_angle_beta   90.00000000
_cell_angle_gamma   90.00000000
_symmetry_Int_Tables_number   1
_chemical_formula_structural   Dy3Y5Tc3B24Os
_chemical_formula_sum   'Dy3 Y5 Tc3 B24 Os1'
_cell_volume   390.38600712
_cell_formula_units_Z   1
loop_
 _symmetry_equiv_pos_site_id
 _symmetry_equiv_pos_as_xyz
  1  'x, y, z'
loop_
 _atom_site_type_symbol
 _atom_site_label
 _atom_site_symmetry_multiplicity
 _atom_site_fract_x
 _atom_site_fract_y
 _atom_site_fract_z
 _atom_site_occupancy
  Dy  Dy0  1  0.000000  0.058360  0.630174  1
  Dy  Dy1  1  0.000000  0.442736  0.130362  1
  Dy  Dy2  1  0.000000  0.557191  0.869325  1
  Y  Y3  1  0.000000  0.323780  0.413908  1
  Y  Y4  1  0.000000  0.675495  0.584321  1
  Y  Y5  1  0.000000  0.822887  0.087181  1
  Y  Y6  1  0.000000  0.178031  0.914564  1
  Y  Y7  1  0.000000  0.942441  0.370139  1
  Tc  Tc8  1  0.000000  0.638187  0.320577  1
  Tc  Tc9  1  0.000000  0.361735  0.679925  1
  Tc  Tc10  1  0.000000  0.137880  0.178149  1
  B  B11  1  0.500000  0.553151  0.432777  1
  B  B12  1  0.500000  0.446829  0.566947  1
  B  B13  1  0.500000  0.053117  0.067025  1
  B  B14  1  0.500000  0.946208  0.932739  1
  B  B15  1  0.500000  0.748130  0.418525  1
  B  B16  1  0.500000  0.251421  0.581553  1
  B  B17  1  0.500000  0.248806  0.081570  1
  B  B18  1  0.500000  0.751630  0.918111  1
  B  B19  1  0.500000  0.791239  0.265549  1
  B  B20  1  0.500000  0.208896  0.734856  1
  B  B21  1  0.500000  0.291245  0.234559  1
  B  B22  1  0.500000  0.709516  0.765488  1
  B  B23  1  0.500000  0.630968  0.185885  1
  B  B24  1  0.500000  0.368935  0.814636  1
  B  B25  1  0.500000  0.130645  0.313881  1
  B  B26  1  0.500000  0.869029  0.686075  1
  B  B27  1  0.500000  0.982064  0.211657  1
  B  B28  1  0.500000  0.016659  0.788240  1
  B  B29  1  0.500000  0.482464  0.288081  1
  B  B30  1  0.500000  0.517340  0.711712  1
  B  B31  1  0.500000  0.601991  0.028211  1
  B  B32  1  0.500000  0.399000  0.971636  1
  B  B33  1  0.500000  0.102000  0.471705  1
  B  B34  1  0.500000  0.898080  0.528806  1
  Os  Os35  1  0.000000  0.861911  0.821151  1
