# generated using pymatgen
data_Er5CdIn4Ru
_symmetry_space_group_name_H-M   'P 1'
_cell_length_a   3.57988800
_cell_length_b   8.24537175
_cell_length_c   18.45360800
_cell_angle_alpha   89.85960547
_cell_angle_beta   90.00000000
_cell_angle_gamma   90.00000000
_symmetry_Int_Tables_number   1
_chemical_formula_structural   Er5CdIn4Ru
_chemical_formula_sum   'Er10 Cd2 In8 Ru2'
_cell_volume   544.70287536
_cell_formula_units_Z   2
loop_
 _symmetry_equiv_pos_site_id
 _symmetry_equiv_pos_as_xyz
  1  'x, y, z'
loop_
 _atom_site_type_symbol
 _atom_site_label
 _atom_site_symmetry_multiplicity
 _atom_site_fract_x
 _atom_site_fract_y
 _atom_site_fract_z
 _atom_site_occupancy
  Er  Er0  1  0.000000  0.123764  0.425468  1
  Er  Er1  1  0.000000  0.876236  0.574532  1
  Er  Er2  1  0.000000  0.384280  0.915988  1
  Er  Er3  1  0.000000  0.615720  0.084012  1
  Er  Er4  1  0.000000  0.270424  0.213774  1
  Er  Er5  1  0.000000  0.729576  0.786226  1
  Er  Er6  1  0.000000  0.296689  0.723908  1
  Er  Er7  1  0.000000  0.703311  0.276092  1
  Er  Er8  1  0.000000  0.000000  0.000000  1
  Er  Er9  1  0.000000  0.500000  0.500000  1
  Cd  Cd10  1  0.500000  0.019545  0.299245  1
  Cd  Cd11  1  0.500000  0.980455  0.700755  1
  In  In12  1  0.500000  0.415971  0.351203  1
  In  In13  1  0.500000  0.584029  0.648797  1
  In  In14  1  0.500000  0.083714  0.853890  1
  In  In15  1  0.500000  0.916286  0.146110  1
  In  In16  1  0.500000  0.292021  0.066905  1
  In  In17  1  0.500000  0.707979  0.933095  1
  In  In18  1  0.500000  0.213540  0.571152  1
  In  In19  1  0.500000  0.786460  0.428848  1
  Ru  Ru20  1  0.500000  0.477906  0.807573  1
  Ru  Ru21  1  0.500000  0.522094  0.192427  1
