# generated using pymatgen
data_K7Np(SO4)6
_symmetry_space_group_name_H-M   'P 1'
_cell_length_a   9.52333693
_cell_length_b   9.52333704
_cell_length_c   9.52333745
_cell_angle_alpha   109.17565973
_cell_angle_beta   109.17565548
_cell_angle_gamma   109.17566403
_symmetry_Int_Tables_number   1
_chemical_formula_structural   K7Np(SO4)6
_chemical_formula_sum   'K7 Np1 S6 O24'
_cell_volume   672.06079680
_cell_formula_units_Z   1
loop_
 _symmetry_equiv_pos_site_id
 _symmetry_equiv_pos_as_xyz
  1  'x, y, z'
loop_
 _atom_site_type_symbol
 _atom_site_label
 _atom_site_symmetry_multiplicity
 _atom_site_fract_x
 _atom_site_fract_y
 _atom_site_fract_z
 _atom_site_occupancy
  K  K0  1  0.500000  0.500000  0.500000  1
  K  K1  1  0.839087  0.336455  0.680667  1
  K  K2  1  0.336455  0.680667  0.839087  1
  K  K3  1  0.680667  0.839087  0.336455  1
  K  K4  1  0.160913  0.663545  0.319333  1
  K  K5  1  0.663545  0.319333  0.160913  1
  K  K6  1  0.319333  0.160913  0.663545  1
  Np  Np7  1  0.000000  0.000000  0.000000  1
  S  S8  1  0.965617  0.738013  0.607230  1
  S  S9  1  0.738013  0.607230  0.965617  1
  S  S10  1  0.607230  0.965617  0.738013  1
  S  S11  1  0.034383  0.261987  0.392770  1
  S  S12  1  0.261987  0.392770  0.034383  1
  S  S13  1  0.392770  0.034383  0.261987  1
  O  O14  1  0.440296  0.913734  0.176496  1
  O  O15  1  0.913734  0.176496  0.440296  1
  O  O16  1  0.176496  0.440296  0.913734  1
  O  O17  1  0.559704  0.086266  0.823504  1
  O  O18  1  0.086266  0.823504  0.559704  1
  O  O19  1  0.823504  0.559704  0.086266  1
  O  O20  1  0.317735  0.985229  0.361864  1
  O  O21  1  0.985229  0.361864  0.317735  1
  O  O22  1  0.361864  0.317735  0.985229  1
  O  O23  1  0.682265  0.014771  0.638136  1
  O  O24  1  0.014771  0.638136  0.682265  1
  O  O25  1  0.638136  0.682265  0.014771  1
  O  O26  1  0.749181  0.971220  0.887772  1
  O  O27  1  0.971220  0.887772  0.749181  1
  O  O28  1  0.639150  0.467453  0.787187  1
  O  O29  1  0.787187  0.639150  0.467453  1
  O  O30  1  0.467453  0.787187  0.639150  1
  O  O31  1  0.360850  0.532547  0.212813  1
  O  O32  1  0.212813  0.360850  0.532547  1
  O  O33  1  0.532547  0.212813  0.360850  1
  O  O34  1  0.112228  0.250819  0.028780  1
  O  O35  1  0.028780  0.112228  0.250819  1
  O  O36  1  0.250819  0.028780  0.112228  1
  O  O37  1  0.887772  0.749181  0.971220  1
