# generated using pymatgen
data_La6Al6PdAu5
_symmetry_space_group_name_H-M   'P 1'
_cell_length_a   7.53247700
_cell_length_b   7.53247774
_cell_length_c   8.55343700
_cell_angle_alpha   90.00000000
_cell_angle_beta   90.00000000
_cell_angle_gamma   120.00000115
_symmetry_Int_Tables_number   1
_chemical_formula_structural   La6Al6PdAu5
_chemical_formula_sum   'La6 Al6 Pd1 Au5'
_cell_volume   420.28796949
_cell_formula_units_Z   1
loop_
 _symmetry_equiv_pos_site_id
 _symmetry_equiv_pos_as_xyz
  1  'x, y, z'
loop_
 _atom_site_type_symbol
 _atom_site_label
 _atom_site_symmetry_multiplicity
 _atom_site_fract_x
 _atom_site_fract_y
 _atom_site_fract_z
 _atom_site_occupancy
  La  La0  1  0.578468  0.999086  0.750000  1
  La  La1  1  0.000914  0.579383  0.750000  1
  La  La2  1  0.420617  0.421532  0.750000  1
  La  La3  1  0.998850  0.584738  0.250000  1
  La  La4  1  0.585889  0.001150  0.250000  1
  La  La5  1  0.415262  0.414111  0.250000  1
  Al  Al6  1  0.774648  0.775147  0.004869  1
  Al  Al7  1  0.224853  0.999501  0.004869  1
  Al  Al8  1  0.000499  0.225352  0.004869  1
  Al  Al9  1  0.774648  0.775147  0.495131  1
  Al  Al10  1  0.224853  0.999501  0.495131  1
  Al  Al11  1  0.000499  0.225352  0.495131  1
  Pd  Pd12  1  0.000000  0.000000  0.250000  1
  Au  Au13  1  0.000000  0.000000  0.750000  1
  Au  Au14  1  0.666667  0.333333  0.999090  1
  Au  Au15  1  0.666667  0.333333  0.500910  1
  Au  Au16  1  0.333333  0.666667  0.498501  1
  Au  Au17  1  0.333333  0.666667  0.001499  1
