# generated using pymatgen
data_Pr3GaGeIr2
_symmetry_space_group_name_H-M   'P 1'
_cell_length_a   5.80777000
_cell_length_b   8.21811100
_cell_length_c   13.64042100
_cell_angle_alpha   90.00000000
_cell_angle_beta   90.00000000
_cell_angle_gamma   90.00000000
_symmetry_Int_Tables_number   1
_chemical_formula_structural   Pr3GaGeIr2
_chemical_formula_sum   'Pr12 Ga4 Ge4 Ir8'
_cell_volume   651.04226971
_cell_formula_units_Z   4
loop_
 _symmetry_equiv_pos_site_id
 _symmetry_equiv_pos_as_xyz
  1  'x, y, z'
loop_
 _atom_site_type_symbol
 _atom_site_label
 _atom_site_symmetry_multiplicity
 _atom_site_fract_x
 _atom_site_fract_y
 _atom_site_fract_z
 _atom_site_occupancy
  Pr  Pr0  1  0.150406  0.899566  0.600736  1
  Pr  Pr1  1  0.849594  0.100434  0.100736  1
  Pr  Pr2  1  0.150406  0.600434  0.399264  1
  Pr  Pr3  1  0.849594  0.399566  0.899264  1
  Pr  Pr4  1  0.849594  0.100434  0.399264  1
  Pr  Pr5  1  0.150406  0.899566  0.899264  1
  Pr  Pr6  1  0.849594  0.399566  0.600736  1
  Pr  Pr7  1  0.150406  0.600434  0.100736  1
  Pr  Pr8  1  0.366569  0.257798  0.750000  1
  Pr  Pr9  1  0.633431  0.742202  0.250000  1
  Pr  Pr10  1  0.366569  0.242202  0.250000  1
  Pr  Pr11  1  0.633431  0.757798  0.750000  1
  Ga  Ga12  1  0.381909  0.250000  0.500000  1
  Ga  Ga13  1  0.618091  0.750000  0.000000  1
  Ga  Ga14  1  0.618091  0.750000  0.500000  1
  Ga  Ga15  1  0.381909  0.250000  0.000000  1
  Ge  Ge16  1  0.859802  0.112513  0.750000  1
  Ge  Ge17  1  0.140198  0.887487  0.250000  1
  Ge  Ge18  1  0.859802  0.387487  0.250000  1
  Ge  Ge19  1  0.140198  0.612513  0.750000  1
  Ir  Ir20  1  0.641844  0.027491  0.592513  1
  Ir  Ir21  1  0.358156  0.972509  0.092513  1
  Ir  Ir22  1  0.641844  0.472509  0.407487  1
  Ir  Ir23  1  0.358156  0.527491  0.907487  1
  Ir  Ir24  1  0.358156  0.972509  0.407487  1
  Ir  Ir25  1  0.641844  0.027491  0.907487  1
  Ir  Ir26  1  0.358156  0.527491  0.592513  1
  Ir  Ir27  1  0.641844  0.472509  0.092513  1
