# generated using pymatgen
data_PuUB8
_symmetry_space_group_name_H-M   'P 1'
_cell_length_a   7.07366600
_cell_length_b   7.06196500
_cell_length_c   3.97794800
_cell_angle_alpha   90.00000000
_cell_angle_beta   90.00000000
_cell_angle_gamma   90.00000000
_symmetry_Int_Tables_number   1
_chemical_formula_structural   PuUB8
_chemical_formula_sum   'Pu2 U2 B16'
_cell_volume   198.71434165
_cell_formula_units_Z   2
loop_
 _symmetry_equiv_pos_site_id
 _symmetry_equiv_pos_as_xyz
  1  'x, y, z'
loop_
 _atom_site_type_symbol
 _atom_site_label
 _atom_site_symmetry_multiplicity
 _atom_site_fract_x
 _atom_site_fract_y
 _atom_site_fract_z
 _atom_site_occupancy
  Pu  Pu0  1  0.811279  0.311635  0.000000  1
  Pu  Pu1  1  0.311279  0.188365  0.000000  1
  U  U2  1  0.689639  0.810426  0.000000  1
  U  U3  1  0.189639  0.689574  0.000000  1
  B  B4  1  0.999963  0.000266  0.200442  1
  B  B5  1  0.499963  0.499734  0.799558  1
  B  B6  1  0.999963  0.000266  0.799558  1
  B  B7  1  0.499963  0.499734  0.200442  1
  B  B8  1  0.587599  0.085542  0.500000  1
  B  B9  1  0.087599  0.414458  0.500000  1
  B  B10  1  0.912571  0.587820  0.500000  1
  B  B11  1  0.412571  0.912180  0.500000  1
  B  B12  1  0.038564  0.178108  0.500000  1
  B  B13  1  0.177729  0.960859  0.500000  1
  B  B14  1  0.821327  0.037089  0.500000  1
  B  B15  1  0.961366  0.821764  0.500000  1
  B  B16  1  0.461366  0.678236  0.500000  1
  B  B17  1  0.538564  0.321892  0.500000  1
  B  B18  1  0.677729  0.539141  0.500000  1
  B  B19  1  0.321327  0.462911  0.500000  1
