# generated using pymatgen
data_Nd3Si6(Pd3Pt)5
_symmetry_space_group_name_H-M   'P 1'
_cell_length_a   8.77648819
_cell_length_b   8.78928532
_cell_length_c   8.80341400
_cell_angle_alpha   59.94681044
_cell_angle_beta   59.89846111
_cell_angle_gamma   59.92736033
_symmetry_Int_Tables_number   1
_chemical_formula_structural   Nd3Si6(Pd3Pt)5
_chemical_formula_sum   'Nd3 Si6 Pd15 Pt5'
_cell_volume   479.36138492
_cell_formula_units_Z   1
loop_
 _symmetry_equiv_pos_site_id
 _symmetry_equiv_pos_as_xyz
  1  'x, y, z'
loop_
 _atom_site_type_symbol
 _atom_site_label
 _atom_site_symmetry_multiplicity
 _atom_site_fract_x
 _atom_site_fract_y
 _atom_site_fract_z
 _atom_site_occupancy
  Nd  Nd0  1  0.250616  0.250638  0.249373  1
  Nd  Nd1  1  0.749026  0.750107  0.750434  1
  Nd  Nd2  1  0.000034  0.000087  0.999940  1
  Si  Si3  1  0.730916  0.268435  0.267178  1
  Si  Si4  1  0.269784  0.730842  0.731739  1
  Si  Si5  1  0.269784  0.730842  0.267636  1
  Si  Si6  1  0.730916  0.268435  0.733471  1
  Si  Si7  1  0.268604  0.267548  0.731924  1
  Si  Si8  1  0.730619  0.732043  0.268669  1
  Pd  Pd9  1  0.618476  0.152917  0.614304  1
  Pd  Pd10  1  0.847989  0.381485  0.385262  1
  Pd  Pd11  1  0.151023  0.616721  0.616128  1
  Pd  Pd12  1  0.346284  0.000393  0.999371  1
  Pd  Pd13  1  0.653302  0.000683  0.000339  1
  Pd  Pd14  1  0.999507  0.347306  0.654106  1
  Pd  Pd15  1  0.999673  0.654391  0.346078  1
  Pd  Pd16  1  0.999507  0.347306  0.999082  1
  Pd  Pd17  1  0.653302  0.000683  0.345676  1
  Pd  Pd18  1  0.999673  0.654391  0.999858  1
  Pd  Pd19  1  0.346284  0.000393  0.653951  1
  Pd  Pd20  1  0.999844  0.000795  0.345954  1
  Pd  Pd21  1  0.999844  0.000795  0.653408  1
  Pd  Pd22  1  0.654147  0.347065  0.999394  1
  Pd  Pd23  1  0.346239  0.655007  0.999377  1
  Pt  Pt24  1  0.384295  0.384916  0.388456  1
  Pt  Pt25  1  0.616983  0.613231  0.612606  1
  Pt  Pt26  1  0.384295  0.384916  0.842332  1
  Pt  Pt27  1  0.382050  0.844399  0.386775  1
  Pt  Pt28  1  0.616983  0.613231  0.157181  1
