# generated using pymatgen
data_SrTbZr2(NiP)4
_symmetry_space_group_name_H-M   'P 1'
_cell_length_a   3.88576200
_cell_length_b   3.88576321
_cell_length_c   15.34537100
_cell_angle_alpha   90.00000000
_cell_angle_beta   90.00000000
_cell_angle_gamma   119.99998972
_symmetry_Int_Tables_number   1
_chemical_formula_structural   SrTbZr2(NiP)4
_chemical_formula_sum   'Sr1 Tb1 Zr2 Ni4 P4'
_cell_volume   200.65990308
_cell_formula_units_Z   1
loop_
 _symmetry_equiv_pos_site_id
 _symmetry_equiv_pos_as_xyz
  1  'x, y, z'
loop_
 _atom_site_type_symbol
 _atom_site_label
 _atom_site_symmetry_multiplicity
 _atom_site_fract_x
 _atom_site_fract_y
 _atom_site_fract_z
 _atom_site_occupancy
  Sr  Sr0  1  0.000000  0.000000  0.000000  1
  Tb  Tb1  1  0.000000  0.000000  0.500000  1
  Zr  Zr2  1  0.000000  0.000000  0.256063  1
  Zr  Zr3  1  0.000000  0.000000  0.743937  1
  Ni  Ni4  1  0.333333  0.666667  0.160654  1
  Ni  Ni5  1  0.666667  0.333333  0.839346  1
  Ni  Ni6  1  0.666667  0.333333  0.638837  1
  Ni  Ni7  1  0.333333  0.666667  0.361163  1
  P  P8  1  0.333333  0.666667  0.621045  1
  P  P9  1  0.666667  0.333333  0.378955  1
  P  P10  1  0.666667  0.333333  0.141290  1
  P  P11  1  0.333333  0.666667  0.858710  1
