# generated using pymatgen
data_CaCe(Al5Os)4
_symmetry_space_group_name_H-M   'P 1'
_cell_length_a   6.88274037
_cell_length_b   6.88273925
_cell_length_c   9.17395200
_cell_angle_alpha   90.00000000
_cell_angle_beta   90.00000000
_cell_angle_gamma   96.71860199
_symmetry_Int_Tables_number   1
_chemical_formula_structural   CaCe(Al5Os)4
_chemical_formula_sum   'Ca1 Ce1 Al20 Os4'
_cell_volume   431.60499022
_cell_formula_units_Z   1
loop_
 _symmetry_equiv_pos_site_id
 _symmetry_equiv_pos_as_xyz
  1  'x, y, z'
loop_
 _atom_site_type_symbol
 _atom_site_label
 _atom_site_symmetry_multiplicity
 _atom_site_fract_x
 _atom_site_fract_y
 _atom_site_fract_z
 _atom_site_occupancy
  Ca  Ca0  1  0.372542  0.627458  0.250000  1
  Ce  Ce1  1  0.626176  0.373824  0.750000  1
  Al  Al2  1  0.281110  0.018850  0.750000  1
  Al  Al3  1  0.022369  0.283210  0.250000  1
  Al  Al4  1  0.716790  0.977631  0.250000  1
  Al  Al5  1  0.981150  0.718890  0.750000  1
  Al  Al6  1  0.877406  0.122594  0.949644  1
  Al  Al7  1  0.123325  0.876675  0.042247  1
  Al  Al8  1  0.877406  0.122594  0.550356  1
  Al  Al9  1  0.123325  0.876675  0.457753  1
  Al  Al10  1  0.642646  0.911720  0.750000  1
  Al  Al11  1  0.914185  0.644205  0.250000  1
  Al  Al12  1  0.355795  0.085815  0.250000  1
  Al  Al13  1  0.088280  0.357354  0.750000  1
  Al  Al14  1  0.343899  0.656101  0.899682  1
  Al  Al15  1  0.659870  0.340130  0.102218  1
  Al  Al16  1  0.343899  0.656101  0.600318  1
  Al  Al17  1  0.659870  0.340130  0.397782  1
  Al  Al18  1  0.722544  0.724996  0.001194  1
  Al  Al19  1  0.722544  0.724996  0.498806  1
  Al  Al20  1  0.275004  0.277456  0.001194  1
  Al  Al21  1  0.275004  0.277456  0.498806  1
  Os  Os22  1  0.499965  0.002535  0.999672  1
  Os  Os23  1  0.997465  0.500035  0.999672  1
  Os  Os24  1  0.499965  0.002535  0.500328  1
  Os  Os25  1  0.997465  0.500035  0.500328  1
