# generated using pymatgen
data_Tm5GeSe4
_symmetry_space_group_name_H-M   'P 1'
_cell_length_a   7.00661259
_cell_length_b   7.00662062
_cell_length_c   7.00650313
_cell_angle_alpha   99.60762853
_cell_angle_beta   99.60951643
_cell_angle_gamma   131.77238429
_symmetry_Int_Tables_number   1
_chemical_formula_structural   Tm5GeSe4
_chemical_formula_sum   'Tm5 Ge1 Se4'
_cell_volume   234.14363404
_cell_formula_units_Z   1
loop_
 _symmetry_equiv_pos_site_id
 _symmetry_equiv_pos_as_xyz
  1  'x, y, z'
loop_
 _atom_site_type_symbol
 _atom_site_label
 _atom_site_symmetry_multiplicity
 _atom_site_fract_x
 _atom_site_fract_y
 _atom_site_fract_z
 _atom_site_occupancy
  Tm  Tm0  1  0.403122  0.790746  0.193870  1
  Tm  Tm1  1  0.000000  0.000000  0.000000  1
  Tm  Tm2  1  0.596878  0.209254  0.806130  1
  Tm  Tm3  1  0.209256  0.403126  0.612381  1
  Tm  Tm4  1  0.790744  0.596874  0.387619  1
  Ge  Ge5  1  0.500000  0.500000  0.000000  1
  Se  Se6  1  0.096730  0.697787  0.794517  1
  Se  Se7  1  0.697787  0.903269  0.601058  1
  Se  Se8  1  0.302213  0.096731  0.398942  1
  Se  Se9  1  0.903270  0.302213  0.205483  1
