# generated using pymatgen
data_Er2Sc3P12Ru19
_symmetry_space_group_name_H-M   'P 1'
_cell_length_a   12.45310600
_cell_length_b   12.45310673
_cell_length_c   3.94699700
_cell_angle_alpha   90.00000000
_cell_angle_beta   90.00000000
_cell_angle_gamma   119.99999805
_symmetry_Int_Tables_number   1
_chemical_formula_structural   Er2Sc3P12Ru19
_chemical_formula_sum   'Er2 Sc3 P12 Ru19'
_cell_volume   530.09393062
_cell_formula_units_Z   1
loop_
 _symmetry_equiv_pos_site_id
 _symmetry_equiv_pos_as_xyz
  1  'x, y, z'
loop_
 _atom_site_type_symbol
 _atom_site_label
 _atom_site_symmetry_multiplicity
 _atom_site_fract_x
 _atom_site_fract_y
 _atom_site_fract_z
 _atom_site_occupancy
  Er  Er0  1  0.666667  0.333333  0.000000  1
  Er  Er1  1  0.333333  0.666667  0.000000  1
  Sc  Sc2  1  0.000000  0.182040  0.500000  1
  Sc  Sc3  1  0.817960  0.817960  0.500000  1
  Sc  Sc4  1  0.182040  0.000000  0.500000  1
  P  P5  1  0.000000  0.818956  0.000000  1
  P  P6  1  0.181044  0.181044  0.000000  1
  P  P7  1  0.818956  0.000000  0.000000  1
  P  P8  1  0.693407  0.169973  0.500000  1
  P  P9  1  0.830027  0.523434  0.500000  1
  P  P10  1  0.476566  0.306593  0.500000  1
  P  P11  1  0.169973  0.693407  0.500000  1
  P  P12  1  0.523434  0.830027  0.500000  1
  P  P13  1  0.306593  0.476566  0.500000  1
  P  P14  1  0.000000  0.372680  0.000000  1
  P  P15  1  0.627320  0.627320  0.000000  1
  P  P16  1  0.372680  0.000000  0.000000  1
  Ru  Ru17  1  0.000000  0.556179  0.000000  1
  Ru  Ru18  1  0.443821  0.443821  0.000000  1
  Ru  Ru19  1  0.556179  0.000000  0.000000  1
  Ru  Ru20  1  0.000000  0.721389  0.500000  1
  Ru  Ru21  1  0.278611  0.278611  0.500000  1
  Ru  Ru22  1  0.721389  0.000000  0.500000  1
  Ru  Ru23  1  0.812156  0.184816  0.000000  1
  Ru  Ru24  1  0.815184  0.627339  0.000000  1
  Ru  Ru25  1  0.372661  0.187844  0.000000  1
  Ru  Ru26  1  0.184816  0.812156  0.000000  1
  Ru  Ru27  1  0.627339  0.815184  0.000000  1
  Ru  Ru28  1  0.187844  0.372661  0.000000  1
  Ru  Ru29  1  0.873702  0.365286  0.500000  1
  Ru  Ru30  1  0.634714  0.508416  0.500000  1
  Ru  Ru31  1  0.491584  0.126298  0.500000  1
  Ru  Ru32  1  0.365286  0.873702  0.500000  1
  Ru  Ru33  1  0.508416  0.634714  0.500000  1
  Ru  Ru34  1  0.126298  0.491584  0.500000  1
  Ru  Ru35  1  0.000000  0.000000  0.000000  1
