# generated using pymatgen
data_Ce2HgRhAu
_symmetry_space_group_name_H-M   'P 1'
_cell_length_a   7.94258785
_cell_length_b   7.94258660
_cell_length_c   3.75847200
_cell_angle_alpha   90.00000000
_cell_angle_beta   90.00000000
_cell_angle_gamma   88.85411609
_symmetry_Int_Tables_number   1
_chemical_formula_structural   Ce2HgRhAu
_chemical_formula_sum   'Ce4 Hg2 Rh2 Au2'
_cell_volume   237.05463148
_cell_formula_units_Z   2
loop_
 _symmetry_equiv_pos_site_id
 _symmetry_equiv_pos_as_xyz
  1  'x, y, z'
loop_
 _atom_site_type_symbol
 _atom_site_label
 _atom_site_symmetry_multiplicity
 _atom_site_fract_x
 _atom_site_fract_y
 _atom_site_fract_z
 _atom_site_occupancy
  Ce  Ce0  1  0.660557  0.160557  0.500000  1
  Ce  Ce1  1  0.339443  0.839443  0.500000  1
  Ce  Ce2  1  0.185957  0.314043  0.500000  1
  Ce  Ce3  1  0.814043  0.685957  0.500000  1
  Hg  Hg4  1  0.000000  0.000000  0.000000  1
  Hg  Hg5  1  0.500000  0.500000  0.000000  1
  Rh  Rh6  1  0.633952  0.866048  0.000000  1
  Rh  Rh7  1  0.366048  0.133952  0.000000  1
  Au  Au8  1  0.128018  0.628018  0.000000  1
  Au  Au9  1  0.871982  0.371982  0.000000  1
