# generated using pymatgen
data_Li3Zr2SnRh6
_symmetry_space_group_name_H-M   'P 1'
_cell_length_a   4.43059300
_cell_length_b   6.26009700
_cell_length_c   13.29953800
_cell_angle_alpha   90.00000000
_cell_angle_beta   89.99974575
_cell_angle_gamma   90.00000000
_symmetry_Int_Tables_number   1
_chemical_formula_structural   Li3Zr2SnRh6
_chemical_formula_sum   'Li6 Zr4 Sn2 Rh12'
_cell_volume   368.87521390
_cell_formula_units_Z   2
loop_
 _symmetry_equiv_pos_site_id
 _symmetry_equiv_pos_as_xyz
  1  'x, y, z'
loop_
 _atom_site_type_symbol
 _atom_site_label
 _atom_site_symmetry_multiplicity
 _atom_site_fract_x
 _atom_site_fract_y
 _atom_site_fract_z
 _atom_site_occupancy
  Li  Li0  1  0.999975  0.000000  0.999027  1
  Li  Li1  1  0.499788  0.499999  0.165864  1
  Li  Li2  1  0.999794  0.000000  0.334126  1
  Li  Li3  1  0.499975  0.499999  0.500987  1
  Li  Li4  1  0.000225  0.000000  0.668268  1
  Li  Li5  1  0.500230  0.499999  0.831766  1
  Zr  Zr6  1  0.000030  0.499999  0.998387  1
  Zr  Zr7  1  0.499711  0.000000  0.165439  1
  Zr  Zr8  1  0.999716  0.499999  0.334557  1
  Zr  Zr9  1  0.500032  0.000000  0.501619  1
  Sn  Sn10  1  0.000262  0.499999  0.669748  1
  Sn  Sn11  1  0.500251  0.000000  0.830253  1
  Rh  Rh12  1  0.500012  0.246721  0.998032  1
  Rh  Rh13  1  0.500012  0.753279  0.998032  1
  Rh  Rh14  1  0.999722  0.250629  0.166625  1
  Rh  Rh15  1  0.999722  0.749369  0.166625  1
  Rh  Rh16  1  0.499730  0.249366  0.333362  1
  Rh  Rh17  1  0.499730  0.750634  0.333362  1
  Rh  Rh18  1  0.000016  0.253259  0.501962  1
  Rh  Rh19  1  0.000016  0.746741  0.501962  1
  Rh  Rh20  1  0.500263  0.249975  0.665683  1
  Rh  Rh21  1  0.500263  0.750025  0.665683  1
  Rh  Rh22  1  0.000258  0.250059  0.834316  1
  Rh  Rh23  1  0.000258  0.749939  0.834316  1
