# generated using pymatgen
data_Dy2HoLu5(Si3Rh)4
_symmetry_space_group_name_H-M   'P 1'
_cell_length_a   8.13788621
_cell_length_b   8.13019799
_cell_length_c   7.76888900
_cell_angle_alpha   90.00000000
_cell_angle_beta   90.00000000
_cell_angle_gamma   119.96875374
_symmetry_Int_Tables_number   1
_chemical_formula_structural   Dy2HoLu5(Si3Rh)4
_chemical_formula_sum   'Dy2 Ho1 Lu5 Si12 Rh4'
_cell_volume   445.28589464
_cell_formula_units_Z   1
loop_
 _symmetry_equiv_pos_site_id
 _symmetry_equiv_pos_as_xyz
  1  'x, y, z'
loop_
 _atom_site_type_symbol
 _atom_site_label
 _atom_site_symmetry_multiplicity
 _atom_site_fract_x
 _atom_site_fract_y
 _atom_site_fract_z
 _atom_site_occupancy
  Dy  Dy0  1  0.000298  0.000149  0.250000  1
  Dy  Dy1  1  0.999711  0.999855  0.750000  1
  Ho  Ho2  1  0.018969  0.509485  0.750000  1
  Lu  Lu3  1  0.509136  0.490785  0.250000  1
  Lu  Lu4  1  0.509136  0.018351  0.250000  1
  Lu  Lu5  1  0.981603  0.490801  0.250000  1
  Lu  Lu6  1  0.491260  0.509199  0.750000  1
  Lu  Lu7  1  0.491260  0.982060  0.750000  1
  Si  Si8  1  0.167634  0.832988  0.499250  1
  Si  Si9  1  0.167634  0.334644  0.499250  1
  Si  Si10  1  0.665184  0.832592  0.500050  1
  Si  Si11  1  0.832504  0.167183  0.499522  1
  Si  Si12  1  0.832504  0.665322  0.499522  1
  Si  Si13  1  0.334508  0.167255  0.499719  1
  Si  Si14  1  0.832504  0.167183  0.000478  1
  Si  Si15  1  0.832504  0.665322  0.000478  1
  Si  Si16  1  0.334508  0.167255  0.000281  1
  Si  Si17  1  0.167634  0.832988  0.000750  1
  Si  Si18  1  0.167634  0.334644  0.000750  1
  Si  Si19  1  0.665184  0.832592  0.999950  1
  Rh  Rh20  1  0.334039  0.667020  0.463849  1
  Rh  Rh21  1  0.665308  0.332653  0.533374  1
  Rh  Rh22  1  0.665308  0.332653  0.966626  1
  Rh  Rh23  1  0.334039  0.667020  0.036151  1
