# generated using pymatgen
data_Tb3Rh2Au3
_symmetry_space_group_name_H-M   'P 1'
_cell_length_a   7.30500700
_cell_length_b   7.30500670
_cell_length_c   3.68357200
_cell_angle_alpha   90.00000000
_cell_angle_beta   90.00000000
_cell_angle_gamma   120.00000589
_symmetry_Int_Tables_number   1
_chemical_formula_structural   Tb3Rh2Au3
_chemical_formula_sum   'Tb3 Rh2 Au3'
_cell_volume   170.23193038
_cell_formula_units_Z   1
loop_
 _symmetry_equiv_pos_site_id
 _symmetry_equiv_pos_as_xyz
  1  'x, y, z'
loop_
 _atom_site_type_symbol
 _atom_site_label
 _atom_site_symmetry_multiplicity
 _atom_site_fract_x
 _atom_site_fract_y
 _atom_site_fract_z
 _atom_site_occupancy
  Tb  Tb0  1  0.591813  0.000000  0.500000  1
  Tb  Tb1  1  0.408188  0.408188  0.500000  1
  Tb  Tb2  1  0.000000  0.591812  0.500000  1
  Rh  Rh3  1  0.666667  0.333334  0.000000  1
  Rh  Rh4  1  0.333333  0.666666  0.000000  1
  Au  Au5  1  0.229857  0.000000  0.000000  1
  Au  Au6  1  0.000000  0.229857  0.000000  1
  Au  Au7  1  0.770144  0.770144  0.000000  1
