# generated using pymatgen
data_Ca7Lu(AgSn)4
_symmetry_space_group_name_H-M   'P 1'
_cell_length_a   7.56529685
_cell_length_b   5.29673400
_cell_length_c   10.59925159
_cell_angle_alpha   90.00000000
_cell_angle_beta   90.08011100
_cell_angle_gamma   90.00000000
_symmetry_Int_Tables_number   1
_chemical_formula_structural   Ca7Lu(AgSn)4
_chemical_formula_sum   'Ca7 Lu1 Ag4 Sn4'
_cell_volume   424.72606444
_cell_formula_units_Z   1
loop_
 _symmetry_equiv_pos_site_id
 _symmetry_equiv_pos_as_xyz
  1  'x, y, z'
loop_
 _atom_site_type_symbol
 _atom_site_label
 _atom_site_symmetry_multiplicity
 _atom_site_fract_x
 _atom_site_fract_y
 _atom_site_fract_z
 _atom_site_occupancy
  Ca  Ca0  1  0.495755  0.750000  0.125842  1
  Ca  Ca1  1  0.000598  0.250000  0.377816  1
  Ca  Ca2  1  0.500019  0.250000  0.373085  1
  Ca  Ca3  1  0.503727  0.750000  0.625524  1
  Ca  Ca4  1  0.002329  0.750000  0.625703  1
  Ca  Ca5  1  0.499834  0.250000  0.875527  1
  Ca  Ca6  1  0.000362  0.250000  0.870493  1
  Lu  Lu7  1  0.998149  0.750000  0.125618  1
  Ag  Ag8  1  0.766935  0.250000  0.123103  1
  Ag  Ag9  1  0.241004  0.750000  0.369124  1
  Ag  Ag10  1  0.749819  0.250000  0.622943  1
  Ag  Ag11  1  0.240991  0.750000  0.884559  1
  Sn  Sn12  1  0.236838  0.250000  0.123935  1
  Sn  Sn13  1  0.756013  0.750000  0.370540  1
  Sn  Sn14  1  0.252446  0.250000  0.623870  1
  Sn  Sn15  1  0.755178  0.750000  0.882320  1
