# generated using pymatgen
data_TmTaTiFe9
_symmetry_space_group_name_H-M   'P 1'
_cell_length_a   4.87882178
_cell_length_b   4.87882297
_cell_length_c   8.32180320
_cell_angle_alpha   72.95427390
_cell_angle_beta   72.95426813
_cell_angle_gamma   59.99999659
_symmetry_Int_Tables_number   1
_chemical_formula_structural   TmTaTiFe9
_chemical_formula_sum   'Tm1 Ta1 Ti1 Fe9'
_cell_volume   161.41913310
_cell_formula_units_Z   1
loop_
 _symmetry_equiv_pos_site_id
 _symmetry_equiv_pos_as_xyz
  1  'x, y, z'
loop_
 _atom_site_type_symbol
 _atom_site_label
 _atom_site_symmetry_multiplicity
 _atom_site_fract_x
 _atom_site_fract_y
 _atom_site_fract_z
 _atom_site_occupancy
  Tm  Tm0  1  0.000645  0.000645  0.998064  1
  Ta  Ta1  1  0.855228  0.855228  0.434319  1
  Ti  Ti2  1  0.144175  0.144175  0.567472  1
  Fe  Fe3  1  0.082059  0.588427  0.741085  1
  Fe  Fe4  1  0.588427  0.588427  0.741085  1
  Fe  Fe5  1  0.588427  0.082059  0.741085  1
  Fe  Fe6  1  0.918280  0.411340  0.259041  1
  Fe  Fe7  1  0.411340  0.411340  0.259041  1
  Fe  Fe8  1  0.411340  0.918280  0.259041  1
  Fe  Fe9  1  0.333593  0.333593  0.999220  1
  Fe  Fe10  1  0.666547  0.666547  0.000359  1
  Fe  Fe11  1  0.499937  0.499937  0.500188  1
