# generated using pymatgen
data_Dy3Er17AlBi11
_symmetry_space_group_name_H-M   'P 1'
_cell_length_a   8.18210870
_cell_length_b   9.44124900
_cell_length_c   11.95702194
_cell_angle_alpha   90.00000000
_cell_angle_beta   90.28827386
_cell_angle_gamma   90.00000000
_symmetry_Int_Tables_number   1
_chemical_formula_structural   Dy3Er17AlBi11
_chemical_formula_sum   'Dy3 Er17 Al1 Bi11'
_cell_volume   923.66018992
_cell_formula_units_Z   1
loop_
 _symmetry_equiv_pos_site_id
 _symmetry_equiv_pos_as_xyz
  1  'x, y, z'
loop_
 _atom_site_type_symbol
 _atom_site_label
 _atom_site_symmetry_multiplicity
 _atom_site_fract_x
 _atom_site_fract_y
 _atom_site_fract_z
 _atom_site_occupancy
  Dy  Dy0  1  0.810714  0.250000  0.277846  1
  Dy  Dy1  1  0.686490  0.750000  0.780697  1
  Dy  Dy2  1  0.187898  0.750000  0.718300  1
  Er  Er3  1  0.352215  0.750000  0.216758  1
  Er  Er4  1  0.851068  0.750000  0.283196  1
  Er  Er5  1  0.645156  0.250000  0.792174  1
  Er  Er6  1  0.146881  0.250000  0.715957  1
  Er  Er7  1  0.692032  0.553399  0.059068  1
  Er  Er8  1  0.192708  0.935172  0.440460  1
  Er  Er9  1  0.314841  0.070402  0.944014  1
  Er  Er10  1  0.807341  0.435002  0.560072  1
  Er  Er11  1  0.314841  0.429598  0.944014  1
  Er  Er12  1  0.807341  0.064998  0.560072  1
  Er  Er13  1  0.692032  0.946601  0.059068  1
  Er  Er14  1  0.192708  0.564828  0.440460  1
  Er  Er15  1  0.475571  0.250000  0.488597  1
  Er  Er16  1  0.965288  0.250000  0.011188  1
  Er  Er17  1  0.523705  0.750000  0.511095  1
  Er  Er18  1  0.021996  0.750000  0.989090  1
  Er  Er19  1  0.321357  0.250000  0.212738  1
  Al  Al20  1  0.592044  0.250000  0.041032  1
  Bi  Bi21  1  0.405629  0.750000  0.958190  1
  Bi  Bi22  1  0.905461  0.750000  0.541696  1
  Bi  Bi23  1  0.093733  0.250000  0.456621  1
  Bi  Bi24  1  0.564014  0.996183  0.325040  1
  Bi  Bi25  1  0.065388  0.504209  0.174835  1
  Bi  Bi26  1  0.435253  0.495019  0.673623  1
  Bi  Bi27  1  0.935818  0.004290  0.825300  1
  Bi  Bi28  1  0.435253  0.004981  0.673623  1
  Bi  Bi29  1  0.935818  0.495710  0.825300  1
  Bi  Bi30  1  0.564014  0.503817  0.325040  1
  Bi  Bi31  1  0.065388  0.995791  0.174835  1
