# generated using pymatgen
data_Zr4Pa4TaNbGe8
_symmetry_space_group_name_H-M   'P 1'
_cell_length_a   7.18352400
_cell_length_b   7.30811600
_cell_length_c   13.99464500
_cell_angle_alpha   90.00000000
_cell_angle_beta   90.00000000
_cell_angle_gamma   90.00000000
_symmetry_Int_Tables_number   1
_chemical_formula_structural   Zr4Pa4TaNbGe8
_chemical_formula_sum   'Zr8 Pa8 Ta2 Nb2 Ge16'
_cell_volume   734.69124660
_cell_formula_units_Z   2
loop_
 _symmetry_equiv_pos_site_id
 _symmetry_equiv_pos_as_xyz
  1  'x, y, z'
loop_
 _atom_site_type_symbol
 _atom_site_label
 _atom_site_symmetry_multiplicity
 _atom_site_fract_x
 _atom_site_fract_y
 _atom_site_fract_z
 _atom_site_occupancy
  Zr  Zr0  1  0.846817  0.667109  0.124594  1
  Zr  Zr1  1  0.346817  0.832891  0.375406  1
  Zr  Zr2  1  0.653051  0.167253  0.875546  1
  Zr  Zr3  1  0.153051  0.332747  0.624454  1
  Zr  Zr4  1  0.153051  0.332747  0.875546  1
  Zr  Zr5  1  0.653051  0.167253  0.624454  1
  Zr  Zr6  1  0.346817  0.832891  0.124594  1
  Zr  Zr7  1  0.846817  0.667109  0.375406  1
  Pa  Pa8  1  0.007860  0.175842  0.095703  1
  Pa  Pa9  1  0.507860  0.324158  0.404297  1
  Pa  Pa10  1  0.492204  0.675904  0.904482  1
  Pa  Pa11  1  0.992204  0.824096  0.595518  1
  Pa  Pa12  1  0.992204  0.824096  0.904482  1
  Pa  Pa13  1  0.492204  0.675904  0.595518  1
  Pa  Pa14  1  0.507860  0.324158  0.095703  1
  Pa  Pa15  1  0.007860  0.175842  0.404297  1
  Ta  Ta16  1  0.674969  0.003399  0.250000  1
  Ta  Ta17  1  0.174969  0.496601  0.250000  1
  Nb  Nb18  1  0.825042  0.503355  0.750000  1
  Nb  Nb19  1  0.325042  0.996645  0.750000  1
  Ge  Ge20  1  0.811104  0.359501  0.250000  1
  Ge  Ge21  1  0.311104  0.140499  0.250000  1
  Ge  Ge22  1  0.689598  0.860077  0.750000  1
  Ge  Ge23  1  0.189598  0.639923  0.750000  1
  Ge  Ge24  1  0.043705  0.879590  0.250000  1
  Ge  Ge25  1  0.543705  0.620410  0.250000  1
  Ge  Ge26  1  0.455875  0.379870  0.750000  1
  Ge  Ge27  1  0.955875  0.120130  0.750000  1
  Ge  Ge28  1  0.815057  0.460009  0.957101  1
  Ge  Ge29  1  0.315057  0.039991  0.542899  1
  Ge  Ge30  1  0.684864  0.959899  0.043254  1
  Ge  Ge31  1  0.184864  0.540101  0.456746  1
  Ge  Ge32  1  0.184864  0.540101  0.043254  1
  Ge  Ge33  1  0.684864  0.959899  0.456746  1
  Ge  Ge34  1  0.315057  0.039991  0.957101  1
  Ge  Ge35  1  0.815057  0.460009  0.542899  1
