# generated using pymatgen
data_Pr10Ir4RuRh
_symmetry_space_group_name_H-M   'P 1'
_cell_length_a   11.30892500
_cell_length_b   11.30892500
_cell_length_c   6.69792500
_cell_angle_alpha   90.00000000
_cell_angle_beta   90.00000000
_cell_angle_gamma   90.00000000
_symmetry_Int_Tables_number   1
_chemical_formula_structural   Pr10Ir4RuRh
_chemical_formula_sum   'Pr20 Ir8 Ru2 Rh2'
_cell_volume   856.60958174
_cell_formula_units_Z   2
loop_
 _symmetry_equiv_pos_site_id
 _symmetry_equiv_pos_as_xyz
  1  'x, y, z'
loop_
 _atom_site_type_symbol
 _atom_site_label
 _atom_site_symmetry_multiplicity
 _atom_site_fract_x
 _atom_site_fract_y
 _atom_site_fract_z
 _atom_site_occupancy
  Pr  Pr0  1  0.294233  0.088157  0.386741  1
  Pr  Pr1  1  0.294233  0.911843  0.886741  1
  Pr  Pr2  1  0.705767  0.088157  0.886741  1
  Pr  Pr3  1  0.705767  0.911843  0.386741  1
  Pr  Pr4  1  0.588157  0.794233  0.886741  1
  Pr  Pr5  1  0.588157  0.205767  0.386741  1
  Pr  Pr6  1  0.411843  0.794233  0.386741  1
  Pr  Pr7  1  0.411843  0.205767  0.886741  1
  Pr  Pr8  1  0.209741  0.408966  0.615687  1
  Pr  Pr9  1  0.209741  0.591034  0.115687  1
  Pr  Pr10  1  0.790259  0.408966  0.115687  1
  Pr  Pr11  1  0.790259  0.591034  0.615687  1
  Pr  Pr12  1  0.908966  0.709741  0.115687  1
  Pr  Pr13  1  0.908966  0.290259  0.615687  1
  Pr  Pr14  1  0.091034  0.709741  0.615687  1
  Pr  Pr15  1  0.091034  0.290259  0.115687  1
  Pr  Pr16  1  0.000000  0.000000  0.494423  1
  Pr  Pr17  1  0.000000  0.000000  0.994423  1
  Pr  Pr18  1  0.500000  0.500000  0.994423  1
  Pr  Pr19  1  0.500000  0.500000  0.494423  1
  Ir  Ir20  1  0.848407  0.155371  0.249360  1
  Ir  Ir21  1  0.848407  0.844629  0.749360  1
  Ir  Ir22  1  0.151593  0.155371  0.749360  1
  Ir  Ir23  1  0.151593  0.844629  0.249360  1
  Ir  Ir24  1  0.655371  0.348407  0.749360  1
  Ir  Ir25  1  0.655371  0.651593  0.249360  1
  Ir  Ir26  1  0.344629  0.348407  0.249360  1
  Ir  Ir27  1  0.344629  0.651593  0.749360  1
  Ru  Ru28  1  0.500000  0.000000  0.122380  1
  Ru  Ru29  1  0.500000  0.000000  0.622380  1
  Rh  Rh30  1  0.000000  0.500000  0.881627  1
  Rh  Rh31  1  0.000000  0.500000  0.381627  1
