# generated using pymatgen
data_TaNb2Tc(PO4)6
_symmetry_space_group_name_H-M   'P 1'
_cell_length_a   8.74439401
_cell_length_b   8.74127280
_cell_length_c   9.12033500
_cell_angle_alpha   91.03686088
_cell_angle_beta   118.73331053
_cell_angle_gamma   119.47733788
_symmetry_Int_Tables_number   1
_chemical_formula_structural   TaNb2Tc(PO4)6
_chemical_formula_sum   'Ta1 Nb2 Tc1 P6 O24'
_cell_volume   501.67596097
_cell_formula_units_Z   1
loop_
 _symmetry_equiv_pos_site_id
 _symmetry_equiv_pos_as_xyz
  1  'x, y, z'
loop_
 _atom_site_type_symbol
 _atom_site_label
 _atom_site_symmetry_multiplicity
 _atom_site_fract_x
 _atom_site_fract_y
 _atom_site_fract_z
 _atom_site_occupancy
  Ta  Ta0  1  0.216424  0.859143  0.075006  1
  Nb  Nb1  1  0.215510  0.358411  0.572203  1
  Nb  Nb2  1  0.786763  0.142839  0.929001  1
  Tc  Tc3  1  0.787682  0.642039  0.432935  1
  P  P4  1  0.992949  0.960586  0.248066  1
  P  P5  1  0.288005  0.536075  0.255283  1
  P  P6  1  0.279141  0.752108  0.746600  1
  P  P7  1  0.717772  0.252550  0.253636  1
  P  P8  1  0.720108  0.468163  0.745778  1
  P  P9  1  0.001246  0.030359  0.749753  1
  O  O10  1  0.288322  0.710235  0.218331  1
  O  O11  1  0.863104  0.992562  0.078892  1
  O  O12  1  0.843598  0.853092  0.589396  1
  O  O13  1  0.845734  0.795737  0.274817  1
  O  O14  1  0.141529  0.930212  0.222283  1
  O  O15  1  0.478882  0.552678  0.276667  1
  O  O16  1  0.100214  0.740985  0.581536  1
  O  O17  1  0.916772  0.640576  0.913752  1
  O  O18  1  0.277324  0.781415  0.913463  1
  O  O19  1  0.490193  0.917586  0.781062  1
  O  O20  1  0.732813  0.482740  0.585431  1
  O  O21  1  0.717408  0.425541  0.269403  1
  O  O22  1  0.275754  0.574234  0.722330  1
  O  O23  1  0.272190  0.513116  0.415846  1
  O  O24  1  0.510348  0.079523  0.221616  1
  O  O25  1  0.718958  0.213141  0.088277  1
  O  O26  1  0.084801  0.365179  0.088912  1
  O  O27  1  0.904873  0.268687  0.419398  1
  O  O28  1  0.521420  0.448093  0.717953  1
  O  O29  1  0.866982  0.076118  0.781508  1
  O  O30  1  0.148923  0.196627  0.718324  1
  O  O31  1  0.142792  0.142630  0.408407  1
  O  O32  1  0.140406  0.004127  0.919616  1
  O  O33  1  0.711063  0.292892  0.784516  1
