# generated using pymatgen
data_Y4AlIr
_symmetry_space_group_name_H-M   'P 1'
_cell_length_a   9.58666351
_cell_length_b   9.58666383
_cell_length_c   9.58666300
_cell_angle_alpha   59.99999941
_cell_angle_beta   59.99999832
_cell_angle_gamma   59.99999599
_symmetry_Int_Tables_number   1
_chemical_formula_structural   Y4AlIr
_chemical_formula_sum   'Y16 Al4 Ir4'
_cell_volume   622.99910829
_cell_formula_units_Z   4
loop_
 _symmetry_equiv_pos_site_id
 _symmetry_equiv_pos_as_xyz
  1  'x, y, z'
loop_
 _atom_site_type_symbol
 _atom_site_label
 _atom_site_symmetry_multiplicity
 _atom_site_fract_x
 _atom_site_fract_y
 _atom_site_fract_z
 _atom_site_occupancy
  Y  Y0  1  0.806133  0.193867  0.806133  1
  Y  Y1  1  0.938463  0.561537  0.561537  1
  Y  Y2  1  0.561537  0.938463  0.561537  1
  Y  Y3  1  0.806133  0.193867  0.193867  1
  Y  Y4  1  0.193867  0.806133  0.193867  1
  Y  Y5  1  0.352328  0.943017  0.352328  1
  Y  Y6  1  0.938463  0.938463  0.561537  1
  Y  Y7  1  0.561537  0.938463  0.938463  1
  Y  Y8  1  0.193867  0.806133  0.806133  1
  Y  Y9  1  0.352328  0.352328  0.943017  1
  Y  Y10  1  0.561537  0.561537  0.938463  1
  Y  Y11  1  0.352328  0.352328  0.352328  1
  Y  Y12  1  0.193867  0.193867  0.806133  1
  Y  Y13  1  0.806133  0.806133  0.193867  1
  Y  Y14  1  0.938463  0.561537  0.938463  1
  Y  Y15  1  0.943017  0.352328  0.352328  1
  Al  Al16  1  0.578346  0.578346  0.578346  1
  Al  Al17  1  0.578346  0.264964  0.578346  1
  Al  Al18  1  0.578346  0.578346  0.264964  1
  Al  Al19  1  0.264964  0.578346  0.578346  1
  Ir  Ir20  1  0.141807  0.141807  0.574579  1
  Ir  Ir21  1  0.574579  0.141807  0.141807  1
  Ir  Ir22  1  0.141807  0.574579  0.141807  1
  Ir  Ir23  1  0.141807  0.141807  0.141807  1
