# generated using pymatgen
data_Li8Pr7ThSb8
_symmetry_space_group_name_H-M   'P 1'
_cell_length_a   9.49767984
_cell_length_b   9.49767882
_cell_length_c   7.51994100
_cell_angle_alpha   89.97585147
_cell_angle_beta   90.02414853
_cell_angle_gamma   119.99675296
_symmetry_Int_Tables_number   1
_chemical_formula_structural   Li8Pr7ThSb8
_chemical_formula_sum   'Li8 Pr7 Th1 Sb8'
_cell_volume   587.48154351
_cell_formula_units_Z   1
loop_
 _symmetry_equiv_pos_site_id
 _symmetry_equiv_pos_as_xyz
  1  'x, y, z'
loop_
 _atom_site_type_symbol
 _atom_site_label
 _atom_site_symmetry_multiplicity
 _atom_site_fract_x
 _atom_site_fract_y
 _atom_site_fract_z
 _atom_site_occupancy
  Li  Li0  1  0.832522  0.167478  0.721183  1
  Li  Li1  1  0.833416  0.666127  0.723026  1
  Li  Li2  1  0.333873  0.166584  0.723026  1
  Li  Li3  1  0.166351  0.833649  0.223040  1
  Li  Li4  1  0.167412  0.334438  0.223575  1
  Li  Li5  1  0.665562  0.832588  0.223575  1
  Li  Li6  1  0.666552  0.333448  0.319148  1
  Li  Li7  1  0.333827  0.666173  0.816727  1
  Pr  Pr8  1  0.487939  0.972481  0.505561  1
  Pr  Pr9  1  0.027519  0.512061  0.505561  1
  Pr  Pr10  1  0.510942  0.489058  0.005080  1
  Pr  Pr11  1  0.510298  0.021214  0.005003  1
  Pr  Pr12  1  0.978786  0.489702  0.005003  1
  Pr  Pr13  1  0.999475  0.000525  0.499326  1
  Pr  Pr14  1  0.999386  0.000614  0.999810  1
  Th  Th15  1  0.486941  0.513059  0.506433  1
  Sb  Sb16  1  0.833223  0.166777  0.263545  1
  Sb  Sb17  1  0.830909  0.665092  0.266462  1
  Sb  Sb18  1  0.334908  0.169091  0.266462  1
  Sb  Sb19  1  0.166857  0.833143  0.765086  1
  Sb  Sb20  1  0.168555  0.334826  0.764322  1
  Sb  Sb21  1  0.665174  0.831445  0.764322  1
  Sb  Sb22  1  0.665377  0.334623  0.730534  1
  Sb  Sb23  1  0.334200  0.665800  0.232196  1
