# generated using pymatgen
data_Ho11Er9(In3Ru)2
_symmetry_space_group_name_H-M   'P 1'
_cell_length_a   9.53251004
_cell_length_b   9.53432767
_cell_length_c   9.78697600
_cell_angle_alpha   90.00000000
_cell_angle_beta   90.00528329
_cell_angle_gamma   120.00630882
_symmetry_Int_Tables_number   1
_chemical_formula_structural   Ho11Er9(In3Ru)2
_chemical_formula_sum   'Ho11 Er9 In6 Ru2'
_cell_volume   770.28046707
_cell_formula_units_Z   1
loop_
 _symmetry_equiv_pos_site_id
 _symmetry_equiv_pos_as_xyz
  1  'x, y, z'
loop_
 _atom_site_type_symbol
 _atom_site_label
 _atom_site_symmetry_multiplicity
 _atom_site_fract_x
 _atom_site_fract_y
 _atom_site_fract_z
 _atom_site_occupancy
  Ho  Ho0  1  0.209885  0.790553  0.439440  1
  Ho  Ho1  1  0.209885  0.419333  0.439440  1
  Ho  Ho2  1  0.580833  0.790417  0.439464  1
  Ho  Ho3  1  0.789919  0.209598  0.560637  1
  Ho  Ho4  1  0.789919  0.580320  0.560637  1
  Ho  Ho5  1  0.539712  0.460073  0.249623  1
  Ho  Ho6  1  0.539712  0.079640  0.249623  1
  Ho  Ho7  1  0.920477  0.460238  0.249458  1
  Ho  Ho8  1  0.460283  0.539669  0.750386  1
  Ho  Ho9  1  0.460283  0.920613  0.750386  1
  Ho  Ho10  1  0.079608  0.539805  0.750576  1
  Er  Er11  1  0.000213  0.000106  0.500026  1
  Er  Er12  1  0.000131  0.000065  0.000017  1
  Er  Er13  1  0.419268  0.209634  0.560554  1
  Er  Er14  1  0.790010  0.209785  0.939682  1
  Er  Er15  1  0.790010  0.580225  0.939682  1
  Er  Er16  1  0.419765  0.209882  0.939564  1
  Er  Er17  1  0.209943  0.790211  0.060337  1
  Er  Er18  1  0.209943  0.419733  0.060337  1
  Er  Er19  1  0.580303  0.790152  0.060293  1
  In  In20  1  0.885425  0.114510  0.249926  1
  In  In21  1  0.885425  0.770916  0.249926  1
  In  In22  1  0.229165  0.114582  0.249997  1
  In  In23  1  0.114549  0.885456  0.749989  1
  In  In24  1  0.114549  0.229092  0.749989  1
  In  In25  1  0.770955  0.885477  0.750129  1
  Ru  Ru26  1  0.333231  0.666616  0.249388  1
  Ru  Ru27  1  0.666597  0.333298  0.750495  1
