# generated using pymatgen
data_UP2PdO10
_symmetry_space_group_name_H-M   'P 1'
_cell_length_a   5.55575434
_cell_length_b   5.20762937
_cell_length_c   7.52798100
_cell_angle_alpha   107.52746573
_cell_angle_beta   110.38166287
_cell_angle_gamma   94.38551223
_symmetry_Int_Tables_number   1
_chemical_formula_structural   UP2PdO10
_chemical_formula_sum   'U1 P2 Pd1 O10'
_cell_volume   190.63818209
_cell_formula_units_Z   1
loop_
 _symmetry_equiv_pos_site_id
 _symmetry_equiv_pos_as_xyz
  1  'x, y, z'
loop_
 _atom_site_type_symbol
 _atom_site_label
 _atom_site_symmetry_multiplicity
 _atom_site_fract_x
 _atom_site_fract_y
 _atom_site_fract_z
 _atom_site_occupancy
  U  U0  1  0.000000  0.500000  0.000000  1
  P  P1  1  0.322983  0.108447  0.729549  1
  P  P2  1  0.677017  0.891553  0.270451  1
  Pd  Pd3  1  0.000000  0.500000  0.500000  1
  O  O4  1  0.169631  0.164859  0.870129  1
  O  O5  1  0.326258  0.798199  0.644802  1
  O  O6  1  0.938627  0.570552  0.754362  1
  O  O7  1  0.221694  0.219235  0.553243  1
  O  O8  1  0.778306  0.780765  0.446757  1
  O  O9  1  0.614751  0.242332  0.863664  1
  O  O10  1  0.385249  0.757668  0.136336  1
  O  O11  1  0.061373  0.429448  0.245638  1
  O  O12  1  0.673742  0.201801  0.355198  1
  O  O13  1  0.830369  0.835141  0.129871  1
