# generated using pymatgen
data_Hf2Sc2Fe6SiGe
_symmetry_space_group_name_H-M   'P 1'
_cell_length_a   4.98727518
_cell_length_b   4.98727525
_cell_length_c   8.01830107
_cell_angle_alpha   90.01330987
_cell_angle_beta   89.98668809
_cell_angle_gamma   120.02803000
_symmetry_Int_Tables_number   1
_chemical_formula_structural   Hf2Sc2Fe6SiGe
_chemical_formula_sum   'Hf2 Sc2 Fe6 Si1 Ge1'
_cell_volume   172.67000836
_cell_formula_units_Z   1
loop_
 _symmetry_equiv_pos_site_id
 _symmetry_equiv_pos_as_xyz
  1  'x, y, z'
loop_
 _atom_site_type_symbol
 _atom_site_label
 _atom_site_symmetry_multiplicity
 _atom_site_fract_x
 _atom_site_fract_y
 _atom_site_fract_z
 _atom_site_occupancy
  Hf  Hf0  1  0.333345  0.666655  0.066780  1
  Hf  Hf1  1  0.666655  0.333345  0.933220  1
  Sc  Sc2  1  0.666650  0.333350  0.559625  1
  Sc  Sc3  1  0.333350  0.666650  0.440375  1
  Fe  Fe4  1  0.172121  0.344222  0.756088  1
  Fe  Fe5  1  0.172133  0.827867  0.756107  1
  Fe  Fe6  1  0.655778  0.827879  0.756088  1
  Fe  Fe7  1  0.827879  0.655778  0.243912  1
  Fe  Fe8  1  0.827867  0.172133  0.243893  1
  Fe  Fe9  1  0.344222  0.172121  0.243912  1
  Si  Si10  1  0.000000  0.000000  0.000000  1
  Ge  Ge11  1  0.000000  0.000000  0.500000  1
