# generated using pymatgen
data_NdDy3(Si4Tc3)2
_symmetry_space_group_name_H-M   'P 1'
_cell_length_a   8.12296805
_cell_length_b   5.62021213
_cell_length_c   6.94587417
_cell_angle_alpha   76.68812006
_cell_angle_beta   90.37500342
_cell_angle_gamma   90.01231079
_symmetry_Int_Tables_number   1
_chemical_formula_structural   NdDy3(Si4Tc3)2
_chemical_formula_sum   'Nd1 Dy3 Si8 Tc6'
_cell_volume   308.57167302
_cell_formula_units_Z   1
loop_
 _symmetry_equiv_pos_site_id
 _symmetry_equiv_pos_as_xyz
  1  'x, y, z'
loop_
 _atom_site_type_symbol
 _atom_site_label
 _atom_site_symmetry_multiplicity
 _atom_site_fract_x
 _atom_site_fract_y
 _atom_site_fract_z
 _atom_site_occupancy
  Nd  Nd0  1  0.566420  0.063145  0.253466  1
  Dy  Dy1  1  0.933016  0.565731  0.248472  1
  Dy  Dy2  1  0.433174  0.936874  0.750500  1
  Dy  Dy3  1  0.066249  0.434532  0.751122  1
  Si  Si4  1  0.590451  0.613433  0.110800  1
  Si  Si5  1  0.091701  0.887964  0.885064  1
  Si  Si6  1  0.409027  0.392167  0.880729  1
  Si  Si7  1  0.911801  0.111848  0.113596  1
  Si  Si8  1  0.755550  0.711136  0.585687  1
  Si  Si9  1  0.248002  0.776163  0.414441  1
  Si  Si10  1  0.243613  0.286638  0.416348  1
  Si  Si11  1  0.750394  0.222592  0.587518  1
  Tc  Tc12  1  0.293090  0.611140  0.117567  1
  Tc  Tc13  1  0.793915  0.885491  0.879146  1
  Tc  Tc14  1  0.709038  0.388134  0.881794  1
  Tc  Tc15  1  0.207317  0.115603  0.118666  1
  Tc  Tc16  1  0.497442  0.497709  0.505443  1
  Tc  Tc17  1  0.999800  0.999700  0.499642  1
