# generated using pymatgen
data_Nd2Y2TcB12Os
_symmetry_space_group_name_H-M   'P 1'
_cell_length_a   3.72051300
_cell_length_b   9.24410129
_cell_length_c   11.68101708
_cell_angle_alpha   89.91199162
_cell_angle_beta   90.00000000
_cell_angle_gamma   90.00000000
_symmetry_Int_Tables_number   1
_chemical_formula_structural   Nd2Y2TcB12Os
_chemical_formula_sum   'Nd4 Y4 Tc2 B24 Os2'
_cell_volume   401.74239885
_cell_formula_units_Z   2
loop_
 _symmetry_equiv_pos_site_id
 _symmetry_equiv_pos_as_xyz
  1  'x, y, z'
loop_
 _atom_site_type_symbol
 _atom_site_label
 _atom_site_symmetry_multiplicity
 _atom_site_fract_x
 _atom_site_fract_y
 _atom_site_fract_z
 _atom_site_occupancy
  Nd  Nd0  1  0.000000  0.324558  0.415327  1
  Nd  Nd1  1  0.000000  0.675442  0.584673  1
  Nd  Nd2  1  0.000000  0.821680  0.086664  1
  Nd  Nd3  1  0.000000  0.178320  0.913336  1
  Y  Y4  1  0.000000  0.941651  0.370713  1
  Y  Y5  1  0.000000  0.058349  0.629287  1
  Y  Y6  1  0.000000  0.443767  0.130212  1
  Y  Y7  1  0.000000  0.556233  0.869788  1
  Tc  Tc8  1  0.000000  0.639384  0.319293  1
  Tc  Tc9  1  0.000000  0.360616  0.680707  1
  B  B10  1  0.500000  0.554838  0.430720  1
  B  B11  1  0.500000  0.445162  0.569280  1
  B  B12  1  0.500000  0.055524  0.069513  1
  B  B13  1  0.500000  0.944476  0.930487  1
  B  B14  1  0.500000  0.748765  0.416539  1
  B  B15  1  0.500000  0.251235  0.583461  1
  B  B16  1  0.500000  0.249182  0.083697  1
  B  B17  1  0.500000  0.750818  0.916303  1
  B  B18  1  0.500000  0.790423  0.265965  1
  B  B19  1  0.500000  0.209577  0.734035  1
  B  B20  1  0.500000  0.289737  0.233786  1
  B  B21  1  0.500000  0.710263  0.766214  1
  B  B22  1  0.500000  0.630600  0.185993  1
  B  B23  1  0.500000  0.369400  0.814007  1
  B  B24  1  0.500000  0.130087  0.313305  1
  B  B25  1  0.500000  0.869913  0.686695  1
  B  B26  1  0.500000  0.985018  0.212744  1
  B  B27  1  0.500000  0.014982  0.787256  1
  B  B28  1  0.500000  0.485002  0.286860  1
  B  B29  1  0.500000  0.514998  0.713140  1
  B  B30  1  0.500000  0.600246  0.027334  1
  B  B31  1  0.500000  0.399754  0.972666  1
  B  B32  1  0.500000  0.099806  0.472258  1
  B  B33  1  0.500000  0.900194  0.527742  1
  Os  Os34  1  0.000000  0.138534  0.179730  1
  Os  Os35  1  0.000000  0.861466  0.820270  1
