# generated using pymatgen
data_LiLa3Hg3Rh2
_symmetry_space_group_name_H-M   'P 1'
_cell_length_a   7.88449400
_cell_length_b   7.88449478
_cell_length_c   3.93477100
_cell_angle_alpha   90.00000000
_cell_angle_beta   90.00000000
_cell_angle_gamma   119.99999673
_symmetry_Int_Tables_number   1
_chemical_formula_structural   LiLa3Hg3Rh2
_chemical_formula_sum   'Li1 La3 Hg3 Rh2'
_cell_volume   211.83504281
_cell_formula_units_Z   1
loop_
 _symmetry_equiv_pos_site_id
 _symmetry_equiv_pos_as_xyz
  1  'x, y, z'
loop_
 _atom_site_type_symbol
 _atom_site_label
 _atom_site_symmetry_multiplicity
 _atom_site_fract_x
 _atom_site_fract_y
 _atom_site_fract_z
 _atom_site_occupancy
  Li  Li0  1  0.000000  0.000000  0.500000  1
  La  La1  1  0.420295  0.420295  0.500000  1
  La  La2  1  0.579705  0.000000  0.500000  1
  La  La3  1  0.000000  0.579705  0.500000  1
  Hg  Hg4  1  0.752430  0.752430  0.000000  1
  Hg  Hg5  1  0.247570  0.000000  0.000000  1
  Hg  Hg6  1  0.000000  0.247570  0.000000  1
  Rh  Rh7  1  0.666667  0.333333  0.000000  1
  Rh  Rh8  1  0.333333  0.666667  0.000000  1
