# generated using pymatgen
data_Ho12Tl2ZnOs2
_symmetry_space_group_name_H-M   'P 1'
_cell_length_a   8.44378987
_cell_length_b   8.44380072
_cell_length_c   8.44379000
_cell_angle_alpha   110.43836085
_cell_angle_beta   110.43833761
_cell_angle_gamma   107.55376277
_symmetry_Int_Tables_number   1
_chemical_formula_structural   Ho12Tl2ZnOs2
_chemical_formula_sum   'Ho12 Tl2 Zn1 Os2'
_cell_volume   463.04985668
_cell_formula_units_Z   1
loop_
 _symmetry_equiv_pos_site_id
 _symmetry_equiv_pos_as_xyz
  1  'x, y, z'
loop_
 _atom_site_type_symbol
 _atom_site_label
 _atom_site_symmetry_multiplicity
 _atom_site_fract_x
 _atom_site_fract_y
 _atom_site_fract_z
 _atom_site_occupancy
  Ho  Ho0  1  0.439778  0.192660  0.247107  1
  Ho  Ho1  1  0.560222  0.807340  0.752893  1
  Ho  Ho2  1  0.945557  0.192670  0.752894  1
  Ho  Ho3  1  0.192672  0.945557  0.752892  1
  Ho  Ho4  1  0.054443  0.807330  0.247106  1
  Ho  Ho5  1  0.807328  0.054443  0.247108  1
  Ho  Ho6  1  0.192663  0.439777  0.247105  1
  Ho  Ho7  1  0.807337  0.560223  0.752895  1
  Ho  Ho8  1  0.317022  0.317022  0.634042  1
  Ho  Ho9  1  0.682978  0.682978  0.365958  1
  Ho  Ho10  1  0.317017  0.682983  0.999999  1
  Ho  Ho11  1  0.682983  0.317017  0.000001  1
  Tl  Tl12  1  0.500000  0.000000  0.500000  1
  Tl  Tl13  1  0.000000  0.500000  0.500000  1
  Zn  Zn14  1  0.000000  0.000000  0.000000  1
  Os  Os15  1  0.345574  0.345573  0.000016  1
  Os  Os16  1  0.654426  0.654427  0.999984  1
