# generated using pymatgen
data_Sm5Hf3(P3Pd4)4
_symmetry_space_group_name_H-M   'P 1'
_cell_length_a   13.13196800
_cell_length_b   13.13196773
_cell_length_c   3.98202600
_cell_angle_alpha   90.00000000
_cell_angle_beta   90.00000000
_cell_angle_gamma   120.00000572
_symmetry_Int_Tables_number   1
_chemical_formula_structural   Sm5Hf3(P3Pd4)4
_chemical_formula_sum   'Sm5 Hf3 P12 Pd16'
_cell_volume   594.69504588
_cell_formula_units_Z   1
loop_
 _symmetry_equiv_pos_site_id
 _symmetry_equiv_pos_as_xyz
  1  'x, y, z'
loop_
 _atom_site_type_symbol
 _atom_site_label
 _atom_site_symmetry_multiplicity
 _atom_site_fract_x
 _atom_site_fract_y
 _atom_site_fract_z
 _atom_site_occupancy
  Sm  Sm0  1  0.666667  0.333333  0.000000  1
  Sm  Sm1  1  0.333333  0.666667  0.000000  1
  Sm  Sm2  1  0.811630  0.811630  0.500000  1
  Sm  Sm3  1  0.188370  0.000000  0.500000  1
  Sm  Sm4  1  0.000000  0.188370  0.500000  1
  Hf  Hf5  1  0.446052  0.446052  0.000000  1
  Hf  Hf6  1  0.553948  0.000000  0.000000  1
  Hf  Hf7  1  0.000000  0.553948  0.000000  1
  P  P8  1  0.683408  0.163874  0.500000  1
  P  P9  1  0.836126  0.519535  0.500000  1
  P  P10  1  0.480465  0.316592  0.500000  1
  P  P11  1  0.163874  0.683408  0.500000  1
  P  P12  1  0.519535  0.836126  0.500000  1
  P  P13  1  0.316592  0.480465  0.500000  1
  P  P14  1  0.174150  0.174150  0.000000  1
  P  P15  1  0.825850  0.000000  0.000000  1
  P  P16  1  0.000000  0.825850  0.000000  1
  P  P17  1  0.641305  0.641305  0.000000  1
  P  P18  1  0.358695  0.000000  0.000000  1
  P  P19  1  0.000000  0.358695  0.000000  1
  Pd  Pd20  1  0.870453  0.358520  0.500000  1
  Pd  Pd21  1  0.641480  0.511933  0.500000  1
  Pd  Pd22  1  0.488067  0.129547  0.500000  1
  Pd  Pd23  1  0.358520  0.870453  0.500000  1
  Pd  Pd24  1  0.511933  0.641480  0.500000  1
  Pd  Pd25  1  0.129547  0.488067  0.500000  1
  Pd  Pd26  1  0.806914  0.182166  0.000000  1
  Pd  Pd27  1  0.817834  0.624747  0.000000  1
  Pd  Pd28  1  0.375253  0.193086  0.000000  1
  Pd  Pd29  1  0.182166  0.806914  0.000000  1
  Pd  Pd30  1  0.624747  0.817834  0.000000  1
  Pd  Pd31  1  0.193086  0.375253  0.000000  1
  Pd  Pd32  1  0.275530  0.275530  0.500000  1
  Pd  Pd33  1  0.724470  0.000000  0.500000  1
  Pd  Pd34  1  0.000000  0.724470  0.500000  1
  Pd  Pd35  1  0.000000  0.000000  0.000000  1
