# generated using pymatgen
data_ErPa(ZnCo)2
_symmetry_space_group_name_H-M   'P 1'
_cell_length_a   3.62047100
_cell_length_b   6.90666101
_cell_length_c   8.31334243
_cell_angle_alpha   92.83305200
_cell_angle_beta   90.00000000
_cell_angle_gamma   90.00000000
_symmetry_Int_Tables_number   1
_chemical_formula_structural   ErPa(ZnCo)2
_chemical_formula_sum   'Er2 Pa2 Zn4 Co4'
_cell_volume   207.62409888
_cell_formula_units_Z   2
loop_
 _symmetry_equiv_pos_site_id
 _symmetry_equiv_pos_as_xyz
  1  'x, y, z'
loop_
 _atom_site_type_symbol
 _atom_site_label
 _atom_site_symmetry_multiplicity
 _atom_site_fract_x
 _atom_site_fract_y
 _atom_site_fract_z
 _atom_site_occupancy
  Er  Er0  1  0.750000  0.950647  0.682791  1
  Er  Er1  1  0.250000  0.049353  0.317209  1
  Pa  Pa2  1  0.250000  0.541015  0.189555  1
  Pa  Pa3  1  0.750000  0.458985  0.810445  1
  Zn  Zn4  1  0.250000  0.635946  0.552052  1
  Zn  Zn5  1  0.750000  0.364054  0.447948  1
  Zn  Zn6  1  0.750000  0.874459  0.056196  1
  Zn  Zn7  1  0.250000  0.125541  0.943804  1
  Co  Co8  1  0.250000  0.714302  0.867986  1
  Co  Co9  1  0.750000  0.285698  0.132014  1
  Co  Co10  1  0.750000  0.737006  0.342477  1
  Co  Co11  1  0.250000  0.262994  0.657523  1
