# generated using pymatgen
data_Hf4Sc7Os4
_symmetry_space_group_name_H-M   'P 1'
_cell_length_a   9.47484658
_cell_length_b   9.47484668
_cell_length_c   9.47484600
_cell_angle_alpha   60.00000237
_cell_angle_beta   60.00000202
_cell_angle_gamma   59.99999969
_symmetry_Int_Tables_number   1
_chemical_formula_structural   Hf4Sc7Os4
_chemical_formula_sum   'Hf8 Sc14 Os8'
_cell_volume   601.45280242
_cell_formula_units_Z   2
loop_
 _symmetry_equiv_pos_site_id
 _symmetry_equiv_pos_as_xyz
  1  'x, y, z'
loop_
 _atom_site_type_symbol
 _atom_site_label
 _atom_site_symmetry_multiplicity
 _atom_site_fract_x
 _atom_site_fract_y
 _atom_site_fract_z
 _atom_site_occupancy
  Hf  Hf0  1  0.841567  0.841567  0.841567  1
  Hf  Hf1  1  0.524701  0.158433  0.158433  1
  Hf  Hf2  1  0.158433  0.158433  0.524701  1
  Hf  Hf3  1  0.158433  0.524701  0.158433  1
  Hf  Hf4  1  0.841567  0.841567  0.475299  1
  Hf  Hf5  1  0.841567  0.475299  0.841567  1
  Hf  Hf6  1  0.475299  0.841567  0.841567  1
  Hf  Hf7  1  0.158433  0.158433  0.158433  1
  Sc  Sc8  1  0.198250  0.801750  0.198250  1
  Sc  Sc9  1  0.198250  0.801750  0.801750  1
  Sc  Sc10  1  0.801750  0.198250  0.198250  1
  Sc  Sc11  1  0.801750  0.801750  0.198250  1
  Sc  Sc12  1  0.198250  0.198250  0.801750  1
  Sc  Sc13  1  0.801750  0.198250  0.801750  1
  Sc  Sc14  1  0.383109  0.383109  0.383109  1
  Sc  Sc15  1  0.149327  0.616891  0.616891  1
  Sc  Sc16  1  0.616891  0.149327  0.616891  1
  Sc  Sc17  1  0.616891  0.616891  0.149327  1
  Sc  Sc18  1  0.383109  0.850673  0.383109  1
  Sc  Sc19  1  0.383109  0.383109  0.850673  1
  Sc  Sc20  1  0.850673  0.383109  0.383109  1
  Sc  Sc21  1  0.616891  0.616891  0.616891  1
  Os  Os22  1  0.500000  0.500000  0.000000  1
  Os  Os23  1  0.000000  0.000000  0.500000  1
  Os  Os24  1  0.500000  0.000000  0.500000  1
  Os  Os25  1  0.000000  0.500000  0.500000  1
  Os  Os26  1  0.500000  0.000000  0.000000  1
  Os  Os27  1  0.000000  0.500000  0.000000  1
  Os  Os28  1  0.500000  0.500000  0.500000  1
  Os  Os29  1  0.000000  0.000000  0.000000  1
