# generated using pymatgen
data_HfMg7(B6Ru)4
_symmetry_space_group_name_H-M   'P 1'
_cell_length_a   8.84654832
_cell_length_b   11.04335541
_cell_length_c   3.47294300
_cell_angle_alpha   90.00000000
_cell_angle_beta   90.00000000
_cell_angle_gamma   89.96887701
_symmetry_Int_Tables_number   1
_chemical_formula_structural   HfMg7(B6Ru)4
_chemical_formula_sum   'Hf1 Mg7 B24 Ru4'
_cell_volume   339.29112124
_cell_formula_units_Z   1
loop_
 _symmetry_equiv_pos_site_id
 _symmetry_equiv_pos_as_xyz
  1  'x, y, z'
loop_
 _atom_site_type_symbol
 _atom_site_label
 _atom_site_symmetry_multiplicity
 _atom_site_fract_x
 _atom_site_fract_y
 _atom_site_fract_z
 _atom_site_occupancy
  Hf  Hf0  1  0.674853  0.913361  0.000000  1
  Mg  Mg1  1  0.325148  0.088626  0.000000  1
  Mg  Mg2  1  0.944161  0.129676  0.000000  1
  Mg  Mg3  1  0.443567  0.371746  0.000000  1
  Mg  Mg4  1  0.827331  0.412838  0.000000  1
  Mg  Mg5  1  0.173253  0.585500  0.000000  1
  Mg  Mg6  1  0.555056  0.625971  0.000000  1
  Mg  Mg7  1  0.055933  0.871167  0.000000  1
  B  B8  1  0.094141  0.026154  0.500000  1
  B  B9  1  0.556442  0.064356  0.500000  1
  B  B10  1  0.755760  0.078823  0.500000  1
  B  B11  1  0.130400  0.180522  0.500000  1
  B  B12  1  0.478735  0.211342  0.500000  1
  B  B13  1  0.796481  0.238126  0.500000  1
  B  B14  1  0.296308  0.260993  0.500000  1
  B  B15  1  0.978873  0.288582  0.500000  1
  B  B16  1  0.630875  0.318497  0.500000  1
  B  B17  1  0.255915  0.420547  0.500000  1
  B  B18  1  0.053838  0.435835  0.500000  1
  B  B19  1  0.593198  0.473994  0.500000  1
  B  B20  1  0.407285  0.524828  0.500000  1
  B  B21  1  0.944969  0.565206  0.500000  1
  B  B22  1  0.744492  0.577847  0.500000  1
  B  B23  1  0.369204  0.679893  0.500000  1
  B  B24  1  0.020516  0.711789  0.500000  1
  B  B25  1  0.703747  0.738886  0.500000  1
  B  B26  1  0.204779  0.762084  0.500000  1
  B  B27  1  0.520176  0.788142  0.500000  1
  B  B28  1  0.869311  0.819715  0.500000  1
  B  B29  1  0.244134  0.921622  0.500000  1
  B  B30  1  0.445872  0.935869  0.500000  1
  B  B31  1  0.905410  0.974103  0.500000  1
  Ru  Ru32  1  0.640438  0.178994  0.000000  1
  Ru  Ru33  1  0.140718  0.321064  0.000000  1
  Ru  Ru34  1  0.855733  0.682237  0.000000  1
  Ru  Ru35  1  0.362948  0.821057  0.000000  1
