# generated using pymatgen
data_Ta6BeAl3(IrC)2
_symmetry_space_group_name_H-M   'P 1'
_cell_length_a   8.23579273
_cell_length_b   8.24541990
_cell_length_c   8.24541880
_cell_angle_alpha   60.08316187
_cell_angle_beta   60.03866766
_cell_angle_gamma   60.03865767
_symmetry_Int_Tables_number   1
_chemical_formula_structural   Ta6BeAl3(IrC)2
_chemical_formula_sum   'Ta12 Be2 Al6 Ir4 C4'
_cell_volume   396.40760973
_cell_formula_units_Z   2
loop_
 _symmetry_equiv_pos_site_id
 _symmetry_equiv_pos_as_xyz
  1  'x, y, z'
loop_
 _atom_site_type_symbol
 _atom_site_label
 _atom_site_symmetry_multiplicity
 _atom_site_fract_x
 _atom_site_fract_y
 _atom_site_fract_z
 _atom_site_occupancy
  Ta  Ta0  1  0.562216  0.937276  0.563451  1
  Ta  Ta1  1  0.309632  0.690297  0.690297  1
  Ta  Ta2  1  0.692693  0.312133  0.312133  1
  Ta  Ta3  1  0.312943  0.686549  0.312723  1
  Ta  Ta4  1  0.696100  0.685746  0.308682  1
  Ta  Ta5  1  0.312943  0.312723  0.686549  1
  Ta  Ta6  1  0.562216  0.563451  0.937276  1
  Ta  Ta7  1  0.940226  0.559703  0.559703  1
  Ta  Ta8  1  0.566960  0.937867  0.937867  1
  Ta  Ta9  1  0.940528  0.941318  0.564254  1
  Ta  Ta10  1  0.696100  0.308682  0.685746  1
  Ta  Ta11  1  0.940528  0.564254  0.941318  1
  Be  Be12  1  0.915791  0.916158  0.916158  1
  Be  Be13  1  0.998105  0.333843  0.333843  1
  Al  Al14  1  0.330266  0.002297  0.333456  1
  Al  Al15  1  0.330266  0.333456  0.002297  1
  Al  Al16  1  0.916019  0.247703  0.916544  1
  Al  Al17  1  0.916019  0.916544  0.247703  1
  Al  Al18  1  0.245354  0.916947  0.916947  1
  Al  Al19  1  0.329247  0.333053  0.333053  1
  Ir  Ir20  1  0.120103  0.128247  0.128247  1
  Ir  Ir21  1  0.626598  0.121753  0.121753  1
  Ir  Ir22  1  0.117227  0.625000  0.125000  1
  Ir  Ir23  1  0.117227  0.125000  0.625000  1
  C  C24  1  0.626245  0.623539  0.623539  1
  C  C25  1  0.123323  0.626461  0.626461  1
  C  C26  1  0.627565  0.125000  0.625000  1
  C  C27  1  0.627565  0.625000  0.125000  1
