# generated using pymatgen
data_Sm5TmNiBr10
_symmetry_space_group_name_H-M   'P 1'
_cell_length_a   7.41089576
_cell_length_b   9.35119699
_cell_length_c   9.36352991
_cell_angle_alpha   108.37054147
_cell_angle_beta   96.24854994
_cell_angle_gamma   105.39636885
_symmetry_Int_Tables_number   1
_chemical_formula_structural   Sm5TmNiBr10
_chemical_formula_sum   'Sm5 Tm1 Ni1 Br10'
_cell_volume   580.43878036
_cell_formula_units_Z   1
loop_
 _symmetry_equiv_pos_site_id
 _symmetry_equiv_pos_as_xyz
  1  'x, y, z'
loop_
 _atom_site_type_symbol
 _atom_site_label
 _atom_site_symmetry_multiplicity
 _atom_site_fract_x
 _atom_site_fract_y
 _atom_site_fract_z
 _atom_site_occupancy
  Sm  Sm0  1  0.123220  0.044061  0.754419  1
  Sm  Sm1  1  0.869733  0.952318  0.243815  1
  Sm  Sm2  1  0.968199  0.295613  0.094101  1
  Sm  Sm3  1  0.027205  0.703126  0.902871  1
  Sm  Sm4  1  0.356317  0.131668  0.176206  1
  Tm  Tm5  1  0.652980  0.873325  0.829996  1
  Ni  Ni6  1  0.999755  0.999809  0.001147  1
  Br  Br7  1  0.549967  0.172654  0.911888  1
  Br  Br8  1  0.452178  0.819561  0.077787  1
  Br  Br9  1  0.353692  0.453292  0.268457  1
  Br  Br10  1  0.639424  0.557615  0.728456  1
  Br  Br11  1  0.248357  0.079180  0.454225  1
  Br  Br12  1  0.741627  0.913840  0.550120  1
  Br  Br13  1  0.783408  0.256515  0.350934  1
  Br  Br14  1  0.238854  0.750544  0.660219  1
  Br  Br15  1  0.083636  0.366400  0.824271  1
  Br  Br16  1  0.911449  0.630480  0.171088  1
