# generated using pymatgen
data_Ho4Fe(Si2Pt)5
_symmetry_space_group_name_H-M   'P 1'
_cell_length_a   8.11108663
_cell_length_b   8.11108754
_cell_length_c   8.11108749
_cell_angle_alpha   137.16200597
_cell_angle_beta   104.03573436
_cell_angle_gamma   91.38634571
_symmetry_Int_Tables_number   1
_chemical_formula_structural   Ho4Fe(Si2Pt)5
_chemical_formula_sum   'Ho4 Fe1 Si10 Pt5'
_cell_volume   335.07808722
_cell_formula_units_Z   1
loop_
 _symmetry_equiv_pos_site_id
 _symmetry_equiv_pos_as_xyz
  1  'x, y, z'
loop_
 _atom_site_type_symbol
 _atom_site_label
 _atom_site_symmetry_multiplicity
 _atom_site_fract_x
 _atom_site_fract_y
 _atom_site_fract_z
 _atom_site_occupancy
  Ho  Ho0  1  0.101306  0.871069  0.232325  1
  Ho  Ho1  1  0.898694  0.131018  0.769763  1
  Ho  Ho2  1  0.638746  0.368982  0.267675  1
  Ho  Ho3  1  0.361254  0.628931  0.730237  1
  Fe  Fe4  1  0.500000  0.750000  0.250000  1
  Si  Si5  1  0.000000  0.750000  0.750000  1
  Si  Si6  1  0.000000  0.250000  0.250000  1
  Si  Si7  1  0.273723  0.023723  0.750000  1
  Si  Si8  1  0.726277  0.476277  0.750000  1
  Si  Si9  1  0.722564  0.972564  0.250000  1
  Si  Si10  1  0.277436  0.527436  0.250000  1
  Si  Si11  1  0.753529  0.620597  0.165322  1
  Si  Si12  1  0.246471  0.411792  0.867068  1
  Si  Si13  1  0.455276  0.088208  0.334678  1
  Si  Si14  1  0.544724  0.879403  0.632932  1
  Pt  Pt15  1  0.500000  0.250000  0.750000  1
  Pt  Pt16  1  0.022994  0.637470  0.383442  1
  Pt  Pt17  1  0.977006  0.360448  0.614476  1
  Pt  Pt18  1  0.254028  0.139552  0.116558  1
  Pt  Pt19  1  0.745972  0.862530  0.885524  1
