# generated using pymatgen
data_Ho5NbCo11P12Ru7
_symmetry_space_group_name_H-M   'P 1'
_cell_length_a   12.27161265
_cell_length_b   12.27815761
_cell_length_c   3.72922600
_cell_angle_alpha   90.00000000
_cell_angle_beta   90.00000000
_cell_angle_gamma   119.77884085
_symmetry_Int_Tables_number   1
_chemical_formula_structural   Ho5NbCo11P12Ru7
_chemical_formula_sum   'Ho5 Nb1 Co11 P12 Ru7'
_cell_volume   487.69433993
_cell_formula_units_Z   1
loop_
 _symmetry_equiv_pos_site_id
 _symmetry_equiv_pos_as_xyz
  1  'x, y, z'
loop_
 _atom_site_type_symbol
 _atom_site_label
 _atom_site_symmetry_multiplicity
 _atom_site_fract_x
 _atom_site_fract_y
 _atom_site_fract_z
 _atom_site_occupancy
  Ho  Ho0  1  0.666505  0.333179  0.000000  1
  Ho  Ho1  1  0.328625  0.662666  0.000000  1
  Ho  Ho2  1  0.820288  0.819593  0.500000  1
  Ho  Ho3  1  0.182259  0.001471  0.500000  1
  Ho  Ho4  1  0.001148  0.183448  0.500000  1
  Nb  Nb5  1  0.436388  0.439156  0.000000  1
  Co  Co6  1  0.125706  0.481576  0.500000  1
  Co  Co7  1  0.801734  0.172579  0.000000  1
  Co  Co8  1  0.832693  0.632283  0.000000  1
  Co  Co9  1  0.367947  0.194630  0.000000  1
  Co  Co10  1  0.172453  0.800886  0.000000  1
  Co  Co11  1  0.634237  0.830852  0.000000  1
  Co  Co12  1  0.190080  0.371201  0.000000  1
  Co  Co13  1  0.275271  0.278644  0.500000  1
  Co  Co14  1  0.720981  0.001950  0.500000  1
  Co  Co15  1  0.002678  0.719316  0.500000  1
  Co  Co16  1  0.000008  0.998851  0.000000  1
  P  P17  1  0.686049  0.162206  0.500000  1
  P  P18  1  0.842222  0.525251  0.500000  1
  P  P19  1  0.477021  0.312832  0.500000  1
  P  P20  1  0.159841  0.679669  0.500000  1
  P  P21  1  0.525131  0.841803  0.500000  1
  P  P22  1  0.306189  0.477394  0.500000  1
  P  P23  1  0.176807  0.178306  0.000000  1
  P  P24  1  0.822736  0.001448  0.000000  1
  P  P25  1  0.001918  0.821534  0.000000  1
  P  P26  1  0.644236  0.644486  0.000000  1
  P  P27  1  0.360452  0.996405  0.000000  1
  P  P28  1  0.000426  0.361395  0.000000  1
  Ru  Ru29  1  0.875808  0.354391  0.500000  1
  Ru  Ru30  1  0.651108  0.522368  0.500000  1
  Ru  Ru31  1  0.481085  0.126004  0.500000  1
  Ru  Ru32  1  0.350775  0.868630  0.500000  1
  Ru  Ru33  1  0.518268  0.650531  0.500000  1
  Ru  Ru34  1  0.554406  0.997842  0.000000  1
  Ru  Ru35  1  0.006520  0.555226  0.000000  1
