# generated using pymatgen
data_NdTh3(Al3Rh)6
_symmetry_space_group_name_H-M   'P 1'
_cell_length_a   7.65378908
_cell_length_b   7.65661471
_cell_length_c   9.54140800
_cell_angle_alpha   90.00000000
_cell_angle_beta   90.00000000
_cell_angle_gamma   119.39409916
_symmetry_Int_Tables_number   1
_chemical_formula_structural   NdTh3(Al3Rh)6
_chemical_formula_sum   'Nd1 Th3 Al18 Rh6'
_cell_volume   487.16457643
_cell_formula_units_Z   1
loop_
 _symmetry_equiv_pos_site_id
 _symmetry_equiv_pos_as_xyz
  1  'x, y, z'
loop_
 _atom_site_type_symbol
 _atom_site_label
 _atom_site_symmetry_multiplicity
 _atom_site_fract_x
 _atom_site_fract_y
 _atom_site_fract_z
 _atom_site_occupancy
  Nd  Nd0  1  0.328781  0.005782  0.750000  1
  Th  Th1  1  0.994954  0.671559  0.250000  1
  Th  Th2  1  0.004051  0.328843  0.750000  1
  Th  Th3  1  0.670989  0.994542  0.250000  1
  Al  Al4  1  0.134644  0.132992  0.250000  1
  Al  Al5  1  0.868734  0.868812  0.750000  1
  Al  Al6  1  0.005542  0.335837  0.074404  1
  Al  Al7  1  0.998561  0.667480  0.923918  1
  Al  Al8  1  0.998561  0.667480  0.576082  1
  Al  Al9  1  0.335397  0.004365  0.429120  1
  Al  Al10  1  0.005542  0.335837  0.425596  1
  Al  Al11  1  0.661288  0.995396  0.576015  1
  Al  Al12  1  0.661288  0.995396  0.923985  1
  Al  Al13  1  0.335397  0.004365  0.070880  1
  Al  Al14  1  0.335983  0.333986  0.549820  1
  Al  Al15  1  0.663468  0.663449  0.455727  1
  Al  Al16  1  0.663468  0.663449  0.044273  1
  Al  Al17  1  0.335983  0.333986  0.950180  1
  Al  Al18  1  0.341649  0.545350  0.250000  1
  Al  Al19  1  0.658406  0.451692  0.750000  1
  Al  Al20  1  0.545372  0.339688  0.250000  1
  Al  Al21  1  0.452493  0.660072  0.750000  1
  Rh  Rh22  1  0.674155  0.328897  0.000863  1
  Rh  Rh23  1  0.327454  0.671046  0.001011  1
  Rh  Rh24  1  0.327454  0.671046  0.498989  1
  Rh  Rh25  1  0.674155  0.328897  0.499137  1
  Rh  Rh26  1  0.998116  0.999877  0.001221  1
  Rh  Rh27  1  0.998116  0.999877  0.498779  1
