# generated using pymatgen
data_U2TaBe2Ru5
_symmetry_space_group_name_H-M   'P 1'
_cell_length_a   9.71306500
_cell_length_b   9.71306500
_cell_length_c   3.19792900
_cell_angle_alpha   90.00000000
_cell_angle_beta   90.00000000
_cell_angle_gamma   90.00000000
_symmetry_Int_Tables_number   1
_chemical_formula_structural   U2TaBe2Ru5
_chemical_formula_sum   'U4 Ta2 Be4 Ru10'
_cell_volume   301.70423576
_cell_formula_units_Z   2
loop_
 _symmetry_equiv_pos_site_id
 _symmetry_equiv_pos_as_xyz
  1  'x, y, z'
loop_
 _atom_site_type_symbol
 _atom_site_label
 _atom_site_symmetry_multiplicity
 _atom_site_fract_x
 _atom_site_fract_y
 _atom_site_fract_z
 _atom_site_occupancy
  U  U0  1  0.825303  0.674697  0.000000  1
  U  U1  1  0.174697  0.325303  0.000000  1
  U  U2  1  0.325303  0.825303  0.000000  1
  U  U3  1  0.674697  0.174697  0.000000  1
  Ta  Ta4  1  0.500000  0.500000  0.000000  1
  Ta  Ta5  1  0.000000  0.000000  0.000000  1
  Be  Be6  1  0.620887  0.879113  0.000000  1
  Be  Be7  1  0.379113  0.120887  0.000000  1
  Be  Be8  1  0.120887  0.620887  0.000000  1
  Be  Be9  1  0.879113  0.379113  0.000000  1
  Ru  Ru10  1  0.573079  0.711982  0.500000  1
  Ru  Ru11  1  0.426921  0.288018  0.500000  1
  Ru  Ru12  1  0.073079  0.788018  0.500000  1
  Ru  Ru13  1  0.926921  0.211982  0.500000  1
  Ru  Ru14  1  0.288018  0.573079  0.500000  1
  Ru  Ru15  1  0.711982  0.426921  0.500000  1
  Ru  Ru16  1  0.211982  0.073079  0.500000  1
  Ru  Ru17  1  0.788018  0.926921  0.500000  1
  Ru  Ru18  1  0.500000  0.000000  0.500000  1
  Ru  Ru19  1  0.000000  0.500000  0.500000  1
