# generated using pymatgen
data_La4TbRh2
_symmetry_space_group_name_H-M   'P 1'
_cell_length_a   6.66165012
_cell_length_b   7.26469510
_cell_length_c   9.23384800
_cell_angle_alpha   95.70738161
_cell_angle_beta   111.14437020
_cell_angle_gamma   90.00000222
_symmetry_Int_Tables_number   1
_chemical_formula_structural   La4TbRh2
_chemical_formula_sum   'La8 Tb2 Rh4'
_cell_volume   414.40890561
_cell_formula_units_Z   2
loop_
 _symmetry_equiv_pos_site_id
 _symmetry_equiv_pos_as_xyz
  1  'x, y, z'
loop_
 _atom_site_type_symbol
 _atom_site_label
 _atom_site_symmetry_multiplicity
 _atom_site_fract_x
 _atom_site_fract_y
 _atom_site_fract_z
 _atom_site_occupancy
  La  La0  1  0.800151  0.083471  0.817427  1
  La  La1  1  0.982723  0.416529  0.182573  1
  La  La2  1  0.199849  0.916529  0.182573  1
  La  La3  1  0.017277  0.583471  0.817427  1
  La  La4  1  0.215820  0.184350  0.574108  1
  La  La5  1  0.641713  0.315650  0.425892  1
  La  La6  1  0.784180  0.815650  0.425892  1
  La  La7  1  0.358287  0.684350  0.574108  1
  Tb  Tb8  1  0.430241  0.250000  0.000000  1
  Tb  Tb9  1  0.569759  0.750000  0.000000  1
  Rh  Rh10  1  0.593606  0.424117  0.786855  1
  Rh  Rh11  1  0.806751  0.075883  0.213145  1
  Rh  Rh12  1  0.406394  0.575883  0.213145  1
  Rh  Rh13  1  0.193249  0.924117  0.786855  1
