# generated using pymatgen
data_Yb3U5(TcB6)4
_symmetry_space_group_name_H-M   'P 1'
_cell_length_a   3.64668400
_cell_length_b   9.25029955
_cell_length_c   11.36411723
_cell_angle_alpha   89.99172559
_cell_angle_beta   90.00000000
_cell_angle_gamma   90.00000000
_symmetry_Int_Tables_number   1
_chemical_formula_structural   Yb3U5(TcB6)4
_chemical_formula_sum   'Yb3 U5 Tc4 B24'
_cell_volume   383.34484643
_cell_formula_units_Z   1
loop_
 _symmetry_equiv_pos_site_id
 _symmetry_equiv_pos_as_xyz
  1  'x, y, z'
loop_
 _atom_site_type_symbol
 _atom_site_label
 _atom_site_symmetry_multiplicity
 _atom_site_fract_x
 _atom_site_fract_y
 _atom_site_fract_z
 _atom_site_occupancy
  Yb  Yb0  1  0.000000  0.338483  0.408154  1
  Yb  Yb1  1  0.000000  0.661585  0.589967  1
  Yb  Yb2  1  0.000000  0.836013  0.093019  1
  U  U3  1  0.000000  0.163010  0.908537  1
  U  U4  1  0.000000  0.954617  0.395106  1
  U  U5  1  0.000000  0.043570  0.603310  1
  U  U6  1  0.000000  0.458479  0.106044  1
  U  U7  1  0.000000  0.544813  0.895964  1
  Tc  Tc8  1  0.000000  0.646650  0.317650  1
  Tc  Tc9  1  0.000000  0.350407  0.686345  1
  Tc  Tc10  1  0.000000  0.146116  0.176789  1
  Tc  Tc11  1  0.000000  0.858715  0.819561  1
  B  B12  1  0.500000  0.552278  0.431590  1
  B  B13  1  0.500000  0.446754  0.570187  1
  B  B14  1  0.500000  0.052982  0.067798  1
  B  B15  1  0.500000  0.950030  0.930667  1
  B  B16  1  0.500000  0.742874  0.422303  1
  B  B17  1  0.500000  0.256412  0.577899  1
  B  B18  1  0.500000  0.242746  0.076298  1
  B  B19  1  0.500000  0.756777  0.921780  1
  B  B20  1  0.500000  0.801650  0.274303  1
  B  B21  1  0.500000  0.196639  0.727287  1
  B  B22  1  0.500000  0.302045  0.225766  1
  B  B23  1  0.500000  0.699195  0.774401  1
  B  B24  1  0.500000  0.643053  0.189034  1
  B  B25  1  0.500000  0.354830  0.812527  1
  B  B26  1  0.500000  0.143369  0.310217  1
  B  B27  1  0.500000  0.856940  0.688547  1
  B  B28  1  0.500000  0.989760  0.218700  1
  B  B29  1  0.500000  0.013465  0.781840  1
  B  B30  1  0.500000  0.489542  0.281582  1
  B  B31  1  0.500000  0.510473  0.718908  1
  B  B32  1  0.500000  0.638570  0.038024  1
  B  B33  1  0.500000  0.357407  0.960893  1
  B  B34  1  0.500000  0.137156  0.461035  1
  B  B35  1  0.500000  0.862593  0.537970  1
