# generated using pymatgen
data_BeV4Si5W6
_symmetry_space_group_name_H-M   'P 1'
_cell_length_a   7.18672947
_cell_length_b   7.18673432
_cell_length_c   7.16035495
_cell_angle_alpha   96.65408568
_cell_angle_beta   96.06250644
_cell_angle_gamma   141.19919030
_symmetry_Int_Tables_number   1
_chemical_formula_structural   BeV4Si5W6
_chemical_formula_sum   'Be1 V4 Si5 W6'
_cell_volume   218.47617050
_cell_formula_units_Z   1
loop_
 _symmetry_equiv_pos_site_id
 _symmetry_equiv_pos_as_xyz
  1  'x, y, z'
loop_
 _atom_site_type_symbol
 _atom_site_label
 _atom_site_symmetry_multiplicity
 _atom_site_fract_x
 _atom_site_fract_y
 _atom_site_fract_z
 _atom_site_occupancy
  Be  Be0  1  0.749041  0.749039  0.000005  1
  V  V1  1  0.728871  0.581161  0.299882  1
  V  V2  1  0.281269  0.428978  0.700106  1
  V  V3  1  0.749091  0.249089  0.499993  1
  V  V4  1  0.250365  0.750368  0.500005  1
  Si  Si5  1  0.253585  0.253588  0.999998  1
  Si  Si6  1  0.333868  0.164497  0.500840  1
  Si  Si7  1  0.833709  0.339187  0.173150  1
  Si  Si8  1  0.166036  0.660563  0.826863  1
  Si  Si9  1  0.663663  0.833023  0.499162  1
  W  W10  1  0.580859  0.282617  0.853545  1
  W  W11  1  0.429074  0.727319  0.146455  1
  W  W12  1  0.772433  0.068813  0.851589  1
  W  W13  1  0.919126  0.771207  0.699400  1
  W  W14  1  0.071804  0.219714  0.300597  1
  W  W15  1  0.217208  0.920836  0.148408  1
