# generated using pymatgen
data_Tl2Co3Br8
_symmetry_space_group_name_H-M   'P 1'
_cell_length_a   10.44771084
_cell_length_b   10.44771090
_cell_length_c   7.28065700
_cell_angle_alpha   83.95499167
_cell_angle_beta   83.95498612
_cell_angle_gamma   142.33702320
_symmetry_Int_Tables_number   1
_chemical_formula_structural   Tl2Co3Br8
_chemical_formula_sum   'Tl2 Co3 Br8'
_cell_volume   459.01499840
_cell_formula_units_Z   1
loop_
 _symmetry_equiv_pos_site_id
 _symmetry_equiv_pos_as_xyz
  1  'x, y, z'
loop_
 _atom_site_type_symbol
 _atom_site_label
 _atom_site_symmetry_multiplicity
 _atom_site_fract_x
 _atom_site_fract_y
 _atom_site_fract_z
 _atom_site_occupancy
  Tl  Tl0  1  0.648747  0.911084  0.533166  1
  Tl  Tl1  1  0.911084  0.648747  0.533166  1
  Co  Co2  1  0.004954  0.004954  0.022632  1
  Co  Co3  1  0.928645  0.318511  0.917333  1
  Co  Co4  1  0.318511  0.928645  0.917333  1
  Br  Br5  1  0.677398  0.677398  0.273326  1
  Br  Br6  1  0.989071  0.989071  0.702477  1
  Br  Br7  1  0.540774  0.945551  0.032076  1
  Br  Br8  1  0.945551  0.540774  0.032076  1
  Br  Br9  1  0.076195  0.456180  0.576595  1
  Br  Br10  1  0.456180  0.076195  0.576595  1
  Br  Br11  1  0.305369  0.111907  0.073788  1
  Br  Br12  1  0.111907  0.305369  0.073788  1
