# generated using pymatgen
data_DyYEr2(SiPd)4
_symmetry_space_group_name_H-M   'P 1'
_cell_length_a   4.34022500
_cell_length_b   7.46577800
_cell_length_c   13.97082200
_cell_angle_alpha   90.00000000
_cell_angle_beta   90.00000000
_cell_angle_gamma   90.00000000
_symmetry_Int_Tables_number   1
_chemical_formula_structural   DyYEr2(SiPd)4
_chemical_formula_sum   'Dy2 Y2 Er4 Si8 Pd8'
_cell_volume   452.69872919
_cell_formula_units_Z   2
loop_
 _symmetry_equiv_pos_site_id
 _symmetry_equiv_pos_as_xyz
  1  'x, y, z'
loop_
 _atom_site_type_symbol
 _atom_site_label
 _atom_site_symmetry_multiplicity
 _atom_site_fract_x
 _atom_site_fract_y
 _atom_site_fract_z
 _atom_site_occupancy
  Dy  Dy0  1  0.000000  0.288594  0.500000  1
  Dy  Dy1  1  0.500000  0.711406  0.000000  1
  Y  Y2  1  0.000000  0.298120  0.000000  1
  Y  Y3  1  0.500000  0.701880  0.500000  1
  Er  Er4  1  0.000000  0.210735  0.249013  1
  Er  Er5  1  0.500000  0.789265  0.250987  1
  Er  Er6  1  0.000000  0.210735  0.750987  1
  Er  Er7  1  0.500000  0.789265  0.749013  1
  Si  Si8  1  0.000000  0.909156  0.594469  1
  Si  Si9  1  0.500000  0.090844  0.905531  1
  Si  Si10  1  0.000000  0.909156  0.405531  1
  Si  Si11  1  0.500000  0.090844  0.094469  1
  Si  Si12  1  0.000000  0.591308  0.144691  1
  Si  Si13  1  0.500000  0.408692  0.355309  1
  Si  Si14  1  0.000000  0.591308  0.855309  1
  Si  Si15  1  0.500000  0.408692  0.644691  1
  Pd  Pd16  1  0.500000  0.075684  0.609963  1
  Pd  Pd17  1  0.000000  0.924316  0.890037  1
  Pd  Pd18  1  0.500000  0.075684  0.390037  1
  Pd  Pd19  1  0.000000  0.924316  0.109963  1
  Pd  Pd20  1  0.500000  0.420339  0.157726  1
  Pd  Pd21  1  0.000000  0.579661  0.342274  1
  Pd  Pd22  1  0.500000  0.420339  0.842274  1
  Pd  Pd23  1  0.000000  0.579661  0.657726  1
