# generated using pymatgen
data_TmLu3Ga3Si
_symmetry_space_group_name_H-M   'P 1'
_cell_length_a   3.91126000
_cell_length_b   4.27511700
_cell_length_c   10.62874800
_cell_angle_alpha   90.00000000
_cell_angle_beta   90.00000000
_cell_angle_gamma   90.00000000
_symmetry_Int_Tables_number   1
_chemical_formula_structural   TmLu3Ga3Si
_chemical_formula_sum   'Tm1 Lu3 Ga3 Si1'
_cell_volume   177.72429566
_cell_formula_units_Z   1
loop_
 _symmetry_equiv_pos_site_id
 _symmetry_equiv_pos_as_xyz
  1  'x, y, z'
loop_
 _atom_site_type_symbol
 _atom_site_label
 _atom_site_symmetry_multiplicity
 _atom_site_fract_x
 _atom_site_fract_y
 _atom_site_fract_z
 _atom_site_occupancy
  Tm  Tm0  1  0.500000  0.500000  0.360566  1
  Lu  Lu1  1  0.000000  0.000000  0.143243  1
  Lu  Lu2  1  0.000000  0.500000  0.638324  1
  Lu  Lu3  1  0.500000  0.000000  0.857984  1
  Ga  Ga4  1  0.000000  0.500000  0.918785  1
  Ga  Ga5  1  0.500000  0.500000  0.081054  1
  Ga  Ga6  1  0.500000  0.000000  0.576872  1
  Si  Si7  1  0.000000  0.000000  0.423172  1
