# generated using pymatgen
data_Mo(PdPt)4
_symmetry_space_group_name_H-M   'P 1'
_cell_length_a   6.29869574
_cell_length_b   6.29869575
_cell_length_c   6.27229366
_cell_angle_alpha   95.54896738
_cell_angle_beta   95.54897032
_cell_angle_gamma   143.84443674
_symmetry_Int_Tables_number   1
_chemical_formula_structural   Mo(PdPt)4
_chemical_formula_sum   'Mo1 Pd4 Pt4'
_cell_volume   139.50302033
_cell_formula_units_Z   1
loop_
 _symmetry_equiv_pos_site_id
 _symmetry_equiv_pos_as_xyz
  1  'x, y, z'
loop_
 _atom_site_type_symbol
 _atom_site_label
 _atom_site_symmetry_multiplicity
 _atom_site_fract_x
 _atom_site_fract_y
 _atom_site_fract_z
 _atom_site_occupancy
  Mo  Mo0  1  0.002466  0.002466  0.004931  1
  Pd  Pd1  1  0.663873  0.663873  0.327745  1
  Pd  Pd2  1  0.337117  0.337117  0.674234  1
  Pd  Pd3  1  0.670105  0.000492  0.670596  1
  Pd  Pd4  1  0.000491  0.670104  0.670596  1
  Pt  Pt5  1  0.658852  0.339950  0.998801  1
  Pt  Pt6  1  0.339950  0.658852  0.998801  1
  Pt  Pt7  1  0.328463  0.998685  0.327148  1
  Pt  Pt8  1  0.998685  0.328463  0.327148  1
