# generated using pymatgen
data_YbPrDyGa8Ag3
_symmetry_space_group_name_H-M   'P 1'
_cell_length_a   4.38487744
_cell_length_b   8.39473492
_cell_length_c   8.39473434
_cell_angle_alpha   70.26084513
_cell_angle_beta   74.86059202
_cell_angle_gamma   74.86059828
_symmetry_Int_Tables_number   1
_chemical_formula_structural   YbPrDyGa8Ag3
_chemical_formula_sum   'Yb1 Pr1 Dy1 Ga8 Ag3'
_cell_volume   275.62309686
_cell_formula_units_Z   1
loop_
 _symmetry_equiv_pos_site_id
 _symmetry_equiv_pos_as_xyz
  1  'x, y, z'
loop_
 _atom_site_type_symbol
 _atom_site_label
 _atom_site_symmetry_multiplicity
 _atom_site_fract_x
 _atom_site_fract_y
 _atom_site_fract_z
 _atom_site_occupancy
  Yb  Yb0  1  0.803191  0.196809  0.196809  1
  Pr  Pr1  1  0.499982  0.500018  0.500018  1
  Dy  Dy2  1  0.199361  0.800639  0.800639  1
  Ga  Ga3  1  0.642485  0.074895  0.640135  1
  Ga  Ga4  1  0.355320  0.926957  0.362403  1
  Ga  Ga5  1  0.642485  0.640135  0.074895  1
  Ga  Ga6  1  0.355320  0.362403  0.926957  1
  Ga  Ga7  1  0.838205  0.792407  0.531182  1
  Ga  Ga8  1  0.163772  0.203436  0.469021  1
  Ga  Ga9  1  0.838205  0.531182  0.792407  1
  Ga  Ga10  1  0.163772  0.469021  0.203436  1
  Ag  Ag11  1  0.499816  0.000184  0.000184  1
  Ag  Ag12  1  0.999043  0.805161  0.196754  1
  Ag  Ag13  1  0.999043  0.196754  0.805161  1
