# generated using pymatgen
data_Tb11Ce2Dy3(CdRu)4
_symmetry_space_group_name_H-M   'P 1'
_cell_length_a   9.76189981
_cell_length_b   9.66042336
_cell_length_c   9.66042333
_cell_angle_alpha   59.60725953
_cell_angle_beta   59.65190043
_cell_angle_gamma   59.65189894
_symmetry_Int_Tables_number   1
_chemical_formula_structural   Tb11Ce2Dy3(CdRu)4
_chemical_formula_sum   'Tb11 Ce2 Dy3 Cd4 Ru4'
_cell_volume   638.87289416
_cell_formula_units_Z   1
loop_
 _symmetry_equiv_pos_site_id
 _symmetry_equiv_pos_as_xyz
  1  'x, y, z'
loop_
 _atom_site_type_symbol
 _atom_site_label
 _atom_site_symmetry_multiplicity
 _atom_site_fract_x
 _atom_site_fract_y
 _atom_site_fract_z
 _atom_site_occupancy
  Tb  Tb0  1  0.562793  0.561388  0.938489  1
  Tb  Tb1  1  0.937330  0.561388  0.938489  1
  Tb  Tb2  1  0.562121  0.937879  0.937879  1
  Tb  Tb3  1  0.937330  0.938489  0.561388  1
  Tb  Tb4  1  0.562793  0.938489  0.561388  1
  Tb  Tb5  1  0.939010  0.560990  0.560990  1
  Tb  Tb6  1  0.189797  0.188692  0.811856  1
  Tb  Tb7  1  0.809655  0.188692  0.811856  1
  Tb  Tb8  1  0.188842  0.811158  0.811157  1
  Tb  Tb9  1  0.809655  0.811857  0.188692  1
  Tb  Tb10  1  0.189796  0.811856  0.188691  1
  Ce  Ce11  1  0.971369  0.340848  0.340848  1
  Ce  Ce12  1  0.346935  0.340848  0.340848  1
  Dy  Dy13  1  0.810546  0.189454  0.189454  1
  Dy  Dy14  1  0.349137  0.348431  0.953294  1
  Dy  Dy15  1  0.349137  0.953294  0.348431  1
  Cd  Cd16  1  0.581611  0.579344  0.257434  1
  Cd  Cd17  1  0.581611  0.257434  0.579344  1
  Cd  Cd18  1  0.259270  0.579964  0.579964  1
  Cd  Cd19  1  0.580799  0.579964  0.579964  1
  Ru  Ru20  1  0.138006  0.152870  0.571118  1
  Ru  Ru21  1  0.138006  0.571118  0.152870  1
  Ru  Ru22  1  0.573492  0.147777  0.147777  1
  Ru  Ru23  1  0.130954  0.147777  0.147777  1
