# generated using pymatgen
data_Nb4Ga5(Co2Si)2
_symmetry_space_group_name_H-M   'P 1'
_cell_length_a   9.48766509
_cell_length_b   9.48756880
_cell_length_c   9.48766403
_cell_angle_alpha   94.09956952
_cell_angle_beta   94.09548440
_cell_angle_gamma   148.99257674
_symmetry_Int_Tables_number   1
_chemical_formula_structural   Nb4Ga5(Co2Si)2
_chemical_formula_sum   'Nb8 Ga10 Co8 Si4'
_cell_volume   423.94261575
_cell_formula_units_Z   2
loop_
 _symmetry_equiv_pos_site_id
 _symmetry_equiv_pos_as_xyz
  1  'x, y, z'
loop_
 _atom_site_type_symbol
 _atom_site_label
 _atom_site_symmetry_multiplicity
 _atom_site_fract_x
 _atom_site_fract_y
 _atom_site_fract_z
 _atom_site_occupancy
  Nb  Nb0  1  0.310674  0.500000  0.810674  1
  Nb  Nb1  1  0.689326  0.500000  0.189326  1
  Nb  Nb2  1  0.499994  0.689329  0.189334  1
  Nb  Nb3  1  0.500006  0.310671  0.810666  1
  Nb  Nb4  1  0.139372  0.139391  0.278763  1
  Nb  Nb5  1  0.860628  0.860609  0.721237  1
  Nb  Nb6  1  0.139373  0.860609  0.999981  1
  Nb  Nb7  1  0.860627  0.139391  0.000019  1
  Ga  Ga8  1  0.101486  0.500000  0.601486  1
  Ga  Ga9  1  0.898514  0.500000  0.398514  1
  Ga  Ga10  1  0.500012  0.898514  0.398503  1
  Ga  Ga11  1  0.499988  0.101486  0.601497  1
  Ga  Ga12  1  0.245764  0.245770  0.000006  1
  Ga  Ga13  1  0.754236  0.754230  0.999994  1
  Ga  Ga14  1  0.297653  0.000000  0.297653  1
  Ga  Ga15  1  0.702347  0.000000  0.702347  1
  Ga  Ga16  1  0.000009  0.702371  0.702362  1
  Ga  Ga17  1  0.999991  0.297629  0.297638  1
  Co  Co18  1  0.407745  0.907750  0.815481  1
  Co  Co19  1  0.092264  0.592262  0.184519  1
  Co  Co20  1  0.907731  0.092250  0.499995  1
  Co  Co21  1  0.592257  0.407738  0.500002  1
  Co  Co22  1  0.592255  0.092250  0.184519  1
  Co  Co23  1  0.907736  0.407738  0.815481  1
  Co  Co24  1  0.092269  0.907750  0.500005  1
  Co  Co25  1  0.407743  0.592262  0.499998  1
  Si  Si26  1  0.295914  0.295903  0.591908  1
  Si  Si27  1  0.704086  0.704097  0.408092  1
  Si  Si28  1  0.296004  0.704097  0.000011  1
  Si  Si29  1  0.703996  0.295903  0.999989  1
