# generated using pymatgen
data_YbTm2(AsPd)3
_symmetry_space_group_name_H-M   'P 1'
_cell_length_a   7.03209700
_cell_length_b   7.05164882
_cell_length_c   4.01317300
_cell_angle_alpha   90.00000000
_cell_angle_beta   90.00000000
_cell_angle_gamma   119.90831881
_symmetry_Int_Tables_number   1
_chemical_formula_structural   YbTm2(AsPd)3
_chemical_formula_sum   'Yb1 Tm2 As3 Pd3'
_cell_volume   172.50215290
_cell_formula_units_Z   1
loop_
 _symmetry_equiv_pos_site_id
 _symmetry_equiv_pos_as_xyz
  1  'x, y, z'
loop_
 _atom_site_type_symbol
 _atom_site_label
 _atom_site_symmetry_multiplicity
 _atom_site_fract_x
 _atom_site_fract_y
 _atom_site_fract_z
 _atom_site_occupancy
  Yb  Yb0  1  0.591039  0.000000  0.500000  1
  Tm  Tm1  1  0.998613  0.592023  0.500000  1
  Tm  Tm2  1  0.406589  0.407977  0.500000  1
  As  As3  1  0.667420  0.339506  0.000000  1
  As  As4  1  0.327913  0.660494  0.000000  1
  As  As5  1  0.007660  0.000000  0.500000  1
  Pd  Pd6  1  0.256833  0.000000  0.000000  1
  Pd  Pd7  1  0.744525  0.745117  0.000000  1
  Pd  Pd8  1  0.999409  0.254883  0.000000  1
