# generated using pymatgen
data_HfFe12P7W
_symmetry_space_group_name_H-M   'P 1'
_cell_length_a   8.81559600
_cell_length_b   8.81559543
_cell_length_c   3.55874000
_cell_angle_alpha   90.00000000
_cell_angle_beta   90.00000000
_cell_angle_gamma   119.99999465
_symmetry_Int_Tables_number   1
_chemical_formula_structural   HfFe12P7W
_chemical_formula_sum   'Hf1 Fe12 P7 W1'
_cell_volume   239.51363669
_cell_formula_units_Z   1
loop_
 _symmetry_equiv_pos_site_id
 _symmetry_equiv_pos_as_xyz
  1  'x, y, z'
loop_
 _atom_site_type_symbol
 _atom_site_label
 _atom_site_symmetry_multiplicity
 _atom_site_fract_x
 _atom_site_fract_y
 _atom_site_fract_z
 _atom_site_occupancy
  Hf  Hf0  1  0.000000  0.000000  0.000000  1
  Fe  Fe1  1  0.102580  0.404594  0.000000  1
  Fe  Fe2  1  0.302012  0.897420  0.000000  1
  Fe  Fe3  1  0.595406  0.697988  0.000000  1
  Fe  Fe4  1  0.822818  0.610712  0.000000  1
  Fe  Fe5  1  0.787894  0.177182  0.000000  1
  Fe  Fe6  1  0.389288  0.212106  0.000000  1
  Fe  Fe7  1  0.058444  0.772234  0.500000  1
  Fe  Fe8  1  0.713790  0.941556  0.500000  1
  Fe  Fe9  1  0.227766  0.286210  0.500000  1
  Fe  Fe10  1  0.889519  0.431840  0.500000  1
  Fe  Fe11  1  0.542321  0.110481  0.500000  1
  Fe  Fe12  1  0.568160  0.457679  0.500000  1
  P  P13  1  0.081197  0.632954  0.000000  1
  P  P14  1  0.551756  0.918803  0.000000  1
  P  P15  1  0.367046  0.448244  0.000000  1
  P  P16  1  0.786410  0.739213  0.500000  1
  P  P17  1  0.952803  0.213590  0.500000  1
  P  P18  1  0.260787  0.047197  0.500000  1
  P  P19  1  0.666667  0.333333  0.000000  1
  W  W20  1  0.333333  0.666667  0.500000  1
