# generated using pymatgen
data_Y5MnCoO12
_symmetry_space_group_name_H-M   'P 1'
_cell_length_a   6.76635257
_cell_length_b   6.76640125
_cell_length_c   7.22509300
_cell_angle_alpha   74.50061584
_cell_angle_beta   74.50043121
_cell_angle_gamma   50.54222614
_symmetry_Int_Tables_number   1
_chemical_formula_structural   Y5MnCoO12
_chemical_formula_sum   'Y5 Mn1 Co1 O12'
_cell_volume   243.99629872
_cell_formula_units_Z   1
loop_
 _symmetry_equiv_pos_site_id
 _symmetry_equiv_pos_as_xyz
  1  'x, y, z'
loop_
 _atom_site_type_symbol
 _atom_site_label
 _atom_site_symmetry_multiplicity
 _atom_site_fract_x
 _atom_site_fract_y
 _atom_site_fract_z
 _atom_site_occupancy
  Y  Y0  1  0.302933  0.307102  0.357378  1
  Y  Y1  1  0.692889  0.697065  0.642620  1
  Y  Y2  1  0.309459  0.306525  0.833578  1
  Y  Y3  1  0.693484  0.690534  0.166418  1
  Y  Y4  1  0.995059  0.004934  0.500002  1
  Mn  Mn5  1  0.246744  0.753276  0.000000  1
  Co  Co6  1  0.759308  0.240693  0.999997  1
  O  O7  1  0.896986  0.413458  0.921932  1
  O  O8  1  0.422669  0.902813  0.920696  1
  O  O9  1  0.097188  0.577338  0.079306  1
  O  O10  1  0.586541  0.103013  0.078071  1
  O  O11  1  0.095991  0.597766  0.577868  1
  O  O12  1  0.597463  0.098209  0.574169  1
  O  O13  1  0.901790  0.402528  0.425827  1
  O  O14  1  0.402230  0.904002  0.422127  1
  O  O15  1  0.997003  0.003925  0.825014  1
  O  O16  1  0.996075  0.003004  0.174991  1
  O  O17  1  0.503251  0.497067  0.821884  1
  O  O18  1  0.502937  0.496748  0.178122  1
