# generated using pymatgen
data_RbPr(SO4)2
_symmetry_space_group_name_H-M   'P 1'
_cell_length_a   5.29544408
_cell_length_b   5.21004022
_cell_length_c   8.83842429
_cell_angle_alpha   86.66757259
_cell_angle_beta   87.72416542
_cell_angle_gamma   64.88493473
_symmetry_Int_Tables_number   1
_chemical_formula_structural   RbPr(SO4)2
_chemical_formula_sum   'Rb1 Pr1 S2 O8'
_cell_volume   220.38963219
_cell_formula_units_Z   1
loop_
 _symmetry_equiv_pos_site_id
 _symmetry_equiv_pos_as_xyz
  1  'x, y, z'
loop_
 _atom_site_type_symbol
 _atom_site_label
 _atom_site_symmetry_multiplicity
 _atom_site_fract_x
 _atom_site_fract_y
 _atom_site_fract_z
 _atom_site_occupancy
  Rb  Rb0  1  0.000000  0.499999  0.000000  1
  Pr  Pr1  1  0.000000  0.500001  0.500000  1
  S  S2  1  0.368896  0.882453  0.281904  1
  S  S3  1  0.631105  0.117547  0.718096  1
  O  O4  1  0.287743  0.837244  0.133583  1
  O  O5  1  0.680337  0.738662  0.298185  1
  O  O6  1  0.274660  0.193859  0.304272  1
  O  O7  1  0.244022  0.770352  0.410382  1
  O  O8  1  0.755977  0.229648  0.589618  1
  O  O9  1  0.725339  0.806141  0.695727  1
  O  O10  1  0.319664  0.261338  0.701815  1
  O  O11  1  0.712258  0.162756  0.866416  1
