# generated using pymatgen
data_K3TmB24
_symmetry_space_group_name_H-M   'P 1'
_cell_length_a   4.18682500
_cell_length_b   5.94231900
_cell_length_c   11.79242900
_cell_angle_alpha   90.00000000
_cell_angle_beta   90.00000000
_cell_angle_gamma   90.00000000
_symmetry_Int_Tables_number   1
_chemical_formula_structural   K3TmB24
_chemical_formula_sum   'K3 Tm1 B24'
_cell_volume   293.38914470
_cell_formula_units_Z   1
loop_
 _symmetry_equiv_pos_site_id
 _symmetry_equiv_pos_as_xyz
  1  'x, y, z'
loop_
 _atom_site_type_symbol
 _atom_site_label
 _atom_site_symmetry_multiplicity
 _atom_site_fract_x
 _atom_site_fract_y
 _atom_site_fract_z
 _atom_site_occupancy
  K  K0  1  0.000000  0.500000  0.252275  1
  K  K1  1  0.000000  0.000000  0.500000  1
  K  K2  1  0.000000  0.500000  0.747725  1
  Tm  Tm3  1  0.000000  0.000000  0.000000  1
  B  B4  1  0.198672  0.500000  0.500000  1
  B  B5  1  0.200474  0.000000  0.755151  1
  B  B6  1  0.201047  0.500000  0.000000  1
  B  B7  1  0.200474  0.000000  0.244849  1
  B  B8  1  0.500000  0.650249  0.576205  1
  B  B9  1  0.500000  0.148326  0.828984  1
  B  B10  1  0.500000  0.648080  0.074664  1
  B  B11  1  0.500000  0.150890  0.321415  1
  B  B12  1  0.500000  0.349751  0.576205  1
  B  B13  1  0.500000  0.851674  0.828984  1
  B  B14  1  0.500000  0.351920  0.074664  1
  B  B15  1  0.500000  0.849110  0.321415  1
  B  B16  1  0.500000  0.349751  0.423795  1
  B  B17  1  0.500000  0.849110  0.678585  1
  B  B18  1  0.500000  0.351920  0.925336  1
  B  B19  1  0.500000  0.851674  0.171016  1
  B  B20  1  0.500000  0.650249  0.423795  1
  B  B21  1  0.500000  0.150890  0.678585  1
  B  B22  1  0.500000  0.648080  0.925336  1
  B  B23  1  0.500000  0.148326  0.171016  1
  B  B24  1  0.801328  0.500000  0.500000  1
  B  B25  1  0.799526  0.000000  0.755151  1
  B  B26  1  0.798953  0.500000  0.000000  1
  B  B27  1  0.799526  0.000000  0.244849  1
