# generated using pymatgen
data_Y13Er7(CoSb2)4
_symmetry_space_group_name_H-M   'P 1'
_cell_length_a   7.88317818
_cell_length_b   8.74207319
_cell_length_c   12.22761715
_cell_angle_alpha   89.98813240
_cell_angle_beta   90.01345655
_cell_angle_gamma   90.02080714
_symmetry_Int_Tables_number   1
_chemical_formula_structural   Y13Er7(CoSb2)4
_chemical_formula_sum   'Y13 Er7 Co4 Sb8'
_cell_volume   842.67005998
_cell_formula_units_Z   1
loop_
 _symmetry_equiv_pos_site_id
 _symmetry_equiv_pos_as_xyz
  1  'x, y, z'
loop_
 _atom_site_type_symbol
 _atom_site_label
 _atom_site_symmetry_multiplicity
 _atom_site_fract_x
 _atom_site_fract_y
 _atom_site_fract_z
 _atom_site_occupancy
  Y  Y0  1  0.155631  0.749378  0.204101  1
  Y  Y1  1  0.655121  0.249996  0.296459  1
  Y  Y2  1  0.844804  0.250241  0.796248  1
  Y  Y3  1  0.344877  0.750021  0.703813  1
  Y  Y4  1  0.454096  0.749050  0.998009  1
  Y  Y5  1  0.955840  0.249988  0.501882  1
  Y  Y6  1  0.541643  0.251264  0.001464  1
  Y  Y7  1  0.044099  0.749904  0.498268  1
  Y  Y8  1  0.625769  0.750035  0.307327  1
  Y  Y9  1  0.126263  0.250678  0.193160  1
  Y  Y10  1  0.374466  0.249819  0.692929  1
  Y  Y11  1  0.875025  0.749375  0.806619  1
  Y  Y12  1  0.821376  0.966397  0.065772  1
  Er  Er13  1  0.324895  0.034088  0.434900  1
  Er  Er14  1  0.175336  0.465175  0.934131  1
  Er  Er15  1  0.675172  0.534161  0.565297  1
  Er  Er16  1  0.175073  0.034637  0.934499  1
  Er  Er17  1  0.675226  0.965704  0.565315  1
  Er  Er18  1  0.824863  0.533987  0.065178  1
  Er  Er19  1  0.324952  0.465761  0.434866  1
  Co  Co20  1  0.438630  0.749928  0.491662  1
  Co  Co21  1  0.939697  0.251642  0.008269  1
  Co  Co22  1  0.561393  0.249955  0.508494  1
  Co  Co23  1  0.064088  0.748841  0.990867  1
  Sb  Sb24  1  0.931861  0.992646  0.326886  1
  Sb  Sb25  1  0.430438  0.007579  0.173347  1
  Sb  Sb26  1  0.069156  0.492296  0.672993  1
  Sb  Sb27  1  0.569044  0.507508  0.826399  1
  Sb  Sb28  1  0.068815  0.007494  0.673229  1
  Sb  Sb29  1  0.569419  0.992466  0.827137  1
  Sb  Sb30  1  0.931251  0.507333  0.326766  1
  Sb  Sb31  1  0.431681  0.492655  0.173712  1
