# generated using pymatgen
data_Y10Ag3Rh
_symmetry_space_group_name_H-M   'P 1'
_cell_length_a   9.60658300
_cell_length_b   9.60658368
_cell_length_c   9.66337100
_cell_angle_alpha   90.00000000
_cell_angle_beta   90.00000000
_cell_angle_gamma   119.99999420
_symmetry_Int_Tables_number   1
_chemical_formula_structural   Y10Ag3Rh
_chemical_formula_sum   'Y20 Ag6 Rh2'
_cell_volume   772.31989104
_cell_formula_units_Z   2
loop_
 _symmetry_equiv_pos_site_id
 _symmetry_equiv_pos_as_xyz
  1  'x, y, z'
loop_
 _atom_site_type_symbol
 _atom_site_label
 _atom_site_symmetry_multiplicity
 _atom_site_fract_x
 _atom_site_fract_y
 _atom_site_fract_z
 _atom_site_occupancy
  Y  Y0  1  0.208162  0.791838  0.941546  1
  Y  Y1  1  0.208162  0.416326  0.941546  1
  Y  Y2  1  0.583674  0.791838  0.941546  1
  Y  Y3  1  0.791838  0.208162  0.058454  1
  Y  Y4  1  0.791838  0.583674  0.058454  1
  Y  Y5  1  0.416326  0.208162  0.058454  1
  Y  Y6  1  0.791838  0.208162  0.441546  1
  Y  Y7  1  0.791838  0.583674  0.441546  1
  Y  Y8  1  0.416326  0.208162  0.441546  1
  Y  Y9  1  0.208162  0.791838  0.558454  1
  Y  Y10  1  0.208162  0.416326  0.558454  1
  Y  Y11  1  0.583674  0.791838  0.558454  1
  Y  Y12  1  0.542717  0.457283  0.750000  1
  Y  Y13  1  0.542717  0.085435  0.750000  1
  Y  Y14  1  0.914565  0.457283  0.750000  1
  Y  Y15  1  0.457283  0.542717  0.250000  1
  Y  Y16  1  0.457283  0.914565  0.250000  1
  Y  Y17  1  0.085435  0.542717  0.250000  1
  Y  Y18  1  0.000000  0.000000  0.000000  1
  Y  Y19  1  0.000000  0.000000  0.500000  1
  Ag  Ag20  1  0.883250  0.116750  0.750000  1
  Ag  Ag21  1  0.883250  0.766502  0.750000  1
  Ag  Ag22  1  0.233498  0.116750  0.750000  1
  Ag  Ag23  1  0.116750  0.883250  0.250000  1
  Ag  Ag24  1  0.116750  0.233498  0.250000  1
  Ag  Ag25  1  0.766502  0.883250  0.250000  1
  Rh  Rh26  1  0.333333  0.666667  0.750000  1
  Rh  Rh27  1  0.666667  0.333333  0.250000  1
