# generated using pymatgen
data_Rb2NaHoAs2
_symmetry_space_group_name_H-M   'P 1'
_cell_length_a   9.42632619
_cell_length_b   9.42632526
_cell_length_c   9.42632467
_cell_angle_alpha   135.32130319
_cell_angle_beta   135.27129729
_cell_angle_gamma   65.07017063
_symmetry_Int_Tables_number   1
_chemical_formula_structural   Rb2NaHoAs2
_chemical_formula_sum   'Rb4 Na2 Ho2 As4'
_cell_volume   408.49248317
_cell_formula_units_Z   2
loop_
 _symmetry_equiv_pos_site_id
 _symmetry_equiv_pos_as_xyz
  1  'x, y, z'
loop_
 _atom_site_type_symbol
 _atom_site_label
 _atom_site_symmetry_multiplicity
 _atom_site_fract_x
 _atom_site_fract_y
 _atom_site_fract_z
 _atom_site_occupancy
  Rb  Rb0  1  0.682271  0.400366  0.718095  1
  Rb  Rb1  1  0.817729  0.035823  0.218095  1
  Rb  Rb2  1  0.182271  0.964177  0.781905  1
  Rb  Rb3  1  0.317729  0.599634  0.281905  1
  Na  Na4  1  0.750000  0.000000  0.750000  1
  Na  Na5  1  0.250000  0.000000  0.250000  1
  Ho  Ho6  1  0.250000  0.500000  0.750000  1
  Ho  Ho7  1  0.750000  0.500000  0.250000  1
  As  As8  1  0.405465  0.182492  0.777027  1
  As  As9  1  0.594535  0.817508  0.222973  1
  As  As10  1  0.094535  0.371563  0.277027  1
  As  As11  1  0.905465  0.628437  0.722973  1
