# generated using pymatgen
data_La8Zn8Pd4Ru3Rh
_symmetry_space_group_name_H-M   'P 1'
_cell_length_a   4.07930100
_cell_length_b   7.52560910
_cell_length_c   16.80530488
_cell_angle_alpha   90.16198412
_cell_angle_beta   90.00000000
_cell_angle_gamma   90.00000000
_symmetry_Int_Tables_number   1
_chemical_formula_structural   La8Zn8Pd4Ru3Rh
_chemical_formula_sum   'La8 Zn8 Pd4 Ru3 Rh1'
_cell_volume   515.90776911
_cell_formula_units_Z   1
loop_
 _symmetry_equiv_pos_site_id
 _symmetry_equiv_pos_as_xyz
  1  'x, y, z'
loop_
 _atom_site_type_symbol
 _atom_site_label
 _atom_site_symmetry_multiplicity
 _atom_site_fract_x
 _atom_site_fract_y
 _atom_site_fract_z
 _atom_site_occupancy
  La  La0  1  0.750000  0.336417  0.439923  1
  La  La1  1  0.250000  0.033138  0.716673  1
  La  La2  1  0.250000  0.556152  0.777482  1
  La  La3  1  0.250000  0.680280  0.558387  1
  La  La4  1  0.750000  0.833795  0.065165  1
  La  La5  1  0.250000  0.176373  0.947199  1
  La  La6  1  0.750000  0.452148  0.211490  1
  La  La7  1  0.750000  0.938168  0.286760  1
  Zn  Zn8  1  0.250000  0.123299  0.149737  1
  Zn  Zn9  1  0.250000  0.996433  0.439146  1
  Zn  Zn10  1  0.750000  0.867670  0.849181  1
  Zn  Zn11  1  0.750000  0.997596  0.557028  1
  Zn  Zn12  1  0.250000  0.499243  0.061275  1
  Zn  Zn13  1  0.750000  0.380192  0.648931  1
  Zn  Zn14  1  0.750000  0.501292  0.942684  1
  Zn  Zn15  1  0.250000  0.625159  0.350419  1
  Pd  Pd16  1  0.750000  0.257358  0.812740  1
  Pd  Pd17  1  0.250000  0.244247  0.314936  1
  Pd  Pd18  1  0.250000  0.742495  0.934516  1
  Pd  Pd19  1  0.250000  0.240793  0.566968  1
  Ru  Ru20  1  0.750000  0.759761  0.431735  1
  Ru  Ru21  1  0.750000  0.260137  0.066298  1
  Ru  Ru22  1  0.750000  0.753276  0.687898  1
  Rh  Rh23  1  0.250000  0.744574  0.183431  1
