# generated using pymatgen
data_Er3Nb2Bi3O14
_symmetry_space_group_name_H-M   'P 1'
_cell_length_a   6.41902664
_cell_length_b   6.69708659
_cell_length_c   7.63763819
_cell_angle_alpha   106.71803973
_cell_angle_beta   89.53043648
_cell_angle_gamma   98.34841058
_symmetry_Int_Tables_number   1
_chemical_formula_structural   Er3Nb2Bi3O14
_chemical_formula_sum   'Er3 Nb2 Bi3 O14'
_cell_volume   310.92730628
_cell_formula_units_Z   1
loop_
 _symmetry_equiv_pos_site_id
 _symmetry_equiv_pos_as_xyz
  1  'x, y, z'
loop_
 _atom_site_type_symbol
 _atom_site_label
 _atom_site_symmetry_multiplicity
 _atom_site_fract_x
 _atom_site_fract_y
 _atom_site_fract_z
 _atom_site_occupancy
  Er  Er0  1  0.547693  0.993925  0.753616  1
  Er  Er1  1  0.452841  0.004064  0.251290  1
  Er  Er2  1  0.254925  0.541307  0.883550  1
  Nb  Nb3  1  0.003752  0.008754  0.502066  1
  Nb  Nb4  1  0.005547  0.009520  0.999234  1
  Bi  Bi5  1  0.743164  0.484827  0.114685  1
  Bi  Bi6  1  0.726655  0.454707  0.613331  1
  Bi  Bi7  1  0.264514  0.540225  0.393940  1
  O  O8  1  0.444188  0.653282  0.165500  1
  O  O9  1  0.538054  0.340019  0.821839  1
  O  O10  1  0.297596  0.922407  0.949728  1
  O  O11  1  0.711017  0.041965  0.055093  1
  O  O12  1  0.292817  0.922619  0.516482  1
  O  O13  1  0.708463  0.080397  0.486234  1
  O  O14  1  0.523935  0.351259  0.348208  1
  O  O15  1  0.457527  0.646419  0.661305  1
  O  O16  1  0.936687  0.673642  0.953753  1
  O  O17  1  0.091082  0.306459  0.025786  1
  O  O18  1  0.094674  0.315035  0.626231  1
  O  O19  1  0.901719  0.702184  0.376581  1
  O  O20  1  0.902994  0.948911  0.737139  1
  O  O21  1  0.100157  0.058076  0.264407  1
