# generated using pymatgen
data_Ca2Ac7LaSn8
_symmetry_space_group_name_H-M   'P 1'
_cell_length_a   8.50720600
_cell_length_b   8.82919038
_cell_length_c   16.92891000
_cell_angle_alpha   90.22383800
_cell_angle_beta   90.00000000
_cell_angle_gamma   90.00000000
_symmetry_Int_Tables_number   1
_chemical_formula_structural   Ca2Ac7LaSn8
_chemical_formula_sum   'Ca4 Ac14 La2 Sn16'
_cell_volume   1271.55020578
_cell_formula_units_Z   2
loop_
 _symmetry_equiv_pos_site_id
 _symmetry_equiv_pos_as_xyz
  1  'x, y, z'
loop_
 _atom_site_type_symbol
 _atom_site_label
 _atom_site_symmetry_multiplicity
 _atom_site_fract_x
 _atom_site_fract_y
 _atom_site_fract_z
 _atom_site_occupancy
  Ca  Ca0  1  0.817615  0.505484  0.749859  1
  Ca  Ca1  1  0.317615  0.994516  0.750141  1
  Ca  Ca2  1  0.182176  0.491865  0.250302  1
  Ca  Ca3  1  0.682176  0.008135  0.249698  1
  Ac  Ac4  1  0.348560  0.831961  0.121874  1
  Ac  Ac5  1  0.848560  0.668039  0.378126  1
  Ac  Ac6  1  0.349338  0.830403  0.376051  1
  Ac  Ac7  1  0.849338  0.669597  0.123949  1
  Ac  Ac8  1  0.649911  0.168586  0.876782  1
  Ac  Ac9  1  0.149911  0.331414  0.623218  1
  Ac  Ac10  1  0.498663  0.683408  0.597041  1
  Ac  Ac11  1  0.998663  0.816592  0.902959  1
  Ac  Ac12  1  0.500717  0.312812  0.095831  1
  Ac  Ac13  1  0.000717  0.187188  0.404169  1
  Ac  Ac14  1  0.502715  0.315618  0.404847  1
  Ac  Ac15  1  0.002715  0.184382  0.095153  1
  Ac  Ac16  1  0.498792  0.685602  0.903149  1
  Ac  Ac17  1  0.998792  0.814398  0.596851  1
  La  La18  1  0.651574  0.169740  0.625938  1
  La  La19  1  0.151574  0.330260  0.874062  1
  Sn  Sn20  1  0.684278  0.968597  0.464465  1
  Sn  Sn21  1  0.184278  0.531403  0.035535  1
  Sn  Sn22  1  0.305607  0.041131  0.958745  1
  Sn  Sn23  1  0.805607  0.458869  0.541255  1
  Sn  Sn24  1  0.322460  0.035374  0.541137  1
  Sn  Sn25  1  0.822460  0.464626  0.958863  1
  Sn  Sn26  1  0.688979  0.964534  0.039526  1
  Sn  Sn27  1  0.188979  0.535466  0.460474  1
  Sn  Sn28  1  0.453849  0.398194  0.751032  1
  Sn  Sn29  1  0.953849  0.101806  0.748968  1
  Sn  Sn30  1  0.544671  0.596721  0.249395  1
  Sn  Sn31  1  0.044671  0.903279  0.250605  1
  Sn  Sn32  1  0.695599  0.860506  0.749121  1
  Sn  Sn33  1  0.195599  0.639494  0.750879  1
  Sn  Sn34  1  0.304496  0.142109  0.249948  1
  Sn  Sn35  1  0.804496  0.357891  0.250052  1
