# generated using pymatgen
data_Y3BiRh4F28
_symmetry_space_group_name_H-M   'P 1'
_cell_length_a   5.55242155
_cell_length_b   8.98867633
_cell_length_c   12.00247499
_cell_angle_alpha   62.34802202
_cell_angle_beta   89.96567167
_cell_angle_gamma   89.85810960
_symmetry_Int_Tables_number   1
_chemical_formula_structural   Y3BiRh4F28
_chemical_formula_sum   'Y3 Bi1 Rh4 F28'
_cell_volume   530.60931381
_cell_formula_units_Z   1
loop_
 _symmetry_equiv_pos_site_id
 _symmetry_equiv_pos_as_xyz
  1  'x, y, z'
loop_
 _atom_site_type_symbol
 _atom_site_label
 _atom_site_symmetry_multiplicity
 _atom_site_fract_x
 _atom_site_fract_y
 _atom_site_fract_z
 _atom_site_occupancy
  Y  Y0  1  0.738398  0.186177  0.735518  1
  Y  Y1  1  0.760883  0.193978  0.234331  1
  Y  Y2  1  0.239271  0.814633  0.764545  1
  Bi  Bi3  1  0.265119  0.820901  0.262848  1
  Rh  Rh4  1  0.757384  0.726104  0.040650  1
  Rh  Rh5  1  0.241375  0.275909  0.955302  1
  Rh  Rh6  1  0.257320  0.270436  0.458269  1
  Rh  Rh7  1  0.742263  0.725670  0.545768  1
  F  F8  1  0.932580  0.705206  0.417604  1
  F  F9  1  0.060920  0.290489  0.585191  1
  F  F10  1  0.438203  0.292957  0.083828  1
  F  F11  1  0.562715  0.707102  0.913040  1
  F  F12  1  0.464519  0.726946  0.129628  1
  F  F13  1  0.530444  0.271203  0.863763  1
  F  F14  1  0.967049  0.268906  0.365991  1
  F  F15  1  0.032795  0.729547  0.636394  1
  F  F16  1  0.942194  0.739990  0.173356  1
  F  F17  1  0.046797  0.257454  0.826246  1
  F  F18  1  0.451083  0.253709  0.327533  1
  F  F19  1  0.550093  0.743863  0.675538  1
  F  F20  1  0.768798  0.482643  0.137469  1
  F  F21  1  0.231012  0.518164  0.860062  1
  F  F22  1  0.269146  0.510193  0.362369  1
  F  F23  1  0.732621  0.482788  0.640898  1
  F  F24  1  0.945610  0.281072  0.043715  1
  F  F25  1  0.056321  0.718925  0.955463  1
  F  F26  1  0.442401  0.717339  0.461915  1
  F  F27  1  0.553652  0.278484  0.544829  1
  F  F28  1  0.740427  0.967861  0.450950  1
  F  F29  1  0.259906  0.028169  0.550625  1
  F  F30  1  0.240927  0.032050  0.047041  1
  F  F31  1  0.759099  0.968661  0.949504  1
  F  F32  1  0.598667  0.974242  0.228619  1
  F  F33  1  0.413463  0.029473  0.769261  1
  F  F34  1  0.093210  0.037525  0.271414  1
  F  F35  1  0.913335  0.971233  0.730524  1
