# generated using pymatgen
data_HoTm9(InBi2)2
_symmetry_space_group_name_H-M   'P 1'
_cell_length_a   6.45500700
_cell_length_b   9.00242185
_cell_length_c   8.98449504
_cell_angle_alpha   120.06602220
_cell_angle_beta   89.99992899
_cell_angle_gamma   90.00013748
_symmetry_Int_Tables_number   1
_chemical_formula_structural   HoTm9(InBi2)2
_chemical_formula_sum   'Ho1 Tm9 In2 Bi4'
_cell_volume   451.84665222
_cell_formula_units_Z   1
loop_
 _symmetry_equiv_pos_site_id
 _symmetry_equiv_pos_as_xyz
  1  'x, y, z'
loop_
 _atom_site_type_symbol
 _atom_site_label
 _atom_site_symmetry_multiplicity
 _atom_site_fract_x
 _atom_site_fract_y
 _atom_site_fract_z
 _atom_site_occupancy
  Ho  Ho0  1  0.750002  0.236096  0.000000  1
  Tm  Tm1  1  0.496787  0.331508  0.659931  1
  Tm  Tm2  1  0.496787  0.671577  0.340069  1
  Tm  Tm3  1  0.003211  0.671576  0.340070  1
  Tm  Tm4  1  0.003211  0.331505  0.659930  1
  Tm  Tm5  1  0.750000  0.765435  0.763308  1
  Tm  Tm6  1  0.750000  0.002127  0.236692  1
  Tm  Tm7  1  0.250002  0.768004  0.000000  1
  Tm  Tm8  1  0.249999  0.233016  0.242768  1
  Tm  Tm9  1  0.249999  0.990248  0.757232  1
  In  In10  1  0.250000  0.604241  0.606134  1
  In  In11  1  0.250000  0.998106  0.393866  1
  Bi  Bi12  1  0.750002  0.606864  0.000000  1
  Bi  Bi13  1  0.749998  0.396900  0.393908  1
  Bi  Bi14  1  0.749998  0.002992  0.606092  1
  Bi  Bi15  1  0.250003  0.389806  0.000000  1
