# generated using pymatgen
data_Ti8V12Si15P
_symmetry_space_group_name_H-M   'P 1'
_cell_length_a   6.47212538
_cell_length_b   6.45957830
_cell_length_c   11.91580245
_cell_angle_alpha   89.99950367
_cell_angle_beta   89.95786603
_cell_angle_gamma   89.99173294
_symmetry_Int_Tables_number   1
_chemical_formula_structural   Ti8V12Si15P
_chemical_formula_sum   'Ti8 V12 Si15 P1'
_cell_volume   498.16620410
_cell_formula_units_Z   1
loop_
 _symmetry_equiv_pos_site_id
 _symmetry_equiv_pos_as_xyz
  1  'x, y, z'
loop_
 _atom_site_type_symbol
 _atom_site_label
 _atom_site_symmetry_multiplicity
 _atom_site_fract_x
 _atom_site_fract_y
 _atom_site_fract_z
 _atom_site_occupancy
  Ti  Ti0  1  0.004518  0.664823  0.029127  1
  Ti  Ti1  1  0.837724  0.503368  0.279646  1
  Ti  Ti2  1  0.161860  0.495812  0.779009  1
  Ti  Ti3  1  0.503367  0.837699  0.721196  1
  Ti  Ti4  1  0.493965  0.159909  0.218583  1
  Ti  Ti5  1  0.996785  0.337245  0.529404  1
  Ti  Ti6  1  0.658352  0.003146  0.971656  1
  Ti  Ti7  1  0.336673  0.997407  0.470829  1
  V  V8  1  0.334446  0.330036  0.000977  1
  V  V9  1  0.168127  0.836259  0.247328  1
  V  V10  1  0.834122  0.165935  0.749990  1
  V  V11  1  0.666024  0.665301  0.499840  1
  V  V12  1  0.010411  0.151664  0.126161  1
  V  V13  1  0.344644  0.506014  0.377546  1
  V  V14  1  0.656710  0.494215  0.878228  1
  V  V15  1  0.505575  0.344752  0.622444  1
  V  V16  1  0.490729  0.660908  0.121537  1
  V  V17  1  0.993723  0.845228  0.627639  1
  V  V18  1  0.157659  0.005076  0.876259  1
  V  V19  1  0.844785  0.994166  0.372787  1
  Si  Si20  1  0.539465  0.798657  0.315283  1
  Si  Si21  1  0.461414  0.202093  0.814609  1
  Si  Si22  1  0.798538  0.539480  0.685301  1
  Si  Si23  1  0.201122  0.460941  0.185290  1
  Si  Si24  1  0.700958  0.038929  0.564786  1
  Si  Si25  1  0.960517  0.299417  0.935189  1
  Si  Si26  1  0.039860  0.701836  0.434453  1
  Si  Si27  1  0.708472  0.369308  0.076903  1
  Si  Si28  1  0.132127  0.208121  0.326120  1
  Si  Si29  1  0.867747  0.793973  0.826609  1
  Si  Si30  1  0.207270  0.131979  0.674805  1
  Si  Si31  1  0.792417  0.867287  0.174736  1
  Si  Si32  1  0.292037  0.632977  0.576045  1
  Si  Si33  1  0.367854  0.704085  0.922516  1
  Si  Si34  1  0.631995  0.291804  0.423388  1
  P  P35  1  0.298010  0.960155  0.063781  1
