# generated using pymatgen
data_Pr4Mn2FeRhO12
_symmetry_space_group_name_H-M   'P 1'
_cell_length_a   5.52129979
_cell_length_b   5.80502922
_cell_length_c   7.81258147
_cell_angle_alpha   89.78605786
_cell_angle_beta   90.34061087
_cell_angle_gamma   89.85063825
_symmetry_Int_Tables_number   1
_chemical_formula_structural   Pr4Mn2FeRhO12
_chemical_formula_sum   'Pr4 Mn2 Fe1 Rh1 O12'
_cell_volume   250.39640865
_cell_formula_units_Z   1
loop_
 _symmetry_equiv_pos_site_id
 _symmetry_equiv_pos_as_xyz
  1  'x, y, z'
loop_
 _atom_site_type_symbol
 _atom_site_label
 _atom_site_symmetry_multiplicity
 _atom_site_fract_x
 _atom_site_fract_y
 _atom_site_fract_z
 _atom_site_occupancy
  Pr  Pr0  1  0.011338  0.936477  0.750909  1
  Pr  Pr1  1  0.519259  0.561720  0.249188  1
  Pr  Pr2  1  0.480741  0.438280  0.750812  1
  Pr  Pr3  1  0.988662  0.063523  0.249091  1
  Mn  Mn4  1  0.500000  0.000000  0.000000  1
  Mn  Mn5  1  0.000000  0.500000  0.000000  1
  Fe  Fe6  1  0.500000  0.000000  0.500000  1
  Rh  Rh7  1  0.000000  0.500000  0.500000  1
  O  O8  1  0.699349  0.291239  0.450568  1
  O  O9  1  0.202632  0.200909  0.549204  1
  O  O10  1  0.784770  0.810417  0.047616  1
  O  O11  1  0.282235  0.688833  0.952869  1
  O  O12  1  0.300651  0.708761  0.549432  1
  O  O13  1  0.797368  0.799091  0.450796  1
  O  O14  1  0.215230  0.189583  0.952384  1
  O  O15  1  0.717765  0.311167  0.047131  1
  O  O16  1  0.101397  0.471891  0.246551  1
  O  O17  1  0.588467  0.023986  0.750851  1
  O  O18  1  0.411533  0.976014  0.249149  1
  O  O19  1  0.898603  0.528109  0.753449  1
