# generated using pymatgen
data_Gd3(ZnNi2)2
_symmetry_space_group_name_H-M   'P 1'
_cell_length_a   4.11977700
_cell_length_b   5.23505137
_cell_length_c   8.19105253
_cell_angle_alpha   96.80681517
_cell_angle_beta   90.00000000
_cell_angle_gamma   113.17122098
_symmetry_Int_Tables_number   1
_chemical_formula_structural   Gd3(ZnNi2)2
_chemical_formula_sum   'Gd3 Zn2 Ni4'
_cell_volume   161.05260888
_cell_formula_units_Z   1
loop_
 _symmetry_equiv_pos_site_id
 _symmetry_equiv_pos_as_xyz
  1  'x, y, z'
loop_
 _atom_site_type_symbol
 _atom_site_label
 _atom_site_symmetry_multiplicity
 _atom_site_fract_x
 _atom_site_fract_y
 _atom_site_fract_z
 _atom_site_occupancy
  Gd  Gd0  1  0.625599  0.251198  0.879233  1
  Gd  Gd1  1  0.374401  0.748802  0.120767  1
  Gd  Gd2  1  0.000000  0.000000  0.500000  1
  Zn  Zn3  1  0.322683  0.645368  0.718782  1
  Zn  Zn4  1  0.677317  0.354632  0.281218  1
  Ni  Ni5  1  0.917280  0.834561  0.866259  1
  Ni  Ni6  1  0.082720  0.165439  0.133741  1
  Ni  Ni7  1  0.733054  0.466107  0.583516  1
  Ni  Ni8  1  0.266946  0.533893  0.416484  1
