# generated using pymatgen
data_Zr5B4SbRu10
_symmetry_space_group_name_H-M   'P 1'
_cell_length_a   9.54873000
_cell_length_b   9.54873000
_cell_length_c   3.13391100
_cell_angle_alpha   90.00000000
_cell_angle_beta   90.00000000
_cell_angle_gamma   90.00000000
_symmetry_Int_Tables_number   1
_chemical_formula_structural   Zr5B4SbRu10
_chemical_formula_sum   'Zr5 B4 Sb1 Ru10'
_cell_volume   285.74450375
_cell_formula_units_Z   1
loop_
 _symmetry_equiv_pos_site_id
 _symmetry_equiv_pos_as_xyz
  1  'x, y, z'
loop_
 _atom_site_type_symbol
 _atom_site_label
 _atom_site_symmetry_multiplicity
 _atom_site_fract_x
 _atom_site_fract_y
 _atom_site_fract_z
 _atom_site_occupancy
  Zr  Zr0  1  0.824539  0.675308  0.000000  1
  Zr  Zr1  1  0.175461  0.324692  0.000000  1
  Zr  Zr2  1  0.324692  0.824539  0.000000  1
  Zr  Zr3  1  0.675308  0.175461  0.000000  1
  Zr  Zr4  1  0.500000  0.500000  0.000000  1
  B  B5  1  0.620707  0.878483  0.000000  1
  B  B6  1  0.379293  0.121517  0.000000  1
  B  B7  1  0.121517  0.620707  0.000000  1
  B  B8  1  0.878483  0.379293  0.000000  1
  Sb  Sb9  1  0.000000  0.000000  0.000000  1
  Ru  Ru10  1  0.573470  0.722660  0.500000  1
  Ru  Ru11  1  0.426530  0.277340  0.500000  1
  Ru  Ru12  1  0.069805  0.780501  0.500000  1
  Ru  Ru13  1  0.930195  0.219499  0.500000  1
  Ru  Ru14  1  0.277340  0.573470  0.500000  1
  Ru  Ru15  1  0.722660  0.426530  0.500000  1
  Ru  Ru16  1  0.219499  0.069805  0.500000  1
  Ru  Ru17  1  0.780501  0.930195  0.500000  1
  Ru  Ru18  1  0.500000  0.000000  0.500000  1
  Ru  Ru19  1  0.000000  0.500000  0.500000  1
