# generated using pymatgen
data_Nd12IrPd2Ru
_symmetry_space_group_name_H-M   'P 1'
_cell_length_a   6.54567320
_cell_length_b   7.37456878
_cell_length_c   9.97155500
_cell_angle_alpha   90.00000000
_cell_angle_beta   90.00000000
_cell_angle_gamma   89.85062977
_symmetry_Int_Tables_number   1
_chemical_formula_structural   Nd12IrPd2Ru
_chemical_formula_sum   'Nd12 Ir1 Pd2 Ru1'
_cell_volume   481.34045305
_cell_formula_units_Z   1
loop_
 _symmetry_equiv_pos_site_id
 _symmetry_equiv_pos_as_xyz
  1  'x, y, z'
loop_
 _atom_site_type_symbol
 _atom_site_label
 _atom_site_symmetry_multiplicity
 _atom_site_fract_x
 _atom_site_fract_y
 _atom_site_fract_z
 _atom_site_occupancy
  Nd  Nd0  1  0.329103  0.681893  0.060198  1
  Nd  Nd1  1  0.163761  0.171407  0.435398  1
  Nd  Nd2  1  0.662342  0.329630  0.566514  1
  Nd  Nd3  1  0.826313  0.817929  0.937141  1
  Nd  Nd4  1  0.662342  0.329630  0.933486  1
  Nd  Nd5  1  0.826313  0.817929  0.562859  1
  Nd  Nd6  1  0.329103  0.681893  0.439802  1
  Nd  Nd7  1  0.163761  0.171407  0.064602  1
  Nd  Nd8  1  0.868272  0.536633  0.250000  1
  Nd  Nd9  1  0.644757  0.026577  0.250000  1
  Nd  Nd10  1  0.146052  0.473986  0.750000  1
  Nd  Nd11  1  0.370981  0.959867  0.750000  1
  Ir  Ir12  1  0.068091  0.881531  0.250000  1
  Pd  Pd13  1  0.431233  0.386398  0.250000  1
  Pd  Pd14  1  0.935975  0.114528  0.750000  1
  Ru  Ru15  1  0.571597  0.618762  0.750000  1
