# generated using pymatgen
data_Li5Co19P12
_symmetry_space_group_name_H-M   'P 1'
_cell_length_a   11.71980400
_cell_length_b   11.71980401
_cell_length_c   3.54319000
_cell_angle_alpha   90.00000000
_cell_angle_beta   90.00000000
_cell_angle_gamma   119.99999998
_symmetry_Int_Tables_number   1
_chemical_formula_structural   Li5Co19P12
_chemical_formula_sum   'Li5 Co19 P12'
_cell_volume   421.46913022
_cell_formula_units_Z   1
loop_
 _symmetry_equiv_pos_site_id
 _symmetry_equiv_pos_as_xyz
  1  'x, y, z'
loop_
 _atom_site_type_symbol
 _atom_site_label
 _atom_site_symmetry_multiplicity
 _atom_site_fract_x
 _atom_site_fract_y
 _atom_site_fract_z
 _atom_site_occupancy
  Li  Li0  1  0.333333  0.666667  0.500000  1
  Li  Li1  1  0.666667  0.333333  0.500000  1
  Li  Li2  1  0.184477  0.000000  0.000000  1
  Li  Li3  1  0.000000  0.184477  0.000000  1
  Li  Li4  1  0.815523  0.815523  0.000000  1
  Co  Co5  1  0.197059  0.376490  0.500000  1
  Co  Co6  1  0.623510  0.820569  0.500000  1
  Co  Co7  1  0.179431  0.802941  0.500000  1
  Co  Co8  1  0.820569  0.623510  0.500000  1
  Co  Co9  1  0.802941  0.179431  0.500000  1
  Co  Co10  1  0.376490  0.197059  0.500000  1
  Co  Co11  1  0.549716  0.000000  0.500000  1
  Co  Co12  1  0.000000  0.549716  0.500000  1
  Co  Co13  1  0.450284  0.450284  0.500000  1
  Co  Co14  1  0.126439  0.481377  0.000000  1
  Co  Co15  1  0.518623  0.645062  0.000000  1
  Co  Co16  1  0.354938  0.873561  0.000000  1
  Co  Co17  1  0.645062  0.518623  0.000000  1
  Co  Co18  1  0.873561  0.354938  0.000000  1
  Co  Co19  1  0.481377  0.126439  0.000000  1
  Co  Co20  1  0.716122  0.000000  0.000000  1
  Co  Co21  1  0.000000  0.716122  0.000000  1
  Co  Co22  1  0.283878  0.283878  0.000000  1
  Co  Co23  1  0.000000  0.000000  0.500000  1
  P  P24  1  0.362575  0.000000  0.500000  1
  P  P25  1  0.000000  0.362575  0.500000  1
  P  P26  1  0.637425  0.637425  0.500000  1
  P  P27  1  0.317761  0.485034  0.000000  1
  P  P28  1  0.514966  0.832727  0.000000  1
  P  P29  1  0.167273  0.682239  0.000000  1
  P  P30  1  0.832727  0.514966  0.000000  1
  P  P31  1  0.682239  0.167273  0.000000  1
  P  P32  1  0.485034  0.317761  0.000000  1
  P  P33  1  0.822196  0.000000  0.500000  1
  P  P34  1  0.000000  0.822196  0.500000  1
  P  P35  1  0.177804  0.177804  0.500000  1
