# generated using pymatgen
data_Tb16Sc4NiPt11
_symmetry_space_group_name_H-M   'P 1'
_cell_length_a   10.96528200
_cell_length_b   10.96528200
_cell_length_c   6.36061900
_cell_angle_alpha   90.00000000
_cell_angle_beta   90.00000000
_cell_angle_gamma   90.00000000
_symmetry_Int_Tables_number   1
_chemical_formula_structural   Tb16Sc4NiPt11
_chemical_formula_sum   'Tb16 Sc4 Ni1 Pt11'
_cell_volume   764.78435036
_cell_formula_units_Z   1
loop_
 _symmetry_equiv_pos_site_id
 _symmetry_equiv_pos_as_xyz
  1  'x, y, z'
loop_
 _atom_site_type_symbol
 _atom_site_label
 _atom_site_symmetry_multiplicity
 _atom_site_fract_x
 _atom_site_fract_y
 _atom_site_fract_z
 _atom_site_occupancy
  Tb  Tb0  1  0.287768  0.087435  0.378833  1
  Tb  Tb1  1  0.287516  0.912110  0.878356  1
  Tb  Tb2  1  0.712484  0.087890  0.878356  1
  Tb  Tb3  1  0.712232  0.912565  0.378833  1
  Tb  Tb4  1  0.587890  0.787516  0.878356  1
  Tb  Tb5  1  0.587435  0.212232  0.378833  1
  Tb  Tb6  1  0.412565  0.787768  0.378833  1
  Tb  Tb7  1  0.412110  0.212484  0.878356  1
  Tb  Tb8  1  0.209623  0.413523  0.617410  1
  Tb  Tb9  1  0.210619  0.586519  0.124198  1
  Tb  Tb10  1  0.789381  0.413481  0.124198  1
  Tb  Tb11  1  0.790377  0.586477  0.617410  1
  Tb  Tb12  1  0.913481  0.710619  0.124198  1
  Tb  Tb13  1  0.913523  0.290377  0.617410  1
  Tb  Tb14  1  0.086477  0.709623  0.617410  1
  Tb  Tb15  1  0.086519  0.289381  0.124198  1
  Sc  Sc16  1  0.000000  0.000000  0.500153  1
  Sc  Sc17  1  0.000000  0.000000  0.999936  1
  Sc  Sc18  1  0.500000  0.500000  0.999936  1
  Sc  Sc19  1  0.500000  0.500000  0.500153  1
  Ni  Ni20  1  0.000000  0.500000  0.381321  1
  Pt  Pt21  1  0.853000  0.146818  0.250372  1
  Pt  Pt22  1  0.853488  0.852604  0.750616  1
  Pt  Pt23  1  0.146512  0.147396  0.750616  1
  Pt  Pt24  1  0.147000  0.853182  0.250372  1
  Pt  Pt25  1  0.647396  0.353488  0.750616  1
  Pt  Pt26  1  0.646818  0.647000  0.250372  1
  Pt  Pt27  1  0.353182  0.353000  0.250372  1
  Pt  Pt28  1  0.352604  0.646512  0.750616  1
  Pt  Pt29  1  0.500000  0.000000  0.119217  1
  Pt  Pt30  1  0.500000  0.000000  0.619582  1
  Pt  Pt31  1  0.000000  0.500000  0.880556  1
