# generated using pymatgen
data_Nd4Hf2Pb5
_symmetry_space_group_name_H-M   'P 1'
_cell_length_a   6.40741638
_cell_length_b   9.59093251
_cell_length_c   11.76049300
_cell_angle_alpha   114.06424056
_cell_angle_beta   105.80789090
_cell_angle_gamma   89.99999987
_symmetry_Int_Tables_number   1
_chemical_formula_structural   Nd4Hf2Pb5
_chemical_formula_sum   'Nd8 Hf4 Pb10'
_cell_volume   629.85363489
_cell_formula_units_Z   2
loop_
 _symmetry_equiv_pos_site_id
 _symmetry_equiv_pos_as_xyz
  1  'x, y, z'
loop_
 _atom_site_type_symbol
 _atom_site_label
 _atom_site_symmetry_multiplicity
 _atom_site_fract_x
 _atom_site_fract_y
 _atom_site_fract_z
 _atom_site_occupancy
  Nd  Nd0  1  0.442748  0.666145  0.885496  1
  Nd  Nd1  1  0.557252  0.333855  0.114504  1
  Nd  Nd2  1  0.942748  0.219351  0.885496  1
  Nd  Nd3  1  0.057252  0.780649  0.114504  1
  Nd  Nd4  1  0.146952  0.254588  0.293905  1
  Nd  Nd5  1  0.853048  0.745412  0.706095  1
  Nd  Nd6  1  0.646952  0.039317  0.293905  1
  Nd  Nd7  1  0.353048  0.960683  0.706095  1
  Hf  Hf8  1  0.550783  0.300783  0.601566  1
  Hf  Hf9  1  0.449217  0.699217  0.398434  1
  Hf  Hf10  1  0.949217  0.699217  0.398434  1
  Hf  Hf11  1  0.050783  0.300783  0.601566  1
  Pb  Pb12  1  0.290264  0.585070  0.580526  1
  Pb  Pb13  1  0.709736  0.414930  0.419474  1
  Pb  Pb14  1  0.790264  0.995456  0.580526  1
  Pb  Pb15  1  0.209736  0.004544  0.419474  1
  Pb  Pb16  1  0.250000  0.000000  0.000000  1
  Pb  Pb17  1  0.750000  0.000000  0.000000  1
  Pb  Pb18  1  0.084999  0.484097  0.169999  1
  Pb  Pb19  1  0.915001  0.515903  0.830001  1
  Pb  Pb20  1  0.584999  0.685903  0.169999  1
  Pb  Pb21  1  0.415001  0.314097  0.830001  1
