# generated using pymatgen
data_Ca4CuSb4Pt3
_symmetry_space_group_name_H-M   'P 1'
_cell_length_a   4.63985300
_cell_length_b   7.42862587
_cell_length_c   7.92328829
_cell_angle_alpha   90.45517269
_cell_angle_beta   90.00000000
_cell_angle_gamma   90.00000000
_symmetry_Int_Tables_number   1
_chemical_formula_structural   Ca4CuSb4Pt3
_chemical_formula_sum   'Ca4 Cu1 Sb4 Pt3'
_cell_volume   273.08915996
_cell_formula_units_Z   1
loop_
 _symmetry_equiv_pos_site_id
 _symmetry_equiv_pos_as_xyz
  1  'x, y, z'
loop_
 _atom_site_type_symbol
 _atom_site_label
 _atom_site_symmetry_multiplicity
 _atom_site_fract_x
 _atom_site_fract_y
 _atom_site_fract_z
 _atom_site_occupancy
  Ca  Ca0  1  0.750000  0.997009  0.698171  1
  Ca  Ca1  1  0.250000  0.006368  0.304642  1
  Ca  Ca2  1  0.750000  0.485826  0.797563  1
  Ca  Ca3  1  0.250000  0.504800  0.200685  1
  Cu  Cu4  1  0.250000  0.812528  0.914645  1
  Sb  Sb5  1  0.750000  0.313862  0.409032  1
  Sb  Sb6  1  0.250000  0.187524  0.908439  1
  Sb  Sb7  1  0.250000  0.689559  0.594815  1
  Sb  Sb8  1  0.750000  0.806111  0.088222  1
  Pt  Pt9  1  0.250000  0.305666  0.583316  1
  Pt  Pt10  1  0.750000  0.694959  0.416594  1
  Pt  Pt11  1  0.750000  0.195788  0.083875  1
