# generated using pymatgen
data_Th2Mn3Fe5Co4P7
_symmetry_space_group_name_H-M   'P 1'
_cell_length_a   9.12467100
_cell_length_b   9.10771358
_cell_length_c   3.68224800
_cell_angle_alpha   90.00000000
_cell_angle_beta   90.00000000
_cell_angle_gamma   119.95417330
_symmetry_Int_Tables_number   1
_chemical_formula_structural   Th2Mn3Fe5Co4P7
_chemical_formula_sum   'Th2 Mn3 Fe5 Co4 P7'
_cell_volume   265.13716571
_cell_formula_units_Z   1
loop_
 _symmetry_equiv_pos_site_id
 _symmetry_equiv_pos_as_xyz
  1  'x, y, z'
loop_
 _atom_site_type_symbol
 _atom_site_label
 _atom_site_symmetry_multiplicity
 _atom_site_fract_x
 _atom_site_fract_y
 _atom_site_fract_z
 _atom_site_occupancy
  Th  Th0  1  0.332652  0.666414  0.000000  1
  Th  Th1  1  0.000845  0.000307  0.500000  1
  Mn  Mn2  1  0.786734  0.226927  0.500000  1
  Mn  Mn3  1  0.771877  0.555694  0.500000  1
  Mn  Mn4  1  0.443511  0.214736  0.500000  1
  Fe  Fe5  1  0.544557  0.059230  0.000000  1
  Fe  Fe6  1  0.938473  0.483583  0.000000  1
  Fe  Fe7  1  0.516281  0.455896  0.000000  1
  Fe  Fe8  1  0.102121  0.718273  0.500000  1
  Fe  Fe9  1  0.281452  0.385043  0.500000  1
  Co  Co10  1  0.032689  0.269179  0.000000  1
  Co  Co11  1  0.731915  0.765248  0.000000  1
  Co  Co12  1  0.236595  0.968724  0.000000  1
  Co  Co13  1  0.615042  0.895749  0.500000  1
  P  P14  1  0.768203  0.032244  0.000000  1
  P  P15  1  0.970629  0.736603  0.000000  1
  P  P16  1  0.264370  0.234588  0.000000  1
  P  P17  1  0.376067  0.937738  0.500000  1
  P  P18  1  0.063151  0.442879  0.500000  1
  P  P19  1  0.556894  0.618489  0.500000  1
  P  P20  1  0.665944  0.332454  0.000000  1
