# generated using pymatgen
data_Pr12Ge3PI12
_symmetry_space_group_name_H-M   'P 1'
_cell_length_a   10.94060766
_cell_length_b   10.88185119
_cell_length_c   10.88185143
_cell_angle_alpha   109.36158321
_cell_angle_beta   109.58063353
_cell_angle_gamma   109.58064025
_symmetry_Int_Tables_number   1
_chemical_formula_structural   Pr12Ge3PI12
_chemical_formula_sum   'Pr12 Ge3 P1 I12'
_cell_volume   995.94853773
_cell_formula_units_Z   1
loop_
 _symmetry_equiv_pos_site_id
 _symmetry_equiv_pos_as_xyz
  1  'x, y, z'
loop_
 _atom_site_type_symbol
 _atom_site_label
 _atom_site_symmetry_multiplicity
 _atom_site_fract_x
 _atom_site_fract_y
 _atom_site_fract_z
 _atom_site_occupancy
  Pr  Pr0  1  0.462679  0.485749  0.227698  1
  Pr  Pr1  1  0.750000  0.233624  0.266376  1
  Pr  Pr2  1  0.750000  0.015680  0.484320  1
  Pr  Pr3  1  0.234320  0.468640  0.484320  1
  Pr  Pr4  1  0.265018  0.741950  0.227698  1
  Pr  Pr5  1  0.037321  0.272302  0.014251  1
  Pr  Pr6  1  0.016376  0.032752  0.266376  1
  Pr  Pr7  1  0.476930  0.741950  0.014251  1
  Pr  Pr8  1  0.483624  0.233624  0.467248  1
  Pr  Pr9  1  0.023070  0.485749  0.758050  1
  Pr  Pr10  1  0.265680  0.015680  0.031360  1
  Pr  Pr11  1  0.234982  0.272302  0.758050  1
  Ge  Ge12  1  0.250000  0.250613  0.249387  1
  Ge  Ge13  1  0.499387  0.998776  0.249387  1
  Ge  Ge14  1  0.000613  0.250613  0.501224  1
  P  P15  1  0.250000  0.500000  0.000000  1
  I  I16  1  0.250000  0.757185  0.742815  1
  I  I17  1  0.515124  0.507629  0.758056  1
  I  I18  1  0.984876  0.741944  0.992371  1
  I  I19  1  0.742932  0.250427  0.758056  1
  I  I20  1  0.992815  0.985630  0.742815  1
  I  I21  1  0.250000  0.992920  0.507080  1
  I  I22  1  0.757080  0.514158  0.507080  1
  I  I23  1  0.507497  0.250427  0.992371  1
  I  I24  1  0.757068  0.741944  0.249573  1
  I  I25  1  0.742920  0.992920  0.985842  1
  I  I26  1  0.992503  0.507629  0.249573  1
  I  I27  1  0.507185  0.757185  0.514370  1
