# generated using pymatgen
data_NaYb7(Si4W3)4
_symmetry_space_group_name_H-M   'P 1'
_cell_length_a   6.70861042
_cell_length_b   6.88347729
_cell_length_c   13.03458844
_cell_angle_alpha   89.96101733
_cell_angle_beta   89.89930948
_cell_angle_gamma   90.04670630
_symmetry_Int_Tables_number   1
_chemical_formula_structural   NaYb7(Si4W3)4
_chemical_formula_sum   'Na1 Yb7 Si16 W12'
_cell_volume   601.91735236
_cell_formula_units_Z   1
loop_
 _symmetry_equiv_pos_site_id
 _symmetry_equiv_pos_as_xyz
  1  'x, y, z'
loop_
 _atom_site_type_symbol
 _atom_site_label
 _atom_site_symmetry_multiplicity
 _atom_site_fract_x
 _atom_site_fract_y
 _atom_site_fract_z
 _atom_site_occupancy
  Na  Na0  1  0.993075  0.165970  0.088644  1
  Yb  Yb1  1  0.499013  0.333217  0.090738  1
  Yb  Yb2  1  0.999373  0.166909  0.409578  1
  Yb  Yb3  1  0.501828  0.667219  0.590289  1
  Yb  Yb4  1  0.001009  0.834169  0.911940  1
  Yb  Yb5  1  0.500146  0.666861  0.911279  1
  Yb  Yb6  1  0.001278  0.832641  0.590242  1
  Yb  Yb7  1  0.498811  0.332061  0.408351  1
  Si  Si8  1  0.661063  0.043803  0.544170  1
  Si  Si9  1  0.159370  0.451975  0.957386  1
  Si  Si10  1  0.334444  0.960383  0.045441  1
  Si  Si11  1  0.839198  0.543294  0.454907  1
  Si  Si12  1  0.339646  0.956343  0.455298  1
  Si  Si13  1  0.841294  0.540121  0.045586  1
  Si  Si14  1  0.659829  0.044233  0.956699  1
  Si  Si15  1  0.161521  0.456934  0.543857  1
  Si  Si16  1  0.535352  0.381463  0.750138  1
  Si  Si17  1  0.035415  0.118324  0.750172  1
  Si  Si18  1  0.464642  0.618264  0.250655  1
  Si  Si19  1  0.966080  0.883953  0.248102  1
  Si  Si20  1  0.800041  0.637070  0.750758  1
  Si  Si21  1  0.298784  0.861916  0.750461  1
  Si  Si22  1  0.198068  0.360867  0.247388  1
  Si  Si23  1  0.705560  0.138431  0.247984  1
  W  W24  1  0.837635  0.332483  0.628304  1
  W  W25  1  0.338316  0.167114  0.871354  1
  W  W26  1  0.164653  0.667952  0.128796  1
  W  W27  1  0.664396  0.834649  0.371359  1
  W  W28  1  0.163049  0.667714  0.371692  1
  W  W29  1  0.660581  0.832418  0.127986  1
  W  W30  1  0.837035  0.332494  0.871642  1
  W  W31  1  0.337270  0.167366  0.628055  1
  W  W32  1  0.658866  0.012274  0.750189  1
  W  W33  1  0.159596  0.487509  0.749900  1
  W  W34  1  0.342318  0.987814  0.249944  1
  W  W35  1  0.841438  0.513789  0.250714  1
