# generated using pymatgen
data_Ti4NbWC5
_symmetry_space_group_name_H-M   'P 1'
_cell_length_a   5.32826508
_cell_length_b   5.35097898
_cell_length_c   5.35084673
_cell_angle_alpha   80.78838586
_cell_angle_beta   79.99284714
_cell_angle_gamma   119.63095690
_symmetry_Int_Tables_number   1
_chemical_formula_structural   Ti4NbWC5
_chemical_formula_sum   'Ti4 Nb1 W1 C5'
_cell_volume   125.08347415
_cell_formula_units_Z   1
loop_
 _symmetry_equiv_pos_site_id
 _symmetry_equiv_pos_as_xyz
  1  'x, y, z'
loop_
 _atom_site_type_symbol
 _atom_site_label
 _atom_site_symmetry_multiplicity
 _atom_site_fract_x
 _atom_site_fract_y
 _atom_site_fract_z
 _atom_site_occupancy
  Ti  Ti0  1  0.736317  0.741657  0.733503  1
  Ti  Ti1  1  0.263506  0.264707  0.264058  1
  Ti  Ti2  1  0.088415  0.442253  0.744325  1
  Ti  Ti3  1  0.561678  0.913115  0.252830  1
  Nb  Nb4  1  0.431786  0.086817  0.751375  1
  W  W5  1  0.912013  0.553070  0.256325  1
  C  C6  1  0.501696  0.505977  0.496095  1
  C  C7  1  0.671072  0.335945  0.003058  1
  C  C8  1  0.332556  0.660861  0.003293  1
  C  C9  1  0.837273  0.165373  0.498227  1
  C  C10  1  0.163689  0.830223  0.496910  1
