# generated using pymatgen
data_Tb5Dy5Co4
_symmetry_space_group_name_H-M   'P 1'
_cell_length_a   6.30616675
_cell_length_b   6.91214249
_cell_length_c   8.61057269
_cell_angle_alpha   96.23069880
_cell_angle_beta   111.50635011
_cell_angle_gamma   90.00749067
_symmetry_Int_Tables_number   1
_chemical_formula_structural   Tb5Dy5Co4
_chemical_formula_sum   'Tb5 Dy5 Co4'
_cell_volume   346.80967611
_cell_formula_units_Z   1
loop_
 _symmetry_equiv_pos_site_id
 _symmetry_equiv_pos_as_xyz
  1  'x, y, z'
loop_
 _atom_site_type_symbol
 _atom_site_label
 _atom_site_symmetry_multiplicity
 _atom_site_fract_x
 _atom_site_fract_y
 _atom_site_fract_z
 _atom_site_occupancy
  Tb  Tb0  1  0.795643  0.087369  0.811128  1
  Tb  Tb1  1  0.983891  0.413489  0.189101  1
  Tb  Tb2  1  0.204503  0.912203  0.188874  1
  Tb  Tb3  1  0.015692  0.586619  0.810551  1
  Tb  Tb4  1  0.217248  0.185322  0.567772  1
  Dy  Dy5  1  0.648059  0.314307  0.431091  1
  Dy  Dy6  1  0.782714  0.814568  0.431754  1
  Dy  Dy7  1  0.352143  0.685636  0.568723  1
  Dy  Dy8  1  0.428821  0.250279  0.000393  1
  Dy  Dy9  1  0.571268  0.750096  0.999986  1
  Co  Co10  1  0.599751  0.429635  0.778250  1
  Co  Co11  1  0.821017  0.070126  0.221855  1
  Co  Co12  1  0.401130  0.570740  0.222837  1
  Co  Co13  1  0.178121  0.929610  0.777685  1
