# generated using pymatgen
data_Tb4TmSiBi2
_symmetry_space_group_name_H-M   'P 1'
_cell_length_a   12.09403500
_cell_length_b   9.21510700
_cell_length_c   8.08458600
_cell_angle_alpha   90.00000000
_cell_angle_beta   90.00000000
_cell_angle_gamma   90.00000000
_symmetry_Int_Tables_number   1
_chemical_formula_structural   Tb4TmSiBi2
_chemical_formula_sum   'Tb16 Tm4 Si4 Bi8'
_cell_volume   901.00953855
_cell_formula_units_Z   4
loop_
 _symmetry_equiv_pos_site_id
 _symmetry_equiv_pos_as_xyz
  1  'x, y, z'
loop_
 _atom_site_type_symbol
 _atom_site_label
 _atom_site_symmetry_multiplicity
 _atom_site_fract_x
 _atom_site_fract_y
 _atom_site_fract_z
 _atom_site_occupancy
  Tb  Tb0  1  0.063353  0.551633  0.818709  1
  Tb  Tb1  1  0.563353  0.948367  0.681291  1
  Tb  Tb2  1  0.936647  0.051633  0.181291  1
  Tb  Tb3  1  0.436647  0.448367  0.318709  1
  Tb  Tb4  1  0.936647  0.448367  0.181291  1
  Tb  Tb5  1  0.436647  0.051633  0.318709  1
  Tb  Tb6  1  0.063353  0.948367  0.818709  1
  Tb  Tb7  1  0.563353  0.551633  0.681291  1
  Tb  Tb8  1  0.211532  0.750000  0.165522  1
  Tb  Tb9  1  0.711532  0.750000  0.334478  1
  Tb  Tb10  1  0.788468  0.250000  0.834478  1
  Tb  Tb11  1  0.288468  0.250000  0.665522  1
  Tb  Tb12  1  0.294949  0.750000  0.635292  1
  Tb  Tb13  1  0.794949  0.750000  0.864708  1
  Tb  Tb14  1  0.705051  0.250000  0.364708  1
  Tb  Tb15  1  0.205051  0.250000  0.135292  1
  Tm  Tm16  1  0.000931  0.750000  0.459688  1
  Tm  Tm17  1  0.500931  0.750000  0.040312  1
  Tm  Tm18  1  0.999069  0.250000  0.540312  1
  Tm  Tm19  1  0.499069  0.250000  0.959688  1
  Si  Si20  1  0.480030  0.750000  0.412549  1
  Si  Si21  1  0.980030  0.750000  0.087451  1
  Si  Si22  1  0.519970  0.250000  0.587451  1
  Si  Si23  1  0.019970  0.250000  0.912549  1
  Bi  Bi24  1  0.327703  0.510834  0.932188  1
  Bi  Bi25  1  0.827703  0.989166  0.567812  1
  Bi  Bi26  1  0.672297  0.010834  0.067812  1
  Bi  Bi27  1  0.172297  0.489166  0.432188  1
  Bi  Bi28  1  0.672297  0.489166  0.067812  1
  Bi  Bi29  1  0.172297  0.010834  0.432188  1
  Bi  Bi30  1  0.327703  0.989166  0.932188  1
  Bi  Bi31  1  0.827703  0.510834  0.567812  1
