# generated using pymatgen
data_SrPr17(BiO)10
_symmetry_space_group_name_H-M   'P 1'
_cell_length_a   10.47136400
_cell_length_b   10.47136400
_cell_length_c   9.44111300
_cell_angle_alpha   90.00000000
_cell_angle_beta   90.00000000
_cell_angle_gamma   90.00000000
_symmetry_Int_Tables_number   1
_chemical_formula_structural   SrPr17(BiO)10
_chemical_formula_sum   'Sr1 Pr17 Bi10 O10'
_cell_volume   1035.21298021
_cell_formula_units_Z   1
loop_
 _symmetry_equiv_pos_site_id
 _symmetry_equiv_pos_as_xyz
  1  'x, y, z'
loop_
 _atom_site_type_symbol
 _atom_site_label
 _atom_site_symmetry_multiplicity
 _atom_site_fract_x
 _atom_site_fract_y
 _atom_site_fract_z
 _atom_site_occupancy
  Sr  Sr0  1  0.000000  0.500000  0.329907  1
  Pr  Pr1  1  0.726416  0.917369  0.002643  1
  Pr  Pr2  1  0.582631  0.226416  0.002643  1
  Pr  Pr3  1  0.774966  0.581103  0.999287  1
  Pr  Pr4  1  0.225034  0.418897  0.999287  1
  Pr  Pr5  1  0.205219  0.895789  0.339500  1
  Pr  Pr6  1  0.273584  0.082631  0.002643  1
  Pr  Pr7  1  0.895697  0.795582  0.660355  1
  Pr  Pr8  1  0.918897  0.274966  0.999287  1
  Pr  Pr9  1  0.295582  0.604303  0.660355  1
  Pr  Pr10  1  0.417369  0.773584  0.002643  1
  Pr  Pr11  1  0.104303  0.204418  0.660355  1
  Pr  Pr12  1  0.794781  0.104211  0.339500  1
  Pr  Pr13  1  0.500000  0.000000  0.673686  1
  Pr  Pr14  1  0.081103  0.725034  0.999287  1
  Pr  Pr15  1  0.395789  0.294781  0.339500  1
  Pr  Pr16  1  0.704418  0.395697  0.660355  1
  Pr  Pr17  1  0.604211  0.705219  0.339500  1
  Bi  Bi18  1  0.500000  0.000000  0.313796  1
  Bi  Bi19  1  0.195908  0.903721  0.699309  1
  Bi  Bi20  1  0.403721  0.304092  0.699309  1
  Bi  Bi21  1  0.000000  0.500000  0.689210  1
  Bi  Bi22  1  0.692466  0.402650  0.299904  1
  Bi  Bi23  1  0.097350  0.192466  0.299904  1
  Bi  Bi24  1  0.596279  0.695908  0.699309  1
  Bi  Bi25  1  0.307534  0.597350  0.299904  1
  Bi  Bi26  1  0.804092  0.096279  0.699309  1
  Bi  Bi27  1  0.902650  0.807534  0.299904  1
  O  O28  1  0.500000  0.000000  0.934372  1
  O  O29  1  0.725438  0.378968  0.912024  1
  O  O30  1  0.621460  0.726019  0.087027  1
  O  O31  1  0.378540  0.273981  0.087027  1
  O  O32  1  0.121032  0.225438  0.912024  1
  O  O33  1  0.274562  0.621032  0.912024  1
  O  O34  1  0.000000  0.500000  0.058838  1
  O  O35  1  0.226019  0.878540  0.087027  1
  O  O36  1  0.878968  0.774562  0.912024  1
  O  O37  1  0.773981  0.121460  0.087027  1
