# generated using pymatgen
data_TmPa5F24
_symmetry_space_group_name_H-M   'P 1'
_cell_length_a   8.35388482
_cell_length_b   8.45368548
_cell_length_c   8.36777338
_cell_angle_alpha   63.12870210
_cell_angle_beta   63.68478722
_cell_angle_gamma   80.30817241
_symmetry_Int_Tables_number   1
_chemical_formula_structural   TmPa5F24
_chemical_formula_sum   'Tm1 Pa5 F24'
_cell_volume   472.12740654
_cell_formula_units_Z   1
loop_
 _symmetry_equiv_pos_site_id
 _symmetry_equiv_pos_as_xyz
  1  'x, y, z'
loop_
 _atom_site_type_symbol
 _atom_site_label
 _atom_site_symmetry_multiplicity
 _atom_site_fract_x
 _atom_site_fract_y
 _atom_site_fract_z
 _atom_site_occupancy
  Tm  Tm0  1  0.774534  0.636884  0.169226  1
  Pa  Pa1  1  0.639872  0.765464  0.667312  1
  Pa  Pa2  1  0.379170  0.226046  0.329585  1
  Pa  Pa3  1  0.212625  0.370931  0.839102  1
  Pa  Pa4  1  0.788399  0.206689  0.740182  1
  Pa  Pa5  1  0.217150  0.786901  0.243011  1
  F  F6  1  0.318623  0.260252  0.610262  1
  F  F7  1  0.681135  0.738571  0.395778  1
  F  F8  1  0.736435  0.680827  0.897910  1
  F  F9  1  0.267491  0.328576  0.102616  1
  F  F10  1  0.818596  0.935929  0.951335  1
  F  F11  1  0.167865  0.071008  0.048040  1
  F  F12  1  0.069962  0.169413  0.543123  1
  F  F13  1  0.939403  0.823990  0.457905  1
  F  F14  1  0.401804  0.598599  0.752550  1
  F  F15  1  0.599147  0.403559  0.248526  1
  F  F16  1  0.498963  0.996118  0.505110  1
  F  F17  1  0.993331  0.498619  0.007629  1
  F  F18  1  0.498195  0.249370  0.797387  1
  F  F19  1  0.498483  0.740846  0.210103  1
  F  F20  1  0.749444  0.493139  0.712897  1
  F  F21  1  0.247063  0.499645  0.298773  1
  F  F22  1  0.399224  0.811729  0.923494  1
  F  F23  1  0.604429  0.189726  0.072027  1
  F  F24  1  0.191208  0.604108  0.572529  1
  F  F25  1  0.805371  0.402223  0.431697  1
  F  F26  1  0.726149  0.027629  0.638191  1
  F  F27  1  0.280155  0.979074  0.338479  1
  F  F28  1  0.972769  0.276282  0.841850  1
  F  F29  1  0.023003  0.727856  0.153370  1
