# generated using pymatgen
data_YbHo4Lu3(B6Ru)4
_symmetry_space_group_name_H-M   'P 1'
_cell_length_a   3.62371000
_cell_length_b   9.07663217
_cell_length_c   11.46596425
_cell_angle_alpha   89.95707982
_cell_angle_beta   90.00000000
_cell_angle_gamma   90.00000000
_symmetry_Int_Tables_number   1
_chemical_formula_structural   YbHo4Lu3(B6Ru)4
_chemical_formula_sum   'Yb1 Ho4 Lu3 B24 Ru4'
_cell_volume   377.12787310
_cell_formula_units_Z   1
loop_
 _symmetry_equiv_pos_site_id
 _symmetry_equiv_pos_as_xyz
  1  'x, y, z'
loop_
 _atom_site_type_symbol
 _atom_site_label
 _atom_site_symmetry_multiplicity
 _atom_site_fract_x
 _atom_site_fract_y
 _atom_site_fract_z
 _atom_site_occupancy
  Yb  Yb0  1  0.000000  0.323172  0.413857  1
  Ho  Ho1  1  0.000000  0.676144  0.585354  1
  Ho  Ho2  1  0.000000  0.821813  0.085969  1
  Ho  Ho3  1  0.000000  0.178794  0.914457  1
  Ho  Ho4  1  0.000000  0.944275  0.371603  1
  Lu  Lu5  1  0.000000  0.057927  0.628388  1
  Lu  Lu6  1  0.000000  0.443259  0.128889  1
  Lu  Lu7  1  0.000000  0.555939  0.872344  1
  B  B8  1  0.500000  0.553490  0.432579  1
  B  B9  1  0.500000  0.445455  0.567614  1
  B  B10  1  0.500000  0.053891  0.066265  1
  B  B11  1  0.500000  0.945650  0.932495  1
  B  B12  1  0.500000  0.748144  0.419218  1
  B  B13  1  0.500000  0.251009  0.581265  1
  B  B14  1  0.500000  0.249386  0.080448  1
  B  B15  1  0.500000  0.750351  0.919450  1
  B  B16  1  0.500000  0.790893  0.265443  1
  B  B17  1  0.500000  0.208981  0.734595  1
  B  B18  1  0.500000  0.291401  0.233627  1
  B  B19  1  0.500000  0.708402  0.766083  1
  B  B20  1  0.500000  0.630521  0.184841  1
  B  B21  1  0.500000  0.369552  0.815918  1
  B  B22  1  0.500000  0.131686  0.314133  1
  B  B23  1  0.500000  0.869270  0.684732  1
  B  B24  1  0.500000  0.983360  0.211529  1
  B  B25  1  0.500000  0.017343  0.786835  1
  B  B26  1  0.500000  0.482542  0.286962  1
  B  B27  1  0.500000  0.517228  0.713331  1
  B  B28  1  0.500000  0.604505  0.028863  1
  B  B29  1  0.500000  0.395698  0.971437  1
  B  B30  1  0.500000  0.103728  0.472709  1
  B  B31  1  0.500000  0.896247  0.529723  1
  Ru  Ru32  1  0.000000  0.638536  0.319746  1
  Ru  Ru33  1  0.000000  0.361667  0.681140  1
  Ru  Ru34  1  0.000000  0.138193  0.177663  1
  Ru  Ru35  1  0.000000  0.861550  0.820492  1
