# generated using pymatgen
data_Sr2PrCdCoO6
_symmetry_space_group_name_H-M   'P 1'
_cell_length_a   6.71486685
_cell_length_b   6.71375173
_cell_length_c   6.66764440
_cell_angle_alpha   90.68425058
_cell_angle_beta   90.68760097
_cell_angle_gamma   90.02897944
_symmetry_Int_Tables_number   1
_chemical_formula_structural   Sr2PrCdCoO6
_chemical_formula_sum   'Sr4 Pr2 Cd2 Co2 O12'
_cell_volume   300.54726227
_cell_formula_units_Z   2
loop_
 _symmetry_equiv_pos_site_id
 _symmetry_equiv_pos_as_xyz
  1  'x, y, z'
loop_
 _atom_site_type_symbol
 _atom_site_label
 _atom_site_symmetry_multiplicity
 _atom_site_fract_x
 _atom_site_fract_y
 _atom_site_fract_z
 _atom_site_occupancy
  Sr  Sr0  1  0.616654  0.883366  0.250063  1
  Sr  Sr1  1  0.748802  0.385081  0.116714  1
  Sr  Sr2  1  0.385933  0.114077  0.749953  1
  Sr  Sr3  1  0.114881  0.751225  0.383307  1
  Pr  Pr4  1  0.882670  0.249222  0.614794  1
  Pr  Pr5  1  0.250667  0.617399  0.885104  1
  Cd  Cd6  1  0.748780  0.751039  0.750187  1
  Cd  Cd7  1  0.253505  0.246632  0.249844  1
  Co  Co8  1  0.002349  0.003099  0.998215  1
  Co  Co9  1  0.496911  0.497667  0.501800  1
  O  O10  1  0.210743  0.421463  0.560614  1
  O  O11  1  0.412769  0.550148  0.210955  1
  O  O12  1  0.557974  0.217847  0.425361  1
  O  O13  1  0.930305  0.721987  0.047308  1
  O  O14  1  0.728085  0.059908  0.910652  1
  O  O15  1  0.054368  0.923403  0.720420  1
  O  O16  1  0.777942  0.569900  0.452979  1
  O  O17  1  0.576381  0.445635  0.779758  1
  O  O18  1  0.439834  0.771865  0.589294  1
  O  O19  1  0.078281  0.289376  0.939047  1
  O  O20  1  0.282241  0.942331  0.074754  1
  O  O21  1  0.949925  0.087332  0.288875  1
