# generated using pymatgen
data_MnPd4Au
_symmetry_space_group_name_H-M   'P 1'
_cell_length_a   3.99423700
_cell_length_b   5.59685200
_cell_length_c   8.43206700
_cell_angle_alpha   90.00000000
_cell_angle_beta   90.00000000
_cell_angle_gamma   90.00000000
_symmetry_Int_Tables_number   1
_chemical_formula_structural   MnPd4Au
_chemical_formula_sum   'Mn2 Pd8 Au2'
_cell_volume   188.50015077
_cell_formula_units_Z   2
loop_
 _symmetry_equiv_pos_site_id
 _symmetry_equiv_pos_as_xyz
  1  'x, y, z'
loop_
 _atom_site_type_symbol
 _atom_site_label
 _atom_site_symmetry_multiplicity
 _atom_site_fract_x
 _atom_site_fract_y
 _atom_site_fract_z
 _atom_site_occupancy
  Mn  Mn0  1  0.250000  0.632520  0.413712  1
  Mn  Mn1  1  0.250000  0.132520  0.086288  1
  Pd  Pd2  1  0.750000  0.368278  0.924165  1
  Pd  Pd3  1  0.750000  0.868278  0.575835  1
  Pd  Pd4  1  0.250000  0.625135  0.088658  1
  Pd  Pd5  1  0.250000  0.125135  0.411342  1
  Pd  Pd6  1  0.750000  0.382895  0.251302  1
  Pd  Pd7  1  0.750000  0.882895  0.248698  1
  Pd  Pd8  1  0.250000  0.619810  0.746923  1
  Pd  Pd9  1  0.250000  0.119810  0.753077  1
  Au  Au10  1  0.750000  0.371363  0.582148  1
  Au  Au11  1  0.750000  0.871363  0.917852  1
