# generated using pymatgen
data_Ca6Ga6Si5Ge
_symmetry_space_group_name_H-M   'P 1'
_cell_length_a   4.16604400
_cell_length_b   4.16604232
_cell_length_c   26.14318400
_cell_angle_alpha   90.00000000
_cell_angle_beta   90.00000000
_cell_angle_gamma   120.00001332
_symmetry_Int_Tables_number   1
_chemical_formula_structural   Ca6Ga6Si5Ge
_chemical_formula_sum   'Ca6 Ga6 Si5 Ge1'
_cell_volume   392.94935748
_cell_formula_units_Z   1
loop_
 _symmetry_equiv_pos_site_id
 _symmetry_equiv_pos_as_xyz
  1  'x, y, z'
loop_
 _atom_site_type_symbol
 _atom_site_label
 _atom_site_symmetry_multiplicity
 _atom_site_fract_x
 _atom_site_fract_y
 _atom_site_fract_z
 _atom_site_occupancy
  Ca  Ca0  1  0.000000  0.000000  0.332067  1
  Ca  Ca1  1  0.000000  0.000000  0.833081  1
  Ca  Ca2  1  0.000000  0.000000  0.167330  1
  Ca  Ca3  1  0.000000  0.000000  0.000266  1
  Ca  Ca4  1  0.000000  0.000000  0.668438  1
  Ca  Ca5  1  0.000000  0.000000  0.499006  1
  Ga  Ga6  1  0.333333  0.666667  0.405928  1
  Ga  Ga7  1  0.333333  0.666667  0.251941  1
  Ga  Ga8  1  0.333333  0.666667  0.091112  1
  Ga  Ga9  1  0.666667  0.333333  0.909852  1
  Ga  Ga10  1  0.666667  0.333333  0.743246  1
  Ga  Ga11  1  0.666667  0.333333  0.599054  1
  Si  Si12  1  0.333333  0.666667  0.921939  1
  Si  Si13  1  0.333333  0.666667  0.754699  1
  Si  Si14  1  0.666667  0.333333  0.248397  1
  Si  Si15  1  0.666667  0.333333  0.079104  1
  Si  Si16  1  0.666667  0.333333  0.421213  1
  Ge  Ge17  1  0.333333  0.666667  0.573327  1
