# generated using pymatgen
data_PrHoSi3(AsRh3)4
_symmetry_space_group_name_H-M   'P 1'
_cell_length_a   9.91776800
_cell_length_b   9.91776933
_cell_length_c   3.91139400
_cell_angle_alpha   90.00000000
_cell_angle_beta   90.00000000
_cell_angle_gamma   120.00000222
_symmetry_Int_Tables_number   1
_chemical_formula_structural   PrHoSi3(AsRh3)4
_chemical_formula_sum   'Pr1 Ho1 Si3 As4 Rh12'
_cell_volume   333.18860135
_cell_formula_units_Z   1
loop_
 _symmetry_equiv_pos_site_id
 _symmetry_equiv_pos_as_xyz
  1  'x, y, z'
loop_
 _atom_site_type_symbol
 _atom_site_label
 _atom_site_symmetry_multiplicity
 _atom_site_fract_x
 _atom_site_fract_y
 _atom_site_fract_z
 _atom_site_occupancy
  Pr  Pr0  1  0.333333  0.666667  0.244804  1
  Ho  Ho1  1  0.666667  0.333333  0.743656  1
  Si  Si2  1  0.403965  0.112887  0.242531  1
  Si  Si3  1  0.708921  0.596035  0.242531  1
  Si  Si4  1  0.887113  0.291079  0.242531  1
  As  As5  1  0.000000  0.000000  0.630723  1
  As  As6  1  0.598783  0.885182  0.745585  1
  As  As7  1  0.286399  0.401217  0.745585  1
  As  As8  1  0.114818  0.713601  0.745585  1
  Rh  Rh9  1  0.450157  0.378341  0.242120  1
  Rh  Rh10  1  0.928184  0.549843  0.242120  1
  Rh  Rh11  1  0.621659  0.071816  0.242120  1
  Rh  Rh12  1  0.560591  0.613959  0.744547  1
  Rh  Rh13  1  0.053368  0.439409  0.744547  1
  Rh  Rh14  1  0.386041  0.946632  0.744547  1
  Rh  Rh15  1  0.146458  0.888711  0.244744  1
  Rh  Rh16  1  0.742254  0.853542  0.244744  1
  Rh  Rh17  1  0.111289  0.257746  0.244744  1
  Rh  Rh18  1  0.848908  0.125278  0.740747  1
  Rh  Rh19  1  0.276371  0.151092  0.740747  1
  Rh  Rh20  1  0.874722  0.723629  0.740747  1
