# generated using pymatgen
data_DyHo5Al24Ir5Ru3
_symmetry_space_group_name_H-M   'P 1'
_cell_length_a   8.82292010
_cell_length_b   8.81401913
_cell_length_c   9.50271116
_cell_angle_alpha   90.00000337
_cell_angle_beta   90.12493043
_cell_angle_gamma   119.96663337
_symmetry_Int_Tables_number   1
_chemical_formula_structural   DyHo5Al24Ir5Ru3
_chemical_formula_sum   'Dy1 Ho5 Al24 Ir5 Ru3'
_cell_volume   640.19022973
_cell_formula_units_Z   1
loop_
 _symmetry_equiv_pos_site_id
 _symmetry_equiv_pos_as_xyz
  1  'x, y, z'
loop_
 _atom_site_type_symbol
 _atom_site_label
 _atom_site_symmetry_multiplicity
 _atom_site_fract_x
 _atom_site_fract_y
 _atom_site_fract_z
 _atom_site_occupancy
  Dy  Dy0  1  0.388169  0.194085  0.749658  1
  Ho  Ho1  1  0.193941  0.805640  0.249022  1
  Ho  Ho2  1  0.193941  0.388301  0.249022  1
  Ho  Ho3  1  0.611416  0.805708  0.250348  1
  Ho  Ho4  1  0.806133  0.194365  0.750976  1
  Ho  Ho5  1  0.806133  0.611768  0.750976  1
  Al  Al6  1  0.562066  0.437371  0.250342  1
  Al  Al7  1  0.562066  0.124695  0.250342  1
  Al  Al8  1  0.876163  0.438081  0.248867  1
  Al  Al9  1  0.437979  0.562800  0.749657  1
  Al  Al10  1  0.437979  0.875179  0.749657  1
  Al  Al11  1  0.123812  0.561906  0.751141  1
  Al  Al12  1  0.325241  0.162620  0.422972  1
  Al  Al13  1  0.837387  0.162848  0.423715  1
  Al  Al14  1  0.837387  0.674538  0.423715  1
  Al  Al15  1  0.674751  0.837375  0.576921  1
  Al  Al16  1  0.162566  0.837067  0.576217  1
  Al  Al17  1  0.162566  0.325500  0.576217  1
  Al  Al18  1  0.674434  0.837217  0.923555  1
  Al  Al19  1  0.162374  0.836236  0.922846  1
  Al  Al20  1  0.162374  0.326139  0.922846  1
  Al  Al21  1  0.325560  0.162780  0.076546  1
  Al  Al22  1  0.837578  0.163682  0.077214  1
  Al  Al23  1  0.837578  0.673896  0.077214  1
  Al  Al24  1  0.667086  0.333542  0.527091  1
  Al  Al25  1  0.333065  0.666534  0.472819  1
  Al  Al26  1  0.331303  0.665652  0.025448  1
  Al  Al27  1  0.668849  0.334424  0.974637  1
  Al  Al28  1  0.998987  0.999493  0.250095  1
  Al  Al29  1  0.000843  0.000422  0.749904  1
  Ir  Ir30  1  0.500039  0.500103  0.499924  1
  Ir  Ir31  1  0.500039  0.999936  0.499924  1
  Ir  Ir32  1  0.000061  0.500031  0.499989  1
  Ir  Ir33  1  0.500041  0.500104  0.000077  1
  Ir  Ir34  1  0.500041  0.999937  0.000077  1
  Ru  Ru35  1  0.999996  0.999998  0.499989  1
  Ru  Ru36  1  0.999996  0.999998  0.000013  1
  Ru  Ru37  1  0.000058  0.500029  0.000026  1
