# generated using pymatgen
data_Ce4Ga24RuPt8
_symmetry_space_group_name_H-M   'P 1'
_cell_length_a   7.56818871
_cell_length_b   7.59291028
_cell_length_c   13.18627400
_cell_angle_alpha   84.58272570
_cell_angle_beta   79.01692405
_cell_angle_gamma   59.88270588
_symmetry_Int_Tables_number   1
_chemical_formula_structural   Ce4Ga24RuPt8
_chemical_formula_sum   'Ce4 Ga24 Ru1 Pt8'
_cell_volume   643.44213068
_cell_formula_units_Z   1
loop_
 _symmetry_equiv_pos_site_id
 _symmetry_equiv_pos_as_xyz
  1  'x, y, z'
loop_
 _atom_site_type_symbol
 _atom_site_label
 _atom_site_symmetry_multiplicity
 _atom_site_fract_x
 _atom_site_fract_y
 _atom_site_fract_z
 _atom_site_occupancy
  Ce  Ce0  1  0.395141  0.168093  0.809209  1
  Ce  Ce1  1  0.604859  0.831907  0.190791  1
  Ce  Ce2  1  0.731635  0.500528  0.809164  1
  Ce  Ce3  1  0.268365  0.499472  0.190836  1
  Ga  Ga4  1  0.689340  0.829769  0.941758  1
  Ga  Ga5  1  0.310660  0.170231  0.058242  1
  Ga  Ga6  1  0.146655  0.832786  0.560765  1
  Ga  Ga7  1  0.853345  0.167214  0.439235  1
  Ga  Ga8  1  0.480462  0.166500  0.558224  1
  Ga  Ga9  1  0.519538  0.833500  0.441776  1
  Ga  Ga10  1  0.218360  0.165330  0.326320  1
  Ga  Ga11  1  0.781640  0.834670  0.673680  1
  Ga  Ga12  1  0.436550  0.506433  0.674245  1
  Ga  Ga13  1  0.563450  0.493567  0.325755  1
  Ga  Ga14  1  0.108884  0.161551  0.671528  1
  Ga  Ga15  1  0.891116  0.838449  0.328472  1
  Ga  Ga16  1  0.349789  0.499362  0.941477  1
  Ga  Ga17  1  0.650211  0.500638  0.058523  1
  Ga  Ga18  1  0.016729  0.174938  0.948743  1
  Ga  Ga19  1  0.983271  0.825062  0.051257  1
  Ga  Ga20  1  0.186092  0.499530  0.441810  1
  Ga  Ga21  1  0.813908  0.500470  0.558190  1
  Ga  Ga22  1  0.740163  0.161083  0.182244  1
  Ga  Ga23  1  0.259837  0.838917  0.817756  1
  Ga  Ga24  1  0.059990  0.630853  0.819297  1
  Ga  Ga25  1  0.940010  0.369147  0.180703  1
  Ga  Ga26  1  0.859588  0.039323  0.817550  1
  Ga  Ga27  1  0.140412  0.960677  0.182450  1
  Ru  Ru28  1  0.000000  0.500000  0.000000  1
  Pt  Pt29  1  0.120613  0.494812  0.638716  1
  Pt  Pt30  1  0.879387  0.505188  0.361284  1
  Pt  Pt31  1  0.658835  0.170583  0.000159  1
  Pt  Pt32  1  0.341165  0.829417  0.999841  1
  Pt  Pt33  1  0.539294  0.167163  0.361512  1
  Pt  Pt34  1  0.460706  0.832837  0.638488  1
  Pt  Pt35  1  0.780833  0.172754  0.637207  1
  Pt  Pt36  1  0.219167  0.827246  0.362793  1
