# generated using pymatgen
data_HfSc2SiGe2Ru3
_symmetry_space_group_name_H-M   'P 1'
_cell_length_a   6.92089100
_cell_length_b   6.92255322
_cell_length_c   3.49247600
_cell_angle_alpha   90.00000000
_cell_angle_beta   90.00000000
_cell_angle_gamma   119.99205255
_symmetry_Int_Tables_number   1
_chemical_formula_structural   HfSc2SiGe2Ru3
_chemical_formula_sum   'Hf1 Sc2 Si1 Ge2 Ru3'
_cell_volume   144.91960747
_cell_formula_units_Z   1
loop_
 _symmetry_equiv_pos_site_id
 _symmetry_equiv_pos_as_xyz
  1  'x, y, z'
loop_
 _atom_site_type_symbol
 _atom_site_label
 _atom_site_symmetry_multiplicity
 _atom_site_fract_x
 _atom_site_fract_y
 _atom_site_fract_z
 _atom_site_occupancy
  Hf  Hf0  1  0.403132  0.000000  0.500000  1
  Sc  Sc1  1  0.999195  0.403299  0.500000  1
  Sc  Sc2  1  0.595896  0.596701  0.500000  1
  Si  Si3  1  0.998512  0.000000  0.500000  1
  Ge  Ge4  1  0.332178  0.663614  0.000000  1
  Ge  Ge5  1  0.668565  0.336386  0.000000  1
  Ru  Ru6  1  0.004076  0.758778  0.000000  1
  Ru  Ru7  1  0.245298  0.241222  0.000000  1
  Ru  Ru8  1  0.753149  0.000000  0.000000  1
