# generated using pymatgen
data_Y3CuHg3Pd2
_symmetry_space_group_name_H-M   'P 1'
_cell_length_a   7.78688900
_cell_length_b   7.78688815
_cell_length_c   3.70369200
_cell_angle_alpha   90.00000000
_cell_angle_beta   90.00000000
_cell_angle_gamma   119.99999935
_symmetry_Int_Tables_number   1
_chemical_formula_structural   Y3CuHg3Pd2
_chemical_formula_sum   'Y3 Cu1 Hg3 Pd2'
_cell_volume   194.48827244
_cell_formula_units_Z   1
loop_
 _symmetry_equiv_pos_site_id
 _symmetry_equiv_pos_as_xyz
  1  'x, y, z'
loop_
 _atom_site_type_symbol
 _atom_site_label
 _atom_site_symmetry_multiplicity
 _atom_site_fract_x
 _atom_site_fract_y
 _atom_site_fract_z
 _atom_site_occupancy
  Y  Y0  1  0.404860  0.404860  0.500000  1
  Y  Y1  1  0.595140  0.000000  0.500000  1
  Y  Y2  1  0.000000  0.595140  0.500000  1
  Cu  Cu3  1  0.000000  0.000000  0.500000  1
  Hg  Hg4  1  0.741725  0.741725  0.000000  1
  Hg  Hg5  1  0.258275  0.000000  0.000000  1
  Hg  Hg6  1  0.000000  0.258275  0.000000  1
  Pd  Pd7  1  0.666667  0.333333  0.000000  1
  Pd  Pd8  1  0.333333  0.666667  0.000000  1
