# generated using pymatgen
data_CrPd5
_symmetry_space_group_name_H-M   'P 1'
_cell_length_a   6.18306039
_cell_length_b   6.18305986
_cell_length_c   3.94836000
_cell_angle_alpha   90.00000000
_cell_angle_beta   90.00000000
_cell_angle_gamma   142.92684425
_symmetry_Int_Tables_number   1
_chemical_formula_structural   CrPd5
_chemical_formula_sum   'Cr1 Pd5'
_cell_volume   90.99585130
_cell_formula_units_Z   1
loop_
 _symmetry_equiv_pos_site_id
 _symmetry_equiv_pos_as_xyz
  1  'x, y, z'
loop_
 _atom_site_type_symbol
 _atom_site_label
 _atom_site_symmetry_multiplicity
 _atom_site_fract_x
 _atom_site_fract_y
 _atom_site_fract_z
 _atom_site_occupancy
  Cr  Cr0  1  0.000000  0.000000  0.000000  1
  Pd  Pd1  1  0.337378  0.662622  0.000000  1
  Pd  Pd2  1  0.662622  0.337378  0.000000  1
  Pd  Pd3  1  0.500000  0.500000  0.500000  1
  Pd  Pd4  1  0.836084  0.163916  0.500000  1
  Pd  Pd5  1  0.163916  0.836084  0.500000  1
