# generated using pymatgen
data_Nd2NpCo16
_symmetry_space_group_name_H-M   'P 1'
_cell_length_a   6.41753688
_cell_length_b   6.41753700
_cell_length_c   6.41753639
_cell_angle_alpha   83.49548280
_cell_angle_beta   96.50451769
_cell_angle_gamma   96.50452085
_symmetry_Int_Tables_number   1
_chemical_formula_structural   Nd2NpCo16
_chemical_formula_sum   'Nd2 Np1 Co16'
_cell_volume   259.55881578
_cell_formula_units_Z   1
loop_
 _symmetry_equiv_pos_site_id
 _symmetry_equiv_pos_as_xyz
  1  'x, y, z'
loop_
 _atom_site_type_symbol
 _atom_site_label
 _atom_site_symmetry_multiplicity
 _atom_site_fract_x
 _atom_site_fract_y
 _atom_site_fract_z
 _atom_site_occupancy
  Nd  Nd0  1  0.644471  0.355528  0.355528  1
  Nd  Nd1  1  0.344470  0.655528  0.655528  1
  Np  Np2  1  0.906472  0.093527  0.093527  1
  Co  Co3  1  0.489503  0.997359  0.997359  1
  Co  Co4  1  0.297054  0.295553  0.996391  1
  Co  Co5  1  0.002641  0.510497  0.997359  1
  Co  Co6  1  0.704447  0.702947  0.996391  1
  Co  Co7  1  0.340498  0.659501  0.146061  1
  Co  Co8  1  0.297053  0.996391  0.295553  1
  Co  Co9  1  0.003609  0.702947  0.295553  1
  Co  Co10  1  0.655496  0.847972  0.344503  1
  Co  Co11  1  0.152027  0.344503  0.344503  1
  Co  Co12  1  0.002641  0.997359  0.510497  1
  Co  Co13  1  0.340497  0.146060  0.659501  1
  Co  Co14  1  0.853939  0.659501  0.659502  1
  Co  Co15  1  0.003609  0.295552  0.702947  1
  Co  Co16  1  0.704447  0.996391  0.702947  1
  Co  Co17  1  0.655497  0.344503  0.847973  1
  Co  Co18  1  0.101625  0.898374  0.898374  1
