# generated using pymatgen
data_Ce4HoIr2Os
_symmetry_space_group_name_H-M   'P 1'
_cell_length_a   11.07777700
_cell_length_b   11.07777700
_cell_length_c   6.26100900
_cell_angle_alpha   90.00000000
_cell_angle_beta   90.00000000
_cell_angle_gamma   90.00000000
_symmetry_Int_Tables_number   1
_chemical_formula_structural   Ce4HoIr2Os
_chemical_formula_sum   'Ce16 Ho4 Ir8 Os4'
_cell_volume   768.33313842
_cell_formula_units_Z   4
loop_
 _symmetry_equiv_pos_site_id
 _symmetry_equiv_pos_as_xyz
  1  'x, y, z'
loop_
 _atom_site_type_symbol
 _atom_site_label
 _atom_site_symmetry_multiplicity
 _atom_site_fract_x
 _atom_site_fract_y
 _atom_site_fract_z
 _atom_site_occupancy
  Ce  Ce0  1  0.290429  0.089270  0.377940  1
  Ce  Ce1  1  0.290429  0.910730  0.877940  1
  Ce  Ce2  1  0.709571  0.089270  0.877940  1
  Ce  Ce3  1  0.709571  0.910730  0.377940  1
  Ce  Ce4  1  0.589270  0.790429  0.877940  1
  Ce  Ce5  1  0.589270  0.209571  0.377940  1
  Ce  Ce6  1  0.410730  0.790429  0.377940  1
  Ce  Ce7  1  0.410730  0.209571  0.877940  1
  Ce  Ce8  1  0.209571  0.410730  0.622060  1
  Ce  Ce9  1  0.209571  0.589270  0.122060  1
  Ce  Ce10  1  0.790429  0.410730  0.122060  1
  Ce  Ce11  1  0.790429  0.589270  0.622060  1
  Ce  Ce12  1  0.910730  0.709571  0.122060  1
  Ce  Ce13  1  0.910730  0.290429  0.622060  1
  Ce  Ce14  1  0.089270  0.709571  0.622060  1
  Ce  Ce15  1  0.089270  0.290429  0.122060  1
  Ho  Ho16  1  0.000000  0.000000  0.500000  1
  Ho  Ho17  1  0.000000  0.000000  0.000000  1
  Ho  Ho18  1  0.500000  0.500000  0.000000  1
  Ho  Ho19  1  0.500000  0.500000  0.500000  1
  Ir  Ir20  1  0.845057  0.154943  0.250000  1
  Ir  Ir21  1  0.845057  0.845057  0.750000  1
  Ir  Ir22  1  0.154943  0.154943  0.750000  1
  Ir  Ir23  1  0.154943  0.845057  0.250000  1
  Ir  Ir24  1  0.654943  0.345057  0.750000  1
  Ir  Ir25  1  0.654943  0.654943  0.250000  1
  Ir  Ir26  1  0.345057  0.345057  0.250000  1
  Ir  Ir27  1  0.345057  0.654943  0.750000  1
  Os  Os28  1  0.500000  0.000000  0.122354  1
  Os  Os29  1  0.500000  0.000000  0.622354  1
  Os  Os30  1  0.000000  0.500000  0.877646  1
  Os  Os31  1  0.000000  0.500000  0.377646  1
