# generated using pymatgen
data_ErTm10ThCo4
_symmetry_space_group_name_H-M   'P 1'
_cell_length_a   6.17149964
_cell_length_b   6.86948020
_cell_length_c   9.37852200
_cell_angle_alpha   90.00000000
_cell_angle_beta   90.00000000
_cell_angle_gamma   91.04860685
_symmetry_Int_Tables_number   1
_chemical_formula_structural   ErTm10ThCo4
_chemical_formula_sum   'Er1 Tm10 Th1 Co4'
_cell_volume   397.53580242
_cell_formula_units_Z   1
loop_
 _symmetry_equiv_pos_site_id
 _symmetry_equiv_pos_as_xyz
  1  'x, y, z'
loop_
 _atom_site_type_symbol
 _atom_site_label
 _atom_site_symmetry_multiplicity
 _atom_site_fract_x
 _atom_site_fract_y
 _atom_site_fract_z
 _atom_site_occupancy
  Er  Er0  1  0.639108  0.041610  0.250000  1
  Tm  Tm1  1  0.327248  0.675342  0.066385  1
  Tm  Tm2  1  0.174377  0.175036  0.432105  1
  Tm  Tm3  1  0.676764  0.323909  0.569626  1
  Tm  Tm4  1  0.822831  0.827676  0.929846  1
  Tm  Tm5  1  0.676764  0.323909  0.930374  1
  Tm  Tm6  1  0.822831  0.827676  0.570154  1
  Tm  Tm7  1  0.327248  0.675342  0.433615  1
  Tm  Tm8  1  0.174377  0.175036  0.067895  1
  Tm  Tm9  1  0.143186  0.456546  0.750000  1
  Tm  Tm10  1  0.358258  0.957244  0.750000  1
  Th  Th11  1  0.848751  0.553059  0.250000  1
  Co  Co12  1  0.043927  0.872089  0.250000  1
  Co  Co13  1  0.463780  0.388437  0.250000  1
  Co  Co14  1  0.953452  0.114157  0.750000  1
  Co  Co15  1  0.547098  0.612928  0.750000  1
