# generated using pymatgen
data_Yb2CrNi5As4
_symmetry_space_group_name_H-M   'P 1'
_cell_length_a   3.85817700
_cell_length_b   10.91852600
_cell_length_c   12.69651700
_cell_angle_alpha   90.00000000
_cell_angle_beta   90.00000000
_cell_angle_gamma   90.00000000
_symmetry_Int_Tables_number   1
_chemical_formula_structural   Yb2CrNi5As4
_chemical_formula_sum   'Yb6 Cr3 Ni15 As12'
_cell_volume   534.84847128
_cell_formula_units_Z   3
loop_
 _symmetry_equiv_pos_site_id
 _symmetry_equiv_pos_as_xyz
  1  'x, y, z'
loop_
 _atom_site_type_symbol
 _atom_site_label
 _atom_site_symmetry_multiplicity
 _atom_site_fract_x
 _atom_site_fract_y
 _atom_site_fract_z
 _atom_site_occupancy
  Yb  Yb0  1  0.000000  0.500000  0.522229  1
  Yb  Yb1  1  0.500000  0.000000  0.478335  1
  Yb  Yb2  1  0.500000  0.819374  0.207832  1
  Yb  Yb3  1  0.500000  0.180626  0.207832  1
  Yb  Yb4  1  0.000000  0.685349  0.790033  1
  Yb  Yb5  1  0.000000  0.314651  0.790033  1
  Cr  Cr6  1  0.500000  0.500000  0.155202  1
  Cr  Cr7  1  0.000000  0.000000  0.845732  1
  Cr  Cr8  1  0.000000  0.500000  0.985424  1
  Ni  Ni9  1  0.500000  0.500000  0.693557  1
  Ni  Ni10  1  0.000000  0.000000  0.301250  1
  Ni  Ni11  1  0.500000  0.000000  0.019253  1
  Ni  Ni12  1  0.500000  0.333780  0.991824  1
  Ni  Ni13  1  0.500000  0.666220  0.991824  1
  Ni  Ni14  1  0.000000  0.169525  0.005627  1
  Ni  Ni15  1  0.000000  0.830475  0.005627  1
  Ni  Ni16  1  0.500000  0.301577  0.425140  1
  Ni  Ni17  1  0.500000  0.698423  0.425140  1
  Ni  Ni18  1  0.000000  0.196868  0.574523  1
  Ni  Ni19  1  0.000000  0.803132  0.574523  1
  Ni  Ni20  1  0.500000  0.880406  0.708441  1
  Ni  Ni21  1  0.500000  0.119594  0.708441  1
  Ni  Ni22  1  0.000000  0.620382  0.294618  1
  Ni  Ni23  1  0.000000  0.379618  0.294618  1
  As  As24  1  0.500000  0.500000  0.871588  1
  As  As25  1  0.000000  0.000000  0.122878  1
  As  As26  1  0.500000  0.500000  0.349125  1
  As  As27  1  0.000000  0.000000  0.652557  1
  As  As28  1  0.500000  0.310912  0.612067  1
  As  As29  1  0.500000  0.689088  0.612067  1
  As  As30  1  0.000000  0.186354  0.387373  1
  As  As31  1  0.000000  0.813646  0.387373  1
  As  As32  1  0.500000  0.848057  0.890954  1
  As  As33  1  0.500000  0.151943  0.890954  1
  As  As34  1  0.000000  0.655104  0.113004  1
  As  As35  1  0.000000  0.344896  0.113004  1
