# generated using pymatgen
data_Hf6Al16Pt5Rh2
_symmetry_space_group_name_H-M   'P 1'
_cell_length_a   8.74179924
_cell_length_b   8.74806619
_cell_length_c   8.74806778
_cell_angle_alpha   60.06814446
_cell_angle_beta   60.02369724
_cell_angle_gamma   60.02369756
_symmetry_Int_Tables_number   1
_chemical_formula_structural   Hf6Al16Pt5Rh2
_chemical_formula_sum   'Hf6 Al16 Pt5 Rh2'
_cell_volume   473.46602381
_cell_formula_units_Z   1
loop_
 _symmetry_equiv_pos_site_id
 _symmetry_equiv_pos_as_xyz
  1  'x, y, z'
loop_
 _atom_site_type_symbol
 _atom_site_label
 _atom_site_symmetry_multiplicity
 _atom_site_fract_x
 _atom_site_fract_y
 _atom_site_fract_z
 _atom_site_occupancy
  Hf  Hf0  1  0.683554  0.316445  0.316445  1
  Hf  Hf1  1  0.316445  0.683554  0.683554  1
  Hf  Hf2  1  0.318195  0.682637  0.317362  1
  Hf  Hf3  1  0.318195  0.317362  0.682637  1
  Hf  Hf4  1  0.681804  0.317362  0.682637  1
  Hf  Hf5  1  0.681804  0.682637  0.317362  1
  Al  Al6  1  0.336623  0.336273  0.336273  1
  Al  Al7  1  0.338214  0.332519  0.991053  1
  Al  Al8  1  0.990829  0.336273  0.336273  1
  Al  Al9  1  0.338214  0.991053  0.332519  1
  Al  Al10  1  0.663377  0.663727  0.663727  1
  Al  Al11  1  0.661786  0.667481  0.008947  1
  Al  Al12  1  0.661786  0.008947  0.667481  1
  Al  Al13  1  0.009171  0.663727  0.663727  1
  Al  Al14  1  0.123361  0.116906  0.116906  1
  Al  Al15  1  0.119078  0.117966  0.643878  1
  Al  Al16  1  0.642827  0.116906  0.116906  1
  Al  Al17  1  0.119078  0.643878  0.117966  1
  Al  Al18  1  0.876638  0.883093  0.883093  1
  Al  Al19  1  0.880921  0.882033  0.356125  1
  Al  Al20  1  0.880921  0.356125  0.882033  1
  Al  Al21  1  0.357176  0.883093  0.883093  1
  Pt  Pt22  1  0.000000  0.500000  0.500000  1
  Pt  Pt23  1  0.000000  0.500000  0.000000  1
  Pt  Pt24  1  0.000000  0.000000  0.500000  1
  Pt  Pt25  1  0.500000  0.000000  0.500000  1
  Pt  Pt26  1  0.500000  0.500000  0.000000  1
  Rh  Rh27  1  0.000000  0.000000  0.000000  1
  Rh  Rh28  1  0.500000  0.000000  0.000000  1
