# generated using pymatgen
data_Tm4Cu2Ru5W
_symmetry_space_group_name_H-M   'P 1'
_cell_length_a   5.45383136
_cell_length_b   5.11618215
_cell_length_c   8.85622900
_cell_angle_alpha   90.00000000
_cell_angle_beta   90.00000000
_cell_angle_gamma   121.09327694
_symmetry_Int_Tables_number   1
_chemical_formula_structural   Tm4Cu2Ru5W
_chemical_formula_sum   'Tm4 Cu2 Ru5 W1'
_cell_volume   211.61016583
_cell_formula_units_Z   1
loop_
 _symmetry_equiv_pos_site_id
 _symmetry_equiv_pos_as_xyz
  1  'x, y, z'
loop_
 _atom_site_type_symbol
 _atom_site_label
 _atom_site_symmetry_multiplicity
 _atom_site_fract_x
 _atom_site_fract_y
 _atom_site_fract_z
 _atom_site_occupancy
  Tm  Tm0  1  0.677313  0.348559  0.562288  1
  Tm  Tm1  1  0.338539  0.669718  0.434311  1
  Tm  Tm2  1  0.338539  0.669718  0.065689  1
  Tm  Tm3  1  0.677313  0.348559  0.937712  1
  Cu  Cu4  1  0.818883  0.653223  0.250000  1
  Cu  Cu5  1  0.820640  0.160938  0.250000  1
  Ru  Ru6  1  0.017286  0.020134  0.496073  1
  Ru  Ru7  1  0.017286  0.020134  0.003927  1
  Ru  Ru8  1  0.173227  0.820384  0.750000  1
  Ru  Ru9  1  0.645731  0.816051  0.750000  1
  Ru  Ru10  1  0.318375  0.157792  0.250000  1
  W  W11  1  0.156871  0.314793  0.750000  1
