# generated using pymatgen
data_Tb3YAl3(Ga5Ir2)3
_symmetry_space_group_name_H-M   'P 1'
_cell_length_a   7.58064102
_cell_length_b   7.58067544
_cell_length_c   9.51123100
_cell_angle_alpha   89.99610606
_cell_angle_beta   89.99559639
_cell_angle_gamma   119.72051149
_symmetry_Int_Tables_number   1
_chemical_formula_structural   Tb3YAl3(Ga5Ir2)3
_chemical_formula_sum   'Tb3 Y1 Al3 Ga15 Ir6'
_cell_volume   474.67616258
_cell_formula_units_Z   1
loop_
 _symmetry_equiv_pos_site_id
 _symmetry_equiv_pos_as_xyz
  1  'x, y, z'
loop_
 _atom_site_type_symbol
 _atom_site_label
 _atom_site_symmetry_multiplicity
 _atom_site_fract_x
 _atom_site_fract_y
 _atom_site_fract_z
 _atom_site_occupancy
  Tb  Tb0  1  0.000216  0.670179  0.249911  1
  Tb  Tb1  1  0.000529  0.330406  0.749174  1
  Tb  Tb2  1  0.670179  0.000218  0.249911  1
  Y  Y3  1  0.330410  0.000532  0.749180  1
  Al  Al4  1  0.664647  0.664646  0.447904  1
  Al  Al5  1  0.668212  0.668211  0.052289  1
  Al  Al6  1  0.332274  0.332266  0.948463  1
  Ga  Ga7  1  0.127635  0.127635  0.249349  1
  Ga  Ga8  1  0.872343  0.872352  0.749448  1
  Ga  Ga9  1  0.000088  0.335301  0.078964  1
  Ga  Ga10  1  0.000046  0.664915  0.920780  1
  Ga  Ga11  1  0.999389  0.664776  0.579237  1
  Ga  Ga12  1  0.335688  0.001421  0.418949  1
  Ga  Ga13  1  0.001427  0.335688  0.418945  1
  Ga  Ga14  1  0.664756  0.999380  0.579238  1
  Ga  Ga15  1  0.664897  0.000038  0.920779  1
  Ga  Ga16  1  0.335302  0.000083  0.078961  1
  Ga  Ga17  1  0.329294  0.329289  0.563710  1
  Ga  Ga18  1  0.346719  0.549821  0.249859  1
  Ga  Ga19  1  0.656934  0.451597  0.750219  1
  Ga  Ga20  1  0.549819  0.346719  0.249859  1
  Ga  Ga21  1  0.451590  0.656922  0.750218  1
  Ir  Ir22  1  0.668784  0.330610  0.999684  1
  Ir  Ir23  1  0.330610  0.668784  0.999686  1
  Ir  Ir24  1  0.330496  0.671807  0.499170  1
  Ir  Ir25  1  0.671806  0.330495  0.499172  1
  Ir  Ir26  1  0.000176  0.000175  0.999246  1
  Ir  Ir27  1  0.995732  0.995731  0.497696  1
