# generated using pymatgen
data_V3SiOs4
_symmetry_space_group_name_H-M   'P 1'
_cell_length_a   4.22805838
_cell_length_b   4.22805887
_cell_length_c   7.40711443
_cell_angle_alpha   73.51861034
_cell_angle_beta   106.48137448
_cell_angle_gamma   119.92751462
_symmetry_Int_Tables_number   1
_chemical_formula_structural   V3SiOs4
_chemical_formula_sum   'V3 Si1 Os4'
_cell_volume   108.41963864
_cell_formula_units_Z   1
loop_
 _symmetry_equiv_pos_site_id
 _symmetry_equiv_pos_as_xyz
  1  'x, y, z'
loop_
 _atom_site_type_symbol
 _atom_site_label
 _atom_site_symmetry_multiplicity
 _atom_site_fract_x
 _atom_site_fract_y
 _atom_site_fract_z
 _atom_site_occupancy
  V  V0  1  0.128310  0.871690  0.385965  1
  V  V1  1  0.621690  0.378310  0.864035  1
  V  V2  1  0.875000  0.125000  0.625000  1
  Si  Si3  1  0.375000  0.625000  0.125000  1
  Os  Os4  1  0.747458  0.252542  0.243069  1
  Os  Os5  1  0.254453  0.745547  0.761388  1
  Os  Os6  1  0.002542  0.997458  0.006931  1
  Os  Os7  1  0.495547  0.504453  0.488612  1
