# generated using pymatgen
data_NpGa4GeIr
_symmetry_space_group_name_H-M   'P 1'
_cell_length_a   4.31393400
_cell_length_b   4.31393400
_cell_length_c   6.83816900
_cell_angle_alpha   90.00000000
_cell_angle_beta   90.00000000
_cell_angle_gamma   90.00000000
_symmetry_Int_Tables_number   1
_chemical_formula_structural   NpGa4GeIr
_chemical_formula_sum   'Np1 Ga4 Ge1 Ir1'
_cell_volume   127.25850669
_cell_formula_units_Z   1
loop_
 _symmetry_equiv_pos_site_id
 _symmetry_equiv_pos_as_xyz
  1  'x, y, z'
loop_
 _atom_site_type_symbol
 _atom_site_label
 _atom_site_symmetry_multiplicity
 _atom_site_fract_x
 _atom_site_fract_y
 _atom_site_fract_z
 _atom_site_occupancy
  Np  Np0  1  0.000000  0.000000  0.000000  1
  Ga  Ga1  1  0.500000  0.000000  0.700138  1
  Ga  Ga2  1  0.000000  0.500000  0.700138  1
  Ga  Ga3  1  0.500000  0.000000  0.299862  1
  Ga  Ga4  1  0.000000  0.500000  0.299862  1
  Ge  Ge5  1  0.500000  0.500000  0.000000  1
  Ir  Ir6  1  0.000000  0.000000  0.500000  1
