# generated using pymatgen
data_LiHf5(TaRu2)6
_symmetry_space_group_name_H-M   'P 1'
_cell_length_a   4.51173000
_cell_length_b   6.36186100
_cell_length_c   13.58858000
_cell_angle_alpha   89.99993024
_cell_angle_beta   90.00138574
_cell_angle_gamma   89.99997830
_symmetry_Int_Tables_number   1
_chemical_formula_structural   LiHf5(TaRu2)6
_chemical_formula_sum   'Li1 Hf5 Ta6 Ru12'
_cell_volume   390.03299985
_cell_formula_units_Z   1
loop_
 _symmetry_equiv_pos_site_id
 _symmetry_equiv_pos_as_xyz
  1  'x, y, z'
loop_
 _atom_site_type_symbol
 _atom_site_label
 _atom_site_symmetry_multiplicity
 _atom_site_fract_x
 _atom_site_fract_y
 _atom_site_fract_z
 _atom_site_occupancy
  Li  Li0  1  0.500353  0.500000  0.833290  1
  Hf  Hf1  1  0.999985  0.000001  0.997279  1
  Hf  Hf2  1  0.499692  0.500000  0.164112  1
  Hf  Hf3  1  0.999716  0.000000  0.333477  1
  Hf  Hf4  1  0.500000  0.500000  0.502559  1
  Hf  Hf5  1  0.000288  0.000000  0.669295  1
  Ta  Ta6  1  0.999913  0.500000  0.991224  1
  Ta  Ta7  1  0.499725  0.999999  0.164543  1
  Ta  Ta8  1  0.999712  0.500002  0.333393  1
  Ta  Ta9  1  0.500013  0.999998  0.502118  1
  Ta  Ta10  1  0.000276  0.500000  0.675447  1
  Ta  Ta11  1  0.500289  0.000001  0.833363  1
  Ru  Ru12  1  0.499976  0.251538  0.998118  1
  Ru  Ru13  1  0.499975  0.748464  0.998119  1
  Ru  Ru14  1  0.999747  0.249633  0.164955  1
  Ru  Ru15  1  0.999748  0.750367  0.164954  1
  Ru  Ru16  1  0.499736  0.251514  0.333324  1
  Ru  Ru17  1  0.499737  0.748485  0.333324  1
  Ru  Ru18  1  0.000018  0.249488  0.501678  1
  Ru  Ru19  1  0.000016  0.750511  0.501679  1
  Ru  Ru20  1  0.500275  0.251660  0.668544  1
  Ru  Ru21  1  0.500276  0.748340  0.668544  1
  Ru  Ru22  1  0.000269  0.251962  0.833330  1
  Ru  Ru23  1  0.000269  0.748038  0.833330  1
