# generated using pymatgen
data_KRbBaSrSb2
_symmetry_space_group_name_H-M   'P 1'
_cell_length_a   5.51352500
_cell_length_b   8.90943700
_cell_length_c   10.49264500
_cell_angle_alpha   90.00000000
_cell_angle_beta   90.00000000
_cell_angle_gamma   90.00000000
_symmetry_Int_Tables_number   1
_chemical_formula_structural   KRbBaSrSb2
_chemical_formula_sum   'K2 Rb2 Ba2 Sr2 Sb4'
_cell_volume   515.42394289
_cell_formula_units_Z   2
loop_
 _symmetry_equiv_pos_site_id
 _symmetry_equiv_pos_as_xyz
  1  'x, y, z'
loop_
 _atom_site_type_symbol
 _atom_site_label
 _atom_site_symmetry_multiplicity
 _atom_site_fract_x
 _atom_site_fract_y
 _atom_site_fract_z
 _atom_site_occupancy
  K  K0  1  0.000000  0.345871  0.339059  1
  K  K1  1  0.000000  0.845871  0.660941  1
  Rb  Rb2  1  0.500000  0.030837  0.420326  1
  Rb  Rb3  1  0.500000  0.530837  0.579674  1
  Ba  Ba4  1  0.000000  0.491644  0.940379  1
  Ba  Ba5  1  0.000000  0.991644  0.059621  1
  Sr  Sr6  1  0.500000  0.148729  0.817680  1
  Sr  Sr7  1  0.500000  0.648729  0.182320  1
  Sb  Sb8  1  0.000000  0.249802  0.674161  1
  Sb  Sb9  1  0.500000  0.278636  0.114930  1
  Sb  Sb10  1  0.000000  0.749802  0.325839  1
  Sb  Sb11  1  0.500000  0.778636  0.885070  1
