# generated using pymatgen
data_Y5Lu5(InSb2)2
_symmetry_space_group_name_H-M   'P 1'
_cell_length_a   6.37814804
_cell_length_b   8.91944248
_cell_length_c   8.89053719
_cell_angle_alpha   120.23927538
_cell_angle_beta   90.00055789
_cell_angle_gamma   90.00586652
_symmetry_Int_Tables_number   1
_chemical_formula_structural   Y5Lu5(InSb2)2
_chemical_formula_sum   'Y5 Lu5 In2 Sb4'
_cell_volume   436.95705133
_cell_formula_units_Z   1
loop_
 _symmetry_equiv_pos_site_id
 _symmetry_equiv_pos_as_xyz
  1  'x, y, z'
loop_
 _atom_site_type_symbol
 _atom_site_label
 _atom_site_symmetry_multiplicity
 _atom_site_fract_x
 _atom_site_fract_y
 _atom_site_fract_z
 _atom_site_occupancy
  Y  Y0  1  0.749912  0.243744  0.999463  1
  Y  Y1  1  0.750044  0.763941  0.760280  1
  Y  Y2  1  0.749973  0.003271  0.242046  1
  Y  Y3  1  0.249981  0.759194  0.999826  1
  Y  Y4  1  0.249912  0.237268  0.241185  1
  Lu  Lu5  1  0.498093  0.331511  0.663476  1
  Lu  Lu6  1  0.497983  0.667823  0.336767  1
  Lu  Lu7  1  0.001902  0.667838  0.336998  1
  Lu  Lu8  1  0.001757  0.331610  0.663336  1
  Lu  Lu9  1  0.249908  0.994454  0.756266  1
  In  In10  1  0.250884  0.603538  0.603740  1
  In  In11  1  0.250275  0.998787  0.398568  1
  Sb  Sb12  1  0.749918  0.607492  0.999992  1
  Sb  Sb13  1  0.749826  0.398129  0.396755  1
  Sb  Sb14  1  0.749900  0.001517  0.603472  1
  Sb  Sb15  1  0.249732  0.389886  0.997829  1
