# generated using pymatgen
data_Dy5Ta3Si6(P3Ir8)2
_symmetry_space_group_name_H-M   'P 1'
_cell_length_a   12.84850900
_cell_length_b   12.84850945
_cell_length_c   3.98529200
_cell_angle_alpha   90.00000000
_cell_angle_beta   90.00000000
_cell_angle_gamma   119.99999627
_symmetry_Int_Tables_number   1
_chemical_formula_structural   Dy5Ta3Si6(P3Ir8)2
_chemical_formula_sum   'Dy5 Ta3 Si6 P6 Ir16'
_cell_volume   569.76566795
_cell_formula_units_Z   1
loop_
 _symmetry_equiv_pos_site_id
 _symmetry_equiv_pos_as_xyz
  1  'x, y, z'
loop_
 _atom_site_type_symbol
 _atom_site_label
 _atom_site_symmetry_multiplicity
 _atom_site_fract_x
 _atom_site_fract_y
 _atom_site_fract_z
 _atom_site_occupancy
  Dy  Dy0  1  0.333333  0.666667  0.500000  1
  Dy  Dy1  1  0.666667  0.333333  0.500000  1
  Dy  Dy2  1  0.000000  0.811905  0.000000  1
  Dy  Dy3  1  0.188095  0.188095  0.000000  1
  Dy  Dy4  1  0.811905  0.000000  0.000000  1
  Ta  Ta5  1  0.000000  0.444273  0.500000  1
  Ta  Ta6  1  0.555727  0.555727  0.500000  1
  Ta  Ta7  1  0.444273  0.000000  0.500000  1
  Si  Si8  1  0.518124  0.686772  0.000000  1
  Si  Si9  1  0.313228  0.831352  0.000000  1
  Si  Si10  1  0.168648  0.481876  0.000000  1
  Si  Si11  1  0.481876  0.168648  0.000000  1
  Si  Si12  1  0.686772  0.518124  0.000000  1
  Si  Si13  1  0.831352  0.313228  0.000000  1
  P  P14  1  0.000000  0.638454  0.500000  1
  P  P15  1  0.361546  0.361546  0.500000  1
  P  P16  1  0.638454  0.000000  0.500000  1
  P  P17  1  0.000000  0.177851  0.500000  1
  P  P18  1  0.822149  0.822149  0.500000  1
  P  P19  1  0.177851  0.000000  0.500000  1
  Ir  Ir20  1  0.512972  0.871594  0.000000  1
  Ir  Ir21  1  0.128406  0.641379  0.000000  1
  Ir  Ir22  1  0.358621  0.487028  0.000000  1
  Ir  Ir23  1  0.487028  0.358621  0.000000  1
  Ir  Ir24  1  0.871594  0.512972  0.000000  1
  Ir  Ir25  1  0.641379  0.128406  0.000000  1
  Ir  Ir26  1  0.000000  0.277934  0.000000  1
  Ir  Ir27  1  0.722066  0.722066  0.000000  1
  Ir  Ir28  1  0.277934  0.000000  0.000000  1
  Ir  Ir29  1  0.628614  0.807644  0.500000  1
  Ir  Ir30  1  0.192356  0.820970  0.500000  1
  Ir  Ir31  1  0.179030  0.371386  0.500000  1
  Ir  Ir32  1  0.371386  0.179030  0.500000  1
  Ir  Ir33  1  0.807644  0.628614  0.500000  1
  Ir  Ir34  1  0.820970  0.192356  0.500000  1
  Ir  Ir35  1  0.000000  0.000000  0.500000  1
