# generated using pymatgen
data_Nd8Zn(Si4Rh)3
_symmetry_space_group_name_H-M   'P 1'
_cell_length_a   8.24698200
_cell_length_b   8.24698207
_cell_length_c   8.48519300
_cell_angle_alpha   90.00000000
_cell_angle_beta   90.00000000
_cell_angle_gamma   119.99999971
_symmetry_Int_Tables_number   1
_chemical_formula_structural   Nd8Zn(Si4Rh)3
_chemical_formula_sum   'Nd8 Zn1 Si12 Rh3'
_cell_volume   499.78412260
_cell_formula_units_Z   1
loop_
 _symmetry_equiv_pos_site_id
 _symmetry_equiv_pos_as_xyz
  1  'x, y, z'
loop_
 _atom_site_type_symbol
 _atom_site_label
 _atom_site_symmetry_multiplicity
 _atom_site_fract_x
 _atom_site_fract_y
 _atom_site_fract_z
 _atom_site_occupancy
  Nd  Nd0  1  0.000000  0.000000  0.749126  1
  Nd  Nd1  1  0.000000  0.000000  0.251000  1
  Nd  Nd2  1  0.496979  0.503021  0.746093  1
  Nd  Nd3  1  0.496979  0.993959  0.746093  1
  Nd  Nd4  1  0.006041  0.503021  0.746093  1
  Nd  Nd5  1  0.499435  0.500565  0.253890  1
  Nd  Nd6  1  0.001131  0.500565  0.253890  1
  Nd  Nd7  1  0.499435  0.998869  0.253890  1
  Zn  Zn8  1  0.666667  0.333333  0.995416  1
  Si  Si9  1  0.836614  0.163386  0.999552  1
  Si  Si10  1  0.836614  0.673228  0.999552  1
  Si  Si11  1  0.326772  0.163386  0.999552  1
  Si  Si12  1  0.832817  0.167183  0.501080  1
  Si  Si13  1  0.832817  0.665634  0.501080  1
  Si  Si14  1  0.334366  0.167183  0.501080  1
  Si  Si15  1  0.166753  0.833247  0.499065  1
  Si  Si16  1  0.666494  0.833247  0.499065  1
  Si  Si17  1  0.166753  0.333506  0.499065  1
  Si  Si18  1  0.168245  0.831755  0.000831  1
  Si  Si19  1  0.663511  0.831755  0.000831  1
  Si  Si20  1  0.168245  0.336489  0.000831  1
  Rh  Rh21  1  0.666667  0.333333  0.503700  1
  Rh  Rh22  1  0.333333  0.666667  0.496101  1
  Rh  Rh23  1  0.333333  0.666667  0.003123  1
