# generated using pymatgen
data_Li4CaTb(NdSi3)2
_symmetry_space_group_name_H-M   'P 1'
_cell_length_a   9.46703026
_cell_length_b   9.46703078
_cell_length_c   6.86646700
_cell_angle_alpha   90.00000000
_cell_angle_beta   90.00000000
_cell_angle_gamma   153.59208805
_symmetry_Int_Tables_number   1
_chemical_formula_structural   Li4CaTb(NdSi3)2
_chemical_formula_sum   'Li4 Ca1 Tb1 Nd2 Si6'
_cell_volume   273.70674729
_cell_formula_units_Z   1
loop_
 _symmetry_equiv_pos_site_id
 _symmetry_equiv_pos_as_xyz
  1  'x, y, z'
loop_
 _atom_site_type_symbol
 _atom_site_label
 _atom_site_symmetry_multiplicity
 _atom_site_fract_x
 _atom_site_fract_y
 _atom_site_fract_z
 _atom_site_occupancy
  Li  Li0  1  0.190005  0.809995  0.056478  1
  Li  Li1  1  0.190005  0.809995  0.443522  1
  Li  Li2  1  0.809968  0.190032  0.940019  1
  Li  Li3  1  0.809968  0.190032  0.559981  1
  Ca  Ca4  1  0.657980  0.342020  0.750000  1
  Tb  Tb5  1  0.342529  0.657471  0.250000  1
  Nd  Nd6  1  0.553246  0.446754  0.250000  1
  Nd  Nd7  1  0.446984  0.553016  0.750000  1
  Si  Si8  1  0.725008  0.274992  0.250000  1
  Si  Si9  1  0.281682  0.718318  0.750000  1
  Si  Si10  1  0.055894  0.944106  0.924192  1
  Si  Si11  1  0.940419  0.059581  0.077072  1
  Si  Si12  1  0.940419  0.059581  0.422928  1
  Si  Si13  1  0.055894  0.944106  0.575808  1
