# generated using pymatgen
data_Ho5In5Rh
_symmetry_space_group_name_H-M   'P 1'
_cell_length_a   3.60162300
_cell_length_b   8.32541163
_cell_length_c   18.50799364
_cell_angle_alpha   89.07498693
_cell_angle_beta   90.00000000
_cell_angle_gamma   90.00000000
_symmetry_Int_Tables_number   1
_chemical_formula_structural   Ho5In5Rh
_chemical_formula_sum   'Ho10 In10 Rh2'
_cell_volume   554.88975588
_cell_formula_units_Z   2
loop_
 _symmetry_equiv_pos_site_id
 _symmetry_equiv_pos_as_xyz
  1  'x, y, z'
loop_
 _atom_site_type_symbol
 _atom_site_label
 _atom_site_symmetry_multiplicity
 _atom_site_fract_x
 _atom_site_fract_y
 _atom_site_fract_z
 _atom_site_occupancy
  Ho  Ho0  1  0.000000  0.500000  0.500000  1
  Ho  Ho1  1  0.000000  0.000000  0.000000  1
  Ho  Ho2  1  0.000000  0.701551  0.276214  1
  Ho  Ho3  1  0.000000  0.298449  0.723786  1
  Ho  Ho4  1  0.000000  0.733298  0.787988  1
  Ho  Ho5  1  0.000000  0.266702  0.212012  1
  Ho  Ho6  1  0.000000  0.614751  0.082847  1
  Ho  Ho7  1  0.000000  0.385249  0.917153  1
  Ho  Ho8  1  0.000000  0.874363  0.572967  1
  Ho  Ho9  1  0.000000  0.125637  0.427033  1
  In  In10  1  0.500000  0.706891  0.934958  1
  In  In11  1  0.500000  0.293109  0.065042  1
  In  In12  1  0.500000  0.788478  0.428542  1
  In  In13  1  0.500000  0.211522  0.571458  1
  In  In14  1  0.500000  0.583448  0.647863  1
  In  In15  1  0.500000  0.416552  0.352137  1
  In  In16  1  0.500000  0.911854  0.145588  1
  In  In17  1  0.500000  0.088146  0.854412  1
  In  In18  1  0.500000  0.981219  0.699324  1
  In  In19  1  0.500000  0.018781  0.300676  1
  Rh  Rh20  1  0.500000  0.521780  0.192690  1
  Rh  Rh21  1  0.500000  0.478220  0.807310  1
