# generated using pymatgen
data_Np2GaB2IrRu4
_symmetry_space_group_name_H-M   'P 1'
_cell_length_a   9.61120483
_cell_length_b   9.50912046
_cell_length_c   3.08741600
_cell_angle_alpha   90.00000000
_cell_angle_beta   90.00000000
_cell_angle_gamma   90.17486085
_symmetry_Int_Tables_number   1
_chemical_formula_structural   Np2GaB2IrRu4
_chemical_formula_sum   'Np4 Ga2 B4 Ir2 Ru8'
_cell_volume   282.17030630
_cell_formula_units_Z   2
loop_
 _symmetry_equiv_pos_site_id
 _symmetry_equiv_pos_as_xyz
  1  'x, y, z'
loop_
 _atom_site_type_symbol
 _atom_site_label
 _atom_site_symmetry_multiplicity
 _atom_site_fract_x
 _atom_site_fract_y
 _atom_site_fract_z
 _atom_site_occupancy
  Np  Np0  1  0.680897  0.175426  0.000000  1
  Np  Np1  1  0.319103  0.824574  0.000000  1
  Np  Np2  1  0.171744  0.324452  0.000000  1
  Np  Np3  1  0.828256  0.675548  0.000000  1
  Ga  Ga4  1  0.000000  0.000000  0.000000  1
  Ga  Ga5  1  0.500000  0.500000  0.000000  1
  B  B6  1  0.123149  0.623021  0.000000  1
  B  B7  1  0.876851  0.376979  0.000000  1
  B  B8  1  0.624557  0.878574  0.000000  1
  B  B9  1  0.375443  0.121426  0.000000  1
  Ir  Ir10  1  0.570252  0.718554  0.500000  1
  Ir  Ir11  1  0.429748  0.281446  0.500000  1
  Ru  Ru12  1  0.218387  0.071755  0.500000  1
  Ru  Ru13  1  0.781613  0.928245  0.500000  1
  Ru  Ru14  1  0.071047  0.781688  0.500000  1
  Ru  Ru15  1  0.717562  0.429724  0.500000  1
  Ru  Ru16  1  0.928953  0.218312  0.500000  1
  Ru  Ru17  1  0.282438  0.570276  0.500000  1
  Ru  Ru18  1  0.500000  0.000000  0.500000  1
  Ru  Ru19  1  0.000000  0.500000  0.500000  1
