# generated using pymatgen
data_Pr2Si(PRu2)6
_symmetry_space_group_name_H-M   'P 1'
_cell_length_a   9.49785500
_cell_length_b   9.49785673
_cell_length_c   3.98448200
_cell_angle_alpha   90.00000000
_cell_angle_beta   90.00000000
_cell_angle_gamma   119.99999652
_symmetry_Int_Tables_number   1
_chemical_formula_structural   Pr2Si(PRu2)6
_chemical_formula_sum   'Pr2 Si1 P6 Ru12'
_cell_volume   311.28175443
_cell_formula_units_Z   1
loop_
 _symmetry_equiv_pos_site_id
 _symmetry_equiv_pos_as_xyz
  1  'x, y, z'
loop_
 _atom_site_type_symbol
 _atom_site_label
 _atom_site_symmetry_multiplicity
 _atom_site_fract_x
 _atom_site_fract_y
 _atom_site_fract_z
 _atom_site_occupancy
  Pr  Pr0  1  0.333333  0.666667  0.000000  1
  Pr  Pr1  1  0.666667  0.333333  0.500000  1
  Si  Si2  1  0.000000  0.000000  0.000000  1
  P  P3  1  0.109636  0.393277  0.500000  1
  P  P4  1  0.606723  0.716359  0.500000  1
  P  P5  1  0.283641  0.890364  0.500000  1
  P  P6  1  0.420399  0.311555  0.000000  1
  P  P7  1  0.688445  0.108844  0.000000  1
  P  P8  1  0.891156  0.579601  0.000000  1
  Ru  Ru9  1  0.422449  0.065321  0.000000  1
  Ru  Ru10  1  0.934679  0.357127  0.000000  1
  Ru  Ru11  1  0.642873  0.577551  0.000000  1
  Ru  Ru12  1  0.392724  0.441023  0.500000  1
  Ru  Ru13  1  0.558977  0.951700  0.500000  1
  Ru  Ru14  1  0.048300  0.607276  0.500000  1
  Ru  Ru15  1  0.163151  0.276764  0.000000  1
  Ru  Ru16  1  0.723236  0.886386  0.000000  1
  Ru  Ru17  1  0.113614  0.836849  0.000000  1
  Ru  Ru18  1  0.207523  0.088819  0.500000  1
  Ru  Ru19  1  0.911181  0.118706  0.500000  1
  Ru  Ru20  1  0.881294  0.792477  0.500000  1
