# generated using pymatgen
data_TmPa(AlOs)2
_symmetry_space_group_name_H-M   'P 1'
_cell_length_a   3.96919200
_cell_length_b   6.98020300
_cell_length_c   8.21282900
_cell_angle_alpha   90.00000000
_cell_angle_beta   90.00000000
_cell_angle_gamma   90.00000000
_symmetry_Int_Tables_number   1
_chemical_formula_structural   TmPa(AlOs)2
_chemical_formula_sum   'Tm2 Pa2 Al4 Os4'
_cell_volume   227.54271770
_cell_formula_units_Z   2
loop_
 _symmetry_equiv_pos_site_id
 _symmetry_equiv_pos_as_xyz
  1  'x, y, z'
loop_
 _atom_site_type_symbol
 _atom_site_label
 _atom_site_symmetry_multiplicity
 _atom_site_fract_x
 _atom_site_fract_y
 _atom_site_fract_z
 _atom_site_occupancy
  Tm  Tm0  1  0.250000  0.463313  0.182706  1
  Tm  Tm1  1  0.750000  0.036687  0.682706  1
  Pa  Pa2  1  0.250000  0.965515  0.317601  1
  Pa  Pa3  1  0.750000  0.534485  0.817601  1
  Al  Al4  1  0.750000  0.624423  0.439066  1
  Al  Al5  1  0.750000  0.144743  0.056498  1
  Al  Al6  1  0.250000  0.355257  0.556498  1
  Al  Al7  1  0.250000  0.875577  0.939066  1
  Os  Os8  1  0.750000  0.772866  0.134119  1
  Os  Os9  1  0.750000  0.242610  0.370010  1
  Os  Os10  1  0.250000  0.257390  0.870010  1
  Os  Os11  1  0.250000  0.727134  0.634119  1
