# generated using pymatgen
data_Lu3Al12CoNiOs2
_symmetry_space_group_name_H-M   'P 1'
_cell_length_a   8.75756039
_cell_length_b   8.75755963
_cell_length_c   9.39551900
_cell_angle_alpha   90.47849321
_cell_angle_beta   89.52150683
_cell_angle_gamma   120.41679767
_symmetry_Int_Tables_number   1
_chemical_formula_structural   Lu3Al12CoNiOs2
_chemical_formula_sum   'Lu6 Al24 Co2 Ni2 Os4'
_cell_volume   621.38128774
_cell_formula_units_Z   2
loop_
 _symmetry_equiv_pos_site_id
 _symmetry_equiv_pos_as_xyz
  1  'x, y, z'
loop_
 _atom_site_type_symbol
 _atom_site_label
 _atom_site_symmetry_multiplicity
 _atom_site_fract_x
 _atom_site_fract_y
 _atom_site_fract_z
 _atom_site_occupancy
  Lu  Lu0  1  0.201997  0.393734  0.250218  1
  Lu  Lu1  1  0.798003  0.606266  0.749782  1
  Lu  Lu2  1  0.606266  0.798003  0.250218  1
  Lu  Lu3  1  0.393734  0.201997  0.749782  1
  Lu  Lu4  1  0.195647  0.804353  0.253689  1
  Lu  Lu5  1  0.804353  0.195647  0.746311  1
  Al  Al6  1  0.331231  0.668769  0.022456  1
  Al  Al7  1  0.668769  0.331231  0.977544  1
  Al  Al8  1  0.666525  0.333475  0.518506  1
  Al  Al9  1  0.333475  0.666525  0.481494  1
  Al  Al10  1  0.159031  0.320889  0.576818  1
  Al  Al11  1  0.840969  0.679111  0.423182  1
  Al  Al12  1  0.679111  0.840969  0.576818  1
  Al  Al13  1  0.839108  0.677570  0.077449  1
  Al  Al14  1  0.320889  0.159031  0.423182  1
  Al  Al15  1  0.160892  0.322430  0.922551  1
  Al  Al16  1  0.159896  0.840104  0.579350  1
  Al  Al17  1  0.322430  0.160892  0.077449  1
  Al  Al18  1  0.840104  0.159896  0.420650  1
  Al  Al19  1  0.677570  0.839108  0.922551  1
  Al  Al20  1  0.840232  0.159768  0.077250  1
  Al  Al21  1  0.159768  0.840232  0.922750  1
  Al  Al22  1  0.561008  0.118834  0.244874  1
  Al  Al23  1  0.438992  0.881166  0.755126  1
  Al  Al24  1  0.881166  0.438992  0.244874  1
  Al  Al25  1  0.118834  0.561008  0.755126  1
  Al  Al26  1  0.563489  0.436511  0.248138  1
  Al  Al27  1  0.436511  0.563489  0.751862  1
  Al  Al28  1  0.001456  0.998544  0.250839  1
  Al  Al29  1  0.998544  0.001456  0.749161  1
  Co  Co30  1  0.000000  0.000000  0.000000  1
  Co  Co31  1  0.000000  0.000000  0.500000  1
  Ni  Ni32  1  0.500000  0.000000  0.000000  1
  Ni  Ni33  1  0.000000  0.500000  0.000000  1
  Os  Os34  1  0.500000  0.000000  0.500000  1
  Os  Os35  1  0.500000  0.500000  0.000000  1
  Os  Os36  1  0.000000  0.500000  0.500000  1
  Os  Os37  1  0.500000  0.500000  0.500000  1
