# generated using pymatgen
data_Nd3AlNi3
_symmetry_space_group_name_H-M   'P 1'
_cell_length_a   4.12366900
_cell_length_b   5.55773072
_cell_length_c   13.50423700
_cell_angle_alpha   90.00000000
_cell_angle_beta   90.00000000
_cell_angle_gamma   111.77636951
_symmetry_Int_Tables_number   1
_chemical_formula_structural   Nd3AlNi3
_chemical_formula_sum   'Nd6 Al2 Ni6'
_cell_volume   287.40758586
_cell_formula_units_Z   2
loop_
 _symmetry_equiv_pos_site_id
 _symmetry_equiv_pos_as_xyz
  1  'x, y, z'
loop_
 _atom_site_type_symbol
 _atom_site_label
 _atom_site_symmetry_multiplicity
 _atom_site_fract_x
 _atom_site_fract_y
 _atom_site_fract_z
 _atom_site_occupancy
  Nd  Nd0  1  0.213044  0.426088  0.397224  1
  Nd  Nd1  1  0.786956  0.573912  0.602776  1
  Nd  Nd2  1  0.213044  0.426088  0.102776  1
  Nd  Nd3  1  0.786956  0.573912  0.897224  1
  Nd  Nd4  1  0.498395  0.996790  0.250000  1
  Nd  Nd5  1  0.501605  0.003210  0.750000  1
  Al  Al6  1  0.500000  0.000000  0.500000  1
  Al  Al7  1  0.500000  0.000000  0.000000  1
  Ni  Ni8  1  0.923204  0.846410  0.409908  1
  Ni  Ni9  1  0.076796  0.153590  0.590092  1
  Ni  Ni10  1  0.923204  0.846410  0.090092  1
  Ni  Ni11  1  0.076796  0.153590  0.909908  1
  Ni  Ni12  1  0.798824  0.597646  0.250000  1
  Ni  Ni13  1  0.201176  0.402354  0.750000  1
