# generated using pymatgen
data_Nd2UAl3IrRu2
_symmetry_space_group_name_H-M   'P 1'
_cell_length_a   6.97047844
_cell_length_b   7.34807159
_cell_length_c   4.13875200
_cell_angle_alpha   90.00000000
_cell_angle_beta   90.00000000
_cell_angle_gamma   121.81471661
_symmetry_Int_Tables_number   1
_chemical_formula_structural   Nd2UAl3IrRu2
_chemical_formula_sum   'Nd2 U1 Al3 Ir1 Ru2'
_cell_volume   180.13590358
_cell_formula_units_Z   1
loop_
 _symmetry_equiv_pos_site_id
 _symmetry_equiv_pos_as_xyz
  1  'x, y, z'
loop_
 _atom_site_type_symbol
 _atom_site_label
 _atom_site_symmetry_multiplicity
 _atom_site_fract_x
 _atom_site_fract_y
 _atom_site_fract_z
 _atom_site_occupancy
  Nd  Nd0  1  0.420267  0.423233  0.500000  1
  Nd  Nd1  1  0.579839  0.002992  0.500000  1
  U  U2  1  0.000022  0.586412  0.500000  1
  Al  Al3  1  0.758160  0.761424  0.000000  1
  Al  Al4  1  0.241793  0.003205  0.000000  1
  Al  Al5  1  0.999945  0.215759  0.000000  1
  Ir  Ir6  1  0.999998  0.977902  0.500000  1
  Ru  Ru7  1  0.750742  0.389924  0.000000  1
  Ru  Ru8  1  0.249236  0.639149  0.000000  1
