# generated using pymatgen
data_Be4Cu2IrRu
_symmetry_space_group_name_H-M   'P 1'
_cell_length_a   5.35104600
_cell_length_b   5.35106300
_cell_length_c   5.77425100
_cell_angle_alpha   90.00002063
_cell_angle_beta   90.00002063
_cell_angle_gamma   89.99997859
_symmetry_Int_Tables_number   1
_chemical_formula_structural   Be4Cu2IrRu
_chemical_formula_sum   'Be8 Cu4 Ir2 Ru2'
_cell_volume   165.33865741
_cell_formula_units_Z   2
loop_
 _symmetry_equiv_pos_site_id
 _symmetry_equiv_pos_as_xyz
  1  'x, y, z'
loop_
 _atom_site_type_symbol
 _atom_site_label
 _atom_site_symmetry_multiplicity
 _atom_site_fract_x
 _atom_site_fract_y
 _atom_site_fract_z
 _atom_site_occupancy
  Be  Be0  1  0.499928  0.500031  0.249692  1
  Be  Be1  1  0.499925  0.999961  0.249692  1
  Be  Be2  1  0.999931  0.499966  0.250313  1
  Be  Be3  1  0.999930  0.000043  0.250313  1
  Be  Be4  1  0.000072  0.500007  0.749676  1
  Be  Be5  1  0.000073  0.999985  0.749676  1
  Be  Be6  1  0.500069  0.499991  0.750319  1
  Be  Be7  1  0.500070  0.000018  0.750319  1
  Cu  Cu8  1  0.249937  0.750000  0.000113  1
  Cu  Cu9  1  0.749936  0.250001  0.499887  1
  Cu  Cu10  1  0.250018  0.750001  0.500128  1
  Cu  Cu11  1  0.750016  0.250000  0.999872  1
  Ir  Ir12  1  0.249731  0.250000  0.000024  1
  Ir  Ir13  1  0.749731  0.750000  0.499977  1
  Ru  Ru14  1  0.250315  0.250000  0.500052  1
  Ru  Ru15  1  0.750315  0.750000  0.999947  1
