# generated using pymatgen
data_La4Ir3OsF28
_symmetry_space_group_name_H-M   'P 1'
_cell_length_a   5.81001183
_cell_length_b   9.33188793
_cell_length_c   12.46654592
_cell_angle_alpha   62.04450036
_cell_angle_beta   90.22421862
_cell_angle_gamma   89.85542620
_symmetry_Int_Tables_number   1
_chemical_formula_structural   La4Ir3OsF28
_chemical_formula_sum   'La4 Ir3 Os1 F28'
_cell_volume   597.03277075
_cell_formula_units_Z   1
loop_
 _symmetry_equiv_pos_site_id
 _symmetry_equiv_pos_as_xyz
  1  'x, y, z'
loop_
 _atom_site_type_symbol
 _atom_site_label
 _atom_site_symmetry_multiplicity
 _atom_site_fract_x
 _atom_site_fract_y
 _atom_site_fract_z
 _atom_site_occupancy
  La  La0  1  0.761257  0.813499  0.255391  1
  La  La1  1  0.259962  0.197625  0.228863  1
  La  La2  1  0.242551  0.184298  0.737275  1
  La  La3  1  0.742269  0.810315  0.772364  1
  Ir  Ir4  1  0.745558  0.277509  0.953127  1
  Ir  Ir5  1  0.756643  0.273035  0.458017  1
  Ir  Ir6  1  0.256836  0.726896  0.042521  1
  Os  Os7  1  0.243725  0.725051  0.544245  1
  F  F8  1  0.965342  0.714805  0.461868  1
  F  F9  1  0.467068  0.287945  0.041100  1
  F  F10  1  0.034032  0.285883  0.546458  1
  F  F11  1  0.542347  0.714952  0.959449  1
  F  F12  1  0.064164  0.709204  0.917545  1
  F  F13  1  0.554862  0.290190  0.578644  1
  F  F14  1  0.945276  0.293484  0.076060  1
  F  F15  1  0.432964  0.705886  0.425320  1
  F  F16  1  0.739203  0.516584  0.855989  1
  F  F17  1  0.238399  0.492477  0.637574  1
  F  F18  1  0.260406  0.489806  0.138346  1
  F  F19  1  0.759998  0.512407  0.363176  1
  F  F20  1  0.743068  0.038381  0.046790  1
  F  F21  1  0.241899  0.957380  0.455321  1
  F  F22  1  0.262748  0.964570  0.950009  1
  F  F23  1  0.762140  0.034033  0.553151  1
  F  F24  1  0.056096  0.740247  0.666572  1
  F  F25  1  0.547380  0.261635  0.829415  1
  F  F26  1  0.955578  0.254772  0.336437  1
  F  F27  1  0.444594  0.743681  0.169419  1
  F  F28  1  0.019924  0.271864  0.861387  1
  F  F29  1  0.517749  0.730176  0.630706  1
  F  F30  1  0.976434  0.733433  0.130310  1
  F  F31  1  0.483961  0.263862  0.365736  1
  F  F32  1  0.085205  0.968319  0.237114  1
  F  F33  1  0.577398  0.022808  0.270027  1
  F  F34  1  0.907719  0.030896  0.773114  1
  F  F35  1  0.405244  0.962092  0.731160  1
