# generated using pymatgen
data_Tb5ThFe18
_symmetry_space_group_name_H-M   'P 1'
_cell_length_a   5.11177300
_cell_length_b   5.11177338
_cell_length_c   16.32010100
_cell_angle_alpha   90.00000000
_cell_angle_beta   90.00000000
_cell_angle_gamma   119.99999109
_symmetry_Int_Tables_number   1
_chemical_formula_structural   Tb5ThFe18
_chemical_formula_sum   'Tb5 Th1 Fe18'
_cell_volume   369.31475943
_cell_formula_units_Z   1
loop_
 _symmetry_equiv_pos_site_id
 _symmetry_equiv_pos_as_xyz
  1  'x, y, z'
loop_
 _atom_site_type_symbol
 _atom_site_label
 _atom_site_symmetry_multiplicity
 _atom_site_fract_x
 _atom_site_fract_y
 _atom_site_fract_z
 _atom_site_occupancy
  Tb  Tb0  1  0.333333  0.666667  0.965409  1
  Tb  Tb1  1  0.666667  0.333333  0.039172  1
  Tb  Tb2  1  0.666667  0.333333  0.460828  1
  Tb  Tb3  1  0.333333  0.666667  0.534591  1
  Tb  Tb4  1  0.666667  0.333333  0.250000  1
  Th  Th5  1  0.333333  0.666667  0.750000  1
  Fe  Fe6  1  0.166479  0.833521  0.371070  1
  Fe  Fe7  1  0.166479  0.332958  0.371070  1
  Fe  Fe8  1  0.667042  0.833521  0.371070  1
  Fe  Fe9  1  0.833749  0.166251  0.625385  1
  Fe  Fe10  1  0.833749  0.667498  0.625385  1
  Fe  Fe11  1  0.332502  0.166251  0.625385  1
  Fe  Fe12  1  0.833749  0.166251  0.874615  1
  Fe  Fe13  1  0.833749  0.667498  0.874615  1
  Fe  Fe14  1  0.332502  0.166251  0.874615  1
  Fe  Fe15  1  0.166479  0.833521  0.128930  1
  Fe  Fe16  1  0.166479  0.332958  0.128930  1
  Fe  Fe17  1  0.667042  0.833521  0.128930  1
  Fe  Fe18  1  0.333333  0.666667  0.250000  1
  Fe  Fe19  1  0.666667  0.333333  0.750000  1
  Fe  Fe20  1  0.000000  0.000000  0.250000  1
  Fe  Fe21  1  0.000000  0.000000  0.750000  1
  Fe  Fe22  1  0.000000  0.000000  0.498023  1
  Fe  Fe23  1  0.000000  0.000000  0.001977  1
