# generated using pymatgen
data_Ce(PrHg2)5
_symmetry_space_group_name_H-M   'P 1'
_cell_length_a   6.57109600
_cell_length_b   6.57109608
_cell_length_c   10.60056800
_cell_angle_alpha   90.00000000
_cell_angle_beta   90.00000000
_cell_angle_gamma   105.18466483
_symmetry_Int_Tables_number   1
_chemical_formula_structural   Ce(PrHg2)5
_chemical_formula_sum   'Ce1 Pr5 Hg10'
_cell_volume   441.74441427
_cell_formula_units_Z   1
loop_
 _symmetry_equiv_pos_site_id
 _symmetry_equiv_pos_as_xyz
  1  'x, y, z'
loop_
 _atom_site_type_symbol
 _atom_site_label
 _atom_site_symmetry_multiplicity
 _atom_site_fract_x
 _atom_site_fract_y
 _atom_site_fract_z
 _atom_site_occupancy
  Ce  Ce0  1  0.584253  0.584253  0.250000  1
  Pr  Pr1  1  0.419499  0.419499  0.750000  1
  Pr  Pr2  1  0.204958  0.795041  0.499564  1
  Pr  Pr3  1  0.204958  0.795041  0.000436  1
  Pr  Pr4  1  0.795041  0.204958  0.499564  1
  Pr  Pr5  1  0.795041  0.204958  0.000436  1
  Hg  Hg6  1  0.980566  0.980566  0.250000  1
  Hg  Hg7  1  0.012634  0.012634  0.750000  1
  Hg  Hg8  1  0.304505  0.304505  0.031906  1
  Hg  Hg9  1  0.702273  0.702273  0.969902  1
  Hg  Hg10  1  0.304505  0.304505  0.468094  1
  Hg  Hg11  1  0.702273  0.702273  0.530098  1
  Hg  Hg12  1  0.470977  0.044934  0.250000  1
  Hg  Hg13  1  0.952666  0.520919  0.750000  1
  Hg  Hg14  1  0.520919  0.952666  0.750000  1
  Hg  Hg15  1  0.044934  0.470977  0.250000  1
