# generated using pymatgen
data_Tb3YEr(SiB4)2
_symmetry_space_group_name_H-M   'P 1'
_cell_length_a   7.24022302
_cell_length_b   7.24022302
_cell_length_c   8.10318800
_cell_angle_alpha   90.00000000
_cell_angle_beta   90.00000000
_cell_angle_gamma   90.00829339
_symmetry_Int_Tables_number   1
_chemical_formula_structural   Tb3YEr(SiB4)2
_chemical_formula_sum   'Tb6 Y2 Er2 Si4 B16'
_cell_volume   424.77583101
_cell_formula_units_Z   2
loop_
 _symmetry_equiv_pos_site_id
 _symmetry_equiv_pos_as_xyz
  1  'x, y, z'
loop_
 _atom_site_type_symbol
 _atom_site_label
 _atom_site_symmetry_multiplicity
 _atom_site_fract_x
 _atom_site_fract_y
 _atom_site_fract_z
 _atom_site_occupancy
  Tb  Tb0  1  0.680286  0.180310  0.225065  1
  Tb  Tb1  1  0.319690  0.819714  0.774935  1
  Tb  Tb2  1  0.319690  0.819714  0.225065  1
  Tb  Tb3  1  0.819690  0.680310  0.224967  1
  Tb  Tb4  1  0.819690  0.680310  0.775033  1
  Tb  Tb5  1  0.680286  0.180310  0.774935  1
  Y  Y6  1  0.180249  0.319751  0.775543  1
  Y  Y7  1  0.180249  0.319751  0.224457  1
  Er  Er8  1  0.000040  0.000113  0.500000  1
  Er  Er9  1  0.499887  0.499960  0.500000  1
  Si  Si10  1  0.115338  0.615038  0.500000  1
  Si  Si11  1  0.884962  0.384662  0.500000  1
  Si  Si12  1  0.384605  0.115395  0.500000  1
  Si  Si13  1  0.615128  0.884872  0.500000  1
  B  B14  1  0.172432  0.039128  0.000000  1
  B  B15  1  0.827721  0.961001  0.000000  1
  B  B16  1  0.960877  0.172349  0.000000  1
  B  B17  1  0.327651  0.539123  0.000000  1
  B  B18  1  0.039126  0.827730  0.000000  1
  B  B19  1  0.672270  0.460874  0.000000  1
  B  B20  1  0.538999  0.672279  0.000000  1
  B  B21  1  0.460872  0.327568  0.000000  1
  B  B22  1  0.089934  0.589811  0.000000  1
  B  B23  1  0.910189  0.410066  0.000000  1
  B  B24  1  0.410177  0.089823  0.000000  1
  B  B25  1  0.589929  0.910071  0.000000  1
  B  B26  1  0.000113  0.000097  0.162143  1
  B  B27  1  0.000113  0.000097  0.837857  1
  B  B28  1  0.499903  0.499887  0.837857  1
  B  B29  1  0.499903  0.499887  0.162143  1
