# generated using pymatgen
data_Th10Sn5SbAs2
_symmetry_space_group_name_H-M   'P 1'
_cell_length_a   9.51396464
_cell_length_b   9.51396386
_cell_length_c   6.68145400
_cell_angle_alpha   90.00000000
_cell_angle_beta   90.00000000
_cell_angle_gamma   120.08530699
_symmetry_Int_Tables_number   1
_chemical_formula_structural   Th10Sn5SbAs2
_chemical_formula_sum   'Th10 Sn5 Sb1 As2'
_cell_volume   523.29993251
_cell_formula_units_Z   1
loop_
 _symmetry_equiv_pos_site_id
 _symmetry_equiv_pos_as_xyz
  1  'x, y, z'
loop_
 _atom_site_type_symbol
 _atom_site_label
 _atom_site_symmetry_multiplicity
 _atom_site_fract_x
 _atom_site_fract_y
 _atom_site_fract_z
 _atom_site_occupancy
  Th  Th0  1  0.000247  0.741682  0.750000  1
  Th  Th1  1  0.258842  0.258842  0.750000  1
  Th  Th2  1  0.333286  0.666435  0.499691  1
  Th  Th3  1  0.666435  0.333286  0.499691  1
  Th  Th4  1  0.742070  0.742070  0.250000  1
  Th  Th5  1  0.741682  0.000247  0.750000  1
  Th  Th6  1  0.999750  0.258420  0.250000  1
  Th  Th7  1  0.258420  0.999750  0.250000  1
  Th  Th8  1  0.333286  0.666435  0.000309  1
  Th  Th9  1  0.666435  0.333286  0.000309  1
  Sn  Sn10  1  0.000036  0.390117  0.750000  1
  Sn  Sn11  1  0.390117  0.000036  0.750000  1
  Sn  Sn12  1  0.610226  0.000713  0.250000  1
  Sn  Sn13  1  0.389240  0.389240  0.250000  1
  Sn  Sn14  1  0.000713  0.610226  0.250000  1
  Sb  Sb15  1  0.609528  0.609528  0.750000  1
  As  As16  1  0.999844  0.999844  0.999784  1
  As  As17  1  0.999844  0.999844  0.500216  1
