# generated using pymatgen
data_YbPr(CuRu)2
_symmetry_space_group_name_H-M   'P 1'
_cell_length_a   5.37379230
_cell_length_b   5.37379192
_cell_length_c   5.32751600
_cell_angle_alpha   60.28445659
_cell_angle_beta   60.28445890
_cell_angle_gamma   56.94567272
_symmetry_Int_Tables_number   1
_chemical_formula_structural   YbPr(CuRu)2
_chemical_formula_sum   'Yb1 Pr1 Cu2 Ru2'
_cell_volume   106.48954850
_cell_formula_units_Z   1
loop_
 _symmetry_equiv_pos_site_id
 _symmetry_equiv_pos_as_xyz
  1  'x, y, z'
loop_
 _atom_site_type_symbol
 _atom_site_label
 _atom_site_symmetry_multiplicity
 _atom_site_fract_x
 _atom_site_fract_y
 _atom_site_fract_z
 _atom_site_occupancy
  Yb  Yb0  1  0.755901  0.755901  0.744099  1
  Pr  Pr1  1  0.993103  0.993103  0.006897  1
  Cu  Cu2  1  0.375262  0.375262  0.378594  1
  Cu  Cu3  1  0.375262  0.375262  0.870881  1
  Ru  Ru4  1  0.876493  0.373978  0.374764  1
  Ru  Ru5  1  0.373978  0.876493  0.374764  1
