# generated using pymatgen
data_TmLu(OsO4)2
_symmetry_space_group_name_H-M   'P 1'
_cell_length_a   5.31573222
_cell_length_b   7.38219119
_cell_length_c   7.68302800
_cell_angle_alpha   79.89422685
_cell_angle_beta   85.80254673
_cell_angle_gamma   88.89878956
_symmetry_Int_Tables_number   1
_chemical_formula_structural   TmLu(OsO4)2
_chemical_formula_sum   'Tm2 Lu2 Os4 O16'
_cell_volume   296.01553973
_cell_formula_units_Z   2
loop_
 _symmetry_equiv_pos_site_id
 _symmetry_equiv_pos_as_xyz
  1  'x, y, z'
loop_
 _atom_site_type_symbol
 _atom_site_label
 _atom_site_symmetry_multiplicity
 _atom_site_fract_x
 _atom_site_fract_y
 _atom_site_fract_z
 _atom_site_occupancy
  Tm  Tm0  1  0.758796  0.384227  0.389299  1
  Tm  Tm1  1  0.241204  0.615773  0.610701  1
  Lu  Lu2  1  0.694323  0.893597  0.333145  1
  Lu  Lu3  1  0.305677  0.106403  0.666855  1
  Os  Os4  1  0.785339  0.300619  0.834896  1
  Os  Os5  1  0.214661  0.699381  0.165104  1
  Os  Os6  1  0.252914  0.205923  0.163190  1
  Os  Os7  1  0.747086  0.794077  0.836810  1
  O  O8  1  0.906190  0.805616  0.061728  1
  O  O9  1  0.093810  0.194384  0.938272  1
  O  O10  1  0.355650  0.944549  0.182032  1
  O  O11  1  0.644350  0.055451  0.817968  1
  O  O12  1  0.106199  0.449020  0.175664  1
  O  O13  1  0.893801  0.550980  0.824336  1
  O  O14  1  0.552078  0.287871  0.030473  1
  O  O15  1  0.447922  0.712129  0.969527  1
  O  O16  1  0.009082  0.318344  0.607511  1
  O  O17  1  0.990918  0.681656  0.392489  1
  O  O18  1  0.448204  0.177277  0.389936  1
  O  O19  1  0.551796  0.822723  0.610064  1
  O  O20  1  0.481459  0.615964  0.336800  1
  O  O21  1  0.518541  0.384036  0.663200  1
  O  O22  1  0.943463  0.126516  0.298252  1
  O  O23  1  0.056537  0.873484  0.701748  1
