# generated using pymatgen
data_Tm2Co9Mo3As7
_symmetry_space_group_name_H-M   'P 1'
_cell_length_a   3.84015300
_cell_length_b   9.39327941
_cell_length_c   9.39328000
_cell_angle_alpha   119.99999504
_cell_angle_beta   90.00000000
_cell_angle_gamma   90.00000000
_symmetry_Int_Tables_number   1
_chemical_formula_structural   Tm2Co9Mo3As7
_chemical_formula_sum   'Tm2 Co9 Mo3 As7'
_cell_volume   293.43620038
_cell_formula_units_Z   1
loop_
 _symmetry_equiv_pos_site_id
 _symmetry_equiv_pos_as_xyz
  1  'x, y, z'
loop_
 _atom_site_type_symbol
 _atom_site_label
 _atom_site_symmetry_multiplicity
 _atom_site_fract_x
 _atom_site_fract_y
 _atom_site_fract_z
 _atom_site_occupancy
  Tm  Tm0  1  0.000000  0.666667  0.333333  1
  Tm  Tm1  1  0.500000  0.333333  0.666667  1
  Co  Co2  1  0.000000  0.568904  0.939696  1
  Co  Co3  1  0.000000  0.370791  0.431096  1
  Co  Co4  1  0.000000  0.060304  0.629209  1
  Co  Co5  1  0.000000  0.876155  0.159093  1
  Co  Co6  1  0.000000  0.282938  0.123845  1
  Co  Co7  1  0.000000  0.840907  0.717062  1
  Co  Co8  1  0.500000  0.949034  0.383149  1
  Co  Co9  1  0.500000  0.434114  0.050966  1
  Co  Co10  1  0.500000  0.616851  0.565886  1
  Mo  Mo11  1  0.500000  0.780818  0.902175  1
  Mo  Mo12  1  0.500000  0.121358  0.219182  1
  Mo  Mo13  1  0.500000  0.097825  0.878642  1
  As  As14  1  0.000000  0.000000  0.000000  1
  As  As15  1  0.500000  0.707481  0.120987  1
  As  As16  1  0.500000  0.413506  0.292519  1
  As  As17  1  0.500000  0.879013  0.586494  1
  As  As18  1  0.000000  0.584688  0.699785  1
  As  As19  1  0.000000  0.115098  0.415312  1
  As  As20  1  0.000000  0.300215  0.884902  1
