# generated using pymatgen
data_Tb7Pr(SBr6)2
_symmetry_space_group_name_H-M   'P 1'
_cell_length_a   4.03233700
_cell_length_b   13.10844299
_cell_length_c   13.84815935
_cell_angle_alpha   89.59743012
_cell_angle_beta   90.00000000
_cell_angle_gamma   90.00000000
_symmetry_Int_Tables_number   1
_chemical_formula_structural   Tb7Pr(SBr6)2
_chemical_formula_sum   'Tb7 Pr1 S2 Br12'
_cell_volume   731.96322634
_cell_formula_units_Z   1
loop_
 _symmetry_equiv_pos_site_id
 _symmetry_equiv_pos_as_xyz
  1  'x, y, z'
loop_
 _atom_site_type_symbol
 _atom_site_label
 _atom_site_symmetry_multiplicity
 _atom_site_fract_x
 _atom_site_fract_y
 _atom_site_fract_z
 _atom_site_occupancy
  Tb  Tb0  1  0.500000  0.116707  0.344484  1
  Tb  Tb1  1  0.500000  0.882772  0.655499  1
  Tb  Tb2  1  0.500000  0.616007  0.154019  1
  Tb  Tb3  1  0.500000  0.384955  0.846329  1
  Tb  Tb4  1  0.000000  0.884879  0.422773  1
  Tb  Tb5  1  0.000000  0.612545  0.925349  1
  Tb  Tb6  1  0.000000  0.388115  0.075831  1
  Pr  Pr7  1  0.000000  0.114966  0.577611  1
  S  S8  1  0.500000  0.994385  0.496428  1
  S  S9  1  0.500000  0.500223  0.000534  1
  Br  Br10  1  0.500000  0.247572  0.161487  1
  Br  Br11  1  0.500000  0.751054  0.837694  1
  Br  Br12  1  0.500000  0.745037  0.335903  1
  Br  Br13  1  0.500000  0.262868  0.666539  1
  Br  Br14  1  0.000000  0.259671  0.405631  1
  Br  Br15  1  0.000000  0.742518  0.586689  1
  Br  Br16  1  0.000000  0.756811  0.085754  1
  Br  Br17  1  0.000000  0.244024  0.914950  1
  Br  Br18  1  0.000000  0.001848  0.241420  1
  Br  Br19  1  0.000000  0.990703  0.764063  1
  Br  Br20  1  0.000000  0.501309  0.257401  1
  Br  Br21  1  0.000000  0.501030  0.743612  1
