# generated using pymatgen
data_Tm2Si14TcIr5
_symmetry_space_group_name_H-M   'P 1'
_cell_length_a   7.98010992
_cell_length_b   7.98011171
_cell_length_c   8.06432700
_cell_angle_alpha   56.85385749
_cell_angle_beta   56.85384908
_cell_angle_gamma   57.07440390
_symmetry_Int_Tables_number   1
_chemical_formula_structural   Tm2Si14TcIr5
_chemical_formula_sum   'Tm2 Si14 Tc1 Ir5'
_cell_volume   337.39702221
_cell_formula_units_Z   1
loop_
 _symmetry_equiv_pos_site_id
 _symmetry_equiv_pos_as_xyz
  1  'x, y, z'
loop_
 _atom_site_type_symbol
 _atom_site_label
 _atom_site_symmetry_multiplicity
 _atom_site_fract_x
 _atom_site_fract_y
 _atom_site_fract_z
 _atom_site_occupancy
  Tm  Tm0  1  0.000870  0.003084  0.996872  1
  Tm  Tm1  1  0.496916  0.499130  0.503128  1
  Si  Si2  1  0.754305  0.745695  0.750000  1
  Si  Si3  1  0.249353  0.250647  0.250000  1
  Si  Si4  1  0.848830  0.065282  0.672720  1
  Si  Si5  1  0.671406  0.852920  0.063640  1
  Si  Si6  1  0.061411  0.670818  0.851911  1
  Si  Si7  1  0.647080  0.828594  0.436360  1
  Si  Si8  1  0.434718  0.651170  0.827280  1
  Si  Si9  1  0.829182  0.438589  0.648089  1
  Si  Si10  1  0.171910  0.561988  0.355479  1
  Si  Si11  1  0.567156  0.350595  0.170514  1
  Si  Si12  1  0.351953  0.174695  0.563214  1
  Si  Si13  1  0.938012  0.328090  0.144521  1
  Si  Si14  1  0.325305  0.148047  0.936786  1
  Si  Si15  1  0.149405  0.932844  0.329486  1
  Tc  Tc16  1  0.078381  0.421619  0.750000  1
  Ir  Ir17  1  0.249743  0.927388  0.572042  1
  Ir  Ir18  1  0.572612  0.250257  0.927958  1
  Ir  Ir19  1  0.924174  0.575826  0.250000  1
  Ir  Ir20  1  0.427658  0.750380  0.072132  1
  Ir  Ir21  1  0.749620  0.072342  0.427868  1
