# generated using pymatgen
data_Sc10Cd3Ru
_symmetry_space_group_name_H-M   'P 1'
_cell_length_a   8.99013600
_cell_length_b   8.99013536
_cell_length_c   9.19199900
_cell_angle_alpha   90.00000000
_cell_angle_beta   90.00000000
_cell_angle_gamma   119.99999499
_symmetry_Int_Tables_number   1
_chemical_formula_structural   Sc10Cd3Ru
_chemical_formula_sum   'Sc20 Cd6 Ru2'
_cell_volume   643.38823414
_cell_formula_units_Z   2
loop_
 _symmetry_equiv_pos_site_id
 _symmetry_equiv_pos_as_xyz
  1  'x, y, z'
loop_
 _atom_site_type_symbol
 _atom_site_label
 _atom_site_symmetry_multiplicity
 _atom_site_fract_x
 _atom_site_fract_y
 _atom_site_fract_z
 _atom_site_occupancy
  Sc  Sc0  1  0.000000  0.000000  0.500000  1
  Sc  Sc1  1  0.000000  0.000000  0.000000  1
  Sc  Sc2  1  0.209995  0.790005  0.441574  1
  Sc  Sc3  1  0.209995  0.419992  0.441574  1
  Sc  Sc4  1  0.580008  0.790005  0.441574  1
  Sc  Sc5  1  0.790005  0.209995  0.558426  1
  Sc  Sc6  1  0.790005  0.580008  0.558426  1
  Sc  Sc7  1  0.419992  0.209995  0.558426  1
  Sc  Sc8  1  0.790005  0.209995  0.941574  1
  Sc  Sc9  1  0.790005  0.580008  0.941574  1
  Sc  Sc10  1  0.419992  0.209995  0.941574  1
  Sc  Sc11  1  0.209995  0.790005  0.058426  1
  Sc  Sc12  1  0.209995  0.419992  0.058426  1
  Sc  Sc13  1  0.580008  0.790005  0.058426  1
  Sc  Sc14  1  0.541046  0.458954  0.250000  1
  Sc  Sc15  1  0.541046  0.082092  0.250000  1
  Sc  Sc16  1  0.917908  0.458954  0.250000  1
  Sc  Sc17  1  0.458954  0.541046  0.750000  1
  Sc  Sc18  1  0.458954  0.917908  0.750000  1
  Sc  Sc19  1  0.082092  0.541046  0.750000  1
  Cd  Cd20  1  0.884731  0.115269  0.250000  1
  Cd  Cd21  1  0.884731  0.769463  0.250000  1
  Cd  Cd22  1  0.230537  0.115269  0.250000  1
  Cd  Cd23  1  0.115269  0.884731  0.750000  1
  Cd  Cd24  1  0.115269  0.230537  0.750000  1
  Cd  Cd25  1  0.769463  0.884731  0.750000  1
  Ru  Ru26  1  0.333333  0.666667  0.250000  1
  Ru  Ru27  1  0.666667  0.333333  0.750000  1
