# generated using pymatgen
data_Dy7Lu3(GePb3)2
_symmetry_space_group_name_H-M   'P 1'
_cell_length_a   9.28475400
_cell_length_b   9.28475378
_cell_length_c   6.52761000
_cell_angle_alpha   90.00000000
_cell_angle_beta   90.00000000
_cell_angle_gamma   120.00000791
_symmetry_Int_Tables_number   1
_chemical_formula_structural   Dy7Lu3(GePb3)2
_chemical_formula_sum   'Dy7 Lu3 Ge2 Pb6'
_cell_volume   487.33273982
_cell_formula_units_Z   1
loop_
 _symmetry_equiv_pos_site_id
 _symmetry_equiv_pos_as_xyz
  1  'x, y, z'
loop_
 _atom_site_type_symbol
 _atom_site_label
 _atom_site_symmetry_multiplicity
 _atom_site_fract_x
 _atom_site_fract_y
 _atom_site_fract_z
 _atom_site_occupancy
  Dy  Dy0  1  0.252356  0.000242  0.749803  1
  Dy  Dy1  1  0.747887  0.000242  0.250197  1
  Dy  Dy2  1  0.999758  0.252113  0.749803  1
  Dy  Dy3  1  0.999758  0.747644  0.250197  1
  Dy  Dy4  1  0.747887  0.747644  0.749803  1
  Dy  Dy5  1  0.252356  0.252113  0.250197  1
  Dy  Dy6  1  0.333333  0.666667  0.500000  1
  Lu  Lu7  1  0.666667  0.333333  0.500000  1
  Lu  Lu8  1  0.666667  0.333333  0.000000  1
  Lu  Lu9  1  0.333333  0.666667  0.000000  1
  Ge  Ge10  1  0.000000  0.000000  0.500000  1
  Ge  Ge11  1  0.000000  0.000000  0.000000  1
  Pb  Pb12  1  0.605667  0.000583  0.750248  1
  Pb  Pb13  1  0.394916  0.000583  0.249752  1
  Pb  Pb14  1  0.999417  0.605084  0.750248  1
  Pb  Pb15  1  0.999417  0.394333  0.249752  1
  Pb  Pb16  1  0.394916  0.394333  0.750248  1
  Pb  Pb17  1  0.605667  0.605084  0.249752  1
