# generated using pymatgen
data_CaLa4SiBi2
_symmetry_space_group_name_H-M   'P 1'
_cell_length_a   8.55406000
_cell_length_b   9.60999700
_cell_length_c   12.79115800
_cell_angle_alpha   90.00000000
_cell_angle_beta   90.00000000
_cell_angle_gamma   90.00000000
_symmetry_Int_Tables_number   1
_chemical_formula_structural   CaLa4SiBi2
_chemical_formula_sum   'Ca4 La16 Si4 Bi8'
_cell_volume   1051.49063190
_cell_formula_units_Z   4
loop_
 _symmetry_equiv_pos_site_id
 _symmetry_equiv_pos_as_xyz
  1  'x, y, z'
loop_
 _atom_site_type_symbol
 _atom_site_label
 _atom_site_symmetry_multiplicity
 _atom_site_fract_x
 _atom_site_fract_y
 _atom_site_fract_z
 _atom_site_occupancy
  Ca  Ca0  1  0.540344  0.750000  0.499295  1
  Ca  Ca1  1  0.040344  0.250000  0.000705  1
  Ca  Ca2  1  0.459656  0.250000  0.500705  1
  Ca  Ca3  1  0.959656  0.750000  0.999295  1
  La  La4  1  0.315193  0.958574  0.065763  1
  La  La5  1  0.815193  0.041426  0.434237  1
  La  La6  1  0.684807  0.458574  0.934237  1
  La  La7  1  0.184807  0.541426  0.565763  1
  La  La8  1  0.684807  0.041426  0.934237  1
  La  La9  1  0.184807  0.958574  0.565763  1
  La  La10  1  0.315193  0.541426  0.065763  1
  La  La11  1  0.815193  0.458574  0.434237  1
  La  La12  1  0.666090  0.750000  0.209700  1
  La  La13  1  0.166090  0.250000  0.290300  1
  La  La14  1  0.333910  0.250000  0.790300  1
  La  La15  1  0.833910  0.750000  0.709700  1
  La  La16  1  0.142241  0.750000  0.296072  1
  La  La17  1  0.642241  0.250000  0.203928  1
  La  La18  1  0.857759  0.250000  0.703928  1
  La  La19  1  0.357759  0.750000  0.796072  1
  Si  Si20  1  0.571086  0.750000  0.982852  1
  Si  Si21  1  0.071086  0.250000  0.517148  1
  Si  Si22  1  0.428914  0.250000  0.017148  1
  Si  Si23  1  0.928914  0.750000  0.482852  1
  Bi  Bi24  1  0.933210  0.007398  0.171215  1
  Bi  Bi25  1  0.433210  0.992602  0.328785  1
  Bi  Bi26  1  0.066790  0.507398  0.828785  1
  Bi  Bi27  1  0.566790  0.492602  0.671215  1
  Bi  Bi28  1  0.066790  0.992602  0.828785  1
  Bi  Bi29  1  0.566790  0.007398  0.671215  1
  Bi  Bi30  1  0.933210  0.492602  0.171215  1
  Bi  Bi31  1  0.433210  0.507398  0.328785  1
