# generated using pymatgen
data_Ta3Fe(AsO4)6
_symmetry_space_group_name_H-M   'P 1'
_cell_length_a   9.40411356
_cell_length_b   9.40411308
_cell_length_c   9.40411288
_cell_angle_alpha   57.09545878
_cell_angle_beta   57.09545014
_cell_angle_gamma   57.09545402
_symmetry_Int_Tables_number   1
_chemical_formula_structural   Ta3Fe(AsO4)6
_chemical_formula_sum   'Ta3 Fe1 As6 O24'
_cell_volume   548.71638660
_cell_formula_units_Z   1
loop_
 _symmetry_equiv_pos_site_id
 _symmetry_equiv_pos_as_xyz
  1  'x, y, z'
loop_
 _atom_site_type_symbol
 _atom_site_label
 _atom_site_symmetry_multiplicity
 _atom_site_fract_x
 _atom_site_fract_y
 _atom_site_fract_z
 _atom_site_occupancy
  Ta  Ta0  1  0.143917  0.143917  0.143917  1
  Ta  Ta1  1  0.357478  0.357478  0.357478  1
  Ta  Ta2  1  0.640570  0.640570  0.640570  1
  Fe  Fe3  1  0.854888  0.854888  0.854888  1
  As  As4  1  0.029123  0.481026  0.747002  1
  As  As5  1  0.481026  0.747002  0.029123  1
  As  As6  1  0.747002  0.029123  0.481026  1
  As  As7  1  0.241630  0.968464  0.534440  1
  As  As8  1  0.534440  0.241630  0.968464  1
  As  As9  1  0.968464  0.534440  0.241630  1
  O  O10  1  0.137530  0.496559  0.294075  1
  O  O11  1  0.294075  0.137530  0.496559  1
  O  O12  1  0.038787  0.306081  0.950999  1
  O  O13  1  0.496559  0.294075  0.137530  1
  O  O14  1  0.225769  0.407604  0.583904  1
  O  O15  1  0.017441  0.677841  0.721477  1
  O  O16  1  0.306081  0.950999  0.038787  1
  O  O17  1  0.407604  0.583904  0.225769  1
  O  O18  1  0.583904  0.225769  0.407604  1
  O  O19  1  0.260913  0.991114  0.330675  1
  O  O20  1  0.037988  0.978780  0.697461  1
  O  O21  1  0.330675  0.260913  0.991114  1
  O  O22  1  0.677841  0.721477  0.017441  1
  O  O23  1  0.950999  0.038787  0.306081  1
  O  O24  1  0.721477  0.017441  0.677841  1
  O  O25  1  0.418250  0.773061  0.584552  1
  O  O26  1  0.584552  0.418250  0.773061  1
  O  O27  1  0.697461  0.037988  0.978780  1
  O  O28  1  0.991114  0.330675  0.260913  1
  O  O29  1  0.773061  0.584552  0.418250  1
  O  O30  1  0.495923  0.721305  0.853369  1
  O  O31  1  0.978780  0.697461  0.037988  1
  O  O32  1  0.721305  0.853369  0.495923  1
  O  O33  1  0.853369  0.495923  0.721305  1
