# generated using pymatgen
data_La4ErP12Pd3Ru16
_symmetry_space_group_name_H-M   'P 1'
_cell_length_a   12.73579600
_cell_length_b   12.73579611
_cell_length_c   4.03024400
_cell_angle_alpha   90.00000000
_cell_angle_beta   90.00000000
_cell_angle_gamma   119.99999972
_symmetry_Int_Tables_number   1
_chemical_formula_structural   La4ErP12Pd3Ru16
_chemical_formula_sum   'La4 Er1 P12 Pd3 Ru16'
_cell_volume   566.12738689
_cell_formula_units_Z   1
loop_
 _symmetry_equiv_pos_site_id
 _symmetry_equiv_pos_as_xyz
  1  'x, y, z'
loop_
 _atom_site_type_symbol
 _atom_site_label
 _atom_site_symmetry_multiplicity
 _atom_site_fract_x
 _atom_site_fract_y
 _atom_site_fract_z
 _atom_site_occupancy
  La  La0  1  0.180635  0.180748  0.500000  1
  La  La1  1  0.819252  0.999887  0.500000  1
  La  La2  1  0.000113  0.819365  0.500000  1
  La  La3  1  0.333333  0.666667  0.000000  1
  Er  Er4  1  0.666667  0.333333  0.000000  1
  P  P5  1  0.809807  0.807608  0.000000  1
  P  P6  1  0.192392  0.002200  0.000000  1
  P  P7  1  0.997800  0.190193  0.000000  1
  P  P8  1  0.177533  0.476399  0.500000  1
  P  P9  1  0.523601  0.701132  0.500000  1
  P  P10  1  0.298868  0.822467  0.500000  1
  P  P11  1  0.700712  0.517405  0.500000  1
  P  P12  1  0.816693  0.299288  0.500000  1
  P  P13  1  0.482595  0.183307  0.500000  1
  P  P14  1  0.369579  0.370187  0.000000  1
  P  P15  1  0.629813  0.999391  0.000000  1
  P  P16  1  0.000609  0.630421  0.000000  1
  Pd  Pd17  1  0.553192  0.553517  0.000000  1
  Pd  Pd18  1  0.446483  0.999675  0.000000  1
  Pd  Pd19  1  0.000325  0.446808  0.000000  1
  Ru  Ru20  1  0.709230  0.706871  0.500000  1
  Ru  Ru21  1  0.293129  0.002359  0.500000  1
  Ru  Ru22  1  0.997641  0.290770  0.500000  1
  Ru  Ru23  1  0.184440  0.379549  0.000000  1
  Ru  Ru24  1  0.620451  0.804891  0.000000  1
  Ru  Ru25  1  0.195109  0.815560  0.000000  1
  Ru  Ru26  1  0.803835  0.615252  0.000000  1
  Ru  Ru27  1  0.811416  0.196165  0.000000  1
  Ru  Ru28  1  0.384748  0.188584  0.000000  1
  Ru  Ru29  1  0.369159  0.490238  0.500000  1
  Ru  Ru30  1  0.509762  0.878922  0.500000  1
  Ru  Ru31  1  0.121078  0.630841  0.500000  1
  Ru  Ru32  1  0.874770  0.503338  0.500000  1
  Ru  Ru33  1  0.628569  0.125230  0.500000  1
  Ru  Ru34  1  0.496662  0.371431  0.500000  1
  Ru  Ru35  1  0.000000  0.000000  0.000000  1
