# generated using pymatgen
data_ErSc3Nb4(Co4P3)4
_symmetry_space_group_name_H-M   'P 1'
_cell_length_a   12.02794351
_cell_length_b   12.02544158
_cell_length_c   3.63596500
_cell_angle_alpha   90.00000000
_cell_angle_beta   90.00000000
_cell_angle_gamma   119.91470790
_symmetry_Int_Tables_number   1
_chemical_formula_structural   ErSc3Nb4(Co4P3)4
_chemical_formula_sum   'Er1 Sc3 Nb4 Co16 P12'
_cell_volume   455.84306898
_cell_formula_units_Z   1
loop_
 _symmetry_equiv_pos_site_id
 _symmetry_equiv_pos_as_xyz
  1  'x, y, z'
loop_
 _atom_site_type_symbol
 _atom_site_label
 _atom_site_symmetry_multiplicity
 _atom_site_fract_x
 _atom_site_fract_y
 _atom_site_fract_z
 _atom_site_occupancy
  Er  Er0  1  0.333558  0.666823  0.000000  1
  Sc  Sc1  1  0.821422  0.998413  0.500000  1
  Sc  Sc2  1  0.999549  0.822020  0.500000  1
  Sc  Sc3  1  0.667063  0.333619  0.000000  1
  Nb  Nb4  1  0.182100  0.182477  0.500000  1
  Nb  Nb5  1  0.447640  0.001874  0.000000  1
  Nb  Nb6  1  0.998860  0.446048  0.000000  1
  Nb  Nb7  1  0.553000  0.551584  0.000000  1
  Co  Co8  1  0.279200  0.005390  0.500000  1
  Co  Co9  1  0.001343  0.276990  0.500000  1
  Co  Co10  1  0.722582  0.720583  0.500000  1
  Co  Co11  1  0.630677  0.805412  0.000000  1
  Co  Co12  1  0.194694  0.826249  0.000000  1
  Co  Co13  1  0.173819  0.365872  0.000000  1
  Co  Co14  1  0.368371  0.176663  0.000000  1
  Co  Co15  1  0.805312  0.627853  0.000000  1
  Co  Co16  1  0.823471  0.194623  0.000000  1
  Co  Co17  1  0.520672  0.873719  0.500000  1
  Co  Co18  1  0.126200  0.647912  0.500000  1
  Co  Co19  1  0.349788  0.475339  0.500000  1
  Co  Co20  1  0.479543  0.351215  0.500000  1
  Co  Co21  1  0.870952  0.517009  0.500000  1
  Co  Co22  1  0.647029  0.128763  0.500000  1
  Co  Co23  1  0.001702  0.001712  0.000000  1
  P  P24  1  0.174361  0.001421  0.000000  1
  P  P25  1  0.998244  0.172749  0.000000  1
  P  P26  1  0.827696  0.826173  0.000000  1
  P  P27  1  0.521428  0.688122  0.500000  1
  P  P28  1  0.311314  0.833808  0.500000  1
  P  P29  1  0.167120  0.479665  0.500000  1
  P  P30  1  0.484300  0.171694  0.500000  1
  P  P31  1  0.687747  0.516777  0.500000  1
  P  P32  1  0.829502  0.311418  0.500000  1
  P  P33  1  0.649974  0.999561  0.000000  1
  P  P34  1  0.000278  0.650465  0.000000  1
  P  P35  1  0.349491  0.349987  0.000000  1
