# generated using pymatgen
data_Ho2Er(In2Pt)2
_symmetry_space_group_name_H-M   'P 1'
_cell_length_a   7.81662638
_cell_length_b   7.79895348
_cell_length_c   3.90892600
_cell_angle_alpha   90.00000000
_cell_angle_beta   90.00000000
_cell_angle_gamma   119.94396884
_symmetry_Int_Tables_number   1
_chemical_formula_structural   Ho2Er(In2Pt)2
_chemical_formula_sum   'Ho2 Er1 In4 Pt2'
_cell_volume   206.48508793
_cell_formula_units_Z   1
loop_
 _symmetry_equiv_pos_site_id
 _symmetry_equiv_pos_as_xyz
  1  'x, y, z'
loop_
 _atom_site_type_symbol
 _atom_site_label
 _atom_site_symmetry_multiplicity
 _atom_site_fract_x
 _atom_site_fract_y
 _atom_site_fract_z
 _atom_site_occupancy
  Ho  Ho0  1  0.695576  0.951226  0.500000  1
  Ho  Ho1  1  0.256254  0.304386  0.500000  1
  Er  Er2  1  0.047494  0.744140  0.500000  1
  In  In3  1  0.924442  0.335020  0.000000  1
  In  In4  1  0.410327  0.075680  0.000000  1
  In  In5  1  0.665579  0.589781  0.000000  1
  In  In6  1  0.332744  0.666717  0.000000  1
  Pt  Pt7  1  0.667157  0.333655  0.500000  1
  Pt  Pt8  1  0.000427  0.999392  0.000000  1
