# generated using pymatgen
data_Ho12Co2Ni2SnRh
_symmetry_space_group_name_H-M   'P 1'
_cell_length_a   8.27375648
_cell_length_b   8.27375925
_cell_length_c   8.27375760
_cell_angle_alpha   110.99898118
_cell_angle_beta   109.91801297
_cell_angle_gamma   107.51608484
_symmetry_Int_Tables_number   1
_chemical_formula_structural   Ho12Co2Ni2SnRh
_chemical_formula_sum   'Ho12 Co2 Ni2 Sn1 Rh1'
_cell_volume   435.58065445
_cell_formula_units_Z   1
loop_
 _symmetry_equiv_pos_site_id
 _symmetry_equiv_pos_as_xyz
  1  'x, y, z'
loop_
 _atom_site_type_symbol
 _atom_site_label
 _atom_site_symmetry_multiplicity
 _atom_site_fract_x
 _atom_site_fract_y
 _atom_site_fract_z
 _atom_site_occupancy
  Ho  Ho0  1  0.408512  0.215274  0.193239  1
  Ho  Ho1  1  0.591488  0.784726  0.806761  1
  Ho  Ho2  1  0.022035  0.215274  0.806761  1
  Ho  Ho3  1  0.977965  0.784726  0.193239  1
  Ho  Ho4  1  0.184055  0.291240  0.475294  1
  Ho  Ho5  1  0.815945  0.708760  0.524706  1
  Ho  Ho6  1  0.184055  0.708760  0.892814  1
  Ho  Ho7  1  0.815945  0.291240  0.107186  1
  Ho  Ho8  1  0.315110  0.621920  0.306810  1
  Ho  Ho9  1  0.684890  0.378080  0.693190  1
  Ho  Ho10  1  0.315110  0.008299  0.693190  1
  Ho  Ho11  1  0.684890  0.991701  0.306810  1
  Co  Co12  1  0.113884  0.613884  0.500000  1
  Co  Co13  1  0.886116  0.386116  0.500000  1
  Ni  Ni14  1  0.367400  0.000000  0.367400  1
  Ni  Ni15  1  0.632600  0.000000  0.632600  1
  Sn  Sn16  1  0.500000  0.500000  0.000000  1
  Rh  Rh17  1  0.000000  0.000000  0.000000  1
