# generated using pymatgen
data_Er4Al13Ga5Ir6
_symmetry_space_group_name_H-M   'P 1'
_cell_length_a   7.51902357
_cell_length_b   7.51902408
_cell_length_c   9.54986000
_cell_angle_alpha   90.00000000
_cell_angle_beta   90.00000000
_cell_angle_gamma   119.82192618
_symmetry_Int_Tables_number   1
_chemical_formula_structural   Er4Al13Ga5Ir6
_chemical_formula_sum   'Er4 Al13 Ga5 Ir6'
_cell_volume   468.41097152
_cell_formula_units_Z   1
loop_
 _symmetry_equiv_pos_site_id
 _symmetry_equiv_pos_as_xyz
  1  'x, y, z'
loop_
 _atom_site_type_symbol
 _atom_site_label
 _atom_site_symmetry_multiplicity
 _atom_site_fract_x
 _atom_site_fract_y
 _atom_site_fract_z
 _atom_site_occupancy
  Er  Er0  1  0.997818  0.667460  0.750000  1
  Er  Er1  1  0.003147  0.330262  0.250000  1
  Er  Er2  1  0.667460  0.997818  0.750000  1
  Er  Er3  1  0.330262  0.003147  0.250000  1
  Al  Al4  1  0.125884  0.125884  0.750000  1
  Al  Al5  1  0.001305  0.333981  0.573098  1
  Al  Al6  1  0.998428  0.665884  0.427694  1
  Al  Al7  1  0.998428  0.665884  0.072306  1
  Al  Al8  1  0.333981  0.001305  0.926902  1
  Al  Al9  1  0.001305  0.333981  0.926902  1
  Al  Al10  1  0.665884  0.998428  0.072306  1
  Al  Al11  1  0.665884  0.998428  0.427694  1
  Al  Al12  1  0.333981  0.001305  0.573098  1
  Al  Al13  1  0.334000  0.334000  0.054335  1
  Al  Al14  1  0.666852  0.666852  0.942323  1
  Al  Al15  1  0.666852  0.666852  0.557677  1
  Al  Al16  1  0.334000  0.334000  0.445665  1
  Ga  Ga17  1  0.872276  0.872276  0.250000  1
  Ga  Ga18  1  0.338957  0.546147  0.750000  1
  Ga  Ga19  1  0.660925  0.452586  0.250000  1
  Ga  Ga20  1  0.546147  0.338957  0.750000  1
  Ga  Ga21  1  0.452586  0.660925  0.250000  1
  Ir  Ir22  1  0.672671  0.328342  0.499833  1
  Ir  Ir23  1  0.328342  0.672671  0.499833  1
  Ir  Ir24  1  0.328342  0.672671  0.000167  1
  Ir  Ir25  1  0.672671  0.328342  0.000167  1
  Ir  Ir26  1  0.000804  0.000804  0.502595  1
  Ir  Ir27  1  0.000804  0.000804  0.997405  1
