# generated using pymatgen
data_HoErAs2Cl2O5
_symmetry_space_group_name_H-M   'P 1'
_cell_length_a   6.99607383
_cell_length_b   7.66484926
_cell_length_c   9.42385009
_cell_angle_alpha   109.79074910
_cell_angle_beta   103.88382556
_cell_angle_gamma   102.20608710
_symmetry_Int_Tables_number   1
_chemical_formula_structural   HoErAs2Cl2O5
_chemical_formula_sum   'Ho2 Er2 As4 Cl4 O10'
_cell_volume   437.26768369
_cell_formula_units_Z   2
loop_
 _symmetry_equiv_pos_site_id
 _symmetry_equiv_pos_as_xyz
  1  'x, y, z'
loop_
 _atom_site_type_symbol
 _atom_site_label
 _atom_site_symmetry_multiplicity
 _atom_site_fract_x
 _atom_site_fract_y
 _atom_site_fract_z
 _atom_site_occupancy
  Ho  Ho0  1  0.398200  0.698832  0.520764  1
  Ho  Ho1  1  0.601800  0.301168  0.479236  1
  Er  Er2  1  0.846596  0.765217  0.335850  1
  Er  Er3  1  0.153404  0.234783  0.664150  1
  As  As4  1  0.887396  0.849649  0.742900  1
  As  As5  1  0.112604  0.150351  0.257100  1
  As  As6  1  0.709573  0.234478  0.797780  1
  As  As7  1  0.290427  0.765522  0.202220  1
  Cl  Cl8  1  0.238123  0.627373  0.733560  1
  Cl  Cl9  1  0.761877  0.372627  0.266440  1
  Cl  Cl10  1  0.779953  0.724587  0.042250  1
  Cl  Cl11  1  0.220047  0.275413  0.957750  1
  O  O12  1  0.845120  0.275051  0.664086  1
  O  O13  1  0.154880  0.724949  0.335914  1
  O  O14  1  0.533861  0.784263  0.340717  1
  O  O15  1  0.466139  0.215737  0.659283  1
  O  O16  1  0.665189  0.963095  0.722439  1
  O  O17  1  0.334811  0.036905  0.277561  1
  O  O18  1  0.693156  0.622482  0.590881  1
  O  O19  1  0.306844  0.377518  0.409119  1
  O  O20  1  0.992247  0.919226  0.605305  1
  O  O21  1  0.007753  0.080774  0.394695  1
