# generated using pymatgen
data_YMgNiPt3
_symmetry_space_group_name_H-M   'P 1'
_cell_length_a   5.15497417
_cell_length_b   5.15497326
_cell_length_c   5.15497424
_cell_angle_alpha   63.21265304
_cell_angle_beta   63.21265875
_cell_angle_gamma   63.21265585
_symmetry_Int_Tables_number   1
_chemical_formula_structural   YMgNiPt3
_chemical_formula_sum   'Y1 Mg1 Ni1 Pt3'
_cell_volume   103.76163122
_cell_formula_units_Z   1
loop_
 _symmetry_equiv_pos_site_id
 _symmetry_equiv_pos_as_xyz
  1  'x, y, z'
loop_
 _atom_site_type_symbol
 _atom_site_label
 _atom_site_symmetry_multiplicity
 _atom_site_fract_x
 _atom_site_fract_y
 _atom_site_fract_z
 _atom_site_occupancy
  Y  Y0  1  0.000028  0.000028  0.000028  1
  Mg  Mg1  1  0.255010  0.255010  0.255010  1
  Ni  Ni2  1  0.623266  0.623266  0.623266  1
  Pt  Pt3  1  0.622908  0.622908  0.125882  1
  Pt  Pt4  1  0.622908  0.125882  0.622908  1
  Pt  Pt5  1  0.125882  0.622908  0.622908  1
