# generated using pymatgen
data_Er3InSn2Pt3
_symmetry_space_group_name_H-M   'P 1'
_cell_length_a   7.65904855
_cell_length_b   7.65904824
_cell_length_c   3.83234700
_cell_angle_alpha   90.00000000
_cell_angle_beta   90.00000000
_cell_angle_gamma   120.30169870
_symmetry_Int_Tables_number   1
_chemical_formula_structural   Er3InSn2Pt3
_chemical_formula_sum   'Er3 In1 Sn2 Pt3'
_cell_volume   194.09606661
_cell_formula_units_Z   1
loop_
 _symmetry_equiv_pos_site_id
 _symmetry_equiv_pos_as_xyz
  1  'x, y, z'
loop_
 _atom_site_type_symbol
 _atom_site_label
 _atom_site_symmetry_multiplicity
 _atom_site_fract_x
 _atom_site_fract_y
 _atom_site_fract_z
 _atom_site_occupancy
  Er  Er0  1  0.406813  0.406813  0.500000  1
  Er  Er1  1  0.596538  0.996076  0.500000  1
  Er  Er2  1  0.996076  0.596538  0.500000  1
  In  In3  1  0.737288  0.737288  0.000000  1
  Sn  Sn4  1  0.261471  0.998140  0.000000  1
  Sn  Sn5  1  0.998140  0.261471  0.000000  1
  Pt  Pt6  1  0.666360  0.331353  0.000000  1
  Pt  Pt7  1  0.331353  0.666360  0.000000  1
  Pt  Pt8  1  0.005961  0.005961  0.500000  1
