# generated using pymatgen
data_MgZn3(PtO4)2
_symmetry_space_group_name_H-M   'P 1'
_cell_length_a   6.11474967
_cell_length_b   6.16747024
_cell_length_c   6.11474951
_cell_angle_alpha   121.80112465
_cell_angle_beta   118.89373383
_cell_angle_gamma   89.16477582
_symmetry_Int_Tables_number   1
_chemical_formula_structural   MgZn3(PtO4)2
_chemical_formula_sum   'Mg1 Zn3 Pt2 O8'
_cell_volume   162.41398667
_cell_formula_units_Z   1
loop_
 _symmetry_equiv_pos_site_id
 _symmetry_equiv_pos_as_xyz
  1  'x, y, z'
loop_
 _atom_site_type_symbol
 _atom_site_label
 _atom_site_symmetry_multiplicity
 _atom_site_fract_x
 _atom_site_fract_y
 _atom_site_fract_z
 _atom_site_occupancy
  Mg  Mg0  1  0.000000  0.500000  0.000000  1
  Zn  Zn1  1  0.599130  0.851789  0.752659  1
  Zn  Zn2  1  0.400870  0.148211  0.247341  1
  Zn  Zn3  1  0.000000  0.000000  0.500000  1
  Pt  Pt4  1  0.000000  0.500000  0.500000  1
  Pt  Pt5  1  0.500000  0.500000  0.000000  1
  O  O6  1  0.785594  0.267321  0.521865  1
  O  O7  1  0.245457  0.267321  0.981726  1
  O  O8  1  0.251011  0.275142  0.524131  1
  O  O9  1  0.246226  0.724105  0.977880  1
  O  O10  1  0.753774  0.275895  0.022120  1
  O  O11  1  0.754543  0.732679  0.018274  1
  O  O12  1  0.748989  0.724858  0.475869  1
  O  O13  1  0.214406  0.732679  0.478135  1
