# generated using pymatgen
data_Nb6VSi6Tc5
_symmetry_space_group_name_H-M   'P 1'
_cell_length_a   7.56807768
_cell_length_b   7.56336665
_cell_length_c   7.56336544
_cell_angle_alpha   127.02720882
_cell_angle_beta   125.46228825
_cell_angle_gamma   79.47823253
_symmetry_Int_Tables_number   1
_chemical_formula_structural   Nb6VSi6Tc5
_chemical_formula_sum   'Nb6 V1 Si6 Tc5'
_cell_volume   272.09792405
_cell_formula_units_Z   1
loop_
 _symmetry_equiv_pos_site_id
 _symmetry_equiv_pos_as_xyz
  1  'x, y, z'
loop_
 _atom_site_type_symbol
 _atom_site_label
 _atom_site_symmetry_multiplicity
 _atom_site_fract_x
 _atom_site_fract_y
 _atom_site_fract_z
 _atom_site_occupancy
  Nb  Nb0  1  0.557638  0.098676  0.043953  1
  Nb  Nb1  1  0.442362  0.486315  0.541038  1
  Nb  Nb2  1  0.960275  0.493062  0.034795  1
  Nb  Nb3  1  0.039725  0.074520  0.532786  1
  Nb  Nb4  1  0.756088  0.914184  0.663590  1
  Nb  Nb5  1  0.243912  0.907500  0.158097  1
  V  V6  1  0.000000  0.244331  0.244331  1
  Si  Si7  1  0.336461  0.825303  0.497056  1
  Si  Si8  1  0.663539  0.160594  0.488841  1
  Si  Si9  1  0.827066  0.825333  0.988640  1
  Si  Si10  1  0.172934  0.161573  0.998267  1
  Si  Si11  1  0.772195  0.526882  0.257286  1
  Si  Si12  1  0.227805  0.485091  0.754688  1
  Tc  Tc13  1  0.157787  0.751119  0.654247  1
  Tc  Tc14  1  0.842213  0.496459  0.593332  1
  Tc  Tc15  1  0.598287  0.748984  0.094334  1
  Tc  Tc16  1  0.401713  0.496046  0.150697  1
  Tc  Tc17  1  0.500000  0.246024  0.746024  1
