# generated using pymatgen
data_Dy11Er(In2Ru)4
_symmetry_space_group_name_H-M   'P 1'
_cell_length_a   3.83884400
_cell_length_b   12.87262454
_cell_length_c   12.87262310
_cell_angle_alpha   111.94693146
_cell_angle_beta   90.00000000
_cell_angle_gamma   90.00000000
_symmetry_Int_Tables_number   1
_chemical_formula_structural   Dy11Er(In2Ru)4
_chemical_formula_sum   'Dy11 Er1 In8 Ru4'
_cell_volume   590.01463525
_cell_formula_units_Z   1
loop_
 _symmetry_equiv_pos_site_id
 _symmetry_equiv_pos_as_xyz
  1  'x, y, z'
loop_
 _atom_site_type_symbol
 _atom_site_label
 _atom_site_symmetry_multiplicity
 _atom_site_fract_x
 _atom_site_fract_y
 _atom_site_fract_z
 _atom_site_occupancy
  Dy  Dy0  1  0.000000  0.913294  0.578047  1
  Dy  Dy1  1  0.000000  0.086706  0.421953  1
  Dy  Dy2  1  0.000000  0.578047  0.913294  1
  Dy  Dy3  1  0.000000  0.421953  0.086706  1
  Dy  Dy4  1  0.000000  0.163027  0.836973  1
  Dy  Dy5  1  0.000000  0.836973  0.163027  1
  Dy  Dy6  1  0.000000  0.360591  0.639409  1
  Dy  Dy7  1  0.000000  0.639409  0.360591  1
  Dy  Dy8  1  0.000000  0.705350  0.705350  1
  Dy  Dy9  1  0.000000  0.294650  0.294650  1
  Dy  Dy10  1  0.000000  0.000000  0.000000  1
  Er  Er11  1  0.500000  0.500000  0.500000  1
  In  In12  1  0.500000  0.148974  0.631997  1
  In  In13  1  0.500000  0.851026  0.368003  1
  In  In14  1  0.500000  0.631997  0.148974  1
  In  In15  1  0.500000  0.368003  0.851026  1
  In  In16  1  0.500000  0.933138  0.783604  1
  In  In17  1  0.500000  0.066862  0.216396  1
  In  In18  1  0.500000  0.783604  0.933138  1
  In  In19  1  0.500000  0.216396  0.066862  1
  Ru  Ru20  1  0.500000  0.737523  0.547879  1
  Ru  Ru21  1  0.500000  0.262477  0.452121  1
  Ru  Ru22  1  0.500000  0.547879  0.737523  1
  Ru  Ru23  1  0.500000  0.452121  0.262477  1
