# generated using pymatgen
data_LiAc3Ag3Sn4
_symmetry_space_group_name_H-M   'P 1'
_cell_length_a   9.26499868
_cell_length_b   9.23926591
_cell_length_c   9.23926620
_cell_angle_alpha   149.26467842
_cell_angle_beta   131.51665656
_cell_angle_gamma   58.48208539
_symmetry_Int_Tables_number   1
_chemical_formula_structural   LiAc3Ag3Sn4
_chemical_formula_sum   'Li1 Ac3 Ag3 Sn4'
_cell_volume   300.36644090
_cell_formula_units_Z   1
loop_
 _symmetry_equiv_pos_site_id
 _symmetry_equiv_pos_as_xyz
  1  'x, y, z'
loop_
 _atom_site_type_symbol
 _atom_site_label
 _atom_site_symmetry_multiplicity
 _atom_site_fract_x
 _atom_site_fract_y
 _atom_site_fract_z
 _atom_site_occupancy
  Li  Li0  1  0.484790  0.669748  0.815045  1
  Ac  Ac1  1  0.497192  0.996551  0.500641  1
  Ac  Ac2  1  0.873839  0.868302  0.005537  1
  Ac  Ac3  1  0.129351  0.134035  0.995317  1
  Ag  Ag4  1  0.846349  0.666566  0.179783  1
  Ag  Ag5  1  0.144079  0.335333  0.808745  1
  Ag  Ag6  1  0.524001  0.329055  0.194945  1
  Sn  Sn7  1  0.279850  0.783238  0.496612  1
  Sn  Sn8  1  0.713754  0.213357  0.500398  1
  Sn  Sn9  1  0.810302  0.499925  0.310376  1
  Sn  Sn10  1  0.196492  0.503890  0.692602  1
