# generated using pymatgen
data_Ba6Ni2WO12
_symmetry_space_group_name_H-M   'P 1'
_cell_length_a   9.19076411
_cell_length_b   9.19076347
_cell_length_c   7.26639002
_cell_angle_alpha   67.79672717
_cell_angle_beta   67.79672661
_cell_angle_gamma   36.71153439
_symmetry_Int_Tables_number   1
_chemical_formula_structural   Ba6Ni2WO12
_chemical_formula_sum   'Ba6 Ni2 W1 O12'
_cell_volume   336.58028775
_cell_formula_units_Z   1
loop_
 _symmetry_equiv_pos_site_id
 _symmetry_equiv_pos_as_xyz
  1  'x, y, z'
loop_
 _atom_site_type_symbol
 _atom_site_label
 _atom_site_symmetry_multiplicity
 _atom_site_fract_x
 _atom_site_fract_y
 _atom_site_fract_z
 _atom_site_occupancy
  Ba  Ba0  1  0.873385  0.873385  0.719444  1
  Ba  Ba1  1  0.220808  0.220808  0.714359  1
  Ba  Ba2  1  0.548687  0.548687  0.705840  1
  Ba  Ba3  1  0.451313  0.451313  0.294160  1
  Ba  Ba4  1  0.779192  0.779192  0.285641  1
  Ba  Ba5  1  0.126615  0.126615  0.280556  1
  Ni  Ni6  1  0.666770  0.666770  0.000247  1
  Ni  Ni7  1  0.333230  0.333230  0.999753  1
  W  W8  1  0.000000  0.000000  0.000000  1
  O  O9  1  0.950465  0.950465  0.297398  1
  O  O10  1  0.283277  0.283277  0.305120  1
  O  O11  1  0.614538  0.614538  0.307147  1
  O  O12  1  0.385462  0.385462  0.692853  1
  O  O13  1  0.716723  0.716723  0.694880  1
  O  O14  1  0.049535  0.049535  0.702602  1
  O  O15  1  0.500000  0.000000  0.000000  1
  O  O16  1  0.839588  0.318053  0.000128  1
  O  O17  1  0.160412  0.681947  0.999872  1
  O  O18  1  0.000000  0.500000  0.000000  1
  O  O19  1  0.318053  0.839588  0.000128  1
  O  O20  1  0.681947  0.160412  0.999872  1
