# generated using pymatgen
data_Rb(IrSe2)4
_symmetry_space_group_name_H-M   'P 1'
_cell_length_a   3.82945461
_cell_length_b   8.42009374
_cell_length_c   9.50521984
_cell_angle_alpha   80.47792925
_cell_angle_beta   78.37884591
_cell_angle_gamma   76.85596973
_symmetry_Int_Tables_number   1
_chemical_formula_structural   Rb(IrSe2)4
_chemical_formula_sum   'Rb1 Ir4 Se8'
_cell_volume   290.03406042
_cell_formula_units_Z   1
loop_
 _symmetry_equiv_pos_site_id
 _symmetry_equiv_pos_as_xyz
  1  'x, y, z'
loop_
 _atom_site_type_symbol
 _atom_site_label
 _atom_site_symmetry_multiplicity
 _atom_site_fract_x
 _atom_site_fract_y
 _atom_site_fract_z
 _atom_site_occupancy
  Rb  Rb0  1  0.499570  0.000077  0.000783  1
  Ir  Ir1  1  0.634293  0.196684  0.534731  1
  Ir  Ir2  1  0.839998  0.499685  0.820318  1
  Ir  Ir3  1  0.160384  0.499571  0.179661  1
  Ir  Ir4  1  0.365535  0.804000  0.464928  1
  Se  Se5  1  0.456812  0.324195  0.762181  1
  Se  Se6  1  0.543528  0.675242  0.237700  1
  Se  Se7  1  0.895440  0.637895  0.571224  1
  Se  Se8  1  0.104213  0.362754  0.428820  1
  Se  Se9  1  0.214324  0.650559  0.920792  1
  Se  Se10  1  0.786074  0.348599  0.079255  1
  Se  Se11  1  0.827649  0.987960  0.356742  1
  Se  Se12  1  0.172180  0.012778  0.642862  1
