# generated using pymatgen
data_Lu5Co19SiP11
_symmetry_space_group_name_H-M   'P 1'
_cell_length_a   11.93400007
_cell_length_b   11.93399983
_cell_length_c   3.64123700
_cell_angle_alpha   90.00000000
_cell_angle_beta   90.00000000
_cell_angle_gamma   119.95756170
_symmetry_Int_Tables_number   1
_chemical_formula_structural   Lu5Co19SiP11
_chemical_formula_sum   'Lu5 Co19 Si1 P11'
_cell_volume   449.30081184
_cell_formula_units_Z   1
loop_
 _symmetry_equiv_pos_site_id
 _symmetry_equiv_pos_as_xyz
  1  'x, y, z'
loop_
 _atom_site_type_symbol
 _atom_site_label
 _atom_site_symmetry_multiplicity
 _atom_site_fract_x
 _atom_site_fract_y
 _atom_site_fract_z
 _atom_site_occupancy
  Lu  Lu0  1  0.665995  0.334134  0.000000  1
  Lu  Lu1  1  0.334134  0.665995  0.000000  1
  Lu  Lu2  1  0.183806  0.183806  0.500000  1
  Lu  Lu3  1  0.813414  0.000559  0.500000  1
  Lu  Lu4  1  0.000559  0.813414  0.500000  1
  Co  Co5  1  0.820496  0.198332  0.000000  1
  Co  Co6  1  0.802839  0.624356  0.000000  1
  Co  Co7  1  0.377462  0.174574  0.000000  1
  Co  Co8  1  0.198332  0.820496  0.000000  1
  Co  Co9  1  0.624356  0.802839  0.000000  1
  Co  Co10  1  0.174574  0.377462  0.000000  1
  Co  Co11  1  0.557361  0.557361  0.000000  1
  Co  Co12  1  0.446683  0.996878  0.000000  1
  Co  Co13  1  0.996878  0.446683  0.000000  1
  Co  Co14  1  0.641532  0.125460  0.500000  1
  Co  Co15  1  0.873312  0.516289  0.500000  1
  Co  Co16  1  0.486041  0.357890  0.500000  1
  Co  Co17  1  0.125460  0.641532  0.500000  1
  Co  Co18  1  0.516289  0.873312  0.500000  1
  Co  Co19  1  0.357890  0.486041  0.500000  1
  Co  Co20  1  0.717545  0.717545  0.500000  1
  Co  Co21  1  0.284475  0.998335  0.500000  1
  Co  Co22  1  0.998335  0.284475  0.500000  1
  Co  Co23  1  0.000767  0.000767  0.000000  1
  Si  Si24  1  0.367282  0.367282  0.000000  1
  P  P25  1  0.633568  0.999988  0.000000  1
  P  P26  1  0.999988  0.633568  0.000000  1
  P  P27  1  0.832256  0.314711  0.500000  1
  P  P28  1  0.685334  0.520135  0.500000  1
  P  P29  1  0.481149  0.166591  0.500000  1
  P  P30  1  0.314711  0.832256  0.500000  1
  P  P31  1  0.520135  0.685334  0.500000  1
  P  P32  1  0.166591  0.481149  0.500000  1
  P  P33  1  0.821509  0.821509  0.000000  1
  P  P34  1  0.179774  0.999165  0.000000  1
  P  P35  1  0.999165  0.179774  0.000000  1
