# generated using pymatgen
data_Tm(Ga3Ni)3
_symmetry_space_group_name_H-M   'P 1'
_cell_length_a   10.08713062
_cell_length_b   10.08713087
_cell_length_c   10.08713120
_cell_angle_alpha   42.33908664
_cell_angle_beta   42.33907627
_cell_angle_gamma   42.33908694
_symmetry_Int_Tables_number   1
_chemical_formula_structural   Tm(Ga3Ni)3
_chemical_formula_sum   'Tm2 Ga18 Ni6'
_cell_volume   421.44238721
_cell_formula_units_Z   2
loop_
 _symmetry_equiv_pos_site_id
 _symmetry_equiv_pos_as_xyz
  1  'x, y, z'
loop_
 _atom_site_type_symbol
 _atom_site_label
 _atom_site_symmetry_multiplicity
 _atom_site_fract_x
 _atom_site_fract_y
 _atom_site_fract_z
 _atom_site_occupancy
  Tm  Tm0  1  0.167022  0.167022  0.167022  1
  Tm  Tm1  1  0.832978  0.832978  0.832978  1
  Ga  Ga2  1  0.104175  0.434448  0.765281  1
  Ga  Ga3  1  0.434448  0.765281  0.104175  1
  Ga  Ga4  1  0.565552  0.895825  0.234719  1
  Ga  Ga5  1  0.948577  0.948577  0.948577  1
  Ga  Ga6  1  0.051423  0.051423  0.051423  1
  Ga  Ga7  1  0.290132  0.709868  0.500000  1
  Ga  Ga8  1  0.895825  0.234719  0.565552  1
  Ga  Ga9  1  0.386367  0.386367  0.386367  1
  Ga  Ga10  1  0.500000  0.290132  0.709868  1
  Ga  Ga11  1  0.234719  0.565552  0.895825  1
  Ga  Ga12  1  0.717202  0.717202  0.717202  1
  Ga  Ga13  1  0.613633  0.613633  0.613633  1
  Ga  Ga14  1  0.333535  0.000000  0.666465  1
  Ga  Ga15  1  0.709868  0.500000  0.290132  1
  Ga  Ga16  1  0.666465  0.333535  0.000000  1
  Ga  Ga17  1  0.282798  0.282798  0.282798  1
  Ga  Ga18  1  0.000000  0.666465  0.333535  1
  Ga  Ga19  1  0.765281  0.104175  0.434448  1
  Ni  Ni20  1  0.418620  0.078003  0.758702  1
  Ni  Ni21  1  0.581380  0.241298  0.921997  1
  Ni  Ni22  1  0.078003  0.758702  0.418620  1
  Ni  Ni23  1  0.758702  0.418620  0.078003  1
  Ni  Ni24  1  0.921997  0.581380  0.241298  1
  Ni  Ni25  1  0.241298  0.921997  0.581380  1
