# generated using pymatgen
data_Tm8Be3Si13W12
_symmetry_space_group_name_H-M   'P 1'
_cell_length_a   6.66850105
_cell_length_b   6.81267596
_cell_length_c   12.85026100
_cell_angle_alpha   90.00000000
_cell_angle_beta   90.00000000
_cell_angle_gamma   89.85203937
_symmetry_Int_Tables_number   1
_chemical_formula_structural   Tm8Be3Si13W12
_chemical_formula_sum   'Tm8 Be3 Si13 W12'
_cell_volume   583.78973879
_cell_formula_units_Z   1
loop_
 _symmetry_equiv_pos_site_id
 _symmetry_equiv_pos_as_xyz
  1  'x, y, z'
loop_
 _atom_site_type_symbol
 _atom_site_label
 _atom_site_symmetry_multiplicity
 _atom_site_fract_x
 _atom_site_fract_y
 _atom_site_fract_z
 _atom_site_occupancy
  Tm  Tm0  1  0.501045  0.667865  0.596211  1
  Tm  Tm1  1  0.000096  0.832884  0.903737  1
  Tm  Tm2  1  0.502779  0.334669  0.092927  1
  Tm  Tm3  1  0.001821  0.170269  0.405769  1
  Tm  Tm4  1  0.502779  0.334669  0.407073  1
  Tm  Tm5  1  0.001821  0.170269  0.094231  1
  Tm  Tm6  1  0.501045  0.667865  0.903789  1
  Tm  Tm7  1  0.000096  0.832884  0.596263  1
  Be  Be8  1  0.457250  0.373229  0.750000  1
  Be  Be9  1  0.956772  0.127177  0.750000  1
  Be  Be10  1  0.542046  0.627346  0.250000  1
  Si  Si11  1  0.664668  0.958961  0.457462  1
  Si  Si12  1  0.163733  0.541514  0.042099  1
  Si  Si13  1  0.336435  0.042117  0.957093  1
  Si  Si14  1  0.836598  0.456239  0.544195  1
  Si  Si15  1  0.336435  0.042117  0.542907  1
  Si  Si16  1  0.836598  0.456239  0.955805  1
  Si  Si17  1  0.664668  0.958961  0.042538  1
  Si  Si18  1  0.163733  0.541514  0.457901  1
  Si  Si19  1  0.036517  0.874368  0.250000  1
  Si  Si20  1  0.707187  0.874711  0.750000  1
  Si  Si21  1  0.206886  0.624626  0.750000  1
  Si  Si22  1  0.301467  0.136727  0.250000  1
  Si  Si23  1  0.791953  0.372605  0.250000  1
  W  W24  1  0.661050  0.170429  0.628671  1
  W  W25  1  0.162178  0.328324  0.871488  1
  W  W26  1  0.339019  0.829527  0.127060  1
  W  W27  1  0.831436  0.663511  0.374911  1
  W  W28  1  0.339019  0.829527  0.372940  1
  W  W29  1  0.831436  0.663511  0.125089  1
  W  W30  1  0.661050  0.170429  0.871329  1
  W  W31  1  0.162178  0.328324  0.628512  1
  W  W32  1  0.836541  0.486184  0.750000  1
  W  W33  1  0.335380  0.013580  0.750000  1
  W  W34  1  0.163728  0.505779  0.250000  1
  W  W35  1  0.662559  0.991049  0.250000  1
