# generated using pymatgen
data_Gd6In5RhO18
_symmetry_space_group_name_H-M   'P 1'
_cell_length_a   6.41155156
_cell_length_b   6.41155330
_cell_length_c   12.38783596
_cell_angle_alpha   89.88111295
_cell_angle_beta   89.88111471
_cell_angle_gamma   120.02388749
_symmetry_Int_Tables_number   1
_chemical_formula_structural   Gd6In5RhO18
_chemical_formula_sum   'Gd6 In5 Rh1 O18'
_cell_volume   440.90410582
_cell_formula_units_Z   1
loop_
 _symmetry_equiv_pos_site_id
 _symmetry_equiv_pos_as_xyz
  1  'x, y, z'
loop_
 _atom_site_type_symbol
 _atom_site_label
 _atom_site_symmetry_multiplicity
 _atom_site_fract_x
 _atom_site_fract_y
 _atom_site_fract_z
 _atom_site_occupancy
  Gd  Gd0  1  0.667216  0.337164  0.959069  1
  Gd  Gd1  1  0.333753  0.666237  0.462274  1
  Gd  Gd2  1  0.666237  0.333753  0.462274  1
  Gd  Gd3  1  0.337164  0.667216  0.959069  1
  Gd  Gd4  1  0.997988  0.997988  0.995028  1
  Gd  Gd5  1  0.997259  0.997259  0.498697  1
  In  In6  1  0.000559  0.333426  0.726882  1
  In  In7  1  0.333316  0.333316  0.226494  1
  In  In8  1  0.000248  0.666506  0.226350  1
  In  In9  1  0.333426  0.000559  0.726882  1
  In  In10  1  0.666506  0.000248  0.226350  1
  Rh  Rh11  1  0.664858  0.664858  0.725056  1
  O  O12  1  0.694670  0.694670  0.893540  1
  O  O13  1  0.000597  0.307912  0.896197  1
  O  O14  1  0.307919  0.307919  0.398355  1
  O  O15  1  0.999675  0.692658  0.398230  1
  O  O16  1  0.307912  0.000597  0.896197  1
  O  O17  1  0.692658  0.999675  0.398230  1
  O  O18  1  0.637757  0.637757  0.560662  1
  O  O19  1  0.999452  0.359543  0.558513  1
  O  O20  1  0.360908  0.360908  0.056505  1
  O  O21  1  0.999240  0.639733  0.056476  1
  O  O22  1  0.359543  0.999452  0.558513  1
  O  O23  1  0.639733  0.999240  0.056476  1
  O  O24  1  0.992831  0.992831  0.696197  1
  O  O25  1  0.000031  0.000031  0.196271  1
  O  O26  1  0.667468  0.341273  0.754726  1
  O  O27  1  0.333247  0.666555  0.253773  1
  O  O28  1  0.666555  0.333247  0.253773  1
  O  O29  1  0.341273  0.667468  0.754726  1
