# generated using pymatgen
data_La2LuNpO7
_symmetry_space_group_name_H-M   'P 1'
_cell_length_a   7.78900887
_cell_length_b   7.78900840
_cell_length_c   7.74426300
_cell_angle_alpha   60.18984717
_cell_angle_beta   60.18984914
_cell_angle_gamma   60.92547167
_symmetry_Int_Tables_number   1
_chemical_formula_structural   La2LuNpO7
_chemical_formula_sum   'La4 Lu2 Np2 O14'
_cell_volume   335.45412609
_cell_formula_units_Z   2
loop_
 _symmetry_equiv_pos_site_id
 _symmetry_equiv_pos_as_xyz
  1  'x, y, z'
loop_
 _atom_site_type_symbol
 _atom_site_label
 _atom_site_symmetry_multiplicity
 _atom_site_fract_x
 _atom_site_fract_y
 _atom_site_fract_z
 _atom_site_occupancy
  La  La0  1  0.625000  0.125000  0.125000  1
  La  La1  1  0.125000  0.125000  0.125000  1
  La  La2  1  0.125000  0.625000  0.125000  1
  La  La3  1  0.125000  0.125000  0.625000  1
  Lu  Lu4  1  0.625000  0.625000  0.125000  1
  Lu  Lu5  1  0.625000  0.625000  0.625000  1
  Np  Np6  1  0.625000  0.125000  0.625000  1
  Np  Np7  1  0.125000  0.625000  0.625000  1
  O  O8  1  0.715896  0.281716  0.294959  1
  O  O9  1  0.720638  0.720638  0.279362  1
  O  O10  1  0.281716  0.715896  0.294959  1
  O  O11  1  0.001698  0.001698  0.998302  1
  O  O12  1  0.715896  0.281716  0.707429  1
  O  O13  1  0.968284  0.534104  0.542571  1
  O  O14  1  0.281716  0.715896  0.707429  1
  O  O15  1  0.534104  0.968284  0.542571  1
  O  O16  1  0.248302  0.248302  0.251698  1
  O  O17  1  0.968284  0.534104  0.955041  1
  O  O18  1  0.529362  0.529362  0.970638  1
  O  O19  1  0.963678  0.963678  0.536322  1
  O  O20  1  0.534104  0.968284  0.955041  1
  O  O21  1  0.286322  0.286322  0.713678  1
