# generated using pymatgen
data_Na4ThNpBr12
_symmetry_space_group_name_H-M   'P 1'
_cell_length_a   7.56379700
_cell_length_b   7.56379731
_cell_length_c   14.24787900
_cell_angle_alpha   90.00000000
_cell_angle_beta   90.00000000
_cell_angle_gamma   119.99999426
_symmetry_Int_Tables_number   1
_chemical_formula_structural   Na4ThNpBr12
_chemical_formula_sum   'Na4 Th1 Np1 Br12'
_cell_volume   705.92834778
_cell_formula_units_Z   1
loop_
 _symmetry_equiv_pos_site_id
 _symmetry_equiv_pos_as_xyz
  1  'x, y, z'
loop_
 _atom_site_type_symbol
 _atom_site_label
 _atom_site_symmetry_multiplicity
 _atom_site_fract_x
 _atom_site_fract_y
 _atom_site_fract_z
 _atom_site_occupancy
  Na  Na0  1  0.000000  0.000000  0.750000  1
  Na  Na1  1  0.666667  0.333333  0.750000  1
  Na  Na2  1  0.333333  0.666667  0.250000  1
  Na  Na3  1  0.000000  0.000000  0.250000  1
  Th  Th4  1  0.666667  0.333333  0.250000  1
  Np  Np5  1  0.333333  0.666667  0.750000  1
  Br  Br6  1  0.028358  0.361603  0.639786  1
  Br  Br7  1  0.333246  0.971642  0.639786  1
  Br  Br8  1  0.638397  0.666754  0.639786  1
  Br  Br9  1  0.638397  0.971642  0.860214  1
  Br  Br10  1  0.333246  0.361603  0.860214  1
  Br  Br11  1  0.028358  0.666754  0.860214  1
  Br  Br12  1  0.980405  0.333301  0.137618  1
  Br  Br13  1  0.352894  0.019595  0.137618  1
  Br  Br14  1  0.666699  0.647106  0.137618  1
  Br  Br15  1  0.666699  0.019595  0.362382  1
  Br  Br16  1  0.352894  0.333301  0.362382  1
  Br  Br17  1  0.980405  0.647106  0.362382  1
