# generated using pymatgen
data_Sr2Al3Ga(GeO4)4
_symmetry_space_group_name_H-M   'P 1'
_cell_length_a   9.72921000
_cell_length_b   8.64090104
_cell_length_c   9.23845849
_cell_angle_alpha   89.95857719
_cell_angle_beta   90.00000000
_cell_angle_gamma   90.00000000
_symmetry_Int_Tables_number   1
_chemical_formula_structural   Sr2Al3Ga(GeO4)4
_chemical_formula_sum   'Sr4 Al6 Ga2 Ge8 O32'
_cell_volume   776.66906433
_cell_formula_units_Z   2
loop_
 _symmetry_equiv_pos_site_id
 _symmetry_equiv_pos_as_xyz
  1  'x, y, z'
loop_
 _atom_site_type_symbol
 _atom_site_label
 _atom_site_symmetry_multiplicity
 _atom_site_fract_x
 _atom_site_fract_y
 _atom_site_fract_z
 _atom_site_occupancy
  Sr  Sr0  1  0.411728  0.752224  0.886575  1
  Sr  Sr1  1  0.911728  0.247776  0.613425  1
  Sr  Sr2  1  0.584766  0.248129  0.114251  1
  Sr  Sr3  1  0.084766  0.751871  0.385749  1
  Al  Al4  1  0.922226  0.066863  0.236555  1
  Al  Al5  1  0.422226  0.933137  0.263445  1
  Al  Al6  1  0.078246  0.933889  0.764186  1
  Al  Al7  1  0.578246  0.066111  0.735814  1
  Al  Al8  1  0.195641  0.434000  0.055602  1
  Al  Al9  1  0.695641  0.566000  0.444398  1
  Ga  Ga10  1  0.804287  0.569048  0.947291  1
  Ga  Ga11  1  0.304287  0.430952  0.552709  1
  Ge  Ge12  1  0.921051  0.434746  0.240522  1
  Ge  Ge13  1  0.421051  0.565254  0.259478  1
  Ge  Ge14  1  0.079308  0.562705  0.760974  1
  Ge  Ge15  1  0.579308  0.437295  0.739026  1
  Ge  Ge16  1  0.196857  0.061331  0.058225  1
  Ge  Ge17  1  0.696857  0.938669  0.441775  1
  Ge  Ge18  1  0.804080  0.942905  0.942818  1
  Ge  Ge19  1  0.304080  0.057095  0.557182  1
  O  O20  1  0.083986  0.986890  0.193078  1
  O  O21  1  0.583986  0.013110  0.306922  1
  O  O22  1  0.916581  0.015380  0.806495  1
  O  O23  1  0.416581  0.984620  0.693505  1
  O  O24  1  0.080851  0.512196  0.187662  1
  O  O25  1  0.580851  0.487804  0.312338  1
  O  O26  1  0.918558  0.482159  0.807438  1
  O  O27  1  0.418558  0.517841  0.692562  1
  O  O28  1  0.369602  0.059163  0.121628  1
  O  O29  1  0.869602  0.940837  0.378372  1
  O  O30  1  0.631655  0.941430  0.878867  1
  O  O31  1  0.131655  0.058570  0.621133  1
  O  O32  1  0.368546  0.437191  0.119686  1
  O  O33  1  0.868546  0.562809  0.380314  1
  O  O34  1  0.623595  0.565872  0.882177  1
  O  O35  1  0.123595  0.434128  0.617823  1
  O  O36  1  0.193758  0.929405  0.911363  1
  O  O37  1  0.693758  0.070595  0.588637  1
  O  O38  1  0.806276  0.074848  0.089534  1
  O  O39  1  0.306276  0.925152  0.410466  1
  O  O40  1  0.196645  0.564376  0.906342  1
  O  O41  1  0.696645  0.435624  0.593658  1
  O  O42  1  0.800045  0.426811  0.098316  1
  O  O43  1  0.300045  0.573189  0.401684  1
  O  O44  1  0.145826  0.246867  0.006659  1
  O  O45  1  0.645826  0.753133  0.493341  1
  O  O46  1  0.863183  0.761335  0.001088  1
  O  O47  1  0.363183  0.238665  0.498912  1
  O  O48  1  0.925823  0.249978  0.324445  1
  O  O49  1  0.425823  0.750022  0.175555  1
  O  O50  1  0.076879  0.748917  0.679252  1
  O  O51  1  0.576879  0.251083  0.820748  1
