# generated using pymatgen
data_DyHo19Ir11Ru
_symmetry_space_group_name_H-M   'P 1'
_cell_length_a   10.81949800
_cell_length_b   10.81918101
_cell_length_c   6.37305100
_cell_angle_alpha   89.99721373
_cell_angle_beta   90.00142511
_cell_angle_gamma   89.99769110
_symmetry_Int_Tables_number   1
_chemical_formula_structural   DyHo19Ir11Ru
_chemical_formula_sum   'Dy1 Ho19 Ir11 Ru1'
_cell_volume   746.01728623
_cell_formula_units_Z   1
loop_
 _symmetry_equiv_pos_site_id
 _symmetry_equiv_pos_as_xyz
  1  'x, y, z'
loop_
 _atom_site_type_symbol
 _atom_site_label
 _atom_site_symmetry_multiplicity
 _atom_site_fract_x
 _atom_site_fract_y
 _atom_site_fract_z
 _atom_site_occupancy
  Dy  Dy0  1  0.292244  0.087120  0.376564  1
  Ho  Ho1  1  0.292759  0.912765  0.879564  1
  Ho  Ho2  1  0.707243  0.087162  0.879613  1
  Ho  Ho3  1  0.707590  0.912877  0.376775  1
  Ho  Ho4  1  0.587164  0.792743  0.879603  1
  Ho  Ho5  1  0.587228  0.207620  0.376761  1
  Ho  Ho6  1  0.412933  0.792323  0.376770  1
  Ho  Ho7  1  0.412917  0.207304  0.879597  1
  Ho  Ho8  1  0.209030  0.411831  0.622008  1
  Ho  Ho9  1  0.209013  0.588063  0.121652  1
  Ho  Ho10  1  0.790985  0.411945  0.121643  1
  Ho  Ho11  1  0.790970  0.588206  0.621967  1
  Ho  Ho12  1  0.911942  0.709019  0.121647  1
  Ho  Ho13  1  0.911783  0.290977  0.621957  1
  Ho  Ho14  1  0.088200  0.709023  0.621997  1
  Ho  Ho15  1  0.087978  0.291044  0.121561  1
  Ho  Ho16  1  0.999888  0.999946  0.499402  1
  Ho  Ho17  1  0.999978  0.999986  0.999318  1
  Ho  Ho18  1  0.500002  0.500005  0.999332  1
  Ho  Ho19  1  0.500023  0.500010  0.499392  1
  Ir  Ir20  1  0.847061  0.153710  0.250054  1
  Ir  Ir21  1  0.847146  0.846648  0.749784  1
  Ir  Ir22  1  0.152748  0.153424  0.750135  1
  Ir  Ir23  1  0.152877  0.846151  0.249961  1
  Ir  Ir24  1  0.653359  0.347150  0.749790  1
  Ir  Ir25  1  0.653689  0.652941  0.250042  1
  Ir  Ir26  1  0.346341  0.347262  0.249958  1
  Ir  Ir27  1  0.346639  0.652850  0.749789  1
  Ir  Ir28  1  0.500180  0.999931  0.622923  1
  Ir  Ir29  1  0.999996  0.499996  0.878586  1
  Ir  Ir30  1  0.000005  0.500010  0.378721  1
  Ru  Ru31  1  0.500091  0.999956  0.123142  1
