# generated using pymatgen
data_Yb7HoSi12AgPd3
_symmetry_space_group_name_H-M   'P 1'
_cell_length_a   8.26115700
_cell_length_b   8.26115603
_cell_length_c   8.24248700
_cell_angle_alpha   90.00000000
_cell_angle_beta   90.00000000
_cell_angle_gamma   119.99999986
_symmetry_Int_Tables_number   1
_chemical_formula_structural   Yb7HoSi12AgPd3
_chemical_formula_sum   'Yb7 Ho1 Si12 Ag1 Pd3'
_cell_volume   487.15885835
_cell_formula_units_Z   1
loop_
 _symmetry_equiv_pos_site_id
 _symmetry_equiv_pos_as_xyz
  1  'x, y, z'
loop_
 _atom_site_type_symbol
 _atom_site_label
 _atom_site_symmetry_multiplicity
 _atom_site_fract_x
 _atom_site_fract_y
 _atom_site_fract_z
 _atom_site_occupancy
  Yb  Yb0  1  0.503455  0.006909  0.254237  1
  Yb  Yb1  1  0.501062  0.002126  0.746228  1
  Yb  Yb2  1  0.993091  0.496545  0.254237  1
  Yb  Yb3  1  0.997874  0.498938  0.746228  1
  Yb  Yb4  1  0.503455  0.496545  0.254237  1
  Yb  Yb5  1  0.501062  0.498938  0.746228  1
  Yb  Yb6  1  0.000000  0.000000  0.251883  1
  Ho  Ho7  1  0.000000  0.000000  0.747383  1
  Si  Si8  1  0.159908  0.319815  0.996998  1
  Si  Si9  1  0.834476  0.668953  0.995737  1
  Si  Si10  1  0.680185  0.840092  0.996998  1
  Si  Si11  1  0.836419  0.672839  0.504368  1
  Si  Si12  1  0.331047  0.165524  0.995737  1
  Si  Si13  1  0.164621  0.329244  0.502745  1
  Si  Si14  1  0.159908  0.840092  0.996998  1
  Si  Si15  1  0.327161  0.163581  0.504368  1
  Si  Si16  1  0.834476  0.165524  0.995737  1
  Si  Si17  1  0.670756  0.835379  0.502745  1
  Si  Si18  1  0.836419  0.163581  0.504368  1
  Si  Si19  1  0.164621  0.835379  0.502745  1
  Ag  Ag20  1  0.333333  0.666667  0.003696  1
  Pd  Pd21  1  0.666667  0.333333  0.998090  1
  Pd  Pd22  1  0.666667  0.333333  0.501988  1
  Pd  Pd23  1  0.333333  0.666667  0.496012  1
