# generated using pymatgen
data_Pr8Y3HoIn20
_symmetry_space_group_name_H-M   'P 1'
_cell_length_a   6.69720100
_cell_length_b   10.57822800
_cell_length_c   12.51976100
_cell_angle_alpha   90.00000000
_cell_angle_beta   90.00000000
_cell_angle_gamma   90.00000000
_symmetry_Int_Tables_number   1
_chemical_formula_structural   Pr8Y3HoIn20
_chemical_formula_sum   'Pr8 Y3 Ho1 In20'
_cell_volume   886.95644779
_cell_formula_units_Z   1
loop_
 _symmetry_equiv_pos_site_id
 _symmetry_equiv_pos_as_xyz
  1  'x, y, z'
loop_
 _atom_site_type_symbol
 _atom_site_label
 _atom_site_symmetry_multiplicity
 _atom_site_fract_x
 _atom_site_fract_y
 _atom_site_fract_z
 _atom_site_occupancy
  Pr  Pr0  1  0.888952  0.490094  0.143946  1
  Pr  Pr1  1  0.611104  0.009876  0.643956  1
  Pr  Pr2  1  0.111165  0.990059  0.856147  1
  Pr  Pr3  1  0.388885  0.509865  0.356100  1
  Pr  Pr4  1  0.111165  0.509941  0.856147  1
  Pr  Pr5  1  0.388885  0.990135  0.356100  1
  Pr  Pr6  1  0.888952  0.009906  0.143946  1
  Pr  Pr7  1  0.611104  0.490124  0.643956  1
  Y  Y8  1  0.150269  0.750000  0.560356  1
  Y  Y9  1  0.650281  0.250000  0.939653  1
  Y  Y10  1  0.849673  0.250000  0.439616  1
  Ho  Ho11  1  0.349525  0.750000  0.060202  1
  In  In12  1  0.617387  0.750000  0.502625  1
  In  In13  1  0.883061  0.750000  0.002764  1
  In  In14  1  0.382635  0.250000  0.497394  1
  In  In15  1  0.117348  0.250000  0.997395  1
  In  In16  1  0.654401  0.750000  0.243663  1
  In  In17  1  0.845009  0.750000  0.744023  1
  In  In18  1  0.345083  0.250000  0.755968  1
  In  In19  1  0.154943  0.250000  0.255996  1
  In  In20  1  0.110259  0.750000  0.284192  1
  In  In21  1  0.389955  0.750000  0.784575  1
  In  In22  1  0.889920  0.250000  0.715549  1
  In  In23  1  0.610021  0.250000  0.215530  1
  In  In24  1  0.874819  0.545526  0.404428  1
  In  In25  1  0.625169  0.954387  0.904551  1
  In  In26  1  0.125215  0.045543  0.595549  1
  In  In27  1  0.374806  0.454841  0.095573  1
  In  In28  1  0.125215  0.454457  0.595549  1
  In  In29  1  0.374806  0.045159  0.095573  1
  In  In30  1  0.874819  0.954474  0.404428  1
  In  In31  1  0.625169  0.545613  0.904551  1
