# generated using pymatgen
data_Ho5InSn2S
_symmetry_space_group_name_H-M   'P 1'
_cell_length_a   8.97066300
_cell_length_b   8.98187377
_cell_length_c   6.68740600
_cell_angle_alpha   90.00000000
_cell_angle_beta   90.00000000
_cell_angle_gamma   120.04134683
_symmetry_Int_Tables_number   1
_chemical_formula_structural   Ho5InSn2S
_chemical_formula_sum   'Ho10 In2 Sn4 S2'
_cell_volume   466.44314706
_cell_formula_units_Z   2
loop_
 _symmetry_equiv_pos_site_id
 _symmetry_equiv_pos_as_xyz
  1  'x, y, z'
loop_
 _atom_site_type_symbol
 _atom_site_label
 _atom_site_symmetry_multiplicity
 _atom_site_fract_x
 _atom_site_fract_y
 _atom_site_fract_z
 _atom_site_occupancy
  Ho  Ho0  1  0.667059  0.333282  0.998855  1
  Ho  Ho1  1  0.332941  0.666224  0.998855  1
  Ho  Ho2  1  0.332941  0.666224  0.501145  1
  Ho  Ho3  1  0.667059  0.333282  0.501145  1
  Ho  Ho4  1  0.755626  0.755745  0.750000  1
  Ho  Ho5  1  0.244374  0.000118  0.750000  1
  Ho  Ho6  1  0.000000  0.244844  0.750000  1
  Ho  Ho7  1  0.244322  0.244827  0.250000  1
  Ho  Ho8  1  0.755678  0.000506  0.250000  1
  Ho  Ho9  1  0.000000  0.756237  0.250000  1
  In  In10  1  0.398275  0.398189  0.750000  1
  In  In11  1  0.601725  0.999914  0.750000  1
  Sn  Sn12  1  0.000000  0.603469  0.750000  1
  Sn  Sn13  1  0.601866  0.601269  0.250000  1
  Sn  Sn14  1  0.398134  0.999403  0.250000  1
  Sn  Sn15  1  0.000000  0.396531  0.250000  1
  S  S16  1  0.000000  0.999968  0.000677  1
  S  S17  1  0.000000  0.999968  0.499323  1
