# generated using pymatgen
data_YTm3(ReC2)2
_symmetry_space_group_name_H-M   'P 1'
_cell_length_a   5.05115300
_cell_length_b   6.54961400
_cell_length_c   9.78706200
_cell_angle_alpha   90.00000000
_cell_angle_beta   90.00000000
_cell_angle_gamma   90.00000000
_symmetry_Int_Tables_number   1
_chemical_formula_structural   YTm3(ReC2)2
_chemical_formula_sum   'Y2 Tm6 Re4 C8'
_cell_volume   323.78637439
_cell_formula_units_Z   2
loop_
 _symmetry_equiv_pos_site_id
 _symmetry_equiv_pos_as_xyz
  1  'x, y, z'
loop_
 _atom_site_type_symbol
 _atom_site_label
 _atom_site_symmetry_multiplicity
 _atom_site_fract_x
 _atom_site_fract_y
 _atom_site_fract_z
 _atom_site_occupancy
  Y  Y0  1  0.250000  0.466436  0.216441  1
  Y  Y1  1  0.750000  0.033564  0.716441  1
  Tm  Tm2  1  0.750000  0.533464  0.783039  1
  Tm  Tm3  1  0.250000  0.966536  0.283039  1
  Tm  Tm4  1  0.750000  0.677832  0.442304  1
  Tm  Tm5  1  0.250000  0.822168  0.942304  1
  Tm  Tm6  1  0.750000  0.176982  0.057756  1
  Tm  Tm7  1  0.250000  0.323018  0.557756  1
  Re  Re8  1  0.250000  0.279580  0.867427  1
  Re  Re9  1  0.250000  0.779230  0.632936  1
  Re  Re10  1  0.750000  0.220420  0.367427  1
  Re  Re11  1  0.750000  0.720770  0.132936  1
  C  C12  1  0.250000  0.676128  0.448315  1
  C  C13  1  0.250000  0.547152  0.759633  1
  C  C14  1  0.750000  0.452755  0.240859  1
  C  C15  1  0.750000  0.823872  0.948315  1
  C  C16  1  0.250000  0.047245  0.740859  1
  C  C17  1  0.250000  0.171973  0.051292  1
  C  C18  1  0.750000  0.328027  0.551292  1
  C  C19  1  0.750000  0.952848  0.259633  1
