# generated using pymatgen
data_Sc16Cd3Co4Ag
_symmetry_space_group_name_H-M   'P 1'
_cell_length_a   8.87819663
_cell_length_b   8.87796589
_cell_length_c   8.87819700
_cell_angle_alpha   59.99914259
_cell_angle_beta   60.00000234
_cell_angle_gamma   59.99914611
_symmetry_Int_Tables_number   1
_chemical_formula_structural   Sc16Cd3Co4Ag
_chemical_formula_sum   'Sc16 Cd3 Co4 Ag1'
_cell_volume   494.81448172
_cell_formula_units_Z   1
loop_
 _symmetry_equiv_pos_site_id
 _symmetry_equiv_pos_as_xyz
  1  'x, y, z'
loop_
 _atom_site_type_symbol
 _atom_site_label
 _atom_site_symmetry_multiplicity
 _atom_site_fract_x
 _atom_site_fract_y
 _atom_site_fract_z
 _atom_site_occupancy
  Sc  Sc0  1  0.152998  0.541005  0.152998  1
  Sc  Sc1  1  0.687840  0.312247  0.687840  1
  Sc  Sc2  1  0.687840  0.312247  0.312072  1
  Sc  Sc3  1  0.938422  0.558816  0.564339  1
  Sc  Sc4  1  0.541224  0.152536  0.153119  1
  Sc  Sc5  1  0.153119  0.152536  0.541224  1
  Sc  Sc6  1  0.938260  0.936923  0.562408  1
  Sc  Sc7  1  0.312163  0.688020  0.312163  1
  Sc  Sc8  1  0.562408  0.936923  0.938260  1
  Sc  Sc9  1  0.562408  0.936923  0.562408  1
  Sc  Sc10  1  0.687653  0.688020  0.312163  1
  Sc  Sc11  1  0.564339  0.558816  0.938422  1
  Sc  Sc12  1  0.938422  0.558816  0.938422  1
  Sc  Sc13  1  0.312163  0.688020  0.687653  1
  Sc  Sc14  1  0.153119  0.152536  0.153119  1
  Sc  Sc15  1  0.312072  0.312247  0.687840  1
  Cd  Cd16  1  0.916834  0.920135  0.916834  1
  Cd  Cd17  1  0.916834  0.920135  0.246197  1
  Cd  Cd18  1  0.246197  0.920135  0.916834  1
  Co  Co19  1  0.358698  0.359133  0.923472  1
  Co  Co20  1  0.358922  0.923234  0.358922  1
  Co  Co21  1  0.923472  0.359133  0.358698  1
  Co  Co22  1  0.358698  0.359133  0.358698  1
  Ag  Ag23  1  0.915890  0.252330  0.915890  1
