# generated using pymatgen
data_Tb16Mg3CdOsPt3
_symmetry_space_group_name_H-M   'P 1'
_cell_length_a   9.80040519
_cell_length_b   9.81729799
_cell_length_c   9.81729879
_cell_angle_alpha   59.41331904
_cell_angle_beta   59.30268603
_cell_angle_gamma   59.30268360
_symmetry_Int_Tables_number   1
_chemical_formula_structural   Tb16Mg3CdOsPt3
_chemical_formula_sum   'Tb16 Mg3 Cd1 Os1 Pt3'
_cell_volume   657.85907082
_cell_formula_units_Z   1
loop_
 _symmetry_equiv_pos_site_id
 _symmetry_equiv_pos_as_xyz
  1  'x, y, z'
loop_
 _atom_site_type_symbol
 _atom_site_label
 _atom_site_symmetry_multiplicity
 _atom_site_fract_x
 _atom_site_fract_y
 _atom_site_fract_z
 _atom_site_occupancy
  Tb  Tb0  1  0.350160  0.350540  0.350540  1
  Tb  Tb1  1  0.347848  0.348815  0.952824  1
  Tb  Tb2  1  0.347848  0.952824  0.348815  1
  Tb  Tb3  1  0.955808  0.347319  0.347319  1
  Tb  Tb4  1  0.815361  0.188090  0.188090  1
  Tb  Tb5  1  0.187527  0.809558  0.809558  1
  Tb  Tb6  1  0.189051  0.814710  0.188404  1
  Tb  Tb7  1  0.811026  0.186337  0.810996  1
  Tb  Tb8  1  0.189051  0.188404  0.814710  1
  Tb  Tb9  1  0.811026  0.810996  0.186337  1
  Tb  Tb10  1  0.937421  0.565567  0.565567  1
  Tb  Tb11  1  0.558913  0.937099  0.937099  1
  Tb  Tb12  1  0.566798  0.933999  0.566550  1
  Tb  Tb13  1  0.939496  0.558190  0.935437  1
  Tb  Tb14  1  0.566798  0.566550  0.933999  1
  Tb  Tb15  1  0.939496  0.935437  0.558190  1
  Mg  Mg16  1  0.575723  0.579300  0.579300  1
  Mg  Mg17  1  0.575272  0.579022  0.262960  1
  Mg  Mg18  1  0.575272  0.262960  0.579022  1
  Cd  Cd19  1  0.254347  0.580901  0.580901  1
  Os  Os20  1  0.144318  0.142469  0.142469  1
  Pt  Pt21  1  0.144426  0.143726  0.573149  1
  Pt  Pt22  1  0.144426  0.573149  0.143726  1
  Pt  Pt23  1  0.572594  0.144041  0.144041  1
