# generated using pymatgen
data_TbTmAg2(Pt2O7)2
_symmetry_space_group_name_H-M   'P 1'
_cell_length_a   7.15127323
_cell_length_b   7.21350721
_cell_length_c   7.23581726
_cell_angle_alpha   61.39058442
_cell_angle_beta   60.38577055
_cell_angle_gamma   60.28498832
_symmetry_Int_Tables_number   1
_chemical_formula_structural   TbTmAg2(Pt2O7)2
_chemical_formula_sum   'Tb1 Tm1 Ag2 Pt4 O14'
_cell_volume   267.97170664
_cell_formula_units_Z   1
loop_
 _symmetry_equiv_pos_site_id
 _symmetry_equiv_pos_as_xyz
  1  'x, y, z'
loop_
 _atom_site_type_symbol
 _atom_site_label
 _atom_site_symmetry_multiplicity
 _atom_site_fract_x
 _atom_site_fract_y
 _atom_site_fract_z
 _atom_site_occupancy
  Tb  Tb0  1  0.625000  0.125000  0.625000  1
  Tm  Tm1  1  0.625000  0.625000  0.125000  1
  Ag  Ag2  1  0.625000  0.625000  0.625000  1
  Ag  Ag3  1  0.125000  0.625000  0.625000  1
  Pt  Pt4  1  0.125000  0.125000  0.125000  1
  Pt  Pt5  1  0.625000  0.125000  0.125000  1
  Pt  Pt6  1  0.125000  0.625000  0.125000  1
  Pt  Pt7  1  0.125000  0.125000  0.625000  1
  O  O8  1  0.044962  0.455483  0.454592  1
  O  O9  1  0.788391  0.793188  0.193321  1
  O  O10  1  0.780498  0.222377  0.216627  1
  O  O11  1  0.461456  0.053393  0.455757  1
  O  O12  1  0.024899  0.456812  0.056679  1
  O  O13  1  0.760613  0.734200  0.744574  1
  O  O14  1  0.029392  0.053393  0.455757  1
  O  O15  1  0.225101  0.793188  0.193321  1
  O  O16  1  0.220608  0.196607  0.794243  1
  O  O17  1  0.489387  0.515800  0.505426  1
  O  O18  1  0.788544  0.196607  0.794243  1
  O  O19  1  0.469502  0.027623  0.033373  1
  O  O20  1  0.461609  0.456812  0.056679  1
  O  O21  1  0.205038  0.794517  0.795408  1
