# generated using pymatgen
data_NdLuS2
_symmetry_space_group_name_H-M   'P 1'
_cell_length_a   6.97781916
_cell_length_b   6.97781893
_cell_length_c   6.97781824
_cell_angle_alpha   32.37225631
_cell_angle_beta   32.37226407
_cell_angle_gamma   32.37225788
_symmetry_Int_Tables_number   1
_chemical_formula_structural   NdLuS2
_chemical_formula_sum   'Nd1 Lu1 S2'
_cell_volume   86.58749654
_cell_formula_units_Z   1
loop_
 _symmetry_equiv_pos_site_id
 _symmetry_equiv_pos_as_xyz
  1  'x, y, z'
loop_
 _atom_site_type_symbol
 _atom_site_label
 _atom_site_symmetry_multiplicity
 _atom_site_fract_x
 _atom_site_fract_y
 _atom_site_fract_z
 _atom_site_occupancy
  Nd  Nd0  1  0.000000  0.000000  0.000000  1
  Lu  Lu1  1  0.500000  0.500000  0.500000  1
  S  S2  1  0.758585  0.758585  0.758585  1
  S  S3  1  0.241415  0.241415  0.241415  1
