# generated using pymatgen
data_Y2Er6Tc3B24Os
_symmetry_space_group_name_H-M   'P 1'
_cell_length_a   3.65770600
_cell_length_b   9.12425252
_cell_length_c   11.50498505
_cell_angle_alpha   89.93764821
_cell_angle_beta   90.00000000
_cell_angle_gamma   90.00000000
_symmetry_Int_Tables_number   1
_chemical_formula_structural   Y2Er6Tc3B24Os
_chemical_formula_sum   'Y2 Er6 Tc3 B24 Os1'
_cell_volume   383.96522459
_cell_formula_units_Z   1
loop_
 _symmetry_equiv_pos_site_id
 _symmetry_equiv_pos_as_xyz
  1  'x, y, z'
loop_
 _atom_site_type_symbol
 _atom_site_label
 _atom_site_symmetry_multiplicity
 _atom_site_fract_x
 _atom_site_fract_y
 _atom_site_fract_z
 _atom_site_occupancy
  Y  Y0  1  0.000000  0.323117  0.413826  1
  Y  Y1  1  0.000000  0.675965  0.584508  1
  Er  Er2  1  0.000000  0.822890  0.087191  1
  Er  Er3  1  0.000000  0.178137  0.914596  1
  Er  Er4  1  0.000000  0.942621  0.369861  1
  Er  Er5  1  0.000000  0.058128  0.630269  1
  Er  Er6  1  0.000000  0.442906  0.129791  1
  Er  Er7  1  0.000000  0.556948  0.869787  1
  Tc  Tc8  1  0.000000  0.639190  0.319546  1
  Tc  Tc9  1  0.000000  0.360991  0.680882  1
  Tc  Tc10  1  0.000000  0.137828  0.177865  1
  B  B11  1  0.500000  0.553315  0.432522  1
  B  B12  1  0.500000  0.446591  0.567237  1
  B  B13  1  0.500000  0.052812  0.066578  1
  B  B14  1  0.500000  0.946490  0.933223  1
  B  B15  1  0.500000  0.749171  0.418261  1
  B  B16  1  0.500000  0.250442  0.581789  1
  B  B17  1  0.500000  0.249381  0.080844  1
  B  B18  1  0.500000  0.751035  0.918866  1
  B  B19  1  0.500000  0.792231  0.265013  1
  B  B20  1  0.500000  0.207964  0.735512  1
  B  B21  1  0.500000  0.291712  0.234277  1
  B  B22  1  0.500000  0.709049  0.765730  1
  B  B23  1  0.500000  0.630977  0.184927  1
  B  B24  1  0.500000  0.368890  0.815607  1
  B  B25  1  0.500000  0.129925  0.313905  1
  B  B26  1  0.500000  0.869613  0.685900  1
  B  B27  1  0.500000  0.981329  0.211554  1
  B  B28  1  0.500000  0.017466  0.788470  1
  B  B29  1  0.500000  0.482162  0.287472  1
  B  B30  1  0.500000  0.517623  0.712342  1
  B  B31  1  0.500000  0.601734  0.028012  1
  B  B32  1  0.500000  0.399377  0.971834  1
  B  B33  1  0.500000  0.100513  0.472122  1
  B  B34  1  0.500000  0.899578  0.528343  1
  Os  Os35  1  0.000000  0.861898  0.821539  1
