# generated using pymatgen
data_Ca4Dy5Ho(CuPb3)2
_symmetry_space_group_name_H-M   'P 1'
_cell_length_a   9.26743002
_cell_length_b   9.26742985
_cell_length_c   6.81201900
_cell_angle_alpha   90.00000000
_cell_angle_beta   90.00000000
_cell_angle_gamma   119.99217496
_symmetry_Int_Tables_number   1
_chemical_formula_structural   Ca4Dy5Ho(CuPb3)2
_chemical_formula_sum   'Ca4 Dy5 Ho1 Cu2 Pb6'
_cell_volume   506.70984679
_cell_formula_units_Z   1
loop_
 _symmetry_equiv_pos_site_id
 _symmetry_equiv_pos_as_xyz
  1  'x, y, z'
loop_
 _atom_site_type_symbol
 _atom_site_label
 _atom_site_symmetry_multiplicity
 _atom_site_fract_x
 _atom_site_fract_y
 _atom_site_fract_z
 _atom_site_occupancy
  Ca  Ca0  1  0.333314  0.666623  0.499986  1
  Ca  Ca1  1  0.666623  0.333314  0.499986  1
  Ca  Ca2  1  0.666623  0.333314  0.000014  1
  Ca  Ca3  1  0.333314  0.666623  0.000014  1
  Dy  Dy4  1  0.257987  0.000015  0.750000  1
  Dy  Dy5  1  0.742026  0.000004  0.250000  1
  Dy  Dy6  1  0.000015  0.257987  0.750000  1
  Dy  Dy7  1  0.000004  0.742026  0.250000  1
  Dy  Dy8  1  0.742049  0.742049  0.750000  1
  Ho  Ho9  1  0.257867  0.257867  0.250000  1
  Cu  Cu10  1  0.000121  0.000121  0.499918  1
  Cu  Cu11  1  0.000121  0.000121  0.000082  1
  Pb  Pb12  1  0.615986  0.999998  0.750000  1
  Pb  Pb13  1  0.383977  0.000148  0.250000  1
  Pb  Pb14  1  0.999998  0.615986  0.750000  1
  Pb  Pb15  1  0.000148  0.383977  0.250000  1
  Pb  Pb16  1  0.383996  0.383996  0.750000  1
  Pb  Pb17  1  0.615833  0.615833  0.250000  1
