# generated using pymatgen
data_YPa3(GaOs)4
_symmetry_space_group_name_H-M   'P 1'
_cell_length_a   4.22547100
_cell_length_b   6.79038257
_cell_length_c   8.02016438
_cell_angle_alpha   89.58789325
_cell_angle_beta   90.00000000
_cell_angle_gamma   90.00000000
_symmetry_Int_Tables_number   1
_chemical_formula_structural   YPa3(GaOs)4
_chemical_formula_sum   'Y1 Pa3 Ga4 Os4'
_cell_volume   230.11313223
_cell_formula_units_Z   1
loop_
 _symmetry_equiv_pos_site_id
 _symmetry_equiv_pos_as_xyz
  1  'x, y, z'
loop_
 _atom_site_type_symbol
 _atom_site_label
 _atom_site_symmetry_multiplicity
 _atom_site_fract_x
 _atom_site_fract_y
 _atom_site_fract_z
 _atom_site_occupancy
  Y  Y0  1  0.750000  0.468989  0.310611  1
  Pa  Pa1  1  0.250000  0.029034  0.809570  1
  Pa  Pa2  1  0.250000  0.532365  0.684246  1
  Pa  Pa3  1  0.750000  0.964600  0.188864  1
  Ga  Ga4  1  0.250000  0.158442  0.434737  1
  Ga  Ga5  1  0.250000  0.637152  0.067622  1
  Ga  Ga6  1  0.750000  0.854655  0.560061  1
  Ga  Ga7  1  0.750000  0.354076  0.943362  1
  Os  Os8  1  0.250000  0.769165  0.380788  1
  Os  Os9  1  0.250000  0.234113  0.110349  1
  Os  Os10  1  0.750000  0.250032  0.632609  1
  Os  Os11  1  0.750000  0.747380  0.877179  1
