# generated using pymatgen
data_Lu4GaCo7O20
_symmetry_space_group_name_H-M   'P 1'
_cell_length_a   5.64591600
_cell_length_b   7.08942687
_cell_length_c   8.27480200
_cell_angle_alpha   89.78510275
_cell_angle_beta   90.00000000
_cell_angle_gamma   90.00000000
_symmetry_Int_Tables_number   1
_chemical_formula_structural   Lu4GaCo7O20
_chemical_formula_sum   'Lu4 Ga1 Co7 O20'
_cell_volume   331.20744856
_cell_formula_units_Z   1
loop_
 _symmetry_equiv_pos_site_id
 _symmetry_equiv_pos_as_xyz
  1  'x, y, z'
loop_
 _atom_site_type_symbol
 _atom_site_label
 _atom_site_symmetry_multiplicity
 _atom_site_fract_x
 _atom_site_fract_y
 _atom_site_fract_z
 _atom_site_occupancy
  Lu  Lu0  1  0.000000  0.140370  0.168747  1
  Lu  Lu1  1  0.000000  0.863880  0.828971  1
  Lu  Lu2  1  0.000000  0.635502  0.329526  1
  Lu  Lu3  1  0.000000  0.366832  0.672372  1
  Ga  Ga4  1  0.500000  0.395481  0.351664  1
  Co  Co5  1  0.251816  0.998121  0.498704  1
  Co  Co6  1  0.746720  0.500990  0.999767  1
  Co  Co7  1  0.748184  0.998121  0.498704  1
  Co  Co8  1  0.253280  0.500990  0.999767  1
  Co  Co9  1  0.500000  0.593330  0.652504  1
  Co  Co10  1  0.500000  0.908600  0.151352  1
  Co  Co11  1  0.500000  0.087737  0.848970  1
  O  O12  1  0.270299  0.000686  0.000321  1
  O  O13  1  0.732159  0.503627  0.503119  1
  O  O14  1  0.729701  0.000686  0.000321  1
  O  O15  1  0.267841  0.503627  0.503119  1
  O  O16  1  0.000000  0.165512  0.443071  1
  O  O17  1  0.000000  0.835415  0.557172  1
  O  O18  1  0.000000  0.665117  0.055521  1
  O  O19  1  0.000000  0.333829  0.941225  1
  O  O20  1  0.500000  0.146394  0.424799  1
  O  O21  1  0.500000  0.847840  0.568858  1
  O  O22  1  0.500000  0.653940  0.072001  1
  O  O23  1  0.500000  0.351063  0.931316  1
  O  O24  1  0.237055  0.394206  0.206297  1
  O  O25  1  0.239746  0.609538  0.793465  1
  O  O26  1  0.761649  0.891932  0.292689  1
  O  O27  1  0.758607  0.105481  0.706603  1
  O  O28  1  0.760254  0.609538  0.793465  1
  O  O29  1  0.762945  0.394206  0.206297  1
  O  O30  1  0.241393  0.105481  0.706603  1
  O  O31  1  0.238351  0.891932  0.292689  1
