# generated using pymatgen
data_Tb2Er3GaBi2
_symmetry_space_group_name_H-M   'P 1'
_cell_length_a   8.07270600
_cell_length_b   9.25871800
_cell_length_c   12.08983300
_cell_angle_alpha   90.00000000
_cell_angle_beta   90.00000000
_cell_angle_gamma   90.00000000
_symmetry_Int_Tables_number   1
_chemical_formula_structural   Tb2Er3GaBi2
_chemical_formula_sum   'Tb8 Er12 Ga4 Bi8'
_cell_volume   903.62927990
_cell_formula_units_Z   4
loop_
 _symmetry_equiv_pos_site_id
 _symmetry_equiv_pos_as_xyz
  1  'x, y, z'
loop_
 _atom_site_type_symbol
 _atom_site_label
 _atom_site_symmetry_multiplicity
 _atom_site_fract_x
 _atom_site_fract_y
 _atom_site_fract_z
 _atom_site_occupancy
  Tb  Tb0  1  0.668133  0.750000  0.715699  1
  Tb  Tb1  1  0.331867  0.250000  0.284301  1
  Tb  Tb2  1  0.168133  0.250000  0.784301  1
  Tb  Tb3  1  0.831867  0.750000  0.215699  1
  Tb  Tb4  1  0.143787  0.750000  0.794779  1
  Tb  Tb5  1  0.856213  0.250000  0.205221  1
  Tb  Tb6  1  0.643787  0.250000  0.705221  1
  Tb  Tb7  1  0.356213  0.750000  0.294779  1
  Er  Er8  1  0.539990  0.750000  0.002429  1
  Er  Er9  1  0.460010  0.250000  0.997571  1
  Er  Er10  1  0.039990  0.250000  0.497571  1
  Er  Er11  1  0.960010  0.750000  0.502429  1
  Er  Er12  1  0.819281  0.446860  0.936100  1
  Er  Er13  1  0.180719  0.553140  0.063900  1
  Er  Er14  1  0.319281  0.553140  0.563900  1
  Er  Er15  1  0.180719  0.946860  0.063900  1
  Er  Er16  1  0.680719  0.446860  0.436100  1
  Er  Er17  1  0.819281  0.053140  0.936100  1
  Er  Er18  1  0.680719  0.053140  0.436100  1
  Er  Er19  1  0.319281  0.946860  0.563900  1
  Ga  Ga20  1  0.908259  0.750000  0.975636  1
  Ga  Ga21  1  0.091741  0.250000  0.024364  1
  Ga  Ga22  1  0.408259  0.250000  0.524364  1
  Ga  Ga23  1  0.591741  0.750000  0.475636  1
  Bi  Bi24  1  0.935634  0.008657  0.673511  1
  Bi  Bi25  1  0.064366  0.991343  0.326489  1
  Bi  Bi26  1  0.435634  0.991343  0.826489  1
  Bi  Bi27  1  0.064366  0.508657  0.326489  1
  Bi  Bi28  1  0.564366  0.008657  0.173511  1
  Bi  Bi29  1  0.935634  0.491343  0.673511  1
  Bi  Bi30  1  0.564366  0.491343  0.173511  1
  Bi  Bi31  1  0.435634  0.508657  0.826489  1
