# generated using pymatgen
data_Tb2Sm4CoBr10
_symmetry_space_group_name_H-M   'P 1'
_cell_length_a   7.44012567
_cell_length_b   9.22756500
_cell_length_c   9.38883096
_cell_angle_alpha   108.57417192
_cell_angle_beta   96.87337457
_cell_angle_gamma   105.37883050
_symmetry_Int_Tables_number   1
_chemical_formula_structural   Tb2Sm4CoBr10
_chemical_formula_sum   'Tb2 Sm4 Co1 Br10'
_cell_volume   574.24540808
_cell_formula_units_Z   1
loop_
 _symmetry_equiv_pos_site_id
 _symmetry_equiv_pos_as_xyz
  1  'x, y, z'
loop_
 _atom_site_type_symbol
 _atom_site_label
 _atom_site_symmetry_multiplicity
 _atom_site_fract_x
 _atom_site_fract_y
 _atom_site_fract_z
 _atom_site_occupancy
  Tb  Tb0  1  0.357723  0.134052  0.677675  1
  Tb  Tb1  1  0.642277  0.865948  0.322325  1
  Sm  Sm2  1  0.029345  0.712653  0.409966  1
  Sm  Sm3  1  0.970655  0.287347  0.590034  1
  Sm  Sm4  1  0.875219  0.953773  0.745883  1
  Sm  Sm5  1  0.124781  0.046227  0.254117  1
  Co  Co6  1  0.000000  0.000000  0.500000  1
  Br  Br7  1  0.452195  0.823493  0.581973  1
  Br  Br8  1  0.547805  0.176507  0.418027  1
  Br  Br9  1  0.914091  0.629569  0.672797  1
  Br  Br10  1  0.085909  0.370431  0.327203  1
  Br  Br11  1  0.257249  0.086462  0.953921  1
  Br  Br12  1  0.742751  0.913538  0.046079  1
  Br  Br13  1  0.357558  0.453068  0.772747  1
  Br  Br14  1  0.642442  0.546932  0.227253  1
  Br  Br15  1  0.783331  0.258406  0.847645  1
  Br  Br16  1  0.216669  0.741594  0.152355  1
