# generated using pymatgen
data_La8Pr7Y(MgIr)4
_symmetry_space_group_name_H-M   'P 1'
_cell_length_a   10.11982242
_cell_length_b   10.11982201
_cell_length_c   10.14259800
_cell_angle_alpha   59.92552827
_cell_angle_beta   59.92552962
_cell_angle_gamma   60.51101061
_symmetry_Int_Tables_number   1
_chemical_formula_structural   La8Pr7Y(MgIr)4
_chemical_formula_sum   'La8 Pr7 Y1 Mg4 Ir4'
_cell_volume   736.43697284
_cell_formula_units_Z   1
loop_
 _symmetry_equiv_pos_site_id
 _symmetry_equiv_pos_as_xyz
  1  'x, y, z'
loop_
 _atom_site_type_symbol
 _atom_site_label
 _atom_site_symmetry_multiplicity
 _atom_site_fract_x
 _atom_site_fract_y
 _atom_site_fract_z
 _atom_site_occupancy
  La  La0  1  0.343678  0.343678  0.350489  1
  La  La1  1  0.343678  0.343678  0.962156  1
  La  La2  1  0.348747  0.962823  0.344216  1
  La  La3  1  0.962823  0.348747  0.344216  1
  La  La4  1  0.813927  0.188147  0.185835  1
  La  La5  1  0.188147  0.813927  0.812091  1
  La  La6  1  0.188147  0.813927  0.185835  1
  La  La7  1  0.813927  0.188147  0.812091  1
  Pr  Pr8  1  0.808234  0.808234  0.191766  1
  Pr  Pr9  1  0.937673  0.561280  0.565551  1
  Pr  Pr10  1  0.561280  0.937673  0.935497  1
  Pr  Pr11  1  0.561280  0.937673  0.565551  1
  Pr  Pr12  1  0.937673  0.561280  0.935497  1
  Pr  Pr13  1  0.561494  0.561494  0.938506  1
  Pr  Pr14  1  0.938708  0.938708  0.561292  1
  Y  Y15  1  0.190873  0.190873  0.809127  1
  Mg  Mg16  1  0.580033  0.580033  0.577757  1
  Mg  Mg17  1  0.580033  0.580033  0.262177  1
  Mg  Mg18  1  0.575368  0.262081  0.581275  1
  Mg  Mg19  1  0.262081  0.575368  0.581275  1
  Ir  Ir20  1  0.139789  0.139789  0.141213  1
  Ir  Ir21  1  0.139789  0.139789  0.579208  1
  Ir  Ir22  1  0.146340  0.576279  0.138690  1
  Ir  Ir23  1  0.576279  0.146340  0.138690  1
