# generated using pymatgen
data_Hf5Si2GeN
_symmetry_space_group_name_H-M   'P 1'
_cell_length_a   7.86211500
_cell_length_b   7.85363515
_cell_length_c   5.57200100
_cell_angle_alpha   90.00000000
_cell_angle_beta   90.00000000
_cell_angle_gamma   120.03573644
_symmetry_Int_Tables_number   1
_chemical_formula_structural   Hf5Si2GeN
_chemical_formula_sum   'Hf10 Si4 Ge2 N2'
_cell_volume   297.84850683
_cell_formula_units_Z   2
loop_
 _symmetry_equiv_pos_site_id
 _symmetry_equiv_pos_as_xyz
  1  'x, y, z'
loop_
 _atom_site_type_symbol
 _atom_site_label
 _atom_site_symmetry_multiplicity
 _atom_site_fract_x
 _atom_site_fract_y
 _atom_site_fract_z
 _atom_site_occupancy
  Hf  Hf0  1  0.231457  0.000000  0.250000  1
  Hf  Hf1  1  0.768543  0.000000  0.750000  1
  Hf  Hf2  1  0.002312  0.236772  0.250000  1
  Hf  Hf3  1  0.997688  0.763228  0.750000  1
  Hf  Hf4  1  0.765540  0.763228  0.250000  1
  Hf  Hf5  1  0.234460  0.236772  0.750000  1
  Hf  Hf6  1  0.331224  0.662448  0.000000  1
  Hf  Hf7  1  0.668776  0.337552  0.000000  1
  Hf  Hf8  1  0.668776  0.337552  0.500000  1
  Hf  Hf9  1  0.331224  0.662448  0.500000  1
  Si  Si10  1  0.000678  0.595722  0.250000  1
  Si  Si11  1  0.999322  0.404278  0.750000  1
  Si  Si12  1  0.404955  0.404278  0.250000  1
  Si  Si13  1  0.595045  0.595722  0.750000  1
  Ge  Ge14  1  0.596546  0.000000  0.250000  1
  Ge  Ge15  1  0.403454  0.000000  0.750000  1
  N  N16  1  0.000000  0.000000  0.000000  1
  N  N17  1  0.000000  0.000000  0.500000  1
