# generated using pymatgen
data_NpRhF12
_symmetry_space_group_name_H-M   'P 1'
_cell_length_a   5.47276978
_cell_length_b   9.37654600
_cell_length_c   10.27690135
_cell_angle_alpha   90.00000000
_cell_angle_beta   89.93995291
_cell_angle_gamma   90.00000000
_symmetry_Int_Tables_number   1
_chemical_formula_structural   NpRhF12
_chemical_formula_sum   'Np2 Rh2 F24'
_cell_volume   527.36586711
_cell_formula_units_Z   2
loop_
 _symmetry_equiv_pos_site_id
 _symmetry_equiv_pos_as_xyz
  1  'x, y, z'
loop_
 _atom_site_type_symbol
 _atom_site_label
 _atom_site_symmetry_multiplicity
 _atom_site_fract_x
 _atom_site_fract_y
 _atom_site_fract_z
 _atom_site_occupancy
  Np  Np0  1  0.916686  0.750000  0.630385  1
  Np  Np1  1  0.083314  0.250000  0.369615  1
  Rh  Rh2  1  0.418860  0.250000  0.870381  1
  Rh  Rh3  1  0.581140  0.750000  0.129619  1
  F  F4  1  0.214639  0.750000  0.516828  1
  F  F5  1  0.785361  0.250000  0.483172  1
  F  F6  1  0.695496  0.250000  0.977618  1
  F  F7  1  0.304504  0.750000  0.022382  1
  F  F8  1  0.618068  0.750000  0.743252  1
  F  F9  1  0.381932  0.250000  0.256748  1
  F  F10  1  0.142471  0.250000  0.762314  1
  F  F11  1  0.857529  0.750000  0.237686  1
  F  F12  1  0.765976  0.598804  0.518558  1
  F  F13  1  0.234024  0.401196  0.481442  1
  F  F14  1  0.275220  0.391036  0.974482  1
  F  F15  1  0.234024  0.098804  0.481442  1
  F  F16  1  0.724780  0.608964  0.025518  1
  F  F17  1  0.765976  0.901196  0.518558  1
  F  F18  1  0.724780  0.891036  0.025518  1
  F  F19  1  0.275220  0.108964  0.974482  1
  F  F20  1  0.067480  0.599303  0.741693  1
  F  F21  1  0.932520  0.400697  0.258307  1
  F  F22  1  0.561681  0.391320  0.765784  1
  F  F23  1  0.932520  0.099303  0.258307  1
  F  F24  1  0.438319  0.608680  0.234216  1
  F  F25  1  0.067480  0.900697  0.741693  1
  F  F26  1  0.438319  0.891320  0.234216  1
  F  F27  1  0.561681  0.108680  0.765784  1
