# generated using pymatgen
data_Ho2Zr2IrRh
_symmetry_space_group_name_H-M   'P 1'
_cell_length_a   4.58731100
_cell_length_b   7.07792462
_cell_length_c   8.26539380
_cell_angle_alpha   90.10354703
_cell_angle_beta   90.00000000
_cell_angle_gamma   90.00000000
_symmetry_Int_Tables_number   1
_chemical_formula_structural   Ho2Zr2IrRh
_chemical_formula_sum   'Ho4 Zr4 Ir2 Rh2'
_cell_volume   268.36566944
_cell_formula_units_Z   2
loop_
 _symmetry_equiv_pos_site_id
 _symmetry_equiv_pos_as_xyz
  1  'x, y, z'
loop_
 _atom_site_type_symbol
 _atom_site_label
 _atom_site_symmetry_multiplicity
 _atom_site_fract_x
 _atom_site_fract_y
 _atom_site_fract_z
 _atom_site_occupancy
  Ho  Ho0  1  0.250000  0.514220  0.174942  1
  Ho  Ho1  1  0.750000  0.485780  0.825058  1
  Ho  Ho2  1  0.750000  0.980635  0.677749  1
  Ho  Ho3  1  0.250000  0.019365  0.322251  1
  Zr  Zr4  1  0.250000  0.642909  0.576897  1
  Zr  Zr5  1  0.750000  0.357091  0.423103  1
  Zr  Zr6  1  0.750000  0.856568  0.076257  1
  Zr  Zr7  1  0.250000  0.143432  0.923743  1
  Ir  Ir8  1  0.250000  0.766630  0.907837  1
  Ir  Ir9  1  0.750000  0.233370  0.092163  1
  Rh  Rh10  1  0.750000  0.732264  0.411342  1
  Rh  Rh11  1  0.250000  0.267736  0.588658  1
