# generated using pymatgen
data_K6As4W
_symmetry_space_group_name_H-M   'P 1'
_cell_length_a   10.33318571
_cell_length_b   10.33318573
_cell_length_c   8.26401246
_cell_angle_alpha   90.04206893
_cell_angle_beta   90.04208088
_cell_angle_gamma   119.84130100
_symmetry_Int_Tables_number   1
_chemical_formula_structural   K6As4W
_chemical_formula_sum   'K12 As8 W2'
_cell_volume   765.38841600
_cell_formula_units_Z   2
loop_
 _symmetry_equiv_pos_site_id
 _symmetry_equiv_pos_as_xyz
  1  'x, y, z'
loop_
 _atom_site_type_symbol
 _atom_site_label
 _atom_site_symmetry_multiplicity
 _atom_site_fract_x
 _atom_site_fract_y
 _atom_site_fract_z
 _atom_site_occupancy
  K  K0  1  0.468431  0.531992  0.611217  1
  K  K1  1  0.062991  0.531550  0.610679  1
  K  K2  1  0.531992  0.468431  0.111217  1
  K  K3  1  0.531550  0.062991  0.110679  1
  K  K4  1  0.853689  0.144918  0.787749  1
  K  K5  1  0.294762  0.146924  0.789673  1
  K  K6  1  0.853994  0.708630  0.787698  1
  K  K7  1  0.144918  0.853689  0.287749  1
  K  K8  1  0.708630  0.853994  0.287698  1
  K  K9  1  0.146924  0.294762  0.289673  1
  K  K10  1  0.467045  0.933650  0.607706  1
  K  K11  1  0.933650  0.467045  0.107706  1
  As  As12  1  0.666961  0.333823  0.793201  1
  As  As13  1  0.333823  0.666961  0.293201  1
  As  As14  1  0.204127  0.796133  0.906385  1
  As  As15  1  0.592068  0.795435  0.907004  1
  As  As16  1  0.204758  0.408218  0.906096  1
  As  As17  1  0.796133  0.204127  0.406385  1
  As  As18  1  0.408218  0.204758  0.406096  1
  As  As19  1  0.795435  0.592068  0.407004  1
  W  W20  1  0.666622  0.333276  0.499794  1
  W  W21  1  0.333276  0.666622  0.999794  1
