# generated using pymatgen
data_UTa5(TiTc2)6
_symmetry_space_group_name_H-M   'P 1'
_cell_length_a   4.46804700
_cell_length_b   6.32645100
_cell_length_c   13.42548400
_cell_angle_alpha   90.00000000
_cell_angle_beta   90.00030752
_cell_angle_gamma   90.00000000
_symmetry_Int_Tables_number   1
_chemical_formula_structural   UTa5(TiTc2)6
_chemical_formula_sum   'U1 Ta5 Ti6 Tc12'
_cell_volume   379.49655069
_cell_formula_units_Z   1
loop_
 _symmetry_equiv_pos_site_id
 _symmetry_equiv_pos_as_xyz
  1  'x, y, z'
loop_
 _atom_site_type_symbol
 _atom_site_label
 _atom_site_symmetry_multiplicity
 _atom_site_fract_x
 _atom_site_fract_y
 _atom_site_fract_z
 _atom_site_occupancy
  U  U0  1  0.000000  0.000000  0.000000  1
  Ta  Ta1  1  0.499944  0.499999  0.169481  1
  Ta  Ta2  1  0.999948  0.000000  0.336196  1
  Ta  Ta3  1  0.500000  0.499999  0.500000  1
  Ta  Ta4  1  0.000053  0.000000  0.663804  1
  Ta  Ta5  1  0.500056  0.499999  0.830519  1
  Ti  Ti6  1  0.000000  0.499999  0.000000  1
  Ti  Ti7  1  0.499946  0.000000  0.175479  1
  Ti  Ti8  1  0.999945  0.499999  0.334781  1
  Ti  Ti9  1  0.500000  0.000000  0.500000  1
  Ti  Ti10  1  0.000056  0.499999  0.665219  1
  Ti  Ti11  1  0.500055  0.000000  0.824521  1
  Tc  Tc12  1  0.500000  0.242590  0.000000  1
  Tc  Tc13  1  0.500000  0.757410  0.000000  1
  Tc  Tc14  1  0.999944  0.246792  0.163531  1
  Tc  Tc15  1  0.999944  0.753209  0.163531  1
  Tc  Tc16  1  0.499946  0.250593  0.332638  1
  Tc  Tc17  1  0.499946  0.749406  0.332638  1
  Tc  Tc18  1  0.000000  0.250991  0.500000  1
  Tc  Tc19  1  0.000000  0.749009  0.500000  1
  Tc  Tc20  1  0.500055  0.250593  0.667362  1
  Tc  Tc21  1  0.500055  0.749406  0.667362  1
  Tc  Tc22  1  0.000055  0.246792  0.836470  1
  Tc  Tc23  1  0.000055  0.753209  0.836470  1
