# generated using pymatgen
data_La8YThIr4
_symmetry_space_group_name_H-M   'P 1'
_cell_length_a   6.72299733
_cell_length_b   7.29355566
_cell_length_c   9.08340600
_cell_angle_alpha   96.51493606
_cell_angle_beta   111.71994709
_cell_angle_gamma   90.00000635
_symmetry_Int_Tables_number   1
_chemical_formula_structural   La8YThIr4
_chemical_formula_sum   'La8 Y1 Th1 Ir4'
_cell_volume   410.68133745
_cell_formula_units_Z   1
loop_
 _symmetry_equiv_pos_site_id
 _symmetry_equiv_pos_as_xyz
  1  'x, y, z'
loop_
 _atom_site_type_symbol
 _atom_site_label
 _atom_site_symmetry_multiplicity
 _atom_site_fract_x
 _atom_site_fract_y
 _atom_site_fract_z
 _atom_site_occupancy
  La  La0  1  0.983483  0.920363  0.181046  1
  La  La1  1  0.802436  0.579637  0.818954  1
  La  La2  1  0.016009  0.084071  0.816969  1
  La  La3  1  0.199039  0.415929  0.183031  1
  La  La4  1  0.649198  0.815774  0.434962  1
  La  La5  1  0.214236  0.684226  0.565038  1
  La  La6  1  0.359055  0.184933  0.572764  1
  La  La7  1  0.786291  0.315067  0.427236  1
  Y  Y8  1  0.571183  0.250000  0.000000  1
  Th  Th9  1  0.424977  0.750000  0.000000  1
  Ir  Ir10  1  0.797697  0.580363  0.208864  1
  Ir  Ir11  1  0.588835  0.919637  0.791136  1
  Ir  Ir12  1  0.197004  0.427669  0.786445  1
  Ir  Ir13  1  0.410557  0.072331  0.213555  1
