# generated using pymatgen
data_TbY3TmSn4
_symmetry_space_group_name_H-M   'P 1'
_cell_length_a   8.02261000
_cell_length_b   8.18045500
_cell_length_c   15.47986100
_cell_angle_alpha   90.00000000
_cell_angle_beta   90.00000000
_cell_angle_gamma   90.00000000
_symmetry_Int_Tables_number   1
_chemical_formula_structural   TbY3TmSn4
_chemical_formula_sum   'Tb4 Y12 Tm4 Sn16'
_cell_volume   1015.92160698
_cell_formula_units_Z   4
loop_
 _symmetry_equiv_pos_site_id
 _symmetry_equiv_pos_as_xyz
  1  'x, y, z'
loop_
 _atom_site_type_symbol
 _atom_site_label
 _atom_site_symmetry_multiplicity
 _atom_site_fract_x
 _atom_site_fract_y
 _atom_site_fract_z
 _atom_site_occupancy
  Tb  Tb0  1  0.480145  0.679540  0.097358  1
  Tb  Tb1  1  0.980145  0.820460  0.402642  1
  Tb  Tb2  1  0.519855  0.320460  0.597358  1
  Tb  Tb3  1  0.019855  0.179540  0.902642  1
  Y  Y4  1  0.366882  0.837141  0.877889  1
  Y  Y5  1  0.866882  0.662859  0.622111  1
  Y  Y6  1  0.633118  0.162859  0.377889  1
  Y  Y7  1  0.133118  0.337141  0.122111  1
  Y  Y8  1  0.633119  0.162837  0.122125  1
  Y  Y9  1  0.133119  0.337163  0.377875  1
  Y  Y10  1  0.366881  0.837163  0.622125  1
  Y  Y11  1  0.866881  0.662837  0.877875  1
  Y  Y12  1  0.519917  0.320488  0.902619  1
  Y  Y13  1  0.019917  0.179512  0.597381  1
  Y  Y14  1  0.480083  0.679512  0.402619  1
  Y  Y15  1  0.980083  0.820488  0.097381  1
  Tm  Tm16  1  0.198298  0.502700  0.750017  1
  Tm  Tm17  1  0.698298  0.997300  0.749983  1
  Tm  Tm18  1  0.801702  0.497300  0.250017  1
  Tm  Tm19  1  0.301702  0.002700  0.249983  1
  Sn  Sn20  1  0.293100  0.035836  0.042578  1
  Sn  Sn21  1  0.793100  0.464164  0.457422  1
  Sn  Sn22  1  0.706900  0.964164  0.542578  1
  Sn  Sn23  1  0.206900  0.535836  0.957422  1
  Sn  Sn24  1  0.706898  0.964128  0.957451  1
  Sn  Sn25  1  0.206898  0.535872  0.542549  1
  Sn  Sn26  1  0.293102  0.035872  0.457451  1
  Sn  Sn27  1  0.793102  0.464128  0.042549  1
  Sn  Sn28  1  0.563756  0.618388  0.749981  1
  Sn  Sn29  1  0.063756  0.881612  0.750019  1
  Sn  Sn30  1  0.436244  0.381612  0.249981  1
  Sn  Sn31  1  0.936244  0.118388  0.250019  1
  Sn  Sn32  1  0.328983  0.148381  0.750008  1
  Sn  Sn33  1  0.828983  0.351619  0.749992  1
  Sn  Sn34  1  0.671017  0.851619  0.250008  1
  Sn  Sn35  1  0.171017  0.648381  0.249992  1
