# generated using pymatgen
data_La6Tb5Ho5(CdIr)4
_symmetry_space_group_name_H-M   'P 1'
_cell_length_a   9.84158917
_cell_length_b   9.83370715
_cell_length_c   9.83370661
_cell_angle_alpha   59.94598261
_cell_angle_beta   59.97347701
_cell_angle_gamma   59.97348266
_symmetry_Int_Tables_number   1
_chemical_formula_structural   La6Tb5Ho5(CdIr)4
_chemical_formula_sum   'La6 Tb5 Ho5 Cd4 Ir4'
_cell_volume   672.40832384
_cell_formula_units_Z   1
loop_
 _symmetry_equiv_pos_site_id
 _symmetry_equiv_pos_as_xyz
  1  'x, y, z'
loop_
 _atom_site_type_symbol
 _atom_site_label
 _atom_site_symmetry_multiplicity
 _atom_site_fract_x
 _atom_site_fract_y
 _atom_site_fract_z
 _atom_site_occupancy
  La  La0  1  0.192899  0.807101  0.807101  1
  La  La1  1  0.806735  0.193265  0.193265  1
  La  La2  1  0.806809  0.192959  0.806913  1
  La  La3  1  0.193319  0.806913  0.192959  1
  La  La4  1  0.806809  0.806913  0.192959  1
  La  La5  1  0.193319  0.192959  0.806913  1
  Tb  Tb6  1  0.596422  0.597059  0.597059  1
  Tb  Tb7  1  0.596894  0.597079  0.209132  1
  Tb  Tb8  1  0.596894  0.209132  0.597079  1
  Tb  Tb9  1  0.209460  0.597059  0.597059  1
  Tb  Tb10  1  0.063585  0.436415  0.436415  1
  Ho  Ho11  1  0.436317  0.063683  0.063683  1
  Ho  Ho12  1  0.436827  0.063165  0.436116  1
  Ho  Ho13  1  0.063893  0.436116  0.063165  1
  Ho  Ho14  1  0.436827  0.436116  0.063165  1
  Ho  Ho15  1  0.063893  0.063165  0.436116  1
  Cd  Cd16  1  0.828611  0.828735  0.828735  1
  Cd  Cd17  1  0.828634  0.828917  0.513814  1
  Cd  Cd18  1  0.828634  0.513814  0.828917  1
  Cd  Cd19  1  0.513918  0.828735  0.828735  1
  Ir  Ir20  1  0.390957  0.390888  0.390888  1
  Ir  Ir21  1  0.390537  0.391032  0.827893  1
  Ir  Ir22  1  0.390537  0.827893  0.391032  1
  Ir  Ir23  1  0.827268  0.390888  0.390888  1
