# generated using pymatgen
data_DyLuMnB6
_symmetry_space_group_name_H-M   'P 1'
_cell_length_a   3.51642500
_cell_length_b   9.03820500
_cell_length_c   11.42376500
_cell_angle_alpha   90.00000000
_cell_angle_beta   90.00000000
_cell_angle_gamma   90.00000000
_symmetry_Int_Tables_number   1
_chemical_formula_structural   DyLuMnB6
_chemical_formula_sum   'Dy4 Lu4 Mn4 B24'
_cell_volume   363.07204147
_cell_formula_units_Z   4
loop_
 _symmetry_equiv_pos_site_id
 _symmetry_equiv_pos_as_xyz
  1  'x, y, z'
loop_
 _atom_site_type_symbol
 _atom_site_label
 _atom_site_symmetry_multiplicity
 _atom_site_fract_x
 _atom_site_fract_y
 _atom_site_fract_z
 _atom_site_occupancy
  Dy  Dy0  1  0.000000  0.823799  0.085412  1
  Dy  Dy1  1  0.000000  0.176201  0.914588  1
  Dy  Dy2  1  0.000000  0.323799  0.414588  1
  Dy  Dy3  1  0.000000  0.676201  0.585412  1
  Lu  Lu4  1  0.000000  0.442820  0.131046  1
  Lu  Lu5  1  0.000000  0.557180  0.868954  1
  Lu  Lu6  1  0.000000  0.942820  0.368954  1
  Lu  Lu7  1  0.000000  0.057180  0.631046  1
  Mn  Mn8  1  0.000000  0.139782  0.180620  1
  Mn  Mn9  1  0.000000  0.860218  0.819380  1
  Mn  Mn10  1  0.000000  0.639782  0.319380  1
  Mn  Mn11  1  0.000000  0.360218  0.680620  1
  B  B12  1  0.500000  0.054516  0.068456  1
  B  B13  1  0.500000  0.945484  0.931544  1
  B  B14  1  0.500000  0.554516  0.431544  1
  B  B15  1  0.500000  0.445484  0.568456  1
  B  B16  1  0.500000  0.248513  0.082534  1
  B  B17  1  0.500000  0.751487  0.917466  1
  B  B18  1  0.500000  0.748513  0.417466  1
  B  B19  1  0.500000  0.251487  0.582534  1
  B  B20  1  0.500000  0.291317  0.234415  1
  B  B21  1  0.500000  0.708683  0.765585  1
  B  B22  1  0.500000  0.791317  0.265585  1
  B  B23  1  0.500000  0.208683  0.734415  1
  B  B24  1  0.500000  0.131023  0.314207  1
  B  B25  1  0.500000  0.868977  0.685793  1
  B  B26  1  0.500000  0.631023  0.185793  1
  B  B27  1  0.500000  0.368977  0.814207  1
  B  B28  1  0.500000  0.484502  0.287802  1
  B  B29  1  0.500000  0.515498  0.712198  1
  B  B30  1  0.500000  0.984502  0.212198  1
  B  B31  1  0.500000  0.015498  0.787802  1
  B  B32  1  0.500000  0.100783  0.472273  1
  B  B33  1  0.500000  0.899217  0.527727  1
  B  B34  1  0.500000  0.600783  0.027727  1
  B  B35  1  0.500000  0.399217  0.972273  1
