# generated using pymatgen
data_Ce10Bi6IrRu
_symmetry_space_group_name_H-M   'P 1'
_cell_length_a   6.41592600
_cell_length_b   9.68146007
_cell_length_c   9.67992455
_cell_angle_alpha   120.00525323
_cell_angle_beta   89.99955787
_cell_angle_gamma   90.00088212
_symmetry_Int_Tables_number   1
_chemical_formula_structural   Ce10Bi6IrRu
_chemical_formula_sum   'Ce10 Bi6 Ir1 Ru1'
_cell_volume   520.69069526
_cell_formula_units_Z   1
loop_
 _symmetry_equiv_pos_site_id
 _symmetry_equiv_pos_as_xyz
  1  'x, y, z'
loop_
 _atom_site_type_symbol
 _atom_site_label
 _atom_site_symmetry_multiplicity
 _atom_site_fract_x
 _atom_site_fract_y
 _atom_site_fract_z
 _atom_site_occupancy
  Ce  Ce0  1  0.499995  0.333311  0.666594  1
  Ce  Ce1  1  0.499995  0.666717  0.333406  1
  Ce  Ce2  1  0.999983  0.666707  0.333373  1
  Ce  Ce3  1  0.999983  0.333333  0.666627  1
  Ce  Ce4  1  0.752632  0.242864  0.000000  1
  Ce  Ce5  1  0.752633  0.757081  0.757108  1
  Ce  Ce6  1  0.752633  0.999973  0.242892  1
  Ce  Ce7  1  0.247375  0.757108  0.000000  1
  Ce  Ce8  1  0.247353  0.242917  0.242892  1
  Ce  Ce9  1  0.247353  0.000024  0.757108  1
  Bi  Bi10  1  0.749981  0.607959  0.000000  1
  Bi  Bi11  1  0.749977  0.392059  0.392077  1
  Bi  Bi12  1  0.749977  0.999983  0.607923  1
  Bi  Bi13  1  0.250049  0.392103  0.000000  1
  Bi  Bi14  1  0.250027  0.607959  0.607956  1
  Bi  Bi15  1  0.250027  0.000002  0.392044  1
  Ir  Ir16  1  0.500017  0.999959  0.000000  1
  Ru  Ru17  1  0.000012  0.999940  0.000000  1
