# generated using pymatgen
data_Tm16Al3HgRh4
_symmetry_space_group_name_H-M   'P 1'
_cell_length_a   9.42163248
_cell_length_b   9.42163288
_cell_length_c   9.42163073
_cell_angle_alpha   60.02758089
_cell_angle_beta   60.02757954
_cell_angle_gamma   60.02758960
_symmetry_Int_Tables_number   1
_chemical_formula_structural   Tm16Al3HgRh4
_chemical_formula_sum   'Tm16 Al3 Hg1 Rh4'
_cell_volume   591.74539366
_cell_formula_units_Z   1
loop_
 _symmetry_equiv_pos_site_id
 _symmetry_equiv_pos_as_xyz
  1  'x, y, z'
loop_
 _atom_site_type_symbol
 _atom_site_label
 _atom_site_symmetry_multiplicity
 _atom_site_fract_x
 _atom_site_fract_y
 _atom_site_fract_z
 _atom_site_occupancy
  Tm  Tm0  1  0.063821  0.063821  0.436252  1
  Tm  Tm1  1  0.436350  0.063100  0.436350  1
  Tm  Tm2  1  0.063821  0.436252  0.063821  1
  Tm  Tm3  1  0.057649  0.647707  0.647707  1
  Tm  Tm4  1  0.436350  0.436350  0.063100  1
  Tm  Tm5  1  0.647707  0.057649  0.647707  1
  Tm  Tm6  1  0.192156  0.809440  0.192156  1
  Tm  Tm7  1  0.192156  0.192156  0.809440  1
  Tm  Tm8  1  0.806036  0.806036  0.194302  1
  Tm  Tm9  1  0.436252  0.063821  0.063821  1
  Tm  Tm10  1  0.809440  0.192156  0.192156  1
  Tm  Tm11  1  0.063100  0.436350  0.436350  1
  Tm  Tm12  1  0.806036  0.194302  0.806036  1
  Tm  Tm13  1  0.194302  0.806036  0.806036  1
  Tm  Tm14  1  0.647707  0.647707  0.057649  1
  Tm  Tm15  1  0.647893  0.647893  0.647893  1
  Al  Al16  1  0.738028  0.421769  0.421769  1
  Al  Al17  1  0.421769  0.738028  0.421769  1
  Al  Al18  1  0.421769  0.421769  0.738028  1
  Hg  Hg19  1  0.416669  0.416669  0.416669  1
  Rh  Rh20  1  0.857864  0.857864  0.427631  1
  Rh  Rh21  1  0.857622  0.857622  0.857622  1
  Rh  Rh22  1  0.427631  0.857864  0.857864  1
  Rh  Rh23  1  0.857864  0.427631  0.857864  1
