# generated using pymatgen
data_BaPr3Os6O19
_symmetry_space_group_name_H-M   'P 1'
_cell_length_a   8.05194932
_cell_length_b   8.05195043
_cell_length_c   7.75362600
_cell_angle_alpha   108.72240398
_cell_angle_beta   108.72240665
_cell_angle_gamma   110.20954913
_symmetry_Int_Tables_number   1
_chemical_formula_structural   BaPr3Os6O19
_chemical_formula_sum   'Ba1 Pr3 Os6 O19'
_cell_volume   390.49487404
_cell_formula_units_Z   1
loop_
 _symmetry_equiv_pos_site_id
 _symmetry_equiv_pos_as_xyz
  1  'x, y, z'
loop_
 _atom_site_type_symbol
 _atom_site_label
 _atom_site_symmetry_multiplicity
 _atom_site_fract_x
 _atom_site_fract_y
 _atom_site_fract_z
 _atom_site_occupancy
  Ba  Ba0  1  0.000000  0.000000  0.338457  1
  Pr  Pr1  1  0.983669  0.294838  0.985069  1
  Pr  Pr2  1  0.705162  0.688830  0.690231  1
  Pr  Pr3  1  0.311170  0.016331  0.001401  1
  Os  Os4  1  0.368533  0.502698  0.861350  1
  Os  Os5  1  0.865850  0.365486  0.507030  1
  Os  Os6  1  0.499635  0.134150  0.641180  1
  Os  Os7  1  0.134164  0.631467  0.492816  1
  Os  Os8  1  0.497302  0.865836  0.358651  1
  Os  Os9  1  0.634514  0.500365  0.141545  1
  O  O10  1  0.336332  0.007829  0.324007  1
  O  O11  1  0.329859  0.339832  0.014197  1
  O  O12  1  0.009972  0.670141  0.684337  1
  O  O13  1  0.671497  0.663668  0.987674  1
  O  O14  1  0.992171  0.328503  0.316176  1
  O  O15  1  0.660168  0.990028  0.674365  1
  O  O16  1  0.000000  0.000000  0.962919  1
  O  O17  1  0.369915  0.295413  0.644909  1
  O  O18  1  0.068002  0.341879  0.713272  1
  O  O19  1  0.738443  0.369915  0.686276  1
  O  O20  1  0.368077  0.639263  0.692046  1
  O  O21  1  0.273877  0.931998  0.645269  1
  O  O22  1  0.630085  0.368527  0.316358  1
  O  O23  1  0.271185  0.631923  0.323969  1
  O  O24  1  0.704587  0.074501  0.349495  1
  O  O25  1  0.925499  0.630085  0.274994  1
  O  O26  1  0.658121  0.726123  0.371391  1
  O  O27  1  0.631473  0.261557  0.947832  1
  O  O28  1  0.360737  0.728815  0.052783  1
