# generated using pymatgen
data_Li2Sm7Y(Si6Rh)2
_symmetry_space_group_name_H-M   'P 1'
_cell_length_a   8.24328332
_cell_length_b   8.23494587
_cell_length_c   8.17623702
_cell_angle_alpha   90.00000353
_cell_angle_beta   89.99374653
_cell_angle_gamma   119.96654214
_symmetry_Int_Tables_number   1
_chemical_formula_structural   Li2Sm7Y(Si6Rh)2
_chemical_formula_sum   'Li2 Sm7 Y1 Si12 Rh2'
_cell_volume   480.82982337
_cell_formula_units_Z   1
loop_
 _symmetry_equiv_pos_site_id
 _symmetry_equiv_pos_as_xyz
  1  'x, y, z'
loop_
 _atom_site_type_symbol
 _atom_site_label
 _atom_site_symmetry_multiplicity
 _atom_site_fract_x
 _atom_site_fract_y
 _atom_site_fract_z
 _atom_site_occupancy
  Li  Li0  1  0.333325  0.666663  0.473755  1
  Li  Li1  1  0.666912  0.333456  0.530782  1
  Sm  Sm2  1  0.000074  0.000037  0.252222  1
  Sm  Sm3  1  0.999886  0.999943  0.747713  1
  Sm  Sm4  1  0.505707  0.494266  0.245182  1
  Sm  Sm5  1  0.505707  0.011440  0.245182  1
  Sm  Sm6  1  0.988612  0.494306  0.245335  1
  Sm  Sm7  1  0.493940  0.505810  0.754418  1
  Sm  Sm8  1  0.493940  0.988130  0.754418  1
  Y  Y9  1  0.012136  0.506068  0.756428  1
  Si  Si10  1  0.165534  0.832816  0.507051  1
  Si  Si11  1  0.165534  0.332718  0.507051  1
  Si  Si12  1  0.668480  0.834241  0.506036  1
  Si  Si13  1  0.834180  0.166585  0.494660  1
  Si  Si14  1  0.834180  0.667593  0.494660  1
  Si  Si15  1  0.331232  0.165616  0.494768  1
  Si  Si16  1  0.833112  0.167991  0.993572  1
  Si  Si17  1  0.833112  0.665120  0.993572  1
  Si  Si18  1  0.334440  0.167219  0.993868  1
  Si  Si19  1  0.166828  0.832238  0.003985  1
  Si  Si20  1  0.166828  0.334591  0.003985  1
  Si  Si21  1  0.666022  0.833012  0.004707  1
  Rh  Rh22  1  0.667048  0.333524  0.981692  1
  Rh  Rh23  1  0.333233  0.666617  0.014956  1
