# generated using pymatgen
data_Y3Tm(Nb3Si4)2
_symmetry_space_group_name_H-M   'P 1'
_cell_length_a   7.06614976
_cell_length_b   7.06801627
_cell_length_c   13.03630400
_cell_angle_alpha   90.00000000
_cell_angle_beta   90.00000000
_cell_angle_gamma   89.99525252
_symmetry_Int_Tables_number   1
_chemical_formula_structural   Y3Tm(Nb3Si4)2
_chemical_formula_sum   'Y6 Tm2 Nb12 Si16'
_cell_volume   651.08075141
_cell_formula_units_Z   2
loop_
 _symmetry_equiv_pos_site_id
 _symmetry_equiv_pos_as_xyz
  1  'x, y, z'
loop_
 _atom_site_type_symbol
 _atom_site_label
 _atom_site_symmetry_multiplicity
 _atom_site_fract_x
 _atom_site_fract_y
 _atom_site_fract_z
 _atom_site_occupancy
  Y  Y0  1  0.998183  0.340395  0.217829  1
  Y  Y1  1  0.001817  0.659605  0.717829  1
  Y  Y2  1  0.158599  0.498442  0.467721  1
  Y  Y3  1  0.502013  0.841312  0.032239  1
  Y  Y4  1  0.841401  0.501558  0.967721  1
  Y  Y5  1  0.497987  0.158688  0.532239  1
  Tm  Tm6  1  0.341529  0.999744  0.782168  1
  Tm  Tm7  1  0.658471  0.000256  0.282168  1
  Nb  Nb8  1  0.171730  0.170922  0.999846  1
  Nb  Nb9  1  0.828270  0.829078  0.499846  1
  Nb  Nb10  1  0.329146  0.670988  0.250108  1
  Nb  Nb11  1  0.670854  0.329012  0.750108  1
  Nb  Nb12  1  0.153182  0.992189  0.375834  1
  Nb  Nb13  1  0.846818  0.007811  0.875834  1
  Nb  Nb14  1  0.506437  0.654564  0.626561  1
  Nb  Nb15  1  0.346713  0.492920  0.873683  1
  Nb  Nb16  1  0.493563  0.345436  0.126561  1
  Nb  Nb17  1  0.653287  0.507080  0.373683  1
  Nb  Nb18  1  0.992185  0.153735  0.624127  1
  Nb  Nb19  1  0.007815  0.846265  0.124127  1
  Si  Si20  1  0.294886  0.044643  0.186811  1
  Si  Si21  1  0.705114  0.955357  0.686811  1
  Si  Si22  1  0.455390  0.794302  0.435985  1
  Si  Si23  1  0.207173  0.544929  0.063564  1
  Si  Si24  1  0.544610  0.205698  0.935985  1
  Si  Si25  1  0.792827  0.455071  0.563564  1
  Si  Si26  1  0.046285  0.293174  0.813406  1
  Si  Si27  1  0.953715  0.706826  0.313406  1
  Si  Si28  1  0.368251  0.293785  0.317739  1
  Si  Si29  1  0.631749  0.706215  0.817739  1
  Si  Si30  1  0.204620  0.868121  0.567998  1
  Si  Si31  1  0.133829  0.796464  0.931673  1
  Si  Si32  1  0.795380  0.131879  0.067998  1
  Si  Si33  1  0.866171  0.203536  0.431673  1
  Si  Si34  1  0.295629  0.366661  0.682708  1
  Si  Si35  1  0.704371  0.633339  0.182708  1
