# generated using pymatgen
data_CaTb2Nd4CoI12
_symmetry_space_group_name_H-M   'P 1'
_cell_length_a   9.94709927
_cell_length_b   9.94965478
_cell_length_c   9.86119264
_cell_angle_alpha   107.04413386
_cell_angle_beta   106.70748296
_cell_angle_gamma   106.72811335
_symmetry_Int_Tables_number   1
_chemical_formula_structural   CaTb2Nd4CoI12
_chemical_formula_sum   'Ca1 Tb2 Nd4 Co1 I12'
_cell_volume   816.60012847
_cell_formula_units_Z   1
loop_
 _symmetry_equiv_pos_site_id
 _symmetry_equiv_pos_as_xyz
  1  'x, y, z'
loop_
 _atom_site_type_symbol
 _atom_site_label
 _atom_site_symmetry_multiplicity
 _atom_site_fract_x
 _atom_site_fract_y
 _atom_site_fract_z
 _atom_site_occupancy
  Ca  Ca0  1  0.499605  0.499775  0.500084  1
  Tb  Tb1  1  0.901560  0.704289  0.974963  1
  Tb  Tb2  1  0.704015  0.974633  0.902903  1
  Nd  Nd3  1  0.022961  0.092843  0.287596  1
  Nd  Nd4  1  0.096646  0.302814  0.023771  1
  Nd  Nd5  1  0.303080  0.024318  0.098645  1
  Nd  Nd6  1  0.975581  0.904093  0.711340  1
  Co  Co7  1  0.999324  0.999068  0.999080  1
  I  I8  1  0.156483  0.461441  0.385059  1
  I  I9  1  0.461275  0.382032  0.154762  1
  I  I10  1  0.382344  0.157723  0.464352  1
  I  I11  1  0.844161  0.538818  0.623439  1
  I  I12  1  0.547437  0.625438  0.850361  1
  I  I13  1  0.617774  0.846407  0.544498  1
  I  I14  1  0.678621  0.071294  0.220352  1
  I  I15  1  0.072059  0.223643  0.676547  1
  I  I16  1  0.217022  0.677569  0.070273  1
  I  I17  1  0.324639  0.926647  0.771977  1
  I  I18  1  0.925566  0.770278  0.314007  1
  I  I19  1  0.769847  0.316878  0.925990  1
