# generated using pymatgen
data_MnNb3(BRu2)2
_symmetry_space_group_name_H-M   'P 1'
_cell_length_a   9.32823000
_cell_length_b   9.32823000
_cell_length_c   3.03348800
_cell_angle_alpha   90.00000000
_cell_angle_beta   90.00000000
_cell_angle_gamma   90.00000000
_symmetry_Int_Tables_number   1
_chemical_formula_structural   MnNb3(BRu2)2
_chemical_formula_sum   'Mn2 Nb6 B4 Ru8'
_cell_volume   263.96161242
_cell_formula_units_Z   2
loop_
 _symmetry_equiv_pos_site_id
 _symmetry_equiv_pos_as_xyz
  1  'x, y, z'
loop_
 _atom_site_type_symbol
 _atom_site_label
 _atom_site_symmetry_multiplicity
 _atom_site_fract_x
 _atom_site_fract_y
 _atom_site_fract_z
 _atom_site_occupancy
  Mn  Mn0  1  0.500000  0.000000  0.500000  1
  Mn  Mn1  1  0.000000  0.500000  0.500000  1
  Nb  Nb2  1  0.830893  0.669107  0.000000  1
  Nb  Nb3  1  0.169107  0.330893  0.000000  1
  Nb  Nb4  1  0.330893  0.830893  0.000000  1
  Nb  Nb5  1  0.669107  0.169107  0.000000  1
  Nb  Nb6  1  0.500000  0.500000  0.000000  1
  Nb  Nb7  1  0.000000  0.000000  0.000000  1
  B  B8  1  0.613481  0.886519  0.000000  1
  B  B9  1  0.386519  0.113481  0.000000  1
  B  B10  1  0.113481  0.613481  0.000000  1
  B  B11  1  0.886519  0.386519  0.000000  1
  Ru  Ru12  1  0.571402  0.720685  0.500000  1
  Ru  Ru13  1  0.428598  0.279315  0.500000  1
  Ru  Ru14  1  0.071402  0.779315  0.500000  1
  Ru  Ru15  1  0.928598  0.220685  0.500000  1
  Ru  Ru16  1  0.279315  0.571402  0.500000  1
  Ru  Ru17  1  0.720685  0.428598  0.500000  1
  Ru  Ru18  1  0.220685  0.071402  0.500000  1
  Ru  Ru19  1  0.779315  0.928598  0.500000  1
