# generated using pymatgen
data_Er7Th(Si3Pt)4
_symmetry_space_group_name_H-M   'P 1'
_cell_length_a   8.12083900
_cell_length_b   8.12084023
_cell_length_c   8.14798500
_cell_angle_alpha   90.00000000
_cell_angle_beta   90.00000000
_cell_angle_gamma   119.99999908
_symmetry_Int_Tables_number   1
_chemical_formula_structural   Er7Th(Si3Pt)4
_chemical_formula_sum   'Er7 Th1 Si12 Pt4'
_cell_volume   465.35321957
_cell_formula_units_Z   1
loop_
 _symmetry_equiv_pos_site_id
 _symmetry_equiv_pos_as_xyz
  1  'x, y, z'
loop_
 _atom_site_type_symbol
 _atom_site_label
 _atom_site_symmetry_multiplicity
 _atom_site_fract_x
 _atom_site_fract_y
 _atom_site_fract_z
 _atom_site_occupancy
  Er  Er0  1  0.000000  0.000000  0.750000  1
  Er  Er1  1  0.498312  0.501688  0.250000  1
  Er  Er2  1  0.498312  0.996624  0.250000  1
  Er  Er3  1  0.003376  0.501688  0.250000  1
  Er  Er4  1  0.501762  0.498238  0.750000  1
  Er  Er5  1  0.996476  0.498238  0.750000  1
  Er  Er6  1  0.501762  0.003524  0.750000  1
  Th  Th7  1  0.000000  0.000000  0.250000  1
  Si  Si8  1  0.833986  0.166014  0.501335  1
  Si  Si9  1  0.833986  0.667974  0.501335  1
  Si  Si10  1  0.332026  0.166014  0.501335  1
  Si  Si11  1  0.833986  0.166014  0.998665  1
  Si  Si12  1  0.833986  0.667974  0.998665  1
  Si  Si13  1  0.332026  0.166014  0.998665  1
  Si  Si14  1  0.166081  0.833919  0.995875  1
  Si  Si15  1  0.667839  0.833919  0.995875  1
  Si  Si16  1  0.166081  0.332161  0.995875  1
  Si  Si17  1  0.166081  0.833919  0.504125  1
  Si  Si18  1  0.667839  0.833919  0.504125  1
  Si  Si19  1  0.166081  0.332161  0.504125  1
  Pt  Pt20  1  0.666667  0.333333  0.497149  1
  Pt  Pt21  1  0.666667  0.333333  0.002851  1
  Pt  Pt22  1  0.333333  0.666667  0.995548  1
  Pt  Pt23  1  0.333333  0.666667  0.504452  1
