# generated using pymatgen
data_Dy(YSe2)2
_symmetry_space_group_name_H-M   'P 1'
_cell_length_a   4.07574300
_cell_length_b   7.02222887
_cell_length_c   7.01842446
_cell_angle_alpha   71.64271452
_cell_angle_beta   90.00000000
_cell_angle_gamma   90.00000000
_symmetry_Int_Tables_number   1
_chemical_formula_structural   Dy(YSe2)2
_chemical_formula_sum   'Dy1 Y2 Se4'
_cell_volume   190.65071517
_cell_formula_units_Z   1
loop_
 _symmetry_equiv_pos_site_id
 _symmetry_equiv_pos_as_xyz
  1  'x, y, z'
loop_
 _atom_site_type_symbol
 _atom_site_label
 _atom_site_symmetry_multiplicity
 _atom_site_fract_x
 _atom_site_fract_y
 _atom_site_fract_z
 _atom_site_occupancy
  Dy  Dy0  1  0.000000  0.500000  0.500000  1
  Y  Y1  1  0.000000  0.000000  0.000000  1
  Y  Y2  1  0.500000  0.500000  0.000000  1
  Se  Se3  1  0.500000  0.754017  0.255552  1
  Se  Se4  1  0.000000  0.255339  0.245304  1
  Se  Se5  1  0.500000  0.245983  0.744448  1
  Se  Se6  1  0.000000  0.744661  0.754696  1
