# generated using pymatgen
data_Tm16Cd4OsPd3
_symmetry_space_group_name_H-M   'P 1'
_cell_length_a   9.55247044
_cell_length_b   9.55247059
_cell_length_c   9.55247100
_cell_angle_alpha   59.53938069
_cell_angle_beta   59.53938715
_cell_angle_gamma   59.53938154
_symmetry_Int_Tables_number   1
_chemical_formula_structural   Tm16Cd4OsPd3
_chemical_formula_sum   'Tm16 Cd4 Os1 Pd3'
_cell_volume   609.90152830
_cell_formula_units_Z   1
loop_
 _symmetry_equiv_pos_site_id
 _symmetry_equiv_pos_as_xyz
  1  'x, y, z'
loop_
 _atom_site_type_symbol
 _atom_site_label
 _atom_site_symmetry_multiplicity
 _atom_site_fract_x
 _atom_site_fract_y
 _atom_site_fract_z
 _atom_site_occupancy
  Tm  Tm0  1  0.353548  0.353548  0.353548  1
  Tm  Tm1  1  0.351042  0.351042  0.944904  1
  Tm  Tm2  1  0.351042  0.944904  0.351042  1
  Tm  Tm3  1  0.944904  0.351042  0.351042  1
  Tm  Tm4  1  0.814976  0.188363  0.188363  1
  Tm  Tm5  1  0.187678  0.809981  0.809981  1
  Tm  Tm6  1  0.188363  0.814976  0.188363  1
  Tm  Tm7  1  0.809981  0.187678  0.809981  1
  Tm  Tm8  1  0.188363  0.188363  0.814976  1
  Tm  Tm9  1  0.809981  0.809981  0.187678  1
  Tm  Tm10  1  0.934171  0.566532  0.566532  1
  Tm  Tm11  1  0.558503  0.937024  0.937024  1
  Tm  Tm12  1  0.566532  0.934171  0.566532  1
  Tm  Tm13  1  0.937024  0.558503  0.937024  1
  Tm  Tm14  1  0.566532  0.566532  0.934171  1
  Tm  Tm15  1  0.937024  0.937024  0.558503  1
  Cd  Cd16  1  0.580639  0.580639  0.580639  1
  Cd  Cd17  1  0.581343  0.581343  0.253727  1
  Cd  Cd18  1  0.581343  0.253727  0.581343  1
  Cd  Cd19  1  0.253727  0.581343  0.581343  1
  Os  Os20  1  0.144451  0.144451  0.144451  1
  Pd  Pd21  1  0.144621  0.144621  0.569594  1
  Pd  Pd22  1  0.144621  0.569594  0.144621  1
  Pd  Pd23  1  0.569594  0.144621  0.144621  1
