# generated using pymatgen
data_Nd2Cr3Co9As7
_symmetry_space_group_name_H-M   'P 1'
_cell_length_a   9.46413400
_cell_length_b   9.46413309
_cell_length_c   3.79355900
_cell_angle_alpha   90.00000000
_cell_angle_beta   90.00000000
_cell_angle_gamma   119.99999618
_symmetry_Int_Tables_number   1
_chemical_formula_structural   Nd2Cr3Co9As7
_chemical_formula_sum   'Nd2 Cr3 Co9 As7'
_cell_volume   294.26540734
_cell_formula_units_Z   1
loop_
 _symmetry_equiv_pos_site_id
 _symmetry_equiv_pos_as_xyz
  1  'x, y, z'
loop_
 _atom_site_type_symbol
 _atom_site_label
 _atom_site_symmetry_multiplicity
 _atom_site_fract_x
 _atom_site_fract_y
 _atom_site_fract_z
 _atom_site_occupancy
  Nd  Nd0  1  0.666667  0.333333  0.000000  1
  Nd  Nd1  1  0.333333  0.666667  0.500000  1
  Cr  Cr2  1  0.106758  0.885600  0.500000  1
  Cr  Cr3  1  0.778842  0.893242  0.500000  1
  Cr  Cr4  1  0.114400  0.221158  0.500000  1
  Co  Co5  1  0.058892  0.629722  0.000000  1
  Co  Co6  1  0.570830  0.941108  0.000000  1
  Co  Co7  1  0.370278  0.429170  0.000000  1
  Co  Co8  1  0.278521  0.122651  0.000000  1
  Co  Co9  1  0.844129  0.721479  0.000000  1
  Co  Co10  1  0.877349  0.155871  0.000000  1
  Co  Co11  1  0.432031  0.050797  0.500000  1
  Co  Co12  1  0.618766  0.567969  0.500000  1
  Co  Co13  1  0.949203  0.381234  0.500000  1
  As  As14  1  0.299432  0.889890  0.000000  1
  As  As15  1  0.590458  0.700568  0.000000  1
  As  As16  1  0.110110  0.409542  0.000000  1
  As  As17  1  0.405353  0.292421  0.500000  1
  As  As18  1  0.887068  0.594647  0.500000  1
  As  As19  1  0.707579  0.112932  0.500000  1
  As  As20  1  0.000000  0.000000  0.000000  1
