# generated using pymatgen
data_Tb18Er2Co3Bi8Os
_symmetry_space_group_name_H-M   'P 1'
_cell_length_a   8.04706788
_cell_length_b   8.94520394
_cell_length_c   12.49402444
_cell_angle_alpha   89.95601765
_cell_angle_beta   90.33453429
_cell_angle_gamma   89.90197457
_symmetry_Int_Tables_number   1
_chemical_formula_structural   Tb18Er2Co3Bi8Os
_chemical_formula_sum   'Tb18 Er2 Co3 Bi8 Os1'
_cell_volume   899.33623708
_cell_formula_units_Z   1
loop_
 _symmetry_equiv_pos_site_id
 _symmetry_equiv_pos_as_xyz
  1  'x, y, z'
loop_
 _atom_site_type_symbol
 _atom_site_label
 _atom_site_symmetry_multiplicity
 _atom_site_fract_x
 _atom_site_fract_y
 _atom_site_fract_z
 _atom_site_occupancy
  Tb  Tb0  1  0.847152  0.750220  0.800066  1
  Tb  Tb1  1  0.151820  0.249787  0.198339  1
  Tb  Tb2  1  0.349174  0.249380  0.698326  1
  Tb  Tb3  1  0.653275  0.750435  0.295059  1
  Tb  Tb4  1  0.379059  0.750785  0.694648  1
  Tb  Tb5  1  0.618126  0.249031  0.310125  1
  Tb  Tb6  1  0.881098  0.249821  0.810387  1
  Tb  Tb7  1  0.118333  0.750086  0.187837  1
  Tb  Tb8  1  0.945300  0.750690  0.504194  1
  Tb  Tb9  1  0.050097  0.249443  0.496342  1
  Tb  Tb10  1  0.452832  0.250021  0.997417  1
  Tb  Tb11  1  0.546210  0.750006  0.002296  1
  Tb  Tb12  1  0.176443  0.966387  0.936822  1
  Tb  Tb13  1  0.323754  0.534829  0.436997  1
  Tb  Tb14  1  0.822627  0.035501  0.062913  1
  Tb  Tb15  1  0.677644  0.459023  0.564785  1
  Tb  Tb16  1  0.822597  0.464646  0.062773  1
  Tb  Tb17  1  0.176424  0.533598  0.937020  1
  Er  Er18  1  0.675631  0.041798  0.564420  1
  Er  Er19  1  0.326235  0.964142  0.437399  1
  Co  Co20  1  0.434641  0.249229  0.490670  1
  Co  Co21  1  0.059483  0.249993  0.991857  1
  Co  Co22  1  0.938650  0.749952  0.007331  1
  Bi  Bi23  1  0.572497  0.491380  0.827255  1
  Bi  Bi24  1  0.427015  0.507479  0.173352  1
  Bi  Bi25  1  0.072453  0.507410  0.674426  1
  Bi  Bi26  1  0.426591  0.992378  0.173475  1
  Bi  Bi27  1  0.929592  0.492265  0.325745  1
  Bi  Bi28  1  0.572960  0.008676  0.827207  1
  Bi  Bi29  1  0.930894  0.007779  0.325747  1
  Bi  Bi30  1  0.071394  0.992489  0.674401  1
  Os  Os31  1  0.569997  0.751339  0.510366  1
