# generated using pymatgen
data_GdDyMn2Al2O10
_symmetry_space_group_name_H-M   'P 1'
_cell_length_a   5.66550900
_cell_length_b   7.29727705
_cell_length_c   8.45126106
_cell_angle_alpha   89.98642453
_cell_angle_beta   90.00000000
_cell_angle_gamma   90.00000000
_symmetry_Int_Tables_number   1
_chemical_formula_structural   GdDyMn2Al2O10
_chemical_formula_sum   'Gd2 Dy2 Mn4 Al4 O20'
_cell_volume   349.39869135
_cell_formula_units_Z   2
loop_
 _symmetry_equiv_pos_site_id
 _symmetry_equiv_pos_as_xyz
  1  'x, y, z'
loop_
 _atom_site_type_symbol
 _atom_site_label
 _atom_site_symmetry_multiplicity
 _atom_site_fract_x
 _atom_site_fract_y
 _atom_site_fract_z
 _atom_site_occupancy
  Gd  Gd0  1  0.000000  0.366361  0.668917  1
  Gd  Gd1  1  0.000000  0.633639  0.331083  1
  Dy  Dy2  1  0.000000  0.866964  0.830584  1
  Dy  Dy3  1  0.000000  0.133036  0.169416  1
  Mn  Mn4  1  0.254209  0.500000  0.000000  1
  Mn  Mn5  1  0.745225  0.000000  0.500000  1
  Mn  Mn6  1  0.745791  0.500000  0.000000  1
  Mn  Mn7  1  0.254775  0.000000  0.500000  1
  Al  Al8  1  0.500000  0.106617  0.858563  1
  Al  Al9  1  0.500000  0.893383  0.141437  1
  Al  Al10  1  0.500000  0.608286  0.642063  1
  Al  Al11  1  0.500000  0.391714  0.357937  1
  O  O12  1  0.252505  0.898147  0.290311  1
  O  O13  1  0.252505  0.101853  0.709689  1
  O  O14  1  0.747949  0.393196  0.209609  1
  O  O15  1  0.747949  0.606804  0.790391  1
  O  O16  1  0.747495  0.101853  0.709689  1
  O  O17  1  0.747495  0.898147  0.290311  1
  O  O18  1  0.252051  0.606804  0.790391  1
  O  O19  1  0.252051  0.393196  0.209609  1
  O  O20  1  0.500000  0.341978  0.928064  1
  O  O21  1  0.500000  0.658022  0.071936  1
  O  O22  1  0.500000  0.842031  0.569692  1
  O  O23  1  0.500000  0.157969  0.430308  1
  O  O24  1  0.279784  0.000000  0.000000  1
  O  O25  1  0.717335  0.500000  0.500000  1
  O  O26  1  0.720216  0.000000  0.000000  1
  O  O27  1  0.282665  0.500000  0.500000  1
  O  O28  1  0.000000  0.161083  0.442540  1
  O  O29  1  0.000000  0.838917  0.557460  1
  O  O30  1  0.000000  0.663210  0.054130  1
  O  O31  1  0.000000  0.336790  0.945870  1
