# generated using pymatgen
data_Yb7Pr(Si4Mo3)4
_symmetry_space_group_name_H-M   'P 1'
_cell_length_a   6.75145288
_cell_length_b   6.94321493
_cell_length_c   13.07889350
_cell_angle_alpha   90.02912832
_cell_angle_beta   89.99387984
_cell_angle_gamma   89.97178186
_symmetry_Int_Tables_number   1
_chemical_formula_structural   Yb7Pr(Si4Mo3)4
_chemical_formula_sum   'Yb7 Pr1 Si16 Mo12'
_cell_volume   613.09636606
_cell_formula_units_Z   1
loop_
 _symmetry_equiv_pos_site_id
 _symmetry_equiv_pos_as_xyz
  1  'x, y, z'
loop_
 _atom_site_type_symbol
 _atom_site_label
 _atom_site_symmetry_multiplicity
 _atom_site_fract_x
 _atom_site_fract_y
 _atom_site_fract_z
 _atom_site_occupancy
  Yb  Yb0  1  0.498592  0.334326  0.090432  1
  Yb  Yb1  1  0.998470  0.166087  0.409247  1
  Yb  Yb2  1  0.501285  0.666400  0.590980  1
  Yb  Yb3  1  0.001589  0.833167  0.906435  1
  Yb  Yb4  1  0.502256  0.665597  0.907221  1
  Yb  Yb5  1  0.001176  0.833039  0.591141  1
  Yb  Yb6  1  0.498530  0.335175  0.411425  1
  Pr  Pr7  1  0.001541  0.166849  0.091675  1
  Si  Si8  1  0.658036  0.042763  0.545795  1
  Si  Si9  1  0.158556  0.461340  0.951786  1
  Si  Si10  1  0.347426  0.952326  0.044632  1
  Si  Si11  1  0.842672  0.542617  0.454755  1
  Si  Si12  1  0.342208  0.957527  0.455227  1
  Si  Si13  1  0.840593  0.549323  0.044082  1
  Si  Si14  1  0.656310  0.042005  0.951557  1
  Si  Si15  1  0.157612  0.456547  0.546053  1
  Si  Si16  1  0.535108  0.372611  0.749442  1
  Si  Si17  1  0.035102  0.126834  0.749556  1
  Si  Si18  1  0.465153  0.627887  0.250291  1
  Si  Si19  1  0.963281  0.868413  0.252532  1
  Si  Si20  1  0.800330  0.630182  0.749162  1
  Si  Si21  1  0.301334  0.869357  0.749456  1
  Si  Si22  1  0.201715  0.373166  0.253001  1
  Si  Si23  1  0.693484  0.129988  0.253156  1
  Mo  Mo24  1  0.834943  0.330389  0.627658  1
  Mo  Mo25  1  0.333787  0.168730  0.871882  1
  Mo  Mo26  1  0.164961  0.668515  0.127726  1
  Mo  Mo27  1  0.664435  0.829645  0.373153  1
  Mo  Mo28  1  0.166139  0.669412  0.373018  1
  Mo  Mo29  1  0.666209  0.831331  0.128269  1
  Mo  Mo30  1  0.834381  0.331944  0.871617  1
  Mo  Mo31  1  0.334812  0.168757  0.627838  1
  Mo  Mo32  1  0.661311  0.009407  0.749319  1
  Mo  Mo33  1  0.161525  0.490714  0.749578  1
  Mo  Mo34  1  0.337976  0.989955  0.251101  1
  Mo  Mo35  1  0.837161  0.507671  0.249801  1
