# generated using pymatgen
data_Y3Ti(P3Rh4)2
_symmetry_space_group_name_H-M   'P 1'
_cell_length_a   3.92828000
_cell_length_b   11.19812200
_cell_length_c   12.85711900
_cell_angle_alpha   90.00000000
_cell_angle_beta   90.00000000
_cell_angle_gamma   90.00000000
_symmetry_Int_Tables_number   1
_chemical_formula_structural   Y3Ti(P3Rh4)2
_chemical_formula_sum   'Y6 Ti2 P12 Rh16'
_cell_volume   565.57641941
_cell_formula_units_Z   2
loop_
 _symmetry_equiv_pos_site_id
 _symmetry_equiv_pos_as_xyz
  1  'x, y, z'
loop_
 _atom_site_type_symbol
 _atom_site_label
 _atom_site_symmetry_multiplicity
 _atom_site_fract_x
 _atom_site_fract_y
 _atom_site_fract_z
 _atom_site_occupancy
  Y  Y0  1  0.000000  0.500000  0.520484  1
  Y  Y1  1  0.500000  0.000000  0.479516  1
  Y  Y2  1  0.500000  0.818392  0.201657  1
  Y  Y3  1  0.500000  0.181608  0.201657  1
  Y  Y4  1  0.000000  0.681608  0.798343  1
  Y  Y5  1  0.000000  0.318392  0.798343  1
  Ti  Ti6  1  0.500000  0.500000  0.157589  1
  Ti  Ti7  1  0.000000  0.000000  0.842411  1
  P  P8  1  0.500000  0.500000  0.879211  1
  P  P9  1  0.000000  0.000000  0.120789  1
  P  P10  1  0.500000  0.500000  0.350674  1
  P  P11  1  0.000000  0.000000  0.649326  1
  P  P12  1  0.500000  0.313298  0.616906  1
  P  P13  1  0.500000  0.686702  0.616906  1
  P  P14  1  0.000000  0.186702  0.383094  1
  P  P15  1  0.000000  0.813298  0.383094  1
  P  P16  1  0.500000  0.845483  0.888370  1
  P  P17  1  0.500000  0.154517  0.888370  1
  P  P18  1  0.000000  0.654517  0.111630  1
  P  P19  1  0.000000  0.345483  0.111630  1
  Rh  Rh20  1  0.500000  0.500000  0.700432  1
  Rh  Rh21  1  0.000000  0.000000  0.299568  1
  Rh  Rh22  1  0.000000  0.500000  0.986125  1
  Rh  Rh23  1  0.500000  0.000000  0.013875  1
  Rh  Rh24  1  0.500000  0.331919  0.991319  1
  Rh  Rh25  1  0.500000  0.668081  0.991319  1
  Rh  Rh26  1  0.000000  0.168081  0.008681  1
  Rh  Rh27  1  0.000000  0.831919  0.008681  1
  Rh  Rh28  1  0.500000  0.292570  0.431549  1
  Rh  Rh29  1  0.500000  0.707430  0.431549  1
  Rh  Rh30  1  0.000000  0.207430  0.568451  1
  Rh  Rh31  1  0.000000  0.792570  0.568451  1
  Rh  Rh32  1  0.500000  0.874398  0.708070  1
  Rh  Rh33  1  0.500000  0.125602  0.708070  1
  Rh  Rh34  1  0.000000  0.625602  0.291930  1
  Rh  Rh35  1  0.000000  0.374398  0.291930  1
