# generated using pymatgen
data_LuMn5P3
_symmetry_space_group_name_H-M   'P 1'
_cell_length_a   3.56631100
_cell_length_b   10.69096900
_cell_length_c   12.21635200
_cell_angle_alpha   90.00000000
_cell_angle_beta   90.00000000
_cell_angle_gamma   90.00000000
_symmetry_Int_Tables_number   1
_chemical_formula_structural   LuMn5P3
_chemical_formula_sum   'Lu4 Mn20 P12'
_cell_volume   465.77676616
_cell_formula_units_Z   4
loop_
 _symmetry_equiv_pos_site_id
 _symmetry_equiv_pos_as_xyz
  1  'x, y, z'
loop_
 _atom_site_type_symbol
 _atom_site_label
 _atom_site_symmetry_multiplicity
 _atom_site_fract_x
 _atom_site_fract_y
 _atom_site_fract_z
 _atom_site_occupancy
  Lu  Lu0  1  0.250000  0.585744  0.705927  1
  Lu  Lu1  1  0.750000  0.414256  0.294073  1
  Lu  Lu2  1  0.750000  0.085744  0.794073  1
  Lu  Lu3  1  0.250000  0.914256  0.205927  1
  Mn  Mn4  1  0.250000  0.410080  0.492622  1
  Mn  Mn5  1  0.750000  0.712805  0.319654  1
  Mn  Mn6  1  0.750000  0.787195  0.819654  1
  Mn  Mn7  1  0.250000  0.287195  0.680346  1
  Mn  Mn8  1  0.250000  0.617835  0.193561  1
  Mn  Mn9  1  0.750000  0.382165  0.806439  1
  Mn  Mn10  1  0.750000  0.117835  0.306439  1
  Mn  Mn11  1  0.250000  0.882165  0.693561  1
  Mn  Mn12  1  0.250000  0.034476  0.433995  1
  Mn  Mn13  1  0.750000  0.965524  0.566005  1
  Mn  Mn14  1  0.750000  0.534476  0.066005  1
  Mn  Mn15  1  0.250000  0.465524  0.933995  1
  Mn  Mn16  1  0.750000  0.910080  0.007378  1
  Mn  Mn17  1  0.250000  0.089920  0.992622  1
  Mn  Mn18  1  0.250000  0.717282  0.982910  1
  Mn  Mn19  1  0.750000  0.282718  0.017090  1
  Mn  Mn20  1  0.750000  0.217282  0.517090  1
  Mn  Mn21  1  0.250000  0.782718  0.482910  1
  Mn  Mn22  1  0.250000  0.212805  0.180346  1
  Mn  Mn23  1  0.750000  0.589920  0.507378  1
  P  P24  1  0.250000  0.590433  0.383153  1
  P  P25  1  0.750000  0.409567  0.616847  1
  P  P26  1  0.750000  0.090433  0.116847  1
  P  P27  1  0.250000  0.909567  0.883153  1
  P  P28  1  0.750000  0.762460  0.625573  1
  P  P29  1  0.250000  0.237540  0.374427  1
  P  P30  1  0.250000  0.411030  0.116591  1
  P  P31  1  0.750000  0.588970  0.883409  1
  P  P32  1  0.750000  0.911030  0.383409  1
  P  P33  1  0.250000  0.088970  0.616591  1
  P  P34  1  0.250000  0.262460  0.874427  1
  P  P35  1  0.750000  0.737540  0.125573  1
