# generated using pymatgen
data_Nd16Hg4Ir3Pt
_symmetry_space_group_name_H-M   'P 1'
_cell_length_a   9.92509839
_cell_length_b   9.92509946
_cell_length_c   9.92509793
_cell_angle_alpha   60.26244074
_cell_angle_beta   60.26243549
_cell_angle_gamma   60.26243688
_symmetry_Int_Tables_number   1
_chemical_formula_structural   Nd16Hg4Ir3Pt
_chemical_formula_sum   'Nd16 Hg4 Ir3 Pt1'
_cell_volume   695.44318100
_cell_formula_units_Z   1
loop_
 _symmetry_equiv_pos_site_id
 _symmetry_equiv_pos_as_xyz
  1  'x, y, z'
loop_
 _atom_site_type_symbol
 _atom_site_label
 _atom_site_symmetry_multiplicity
 _atom_site_fract_x
 _atom_site_fract_y
 _atom_site_fract_z
 _atom_site_occupancy
  Nd  Nd0  1  0.598432  0.598432  0.598432  1
  Nd  Nd1  1  0.603119  0.603119  0.196636  1
  Nd  Nd2  1  0.603119  0.196636  0.603119  1
  Nd  Nd3  1  0.196636  0.603119  0.603119  1
  Nd  Nd4  1  0.054943  0.441238  0.441238  1
  Nd  Nd5  1  0.438829  0.058810  0.058810  1
  Nd  Nd6  1  0.441238  0.054943  0.441238  1
  Nd  Nd7  1  0.058810  0.438829  0.058810  1
  Nd  Nd8  1  0.441238  0.441238  0.054943  1
  Nd  Nd9  1  0.058810  0.058810  0.438829  1
  Nd  Nd10  1  0.190498  0.811802  0.811802  1
  Nd  Nd11  1  0.811682  0.188955  0.188955  1
  Nd  Nd12  1  0.811802  0.190498  0.811802  1
  Nd  Nd13  1  0.188955  0.811682  0.188955  1
  Nd  Nd14  1  0.811802  0.811802  0.190498  1
  Nd  Nd15  1  0.188955  0.188955  0.811682  1
  Hg  Hg16  1  0.833935  0.833935  0.833935  1
  Hg  Hg17  1  0.834273  0.834273  0.497513  1
  Hg  Hg18  1  0.834273  0.497513  0.834273  1
  Hg  Hg19  1  0.497513  0.834273  0.834273  1
  Ir  Ir20  1  0.392195  0.392195  0.823845  1
  Ir  Ir21  1  0.392195  0.823845  0.392195  1
  Ir  Ir22  1  0.823845  0.392195  0.392195  1
  Pt  Pt23  1  0.392900  0.392900  0.392900  1
