# generated using pymatgen
data_Dy20SiTc3Bi8
_symmetry_space_group_name_H-M   'P 1'
_cell_length_a   8.01430574
_cell_length_b   9.13913200
_cell_length_c   12.26578593
_cell_angle_alpha   90.00000000
_cell_angle_beta   90.54522967
_cell_angle_gamma   90.00000000
_symmetry_Int_Tables_number   1
_chemical_formula_structural   Dy20SiTc3Bi8
_chemical_formula_sum   'Dy20 Si1 Tc3 Bi8'
_cell_volume   898.35207138
_cell_formula_units_Z   1
loop_
 _symmetry_equiv_pos_site_id
 _symmetry_equiv_pos_as_xyz
  1  'x, y, z'
loop_
 _atom_site_type_symbol
 _atom_site_label
 _atom_site_symmetry_multiplicity
 _atom_site_fract_x
 _atom_site_fract_y
 _atom_site_fract_z
 _atom_site_occupancy
  Dy  Dy0  1  0.824072  0.750000  0.777744  1
  Dy  Dy1  1  0.163021  0.250000  0.213178  1
  Dy  Dy2  1  0.341556  0.250000  0.709463  1
  Dy  Dy3  1  0.650638  0.750000  0.298968  1
  Dy  Dy4  1  0.372740  0.750000  0.700696  1
  Dy  Dy5  1  0.619679  0.250000  0.302969  1
  Dy  Dy6  1  0.878364  0.250000  0.804247  1
  Dy  Dy7  1  0.131302  0.750000  0.198851  1
  Dy  Dy8  1  0.951120  0.750000  0.501364  1
  Dy  Dy9  1  0.052757  0.250000  0.495543  1
  Dy  Dy10  1  0.454167  0.250000  0.999060  1
  Dy  Dy11  1  0.541594  0.750000  0.000428  1
  Dy  Dy12  1  0.676477  0.039493  0.561887  1
  Dy  Dy13  1  0.323547  0.959297  0.440213  1
  Dy  Dy14  1  0.180365  0.963975  0.934426  1
  Dy  Dy15  1  0.323547  0.540703  0.440213  1
  Dy  Dy16  1  0.825690  0.052211  0.062937  1
  Dy  Dy17  1  0.676477  0.460507  0.561887  1
  Dy  Dy18  1  0.825690  0.447789  0.062937  1
  Dy  Dy19  1  0.180365  0.536025  0.934426  1
  Si  Si20  1  0.920848  0.750000  0.009045  1
  Tc  Tc21  1  0.581279  0.750000  0.521758  1
  Tc  Tc22  1  0.419326  0.250000  0.485153  1
  Tc  Tc23  1  0.084791  0.250000  0.987050  1
  Bi  Bi24  1  0.574570  0.489518  0.830994  1
  Bi  Bi25  1  0.427302  0.510702  0.169706  1
  Bi  Bi26  1  0.069025  0.508780  0.673800  1
  Bi  Bi27  1  0.427302  0.989298  0.169706  1
  Bi  Bi28  1  0.929399  0.493889  0.323279  1
  Bi  Bi29  1  0.574570  0.010482  0.830994  1
  Bi  Bi30  1  0.929399  0.006111  0.323279  1
  Bi  Bi31  1  0.069025  0.991220  0.673800  1
