# generated using pymatgen
data_Y10Al3Os
_symmetry_space_group_name_H-M   'P 1'
_cell_length_a   9.57738900
_cell_length_b   9.57738910
_cell_length_c   9.67697000
_cell_angle_alpha   90.00000000
_cell_angle_beta   90.00000000
_cell_angle_gamma   120.00000312
_symmetry_Int_Tables_number   1
_chemical_formula_structural   Y10Al3Os
_chemical_formula_sum   'Y20 Al6 Os2'
_cell_volume   768.71308161
_cell_formula_units_Z   2
loop_
 _symmetry_equiv_pos_site_id
 _symmetry_equiv_pos_as_xyz
  1  'x, y, z'
loop_
 _atom_site_type_symbol
 _atom_site_label
 _atom_site_symmetry_multiplicity
 _atom_site_fract_x
 _atom_site_fract_y
 _atom_site_fract_z
 _atom_site_occupancy
  Y  Y0  1  0.000000  0.000000  0.500000  1
  Y  Y1  1  0.000000  0.000000  0.000000  1
  Y  Y2  1  0.207071  0.792929  0.440158  1
  Y  Y3  1  0.207071  0.414143  0.440158  1
  Y  Y4  1  0.585857  0.792929  0.440158  1
  Y  Y5  1  0.792929  0.207071  0.559842  1
  Y  Y6  1  0.792929  0.585857  0.559842  1
  Y  Y7  1  0.414143  0.207071  0.559842  1
  Y  Y8  1  0.792929  0.207071  0.940158  1
  Y  Y9  1  0.792929  0.585857  0.940158  1
  Y  Y10  1  0.414143  0.207071  0.940158  1
  Y  Y11  1  0.207071  0.792929  0.059842  1
  Y  Y12  1  0.207071  0.414143  0.059842  1
  Y  Y13  1  0.585857  0.792929  0.059842  1
  Y  Y14  1  0.539325  0.460675  0.250000  1
  Y  Y15  1  0.539325  0.078649  0.250000  1
  Y  Y16  1  0.921351  0.460675  0.250000  1
  Y  Y17  1  0.460675  0.539325  0.750000  1
  Y  Y18  1  0.460675  0.921351  0.750000  1
  Y  Y19  1  0.078649  0.539325  0.750000  1
  Al  Al20  1  0.888271  0.111729  0.250000  1
  Al  Al21  1  0.888271  0.776543  0.250000  1
  Al  Al22  1  0.223457  0.111729  0.250000  1
  Al  Al23  1  0.111729  0.888271  0.750000  1
  Al  Al24  1  0.111729  0.223457  0.750000  1
  Al  Al25  1  0.776543  0.888271  0.750000  1
  Os  Os26  1  0.333333  0.666667  0.250000  1
  Os  Os27  1  0.666667  0.333333  0.750000  1
