# generated using pymatgen
data_Zr2V3AgO12
_symmetry_space_group_name_H-M   'P 1'
_cell_length_a   9.57458275
_cell_length_b   9.57458328
_cell_length_c   9.57458332
_cell_angle_alpha   59.66020509
_cell_angle_beta   59.66019911
_cell_angle_gamma   59.66019566
_symmetry_Int_Tables_number   1
_chemical_formula_structural   Zr2V3AgO12
_chemical_formula_sum   'Zr4 V6 Ag2 O24'
_cell_volume   615.85529600
_cell_formula_units_Z   2
loop_
 _symmetry_equiv_pos_site_id
 _symmetry_equiv_pos_as_xyz
  1  'x, y, z'
loop_
 _atom_site_type_symbol
 _atom_site_label
 _atom_site_symmetry_multiplicity
 _atom_site_fract_x
 _atom_site_fract_y
 _atom_site_fract_z
 _atom_site_occupancy
  Zr  Zr0  1  0.858362  0.858362  0.858362  1
  Zr  Zr1  1  0.641638  0.641638  0.641638  1
  Zr  Zr2  1  0.358362  0.358362  0.358362  1
  Zr  Zr3  1  0.141638  0.141638  0.141638  1
  V  V4  1  0.750000  0.039434  0.460566  1
  V  V5  1  0.960566  0.539434  0.250000  1
  V  V6  1  0.039434  0.460566  0.750000  1
  V  V7  1  0.250000  0.960566  0.539434  1
  V  V8  1  0.460566  0.750000  0.039434  1
  V  V9  1  0.539434  0.250000  0.960566  1
  Ag  Ag10  1  0.000000  0.000000  0.000000  1
  Ag  Ag11  1  0.500000  0.500000  0.500000  1
  O  O12  1  0.868291  0.501593  0.700767  1
  O  O13  1  0.269160  0.923459  0.061336  1
  O  O14  1  0.799233  0.998407  0.631709  1
  O  O15  1  0.576541  0.230840  0.438664  1
  O  O16  1  0.131709  0.498407  0.299233  1
  O  O17  1  0.923459  0.061336  0.269160  1
  O  O18  1  0.730840  0.076541  0.938664  1
  O  O19  1  0.769160  0.561336  0.423459  1
  O  O20  1  0.423459  0.769160  0.561336  1
  O  O21  1  0.501593  0.700767  0.868291  1
  O  O22  1  0.076541  0.938664  0.730840  1
  O  O23  1  0.200767  0.001593  0.368291  1
  O  O24  1  0.001593  0.368291  0.200767  1
  O  O25  1  0.368291  0.200767  0.001593  1
  O  O26  1  0.938664  0.730840  0.076541  1
  O  O27  1  0.498407  0.299233  0.131709  1
  O  O28  1  0.230840  0.438664  0.576541  1
  O  O29  1  0.631709  0.799233  0.998407  1
  O  O30  1  0.998407  0.631709  0.799233  1
  O  O31  1  0.438664  0.576541  0.230840  1
  O  O32  1  0.561336  0.423459  0.769160  1
  O  O33  1  0.700767  0.868291  0.501593  1
  O  O34  1  0.299233  0.131709  0.498407  1
  O  O35  1  0.061336  0.269160  0.923459  1
