# generated using pymatgen
data_Sc8CrRe(B12Ru)2
_symmetry_space_group_name_H-M   'P 1'
_cell_length_a   3.46488000
_cell_length_b   8.89038752
_cell_length_c   11.19768455
_cell_angle_alpha   90.05831981
_cell_angle_beta   90.00000000
_cell_angle_gamma   90.00000000
_symmetry_Int_Tables_number   1
_chemical_formula_structural   Sc8CrRe(B12Ru)2
_chemical_formula_sum   'Sc8 Cr1 Re1 B24 Ru2'
_cell_volume   344.93470619
_cell_formula_units_Z   1
loop_
 _symmetry_equiv_pos_site_id
 _symmetry_equiv_pos_as_xyz
  1  'x, y, z'
loop_
 _atom_site_type_symbol
 _atom_site_label
 _atom_site_symmetry_multiplicity
 _atom_site_fract_x
 _atom_site_fract_y
 _atom_site_fract_z
 _atom_site_occupancy
  Sc  Sc0  1  0.000000  0.821308  0.085279  1
  Sc  Sc1  1  0.000000  0.181575  0.912798  1
  Sc  Sc2  1  0.000000  0.318528  0.415027  1
  Sc  Sc3  1  0.000000  0.677470  0.586306  1
  Sc  Sc4  1  0.000000  0.444322  0.128075  1
  Sc  Sc5  1  0.000000  0.555920  0.870021  1
  Sc  Sc6  1  0.000000  0.942864  0.372558  1
  Sc  Sc7  1  0.000000  0.057646  0.628866  1
  Cr  Cr8  1  0.000000  0.361412  0.679204  1
  Re  Re9  1  0.000000  0.138422  0.179973  1
  B  B10  1  0.500000  0.052398  0.064011  1
  B  B11  1  0.500000  0.946617  0.934036  1
  B  B12  1  0.500000  0.552917  0.435502  1
  B  B13  1  0.500000  0.446545  0.565400  1
  B  B14  1  0.500000  0.253360  0.077796  1
  B  B15  1  0.500000  0.747825  0.920520  1
  B  B16  1  0.500000  0.751242  0.422012  1
  B  B17  1  0.500000  0.248343  0.579648  1
  B  B18  1  0.500000  0.295204  0.236937  1
  B  B19  1  0.500000  0.705661  0.763337  1
  B  B20  1  0.500000  0.793355  0.264669  1
  B  B21  1  0.500000  0.206699  0.736088  1
  B  B22  1  0.500000  0.129545  0.318688  1
  B  B23  1  0.500000  0.870162  0.682706  1
  B  B24  1  0.500000  0.630178  0.182510  1
  B  B25  1  0.500000  0.370888  0.816511  1
  B  B26  1  0.500000  0.479806  0.288029  1
  B  B27  1  0.500000  0.520371  0.711801  1
  B  B28  1  0.500000  0.977621  0.212808  1
  B  B29  1  0.500000  0.021019  0.787219  1
  B  B30  1  0.500000  0.099268  0.473518  1
  B  B31  1  0.500000  0.899450  0.528275  1
  B  B32  1  0.500000  0.600554  0.027138  1
  B  B33  1  0.500000  0.401658  0.972005  1
  Ru  Ru34  1  0.000000  0.860723  0.820332  1
  Ru  Ru35  1  0.000000  0.639121  0.320395  1
