# generated using pymatgen
data_Tm8B24Ir3Rh
_symmetry_space_group_name_H-M   'P 1'
_cell_length_a   3.60897700
_cell_length_b   9.11488169
_cell_length_c   11.44986486
_cell_angle_alpha   90.04436382
_cell_angle_beta   90.00000000
_cell_angle_gamma   90.00000000
_symmetry_Int_Tables_number   1
_chemical_formula_structural   Tm8B24Ir3Rh
_chemical_formula_sum   'Tm8 B24 Ir3 Rh1'
_cell_volume   376.64775268
_cell_formula_units_Z   1
loop_
 _symmetry_equiv_pos_site_id
 _symmetry_equiv_pos_as_xyz
  1  'x, y, z'
loop_
 _atom_site_type_symbol
 _atom_site_label
 _atom_site_symmetry_multiplicity
 _atom_site_fract_x
 _atom_site_fract_y
 _atom_site_fract_z
 _atom_site_occupancy
  Tm  Tm0  1  0.500000  0.322760  0.412966  1
  Tm  Tm1  1  0.500000  0.677706  0.585850  1
  Tm  Tm2  1  0.500000  0.178719  0.913388  1
  Tm  Tm3  1  0.500000  0.821187  0.087806  1
  Tm  Tm4  1  0.500000  0.445101  0.126261  1
  Tm  Tm5  1  0.500000  0.555583  0.874871  1
  Tm  Tm6  1  0.500000  0.055574  0.625010  1
  Tm  Tm7  1  0.500000  0.943257  0.374169  1
  B  B8  1  0.000000  0.109759  0.469717  1
  B  B9  1  0.000000  0.889884  0.529904  1
  B  B10  1  0.000000  0.390357  0.970209  1
  B  B11  1  0.000000  0.610051  0.030100  1
  B  B12  1  0.000000  0.132320  0.315944  1
  B  B13  1  0.000000  0.867530  0.683570  1
  B  B14  1  0.000000  0.367538  0.816461  1
  B  B15  1  0.000000  0.633028  0.183801  1
  B  B16  1  0.000000  0.053626  0.065684  1
  B  B17  1  0.000000  0.946575  0.934328  1
  B  B18  1  0.000000  0.446365  0.565506  1
  B  B19  1  0.000000  0.553246  0.434673  1
  B  B20  1  0.000000  0.481632  0.287171  1
  B  B21  1  0.000000  0.518279  0.713291  1
  B  B22  1  0.000000  0.018507  0.786684  1
  B  B23  1  0.000000  0.981544  0.213246  1
  B  B24  1  0.000000  0.250176  0.078905  1
  B  B25  1  0.000000  0.750105  0.921249  1
  B  B26  1  0.000000  0.250421  0.578607  1
  B  B27  1  0.000000  0.749192  0.420943  1
  B  B28  1  0.000000  0.294366  0.235176  1
  B  B29  1  0.000000  0.705923  0.764805  1
  B  B30  1  0.000000  0.205826  0.735054  1
  B  B31  1  0.000000  0.794242  0.264302  1
  Ir  Ir32  1  0.500000  0.138836  0.178252  1
  Ir  Ir33  1  0.500000  0.861618  0.821389  1
  Ir  Ir34  1  0.500000  0.360626  0.679878  1
  Rh  Rh35  1  0.500000  0.638542  0.320829  1
