# generated using pymatgen
data_HoEr3ReB12Ir
_symmetry_space_group_name_H-M   'P 1'
_cell_length_a   3.64863200
_cell_length_b   9.11559477
_cell_length_c   11.50123300
_cell_angle_alpha   90.31954433
_cell_angle_beta   90.00000000
_cell_angle_gamma   90.00000000
_symmetry_Int_Tables_number   1
_chemical_formula_structural   HoEr3ReB12Ir
_chemical_formula_sum   'Ho2 Er6 Re2 B24 Ir2'
_cell_volume   382.51874401
_cell_formula_units_Z   2
loop_
 _symmetry_equiv_pos_site_id
 _symmetry_equiv_pos_as_xyz
  1  'x, y, z'
loop_
 _atom_site_type_symbol
 _atom_site_label
 _atom_site_symmetry_multiplicity
 _atom_site_fract_x
 _atom_site_fract_y
 _atom_site_fract_z
 _atom_site_occupancy
  Ho  Ho0  1  0.000000  0.316838  0.409806  1
  Ho  Ho1  1  0.000000  0.683162  0.590194  1
  Er  Er2  1  0.000000  0.826363  0.082173  1
  Er  Er3  1  0.000000  0.173637  0.917827  1
  Er  Er4  1  0.000000  0.945910  0.372336  1
  Er  Er5  1  0.000000  0.054090  0.627664  1
  Er  Er6  1  0.000000  0.441722  0.125737  1
  Er  Er7  1  0.000000  0.558278  0.874263  1
  Re  Re8  1  0.000000  0.138084  0.179862  1
  Re  Re9  1  0.000000  0.861916  0.820138  1
  B  B10  1  0.500000  0.553961  0.434097  1
  B  B11  1  0.500000  0.446039  0.565903  1
  B  B12  1  0.500000  0.052989  0.067009  1
  B  B13  1  0.500000  0.947011  0.932991  1
  B  B14  1  0.500000  0.749508  0.421352  1
  B  B15  1  0.500000  0.250492  0.578648  1
  B  B16  1  0.500000  0.247935  0.080366  1
  B  B17  1  0.500000  0.752065  0.919634  1
  B  B18  1  0.500000  0.790958  0.265999  1
  B  B19  1  0.500000  0.209042  0.734001  1
  B  B20  1  0.500000  0.292348  0.234277  1
  B  B21  1  0.500000  0.707652  0.765723  1
  B  B22  1  0.500000  0.631591  0.183826  1
  B  B23  1  0.500000  0.368409  0.816174  1
  B  B24  1  0.500000  0.131269  0.314882  1
  B  B25  1  0.500000  0.868731  0.685118  1
  B  B26  1  0.500000  0.982102  0.213087  1
  B  B27  1  0.500000  0.017898  0.786913  1
  B  B28  1  0.500000  0.482097  0.287205  1
  B  B29  1  0.500000  0.517903  0.712795  1
  B  B30  1  0.500000  0.606841  0.029954  1
  B  B31  1  0.500000  0.393159  0.970046  1
  B  B32  1  0.500000  0.107146  0.470892  1
  B  B33  1  0.500000  0.892854  0.529108  1
  Ir  Ir34  1  0.000000  0.636637  0.322184  1
  Ir  Ir35  1  0.000000  0.363363  0.677816  1
