# generated using pymatgen
data_Sr6Hf(CoO4)3
_symmetry_space_group_name_H-M   'P 1'
_cell_length_a   6.67222196
_cell_length_b   6.66428236
_cell_length_c   6.67219080
_cell_angle_alpha   93.11346334
_cell_angle_beta   93.10733487
_cell_angle_gamma   93.11332792
_symmetry_Int_Tables_number   1
_chemical_formula_structural   Sr6Hf(CoO4)3
_chemical_formula_sum   'Sr6 Hf1 Co3 O12'
_cell_volume   295.32116861
_cell_formula_units_Z   1
loop_
 _symmetry_equiv_pos_site_id
 _symmetry_equiv_pos_as_xyz
  1  'x, y, z'
loop_
 _atom_site_type_symbol
 _atom_site_label
 _atom_site_symmetry_multiplicity
 _atom_site_fract_x
 _atom_site_fract_y
 _atom_site_fract_z
 _atom_site_occupancy
  Sr  Sr0  1  0.624256  0.875732  0.251960  1
  Sr  Sr1  1  0.876282  0.249981  0.623711  1
  Sr  Sr2  1  0.248059  0.624276  0.875742  1
  Sr  Sr3  1  0.109764  0.750004  0.390253  1
  Sr  Sr4  1  0.750240  0.389437  0.110654  1
  Sr  Sr5  1  0.389340  0.110553  0.749758  1
  Hf  Hf6  1  0.250025  0.249999  0.249976  1
  Co  Co7  1  0.500530  0.500406  0.499714  1
  Co  Co8  1  0.000282  0.999601  0.999465  1
  Co  Co9  1  0.746762  0.749974  0.753262  1
  O  O10  1  0.530162  0.212064  0.399998  1
  O  O11  1  0.212350  0.399847  0.530279  1
  O  O12  1  0.399974  0.529890  0.211690  1
  O  O13  1  0.042026  0.914443  0.724100  1
  O  O14  1  0.915288  0.723452  0.040816  1
  O  O15  1  0.724203  0.039159  0.912641  1
  O  O16  1  0.459164  0.776547  0.584699  1
  O  O17  1  0.775896  0.585580  0.457976  1
  O  O18  1  0.587360  0.460855  0.775796  1
  O  O19  1  0.969725  0.100159  0.287651  1
  O  O20  1  0.100001  0.287934  0.969835  1
  O  O21  1  0.288310  0.970107  0.100022  1
