# generated using pymatgen
data_Eu3Al2Pd7
_symmetry_space_group_name_H-M   'P 1'
_cell_length_a   9.05786385
_cell_length_b   9.05786331
_cell_length_c   9.05786262
_cell_angle_alpha   36.32400985
_cell_angle_beta   36.32401474
_cell_angle_gamma   36.32401532
_symmetry_Int_Tables_number   1
_chemical_formula_structural   Eu3Al2Pd7
_chemical_formula_sum   'Eu3 Al2 Pd7'
_cell_volume   233.36083250
_cell_formula_units_Z   1
loop_
 _symmetry_equiv_pos_site_id
 _symmetry_equiv_pos_as_xyz
  1  'x, y, z'
loop_
 _atom_site_type_symbol
 _atom_site_label
 _atom_site_symmetry_multiplicity
 _atom_site_fract_x
 _atom_site_fract_y
 _atom_site_fract_z
 _atom_site_occupancy
  Eu  Eu0  1  0.359386  0.359386  0.359386  1
  Eu  Eu1  1  0.500000  0.500000  0.500000  1
  Eu  Eu2  1  0.640614  0.640614  0.640614  1
  Al  Al3  1  0.167347  0.167347  0.167347  1
  Al  Al4  1  0.832653  0.832653  0.832653  1
  Pd  Pd5  1  0.000000  0.000000  0.000000  1
  Pd  Pd6  1  0.577292  0.075761  0.075761  1
  Pd  Pd7  1  0.075761  0.577292  0.075761  1
  Pd  Pd8  1  0.924239  0.924239  0.422708  1
  Pd  Pd9  1  0.075761  0.075761  0.577292  1
  Pd  Pd10  1  0.924239  0.422708  0.924239  1
  Pd  Pd11  1  0.422708  0.924239  0.924239  1
