# generated using pymatgen
data_Tb2Lu4Bi2Ru
_symmetry_space_group_name_H-M   'P 1'
_cell_length_a   8.25039160
_cell_length_b   8.22515075
_cell_length_c   4.18861100
_cell_angle_alpha   90.00000000
_cell_angle_beta   90.00000000
_cell_angle_gamma   119.89885087
_symmetry_Int_Tables_number   1
_chemical_formula_structural   Tb2Lu4Bi2Ru
_chemical_formula_sum   'Tb2 Lu4 Bi2 Ru1'
_cell_volume   246.41142536
_cell_formula_units_Z   1
loop_
 _symmetry_equiv_pos_site_id
 _symmetry_equiv_pos_as_xyz
  1  'x, y, z'
loop_
 _atom_site_type_symbol
 _atom_site_label
 _atom_site_symmetry_multiplicity
 _atom_site_fract_x
 _atom_site_fract_y
 _atom_site_fract_z
 _atom_site_occupancy
  Tb  Tb0  1  0.389150  0.389938  0.500000  1
  Tb  Tb1  1  0.610850  0.000788  0.500000  1
  Lu  Lu2  1  0.231061  0.999255  0.000000  1
  Lu  Lu3  1  0.000000  0.614999  0.500000  1
  Lu  Lu4  1  0.768939  0.768194  0.000000  1
  Lu  Lu5  1  0.000000  0.229294  0.000000  1
  Bi  Bi6  1  0.330343  0.666712  0.000000  1
  Bi  Bi7  1  0.669657  0.336368  0.000000  1
  Ru  Ru8  1  0.000000  0.994454  0.500000  1
