# generated using pymatgen
data_CaY3Tm4(B6Os)4
_symmetry_space_group_name_H-M   'P 1'
_cell_length_a   3.63381000
_cell_length_b   9.12124842
_cell_length_c   11.52135905
_cell_angle_alpha   89.91658438
_cell_angle_beta   90.00000000
_cell_angle_gamma   90.00000000
_symmetry_Int_Tables_number   1
_chemical_formula_structural   CaY3Tm4(B6Os)4
_chemical_formula_sum   'Ca1 Y3 Tm4 B24 Os4'
_cell_volume   381.87370126
_cell_formula_units_Z   1
loop_
 _symmetry_equiv_pos_site_id
 _symmetry_equiv_pos_as_xyz
  1  'x, y, z'
loop_
 _atom_site_type_symbol
 _atom_site_label
 _atom_site_symmetry_multiplicity
 _atom_site_fract_x
 _atom_site_fract_y
 _atom_site_fract_z
 _atom_site_occupancy
  Ca  Ca0  1  0.000000  0.322009  0.413758  1
  Y  Y1  1  0.000000  0.676966  0.585278  1
  Y  Y2  1  0.000000  0.821808  0.086603  1
  Y  Y3  1  0.000000  0.178790  0.914394  1
  Tm  Tm4  1  0.000000  0.944260  0.372149  1
  Tm  Tm5  1  0.000000  0.057382  0.627151  1
  Tm  Tm6  1  0.000000  0.443420  0.128563  1
  Tm  Tm7  1  0.000000  0.555890  0.872584  1
  B  B8  1  0.500000  0.554098  0.432308  1
  B  B9  1  0.500000  0.445849  0.567655  1
  B  B10  1  0.500000  0.053707  0.067148  1
  B  B11  1  0.500000  0.945715  0.932377  1
  B  B12  1  0.500000  0.749006  0.418909  1
  B  B13  1  0.500000  0.251281  0.581261  1
  B  B14  1  0.500000  0.248754  0.081047  1
  B  B15  1  0.500000  0.750774  0.919129  1
  B  B16  1  0.500000  0.791733  0.266284  1
  B  B17  1  0.500000  0.209063  0.733880  1
  B  B18  1  0.500000  0.290831  0.233492  1
  B  B19  1  0.500000  0.708666  0.766447  1
  B  B20  1  0.500000  0.631204  0.185564  1
  B  B21  1  0.500000  0.369024  0.815116  1
  B  B22  1  0.500000  0.130825  0.314384  1
  B  B23  1  0.500000  0.869083  0.684978  1
  B  B24  1  0.500000  0.983099  0.212869  1
  B  B25  1  0.500000  0.017012  0.786556  1
  B  B26  1  0.500000  0.483297  0.286906  1
  B  B27  1  0.500000  0.516809  0.713310  1
  B  B28  1  0.500000  0.605195  0.029008  1
  B  B29  1  0.500000  0.394948  0.971264  1
  B  B30  1  0.500000  0.102675  0.471615  1
  B  B31  1  0.500000  0.896216  0.528594  1
  Os  Os32  1  0.000000  0.639837  0.319946  1
  Os  Os33  1  0.000000  0.361742  0.680801  1
  Os  Os34  1  0.000000  0.137067  0.178188  1
  Os  Os35  1  0.000000  0.861966  0.820482  1
