# generated using pymatgen
data_Nd3Sn2Pd2RhPb
_symmetry_space_group_name_H-M   'P 1'
_cell_length_a   7.67875008
_cell_length_b   7.67875016
_cell_length_c   4.13408800
_cell_angle_alpha   90.00000000
_cell_angle_beta   90.00000000
_cell_angle_gamma   119.69568952
_symmetry_Int_Tables_number   1
_chemical_formula_structural   Nd3Sn2Pd2RhPb
_chemical_formula_sum   'Nd3 Sn2 Pd2 Rh1 Pb1'
_cell_volume   211.74589682
_cell_formula_units_Z   1
loop_
 _symmetry_equiv_pos_site_id
 _symmetry_equiv_pos_as_xyz
  1  'x, y, z'
loop_
 _atom_site_type_symbol
 _atom_site_label
 _atom_site_symmetry_multiplicity
 _atom_site_fract_x
 _atom_site_fract_y
 _atom_site_fract_z
 _atom_site_occupancy
  Nd  Nd0  1  0.002980  0.591313  0.000000  1
  Nd  Nd1  1  0.405704  0.405704  0.000000  1
  Nd  Nd2  1  0.591313  0.002980  0.000000  1
  Sn  Sn3  1  0.001049  0.251076  0.500000  1
  Sn  Sn4  1  0.251076  0.001049  0.500000  1
  Pd  Pd5  1  0.664783  0.324655  0.500000  1
  Pd  Pd6  1  0.324655  0.664783  0.500000  1
  Rh  Rh7  1  0.011875  0.011875  0.000000  1
  Pb  Pb8  1  0.746565  0.746565  0.500000  1
