# generated using pymatgen
data_TbYb(Si2Ni9)2
_symmetry_space_group_name_H-M   'P 1'
_cell_length_a   7.55792154
_cell_length_b   7.55784931
_cell_length_c   7.55792089
_cell_angle_alpha   99.60507688
_cell_angle_beta   99.53823834
_cell_angle_gamma   131.87027323
_symmetry_Int_Tables_number   1
_chemical_formula_structural   TbYb(Si2Ni9)2
_chemical_formula_sum   'Tb1 Yb1 Si4 Ni18'
_cell_volume   293.54079138
_cell_formula_units_Z   1
loop_
 _symmetry_equiv_pos_site_id
 _symmetry_equiv_pos_as_xyz
  1  'x, y, z'
loop_
 _atom_site_type_symbol
 _atom_site_label
 _atom_site_symmetry_multiplicity
 _atom_site_fract_x
 _atom_site_fract_y
 _atom_site_fract_z
 _atom_site_occupancy
  Tb  Tb0  1  0.499928  0.499931  0.000003  1
  Yb  Yb1  1  0.750018  0.250024  0.500006  1
  Si  Si2  1  0.625461  0.874673  0.750759  1
  Si  Si3  1  0.125370  0.374600  0.249230  1
  Si  Si4  1  0.125255  0.876043  0.750787  1
  Si  Si5  1  0.123914  0.874673  0.249212  1
  Ni  Ni6  1  0.249991  0.749987  0.499996  1
  Ni  Ni7  1  0.000010  0.000013  0.000003  1
  Ni  Ni8  1  0.686092  0.013007  0.079205  1
  Ni  Ni9  1  0.686118  0.606883  0.673101  1
  Ni  Ni10  1  0.262557  0.436443  0.579026  1
  Ni  Ni11  1  0.262522  0.683507  0.826109  1
  Ni  Ni12  1  0.933802  0.013007  0.326916  1
  Ni  Ni13  1  0.933781  0.606883  0.920765  1
  Ni  Ni14  1  0.857417  0.436443  0.173886  1
  Ni  Ni15  1  0.857398  0.683507  0.420985  1
  Ni  Ni16  1  0.563580  0.737457  0.420982  1
  Ni  Ni17  1  0.563588  0.142596  0.826151  1
  Ni  Ni18  1  0.987017  0.313906  0.920777  1
  Ni  Ni19  1  0.986999  0.066229  0.673098  1
  Ni  Ni20  1  0.316475  0.737457  0.173877  1
  Ni  Ni21  1  0.316445  0.142596  0.579008  1
  Ni  Ni22  1  0.393129  0.313906  0.326889  1
  Ni  Ni23  1  0.393131  0.066229  0.079230  1
