# generated using pymatgen
data_Dy11Er5Cd4(CoRu)2
_symmetry_space_group_name_H-M   'P 1'
_cell_length_a   9.50851544
_cell_length_b   9.55698528
_cell_length_c   9.56375472
_cell_angle_alpha   59.99209517
_cell_angle_beta   59.75769507
_cell_angle_gamma   59.77300776
_symmetry_Int_Tables_number   1
_chemical_formula_structural   Dy11Er5Cd4(CoRu)2
_chemical_formula_sum   'Dy11 Er5 Cd4 Co2 Ru2'
_cell_volume   612.31066759
_cell_formula_units_Z   1
loop_
 _symmetry_equiv_pos_site_id
 _symmetry_equiv_pos_as_xyz
  1  'x, y, z'
loop_
 _atom_site_type_symbol
 _atom_site_label
 _atom_site_symmetry_multiplicity
 _atom_site_fract_x
 _atom_site_fract_y
 _atom_site_fract_z
 _atom_site_occupancy
  Dy  Dy0  1  0.149010  0.159779  0.537975  1
  Dy  Dy1  1  0.940729  0.935836  0.561650  1
  Dy  Dy2  1  0.311756  0.685531  0.311014  1
  Dy  Dy3  1  0.559689  0.940730  0.940153  1
  Dy  Dy4  1  0.561201  0.936991  0.560461  1
  Dy  Dy5  1  0.693386  0.684219  0.312081  1
  Dy  Dy6  1  0.561198  0.560189  0.936719  1
  Dy  Dy7  1  0.940972  0.561114  0.935804  1
  Dy  Dy8  1  0.313402  0.688295  0.689089  1
  Dy  Dy9  1  0.147817  0.156312  0.155697  1
  Dy  Dy10  1  0.312495  0.311087  0.685818  1
  Er  Er11  1  0.149935  0.537146  0.159186  1
  Er  Er12  1  0.692531  0.311407  0.685230  1
  Er  Er13  1  0.689954  0.311264  0.311966  1
  Er  Er14  1  0.936025  0.563388  0.563887  1
  Er  Er15  1  0.541615  0.154974  0.154540  1
  Cd  Cd16  1  0.919175  0.242542  0.919008  1
  Cd  Cd17  1  0.920859  0.919507  0.919555  1
  Cd  Cd18  1  0.919490  0.918847  0.242220  1
  Cd  Cd19  1  0.241551  0.919363  0.919493  1
  Co  Co20  1  0.920137  0.360002  0.359051  1
  Co  Co21  1  0.359000  0.360937  0.359255  1
  Ru  Ru22  1  0.358989  0.359957  0.920792  1
  Ru  Ru23  1  0.359083  0.920583  0.359358  1
