# generated using pymatgen
data_Tb2HoGa7Cu4
_symmetry_space_group_name_H-M   'P 1'
_cell_length_a   8.01875837
_cell_length_b   8.01875794
_cell_length_c   9.37035400
_cell_angle_alpha   54.47105133
_cell_angle_beta   54.47105257
_cell_angle_gamma   30.63732145
_symmetry_Int_Tables_number   1
_chemical_formula_structural   Tb2HoGa7Cu4
_chemical_formula_sum   'Tb2 Ho1 Ga7 Cu4'
_cell_volume   245.05317294
_cell_formula_units_Z   1
loop_
 _symmetry_equiv_pos_site_id
 _symmetry_equiv_pos_as_xyz
  1  'x, y, z'
loop_
 _atom_site_type_symbol
 _atom_site_label
 _atom_site_symmetry_multiplicity
 _atom_site_fract_x
 _atom_site_fract_y
 _atom_site_fract_z
 _atom_site_occupancy
  Tb  Tb0  1  0.302263  0.302263  0.705683  1
  Tb  Tb1  1  0.697737  0.697737  0.294317  1
  Ho  Ho2  1  0.000000  0.000000  0.000000  1
  Ga  Ga3  1  0.858279  0.858279  0.420808  1
  Ga  Ga4  1  0.141721  0.141721  0.579192  1
  Ga  Ga5  1  0.138774  0.138774  0.132457  1
  Ga  Ga6  1  0.861226  0.861226  0.867543  1
  Ga  Ga7  1  0.000000  0.000000  0.500000  1
  Ga  Ga8  1  0.346105  0.346105  0.275094  1
  Ga  Ga9  1  0.653895  0.653895  0.724906  1
  Cu  Cu10  1  0.495921  0.495921  0.312739  1
  Cu  Cu11  1  0.504079  0.504079  0.687261  1
  Cu  Cu12  1  0.655310  0.655310  0.985578  1
  Cu  Cu13  1  0.344690  0.344690  0.014422  1
