# generated using pymatgen
data_BaSr(U2Se5)2
_symmetry_space_group_name_H-M   'P 1'
_cell_length_a   7.82664200
_cell_length_b   8.73911273
_cell_length_c   12.30108593
_cell_angle_alpha   89.77906691
_cell_angle_beta   90.00000000
_cell_angle_gamma   90.00000000
_symmetry_Int_Tables_number   1
_chemical_formula_structural   BaSr(U2Se5)2
_chemical_formula_sum   'Ba2 Sr2 U8 Se20'
_cell_volume   841.36227343
_cell_formula_units_Z   2
loop_
 _symmetry_equiv_pos_site_id
 _symmetry_equiv_pos_as_xyz
  1  'x, y, z'
loop_
 _atom_site_type_symbol
 _atom_site_label
 _atom_site_symmetry_multiplicity
 _atom_site_fract_x
 _atom_site_fract_y
 _atom_site_fract_z
 _atom_site_occupancy
  Ba  Ba0  1  0.946554  0.508059  0.668368  1
  Ba  Ba1  1  0.446554  0.491941  0.831632  1
  Sr  Sr2  1  0.051738  0.492089  0.328916  1
  Sr  Sr3  1  0.551738  0.507911  0.171084  1
  U  U4  1  0.021894  0.999060  0.317791  1
  U  U5  1  0.521894  0.000940  0.182209  1
  U  U6  1  0.976164  0.000994  0.679587  1
  U  U7  1  0.476164  0.999006  0.820413  1
  U  U8  1  0.070464  0.754061  0.010526  1
  U  U9  1  0.570464  0.245939  0.489474  1
  U  U10  1  0.930085  0.245502  0.995035  1
  U  U11  1  0.430085  0.754498  0.504965  1
  Se  Se12  1  0.664564  0.954238  0.402217  1
  Se  Se13  1  0.164564  0.045762  0.097783  1
  Se  Se14  1  0.336448  0.043283  0.596172  1
  Se  Se15  1  0.836448  0.956717  0.903828  1
  Se  Se16  1  0.454141  0.786925  0.003482  1
  Se  Se17  1  0.954141  0.213075  0.496518  1
  Se  Se18  1  0.547934  0.212322  0.001374  1
  Se  Se19  1  0.047934  0.787678  0.498626  1
  Se  Se20  1  0.836554  0.775661  0.189043  1
  Se  Se21  1  0.336554  0.224339  0.310957  1
  Se  Se22  1  0.160912  0.216699  0.813004  1
  Se  Se23  1  0.660912  0.783301  0.686996  1
  Se  Se24  1  0.310063  0.765766  0.281737  1
  Se  Se25  1  0.810063  0.234234  0.218263  1
  Se  Se26  1  0.687841  0.224890  0.713960  1
  Se  Se27  1  0.187841  0.775110  0.786040  1
  Se  Se28  1  0.180599  0.461033  0.079261  1
  Se  Se29  1  0.680599  0.538967  0.420739  1
  Se  Se30  1  0.824045  0.539862  0.929013  1
  Se  Se31  1  0.324045  0.460138  0.570987  1
