# generated using pymatgen
data_CsRb7S24
_symmetry_space_group_name_H-M   'P 1'
_cell_length_a   12.76009905
_cell_length_b   6.94791311
_cell_length_c   12.83021855
_cell_angle_alpha   73.32962960
_cell_angle_beta   90.52205248
_cell_angle_gamma   90.09714219
_symmetry_Int_Tables_number   1
_chemical_formula_structural   CsRb7S24
_chemical_formula_sum   'Cs1 Rb7 S24'
_cell_volume   1089.62384703
_cell_formula_units_Z   1
loop_
 _symmetry_equiv_pos_site_id
 _symmetry_equiv_pos_as_xyz
  1  'x, y, z'
loop_
 _atom_site_type_symbol
 _atom_site_label
 _atom_site_symmetry_multiplicity
 _atom_site_fract_x
 _atom_site_fract_y
 _atom_site_fract_z
 _atom_site_occupancy
  Cs  Cs0  1  0.101836  0.321368  0.897906  1
  Rb  Rb1  1  0.637089  0.214253  0.990429  1
  Rb  Rb2  1  0.862456  0.218726  0.489294  1
  Rb  Rb3  1  0.364852  0.783628  0.009361  1
  Rb  Rb4  1  0.137536  0.784304  0.506535  1
  Rb  Rb5  1  0.611333  0.696498  0.584960  1
  Rb  Rb6  1  0.886681  0.696267  0.088604  1
  Rb  Rb7  1  0.388074  0.303208  0.414263  1
  S  S8  1  0.375719  0.295701  0.994944  1
  S  S9  1  0.129451  0.293803  0.497038  1
  S  S10  1  0.629674  0.706214  0.003478  1
  S  S11  1  0.870875  0.707281  0.503129  1
  S  S12  1  0.421440  0.455260  0.841775  1
  S  S13  1  0.082875  0.452262  0.342684  1
  S  S14  1  0.584771  0.545806  0.156984  1
  S  S15  1  0.913356  0.544002  0.657463  1
  S  S16  1  0.341978  0.372524  0.722631  1
  S  S17  1  0.163958  0.369881  0.226664  1
  S  S18  1  0.665104  0.629356  0.274767  1
  S  S19  1  0.832524  0.629282  0.773185  1
  S  S20  1  0.398136  0.074039  0.724367  1
  S  S21  1  0.104554  0.070841  0.226739  1
  S  S22  1  0.604844  0.926090  0.275983  1
  S  S23  1  0.895692  0.925471  0.772793  1
  S  S24  1  0.557552  0.080804  0.721539  1
  S  S25  1  0.945601  0.079835  0.228722  1
  S  S26  1  0.445730  0.915663  0.278090  1
  S  S27  1  0.054589  0.905139  0.781130  1
  S  S28  1  0.610964  0.209516  0.566910  1
  S  S29  1  0.883679  0.206429  0.076810  1
  S  S30  1  0.390294  0.789280  0.432229  1
  S  S31  1  0.106781  0.797273  0.938592  1
