# generated using pymatgen
data_Ba2ZrTcCl12
_symmetry_space_group_name_H-M   'P 1'
_cell_length_a   6.83642015
_cell_length_b   6.92244750
_cell_length_c   11.28402400
_cell_angle_alpha   86.80455468
_cell_angle_beta   87.06212418
_cell_angle_gamma   70.52323874
_symmetry_Int_Tables_number   1
_chemical_formula_structural   Ba2ZrTcCl12
_chemical_formula_sum   'Ba2 Zr1 Tc1 Cl12'
_cell_volume   502.37018201
_cell_formula_units_Z   1
loop_
 _symmetry_equiv_pos_site_id
 _symmetry_equiv_pos_as_xyz
  1  'x, y, z'
loop_
 _atom_site_type_symbol
 _atom_site_label
 _atom_site_symmetry_multiplicity
 _atom_site_fract_x
 _atom_site_fract_y
 _atom_site_fract_z
 _atom_site_occupancy
  Ba  Ba0  1  0.009496  0.996608  0.753413  1
  Ba  Ba1  1  0.990504  0.003392  0.246587  1
  Zr  Zr2  1  0.500000  0.000000  0.500000  1
  Tc  Tc3  1  0.000000  0.500000  0.000000  1
  Cl  Cl4  1  0.399986  0.720477  0.602367  1
  Cl  Cl5  1  0.600014  0.279523  0.397633  1
  Cl  Cl6  1  0.271198  0.590001  0.899675  1
  Cl  Cl7  1  0.728802  0.409999  0.100325  1
  Cl  Cl8  1  0.511973  0.137491  0.698770  1
  Cl  Cl9  1  0.488027  0.862509  0.301230  1
  Cl  Cl10  1  0.861678  0.483215  0.812579  1
  Cl  Cl11  1  0.138322  0.516785  0.187421  1
  Cl  Cl12  1  0.805371  0.860039  0.005403  1
  Cl  Cl13  1  0.194629  0.139961  0.994597  1
  Cl  Cl14  1  0.120364  0.202585  0.490000  1
  Cl  Cl15  1  0.879636  0.797415  0.510000  1
