# generated using pymatgen
data_Sr2Bi2Ir3RuO14
_symmetry_space_group_name_H-M   'P 1'
_cell_length_a   7.41003682
_cell_length_b   7.39276467
_cell_length_c   7.35086900
_cell_angle_alpha   60.18728587
_cell_angle_beta   60.26378165
_cell_angle_gamma   60.21223075
_symmetry_Int_Tables_number   1
_chemical_formula_structural   Sr2Bi2Ir3RuO14
_chemical_formula_sum   'Sr2 Bi2 Ir3 Ru1 O14'
_cell_volume   286.16671562
_cell_formula_units_Z   1
loop_
 _symmetry_equiv_pos_site_id
 _symmetry_equiv_pos_as_xyz
  1  'x, y, z'
loop_
 _atom_site_type_symbol
 _atom_site_label
 _atom_site_symmetry_multiplicity
 _atom_site_fract_x
 _atom_site_fract_y
 _atom_site_fract_z
 _atom_site_occupancy
  Sr  Sr0  1  0.125000  0.125000  0.625000  1
  Sr  Sr1  1  0.125000  0.125000  0.125000  1
  Bi  Bi2  1  0.125000  0.625000  0.125000  1
  Bi  Bi3  1  0.625000  0.125000  0.125000  1
  Ir  Ir4  1  0.625000  0.625000  0.125000  1
  Ir  Ir5  1  0.625000  0.125000  0.625000  1
  Ir  Ir6  1  0.625000  0.625000  0.625000  1
  Ru  Ru7  1  0.125000  0.625000  0.625000  1
  O  O8  1  0.261951  0.261491  0.238279  1
  O  O9  1  0.988049  0.988509  0.011721  1
  O  O10  1  0.556494  0.950530  0.539791  1
  O  O11  1  0.302857  0.688582  0.299506  1
  O  O12  1  0.547924  0.548804  0.951636  1
  O  O13  1  0.947143  0.561418  0.540945  1
  O  O14  1  0.556494  0.950530  0.953185  1
  O  O15  1  0.945262  0.943614  0.555562  1
  O  O16  1  0.947143  0.561418  0.950494  1
  O  O17  1  0.693506  0.299470  0.296815  1
  O  O18  1  0.302857  0.688582  0.709055  1
  O  O19  1  0.693506  0.299470  0.710209  1
  O  O20  1  0.304738  0.306386  0.694438  1
  O  O21  1  0.702076  0.701196  0.298364  1
