# generated using pymatgen
data_Lu4Sc2B4Ir9Rh
_symmetry_space_group_name_H-M   'P 1'
_cell_length_a   9.69667120
_cell_length_b   9.69667029
_cell_length_c   3.14453900
_cell_angle_alpha   90.00000000
_cell_angle_beta   90.00000000
_cell_angle_gamma   90.16936435
_symmetry_Int_Tables_number   1
_chemical_formula_structural   Lu4Sc2B4Ir9Rh
_chemical_formula_sum   'Lu4 Sc2 B4 Ir9 Rh1'
_cell_volume   295.66531958
_cell_formula_units_Z   1
loop_
 _symmetry_equiv_pos_site_id
 _symmetry_equiv_pos_as_xyz
  1  'x, y, z'
loop_
 _atom_site_type_symbol
 _atom_site_label
 _atom_site_symmetry_multiplicity
 _atom_site_fract_x
 _atom_site_fract_y
 _atom_site_fract_z
 _atom_site_occupancy
  Lu  Lu0  1  0.824496  0.324496  0.000000  1
  Lu  Lu1  1  0.323227  0.176773  0.000000  1
  Lu  Lu2  1  0.676773  0.823227  0.000000  1
  Lu  Lu3  1  0.175504  0.675504  0.000000  1
  Sc  Sc4  1  0.000000  0.000000  0.000000  1
  Sc  Sc5  1  0.500000  0.500000  0.000000  1
  B  B6  1  0.621296  0.121296  0.000000  1
  B  B7  1  0.121553  0.378447  0.000000  1
  B  B8  1  0.878447  0.621553  0.000000  1
  B  B9  1  0.378704  0.878704  0.000000  1
  Ir  Ir10  1  0.068749  0.225105  0.500000  1
  Ir  Ir11  1  0.224089  0.930079  0.500000  1
  Ir  Ir12  1  0.775911  0.069921  0.500000  1
  Ir  Ir13  1  0.931251  0.774895  0.500000  1
  Ir  Ir14  1  0.430079  0.724089  0.500000  1
  Ir  Ir15  1  0.569921  0.275911  0.500000  1
  Ir  Ir16  1  0.725105  0.568749  0.500000  1
  Ir  Ir17  1  0.274895  0.431251  0.500000  1
  Ir  Ir18  1  0.500000  0.000000  0.500000  1
  Rh  Rh19  1  0.000000  0.500000  0.500000  1
