# generated using pymatgen
data_Tb3Y(Tm2Os)4
_symmetry_space_group_name_H-M   'P 1'
_cell_length_a   6.27655700
_cell_length_b   7.36425637
_cell_length_c   8.94907700
_cell_angle_alpha   90.00000000
_cell_angle_beta   90.00000000
_cell_angle_gamma   89.93083353
_symmetry_Int_Tables_number   1
_chemical_formula_structural   Tb3Y(Tm2Os)4
_chemical_formula_sum   'Tb3 Y1 Tm8 Os4'
_cell_volume   413.64550038
_cell_formula_units_Z   1
loop_
 _symmetry_equiv_pos_site_id
 _symmetry_equiv_pos_as_xyz
  1  'x, y, z'
loop_
 _atom_site_type_symbol
 _atom_site_label
 _atom_site_symmetry_multiplicity
 _atom_site_fract_x
 _atom_site_fract_y
 _atom_site_fract_z
 _atom_site_occupancy
  Tb  Tb0  1  0.871003  0.539086  0.250000  1
  Tb  Tb1  1  0.629152  0.039085  0.250000  1
  Tb  Tb2  1  0.129393  0.460837  0.750000  1
  Y  Y3  1  0.371187  0.961527  0.750000  1
  Tm  Tm4  1  0.334296  0.674880  0.063165  1
  Tm  Tm5  1  0.165996  0.174177  0.436900  1
  Tm  Tm6  1  0.665618  0.325247  0.563054  1
  Tm  Tm7  1  0.833684  0.825471  0.936677  1
  Tm  Tm8  1  0.665618  0.325247  0.936946  1
  Tm  Tm9  1  0.833684  0.825471  0.563323  1
  Tm  Tm10  1  0.334296  0.674880  0.436835  1
  Tm  Tm11  1  0.165996  0.174177  0.063100  1
  Os  Os12  1  0.043310  0.882869  0.250000  1
  Os  Os13  1  0.456545  0.382996  0.250000  1
  Os  Os14  1  0.956166  0.117514  0.750000  1
  Os  Os15  1  0.544052  0.616537  0.750000  1
