# generated using pymatgen
data_Yb6Y2Si13Sn
_symmetry_space_group_name_H-M   'P 1'
_cell_length_a   7.98042320
_cell_length_b   7.84456039
_cell_length_c   8.59742094
_cell_angle_alpha   89.74006314
_cell_angle_beta   90.22786549
_cell_angle_gamma   120.89802065
_symmetry_Int_Tables_number   1
_chemical_formula_structural   Yb6Y2Si13Sn
_chemical_formula_sum   'Yb6 Y2 Si13 Sn1'
_cell_volume   461.83471387
_cell_formula_units_Z   1
loop_
 _symmetry_equiv_pos_site_id
 _symmetry_equiv_pos_as_xyz
  1  'x, y, z'
loop_
 _atom_site_type_symbol
 _atom_site_label
 _atom_site_symmetry_multiplicity
 _atom_site_fract_x
 _atom_site_fract_y
 _atom_site_fract_z
 _atom_site_occupancy
  Yb  Yb0  1  0.750793  0.754208  0.497733  1
  Yb  Yb1  1  0.262747  0.251686  0.508379  1
  Yb  Yb2  1  0.251970  0.748677  0.493327  1
  Yb  Yb3  1  0.739458  0.254774  0.513353  1
  Yb  Yb4  1  0.739796  0.255353  0.986709  1
  Yb  Yb5  1  0.251473  0.747233  0.007256  1
  Y  Y6  1  0.265836  0.255081  0.991809  1
  Y  Y7  1  0.745669  0.747973  0.001668  1
  Si  Si8  1  0.944409  0.637009  0.752360  1
  Si  Si9  1  0.586410  0.421491  0.247715  1
  Si  Si10  1  0.414922  0.584332  0.752376  1
  Si  Si11  1  0.415467  0.589504  0.249425  1
  Si  Si12  1  0.593205  0.419914  0.749944  1
  Si  Si13  1  0.068047  0.943735  0.244165  1
  Si  Si14  1  0.938412  0.063878  0.755423  1
  Si  Si15  1  0.625427  0.943899  0.245502  1
  Si  Si16  1  0.379084  0.060251  0.752660  1
  Si  Si17  1  0.925391  0.591202  0.246897  1
  Si  Si18  1  0.070347  0.415697  0.751373  1
  Si  Si19  1  0.411867  0.073421  0.247980  1
  Si  Si20  1  0.593041  0.931006  0.752019  1
  Sn  Sn21  1  0.026231  0.309672  0.251927  1
