# generated using pymatgen
data_DyUTcB6
_symmetry_space_group_name_H-M   'P 1'
_cell_length_a   3.63460000
_cell_length_b   9.29742400
_cell_length_c   11.41443900
_cell_angle_alpha   90.00000000
_cell_angle_beta   90.00000000
_cell_angle_gamma   90.00000000
_symmetry_Int_Tables_number   1
_chemical_formula_structural   DyUTcB6
_chemical_formula_sum   'Dy4 U4 Tc4 B24'
_cell_volume   385.72148560
_cell_formula_units_Z   4
loop_
 _symmetry_equiv_pos_site_id
 _symmetry_equiv_pos_as_xyz
  1  'x, y, z'
loop_
 _atom_site_type_symbol
 _atom_site_label
 _atom_site_symmetry_multiplicity
 _atom_site_fract_x
 _atom_site_fract_y
 _atom_site_fract_z
 _atom_site_occupancy
  Dy  Dy0  1  0.000000  0.337314  0.407494  1
  Dy  Dy1  1  0.000000  0.662686  0.592506  1
  Dy  Dy2  1  0.000000  0.837314  0.092506  1
  Dy  Dy3  1  0.000000  0.162686  0.907494  1
  U  U4  1  0.000000  0.956730  0.396321  1
  U  U5  1  0.000000  0.043270  0.603679  1
  U  U6  1  0.000000  0.456730  0.103679  1
  U  U7  1  0.000000  0.543270  0.896321  1
  Tc  Tc8  1  0.000000  0.645785  0.318601  1
  Tc  Tc9  1  0.000000  0.354215  0.681399  1
  Tc  Tc10  1  0.000000  0.145785  0.181399  1
  Tc  Tc11  1  0.000000  0.854215  0.818601  1
  B  B12  1  0.500000  0.551965  0.430845  1
  B  B13  1  0.500000  0.448035  0.569155  1
  B  B14  1  0.500000  0.051965  0.069155  1
  B  B15  1  0.500000  0.948035  0.930845  1
  B  B16  1  0.500000  0.742773  0.423220  1
  B  B17  1  0.500000  0.257227  0.576780  1
  B  B18  1  0.500000  0.242773  0.076780  1
  B  B19  1  0.500000  0.757227  0.923220  1
  B  B20  1  0.500000  0.802110  0.275341  1
  B  B21  1  0.500000  0.197890  0.724659  1
  B  B22  1  0.500000  0.302110  0.224659  1
  B  B23  1  0.500000  0.697890  0.775341  1
  B  B24  1  0.500000  0.644334  0.188838  1
  B  B25  1  0.500000  0.355666  0.811162  1
  B  B26  1  0.500000  0.144334  0.311162  1
  B  B27  1  0.500000  0.855666  0.688838  1
  B  B28  1  0.500000  0.989309  0.219598  1
  B  B29  1  0.500000  0.010691  0.780402  1
  B  B30  1  0.500000  0.489309  0.280402  1
  B  B31  1  0.500000  0.510691  0.719598  1
  B  B32  1  0.500000  0.640630  0.039118  1
  B  B33  1  0.500000  0.359370  0.960882  1
  B  B34  1  0.500000  0.140630  0.460882  1
  B  B35  1  0.500000  0.859370  0.539118  1
