# generated using pymatgen
data_Ba2SrCaTa4O14
_symmetry_space_group_name_H-M   'P 1'
_cell_length_a   4.02356965
_cell_length_b   7.86504733
_cell_length_c   11.11373971
_cell_angle_alpha   110.72257619
_cell_angle_beta   100.42905158
_cell_angle_gamma   89.99999901
_symmetry_Int_Tables_number   1
_chemical_formula_structural   Ba2SrCaTa4O14
_chemical_formula_sum   'Ba2 Sr1 Ca1 Ta4 O14'
_cell_volume   322.72766329
_cell_formula_units_Z   1
loop_
 _symmetry_equiv_pos_site_id
 _symmetry_equiv_pos_as_xyz
  1  'x, y, z'
loop_
 _atom_site_type_symbol
 _atom_site_label
 _atom_site_symmetry_multiplicity
 _atom_site_fract_x
 _atom_site_fract_y
 _atom_site_fract_z
 _atom_site_occupancy
  Ba  Ba0  1  0.739625  0.239623  0.479247  1
  Ba  Ba1  1  0.260376  0.760377  0.520753  1
  Sr  Sr2  1  0.500001  0.500001  0.000000  1
  Ca  Ca3  1  0.500001  0.000000  0.000000  1
  Ta  Ta4  1  0.100862  0.347345  0.201724  1
  Ta  Ta5  1  0.100862  0.854379  0.201724  1
  Ta  Ta6  1  0.899140  0.145621  0.798277  1
  Ta  Ta7  1  0.899140  0.652656  0.798277  1
  O  O8  1  0.000000  0.297670  0.000000  1
  O  O9  1  0.000000  0.702330  0.000000  1
  O  O10  1  0.073008  0.073008  0.146015  1
  O  O11  1  0.589801  0.330118  0.179599  1
  O  O12  1  0.589801  0.849481  0.179599  1
  O  O13  1  0.113471  0.613472  0.226943  1
  O  O14  1  0.191314  0.390126  0.382627  1
  O  O15  1  0.191314  0.992501  0.382627  1
  O  O16  1  0.808688  0.007498  0.617373  1
  O  O17  1  0.808688  0.609875  0.617373  1
  O  O18  1  0.886530  0.386529  0.773056  1
  O  O19  1  0.410200  0.150518  0.820400  1
  O  O20  1  0.410200  0.669882  0.820400  1
  O  O21  1  0.926993  0.926992  0.853984  1
