# generated using pymatgen
data_Ca(HfS2)8
_symmetry_space_group_name_H-M   'P 1'
_cell_length_a   7.23905100
_cell_length_b   7.23905019
_cell_length_c   13.58254500
_cell_angle_alpha   90.00000000
_cell_angle_beta   90.00000000
_cell_angle_gamma   119.99998998
_symmetry_Int_Tables_number   1
_chemical_formula_structural   Ca(HfS2)8
_chemical_formula_sum   'Ca1 Hf8 S16'
_cell_volume   616.41763136
_cell_formula_units_Z   1
loop_
 _symmetry_equiv_pos_site_id
 _symmetry_equiv_pos_as_xyz
  1  'x, y, z'
loop_
 _atom_site_type_symbol
 _atom_site_label
 _atom_site_symmetry_multiplicity
 _atom_site_fract_x
 _atom_site_fract_y
 _atom_site_fract_z
 _atom_site_occupancy
  Ca  Ca0  1  0.000000  0.000000  0.000000  1
  Hf  Hf1  1  0.501671  0.498329  0.744334  1
  Hf  Hf2  1  0.498329  0.501671  0.255666  1
  Hf  Hf3  1  0.501671  0.003341  0.744334  1
  Hf  Hf4  1  0.498329  0.996659  0.255666  1
  Hf  Hf5  1  0.996659  0.498329  0.744334  1
  Hf  Hf6  1  0.003341  0.501671  0.255666  1
  Hf  Hf7  1  0.000000  0.000000  0.735132  1
  Hf  Hf8  1  0.000000  0.000000  0.264868  1
  S  S9  1  0.835897  0.671795  0.145946  1
  S  S10  1  0.831503  0.663007  0.634855  1
  S  S11  1  0.835897  0.164103  0.145946  1
  S  S12  1  0.831503  0.168497  0.634855  1
  S  S13  1  0.333333  0.666667  0.146229  1
  S  S14  1  0.333333  0.666667  0.640283  1
  S  S15  1  0.328205  0.164103  0.145946  1
  S  S16  1  0.336993  0.168497  0.634855  1
  S  S17  1  0.671795  0.835897  0.854054  1
  S  S18  1  0.663007  0.831503  0.365145  1
  S  S19  1  0.666667  0.333333  0.853771  1
  S  S20  1  0.666667  0.333333  0.359717  1
  S  S21  1  0.164103  0.835897  0.854054  1
  S  S22  1  0.168497  0.831503  0.365145  1
  S  S23  1  0.164103  0.328205  0.854054  1
  S  S24  1  0.168497  0.336993  0.365145  1
