# generated using pymatgen
data_Sc2TaGeC2
_symmetry_space_group_name_H-M   'P 1'
_cell_length_a   3.19443600
_cell_length_b   3.19443847
_cell_length_c   19.56686100
_cell_angle_alpha   90.00000000
_cell_angle_beta   90.00000000
_cell_angle_gamma   119.99999515
_symmetry_Int_Tables_number   1
_chemical_formula_structural   Sc2TaGeC2
_chemical_formula_sum   'Sc4 Ta2 Ge2 C4'
_cell_volume   172.91813049
_cell_formula_units_Z   2
loop_
 _symmetry_equiv_pos_site_id
 _symmetry_equiv_pos_as_xyz
  1  'x, y, z'
loop_
 _atom_site_type_symbol
 _atom_site_label
 _atom_site_symmetry_multiplicity
 _atom_site_fract_x
 _atom_site_fract_y
 _atom_site_fract_z
 _atom_site_occupancy
  Sc  Sc0  1  0.333333  0.666667  0.131022  1
  Sc  Sc1  1  0.333333  0.666667  0.368978  1
  Sc  Sc2  1  0.666667  0.333333  0.631022  1
  Sc  Sc3  1  0.666667  0.333333  0.868978  1
  Ta  Ta4  1  0.000000  0.000000  0.000000  1
  Ta  Ta5  1  0.000000  0.000000  0.500000  1
  Ge  Ge6  1  0.000000  0.000000  0.250000  1
  Ge  Ge7  1  0.000000  0.000000  0.750000  1
  C  C8  1  0.333333  0.666667  0.933818  1
  C  C9  1  0.666667  0.333333  0.066182  1
  C  C10  1  0.666667  0.333333  0.433818  1
  C  C11  1  0.333333  0.666667  0.566182  1
