# generated using pymatgen
data_Ce5Nb3(Co4P3)4
_symmetry_space_group_name_H-M   'P 1'
_cell_length_a   12.24457500
_cell_length_b   12.24457611
_cell_length_c   3.76135600
_cell_angle_alpha   90.00000000
_cell_angle_beta   90.00000000
_cell_angle_gamma   119.99999971
_symmetry_Int_Tables_number   1
_chemical_formula_structural   Ce5Nb3(Co4P3)4
_chemical_formula_sum   'Ce5 Nb3 Co16 P12'
_cell_volume   488.38525505
_cell_formula_units_Z   1
loop_
 _symmetry_equiv_pos_site_id
 _symmetry_equiv_pos_as_xyz
  1  'x, y, z'
loop_
 _atom_site_type_symbol
 _atom_site_label
 _atom_site_symmetry_multiplicity
 _atom_site_fract_x
 _atom_site_fract_y
 _atom_site_fract_z
 _atom_site_occupancy
  Ce  Ce0  1  0.815641  0.000000  0.500000  1
  Ce  Ce1  1  0.000000  0.815641  0.500000  1
  Ce  Ce2  1  0.184359  0.184359  0.500000  1
  Ce  Ce3  1  0.333333  0.666667  0.000000  1
  Ce  Ce4  1  0.666667  0.333333  0.000000  1
  Nb  Nb5  1  0.440138  0.000000  0.000000  1
  Nb  Nb6  1  0.000000  0.440138  0.000000  1
  Nb  Nb7  1  0.559862  0.559862  0.000000  1
  Co  Co8  1  0.278524  0.000000  0.500000  1
  Co  Co9  1  0.000000  0.278524  0.500000  1
  Co  Co10  1  0.721476  0.721476  0.500000  1
  Co  Co11  1  0.624803  0.805583  0.000000  1
  Co  Co12  1  0.194417  0.819220  0.000000  1
  Co  Co13  1  0.180780  0.375197  0.000000  1
  Co  Co14  1  0.375197  0.180780  0.000000  1
  Co  Co15  1  0.805583  0.624803  0.000000  1
  Co  Co16  1  0.819220  0.194417  0.000000  1
  Co  Co17  1  0.516156  0.874552  0.500000  1
  Co  Co18  1  0.125448  0.641605  0.500000  1
  Co  Co19  1  0.358395  0.483844  0.500000  1
  Co  Co20  1  0.483844  0.358395  0.500000  1
  Co  Co21  1  0.874552  0.516156  0.500000  1
  Co  Co22  1  0.641605  0.125448  0.500000  1
  Co  Co23  1  0.000000  0.000000  0.000000  1
  P  P24  1  0.182227  0.000000  0.000000  1
  P  P25  1  0.000000  0.182227  0.000000  1
  P  P26  1  0.817773  0.817773  0.000000  1
  P  P27  1  0.524802  0.692247  0.500000  1
  P  P28  1  0.307753  0.832555  0.500000  1
  P  P29  1  0.167445  0.475198  0.500000  1
  P  P30  1  0.475198  0.167445  0.500000  1
  P  P31  1  0.692247  0.524802  0.500000  1
  P  P32  1  0.832555  0.307753  0.500000  1
  P  P33  1  0.638139  0.000000  0.000000  1
  P  P34  1  0.000000  0.638139  0.000000  1
  P  P35  1  0.361861  0.361861  0.000000  1
