# generated using pymatgen
data_ErPa5(Si3Pt2)4
_symmetry_space_group_name_H-M   'P 1'
_cell_length_a   4.23672800
_cell_length_b   8.54136780
_cell_length_c   12.90644600
_cell_angle_alpha   80.24909747
_cell_angle_beta   90.00000000
_cell_angle_gamma   90.00000000
_symmetry_Int_Tables_number   1
_chemical_formula_structural   ErPa5(Si3Pt2)4
_chemical_formula_sum   'Er1 Pa5 Si12 Pt8'
_cell_volume   460.30408776
_cell_formula_units_Z   1
loop_
 _symmetry_equiv_pos_site_id
 _symmetry_equiv_pos_as_xyz
  1  'x, y, z'
loop_
 _atom_site_type_symbol
 _atom_site_label
 _atom_site_symmetry_multiplicity
 _atom_site_fract_x
 _atom_site_fract_y
 _atom_site_fract_z
 _atom_site_occupancy
  Er  Er0  1  0.250000  0.765931  0.436833  1
  Pa  Pa1  1  0.250000  0.582752  0.189985  1
  Pa  Pa2  1  0.750000  0.233637  0.561875  1
  Pa  Pa3  1  0.750000  0.418320  0.810753  1
  Pa  Pa4  1  0.750000  0.926884  0.811138  1
  Pa  Pa5  1  0.250000  0.072071  0.190124  1
  Si  Si6  1  0.750000  0.589935  0.567558  1
  Si  Si7  1  0.750000  0.125406  0.004445  1
  Si  Si8  1  0.750000  0.876530  0.566289  1
  Si  Si9  1  0.250000  0.693720  0.720309  1
  Si  Si10  1  0.750000  0.306373  0.278551  1
  Si  Si11  1  0.750000  0.806229  0.275411  1
  Si  Si12  1  0.250000  0.874213  0.997079  1
  Si  Si13  1  0.250000  0.192448  0.727221  1
  Si  Si14  1  0.250000  0.376749  0.002059  1
  Si  Si15  1  0.250000  0.122187  0.430332  1
  Si  Si16  1  0.750000  0.624020  0.997994  1
  Si  Si17  1  0.250000  0.412831  0.430094  1
  Pt  Pt18  1  0.750000  0.354646  0.092113  1
  Pt  Pt19  1  0.250000  0.967335  0.625930  1
  Pt  Pt20  1  0.750000  0.849705  0.087791  1
  Pt  Pt21  1  0.750000  0.031853  0.374266  1
  Pt  Pt22  1  0.250000  0.646704  0.907434  1
  Pt  Pt23  1  0.250000  0.149641  0.914042  1
  Pt  Pt24  1  0.750000  0.531496  0.375426  1
  Pt  Pt25  1  0.250000  0.468385  0.624949  1
