# generated using pymatgen
data_Mg4Si2Pd9Pt
_symmetry_space_group_name_H-M   'P 1'
_cell_length_a   4.08951700
_cell_length_b   5.52751926
_cell_length_c   10.68358912
_cell_angle_alpha   89.82747836
_cell_angle_beta   90.00000000
_cell_angle_gamma   90.00000000
_symmetry_Int_Tables_number   1
_chemical_formula_structural   Mg4Si2Pd9Pt
_chemical_formula_sum   'Mg4 Si2 Pd9 Pt1'
_cell_volume   241.50019769
_cell_formula_units_Z   1
loop_
 _symmetry_equiv_pos_site_id
 _symmetry_equiv_pos_as_xyz
  1  'x, y, z'
loop_
 _atom_site_type_symbol
 _atom_site_label
 _atom_site_symmetry_multiplicity
 _atom_site_fract_x
 _atom_site_fract_y
 _atom_site_fract_z
 _atom_site_occupancy
  Mg  Mg0  1  0.500000  0.158622  0.144285  1
  Mg  Mg1  1  0.500000  0.840968  0.856560  1
  Mg  Mg2  1  0.500000  0.340779  0.643652  1
  Mg  Mg3  1  0.500000  0.659117  0.356044  1
  Si  Si4  1  0.000000  0.003546  0.498911  1
  Si  Si5  1  0.000000  0.499086  0.000384  1
  Pd  Pd6  1  0.500000  0.821378  0.601677  1
  Pd  Pd7  1  0.500000  0.322915  0.899891  1
  Pd  Pd8  1  0.500000  0.675989  0.099914  1
  Pd  Pd9  1  0.000000  0.417193  0.232198  1
  Pd  Pd10  1  0.000000  0.581861  0.768666  1
  Pd  Pd11  1  0.000000  0.081642  0.731359  1
  Pd  Pd12  1  0.000000  0.915999  0.266232  1
  Pd  Pd13  1  0.000000  0.000775  0.999355  1
  Pd  Pd14  1  0.000000  0.505185  0.500230  1
  Pt  Pt15  1  0.500000  0.174945  0.400641  1
