# generated using pymatgen
data_NaAc2SbO6
_symmetry_space_group_name_H-M   'P 1'
_cell_length_a   5.99333200
_cell_length_b   5.75101647
_cell_length_c   10.11714200
_cell_angle_alpha   54.97536206
_cell_angle_beta   90.00000000
_cell_angle_gamma   90.00000000
_symmetry_Int_Tables_number   1
_chemical_formula_structural   NaAc2SbO6
_chemical_formula_sum   'Na2 Ac4 Sb2 O12'
_cell_volume   285.56467757
_cell_formula_units_Z   2
loop_
 _symmetry_equiv_pos_site_id
 _symmetry_equiv_pos_as_xyz
  1  'x, y, z'
loop_
 _atom_site_type_symbol
 _atom_site_label
 _atom_site_symmetry_multiplicity
 _atom_site_fract_x
 _atom_site_fract_y
 _atom_site_fract_z
 _atom_site_occupancy
  Na  Na0  1  0.000000  0.500000  0.500000  1
  Na  Na1  1  0.500000  0.500000  0.000000  1
  Ac  Ac2  1  0.448991  0.237504  0.748819  1
  Ac  Ac3  1  0.551009  0.762496  0.251181  1
  Ac  Ac4  1  0.948991  0.762496  0.751181  1
  Ac  Ac5  1  0.051009  0.237504  0.248819  1
  Sb  Sb6  1  0.000000  0.000000  0.000000  1
  Sb  Sb7  1  0.500000  0.000000  0.500000  1
  O  O8  1  0.725352  0.870150  0.945235  1
  O  O9  1  0.274648  0.129850  0.054765  1
  O  O10  1  0.225352  0.129850  0.554765  1
  O  O11  1  0.774648  0.870150  0.445235  1
  O  O12  1  0.032719  0.325062  0.767614  1
  O  O13  1  0.967281  0.674938  0.232386  1
  O  O14  1  0.532719  0.674938  0.732386  1
  O  O15  1  0.467281  0.325062  0.267614  1
  O  O16  1  0.187825  0.763587  0.956085  1
  O  O17  1  0.812175  0.236413  0.043915  1
  O  O18  1  0.687825  0.236413  0.543915  1
  O  O19  1  0.312175  0.763587  0.456085  1
