# generated using pymatgen
data_Sm5Er7Th4(CdIr)4
_symmetry_space_group_name_H-M   'P 1'
_cell_length_a   9.71196825
_cell_length_b   9.71148588
_cell_length_c   9.71148500
_cell_angle_alpha   60.00096696
_cell_angle_beta   59.99834549
_cell_angle_gamma   59.99834790
_symmetry_Int_Tables_number   1
_chemical_formula_structural   Sm5Er7Th4(CdIr)4
_chemical_formula_sum   'Sm5 Er7 Th4 Cd4 Ir4'
_cell_volume   647.67316478
_cell_formula_units_Z   1
loop_
 _symmetry_equiv_pos_site_id
 _symmetry_equiv_pos_as_xyz
  1  'x, y, z'
loop_
 _atom_site_type_symbol
 _atom_site_label
 _atom_site_symmetry_multiplicity
 _atom_site_fract_x
 _atom_site_fract_y
 _atom_site_fract_z
 _atom_site_occupancy
  Sm  Sm0  1  0.811494  0.188506  0.188506  1
  Sm  Sm1  1  0.814472  0.186962  0.812053  1
  Sm  Sm2  1  0.186513  0.812053  0.186962  1
  Sm  Sm3  1  0.814472  0.812053  0.186962  1
  Sm  Sm4  1  0.186513  0.186962  0.812053  1
  Er  Er5  1  0.063530  0.436470  0.436470  1
  Er  Er6  1  0.434934  0.065066  0.065066  1
  Er  Er7  1  0.435258  0.063364  0.437140  1
  Er  Er8  1  0.064238  0.437140  0.063364  1
  Er  Er9  1  0.435258  0.437140  0.063364  1
  Er  Er10  1  0.064238  0.063364  0.437140  1
  Er  Er11  1  0.187994  0.812006  0.812006  1
  Th  Th12  1  0.599585  0.600257  0.600257  1
  Th  Th13  1  0.599902  0.601140  0.199056  1
  Th  Th14  1  0.599902  0.199056  0.601140  1
  Th  Th15  1  0.199901  0.600257  0.600257  1
  Cd  Cd16  1  0.833587  0.830582  0.830582  1
  Cd  Cd17  1  0.831513  0.830844  0.506131  1
  Cd  Cd18  1  0.831513  0.506131  0.830844  1
  Cd  Cd19  1  0.505249  0.830582  0.830582  1
  Ir  Ir20  1  0.393503  0.392701  0.392701  1
  Ir  Ir21  1  0.392668  0.393899  0.820765  1
  Ir  Ir22  1  0.392668  0.820765  0.393899  1
  Ir  Ir23  1  0.821095  0.392701  0.392701  1
