# generated using pymatgen
data_NpNbN2
_symmetry_space_group_name_H-M   'P 1'
_cell_length_a   3.26943900
_cell_length_b   5.68524200
_cell_length_c   10.94849100
_cell_angle_alpha   90.00000000
_cell_angle_beta   90.00000000
_cell_angle_gamma   90.00000000
_symmetry_Int_Tables_number   1
_chemical_formula_structural   NpNbN2
_chemical_formula_sum   'Np4 Nb4 N8'
_cell_volume   203.50564490
_cell_formula_units_Z   4
loop_
 _symmetry_equiv_pos_site_id
 _symmetry_equiv_pos_as_xyz
  1  'x, y, z'
loop_
 _atom_site_type_symbol
 _atom_site_label
 _atom_site_symmetry_multiplicity
 _atom_site_fract_x
 _atom_site_fract_y
 _atom_site_fract_z
 _atom_site_occupancy
  Np  Np0  1  0.250000  0.576172  0.858019  1
  Np  Np1  1  0.750000  0.423828  0.141981  1
  Np  Np2  1  0.750000  0.923828  0.358019  1
  Np  Np3  1  0.250000  0.076172  0.641981  1
  Nb  Nb4  1  0.250000  0.922651  0.100090  1
  Nb  Nb5  1  0.750000  0.077349  0.899910  1
  Nb  Nb6  1  0.750000  0.577349  0.600090  1
  Nb  Nb7  1  0.250000  0.422651  0.399910  1
  N  N8  1  0.250000  0.658969  0.244757  1
  N  N9  1  0.750000  0.341031  0.755243  1
  N  N10  1  0.750000  0.841031  0.744757  1
  N  N11  1  0.250000  0.158969  0.255243  1
  N  N12  1  0.250000  0.763720  0.504266  1
  N  N13  1  0.750000  0.236280  0.495734  1
  N  N14  1  0.750000  0.736280  0.004266  1
  N  N15  1  0.250000  0.263720  0.995734  1
