# generated using pymatgen
data_NdSn6Ir3Ru
_symmetry_space_group_name_H-M   'P 1'
_cell_length_a   7.03875360
_cell_length_b   7.03875395
_cell_length_c   7.01443441
_cell_angle_alpha   120.68403553
_cell_angle_beta   120.67114967
_cell_angle_gamma   89.03235482
_symmetry_Int_Tables_number   1
_chemical_formula_structural   NdSn6Ir3Ru
_chemical_formula_sum   'Nd1 Sn6 Ir3 Ru1'
_cell_volume   242.74098291
_cell_formula_units_Z   1
loop_
 _symmetry_equiv_pos_site_id
 _symmetry_equiv_pos_as_xyz
  1  'x, y, z'
loop_
 _atom_site_type_symbol
 _atom_site_label
 _atom_site_symmetry_multiplicity
 _atom_site_fract_x
 _atom_site_fract_y
 _atom_site_fract_z
 _atom_site_occupancy
  Nd  Nd0  1  0.000351  0.000459  0.000811  1
  Sn  Sn1  1  0.469844  0.465135  0.596340  1
  Sn  Sn2  1  0.131205  0.126495  0.596340  1
  Sn  Sn3  1  0.869927  0.531601  0.401527  1
  Sn  Sn4  1  0.534010  0.873311  0.407321  1
  Sn  Sn5  1  0.995208  0.494343  0.994049  1
  Sn  Sn6  1  0.499705  0.998840  0.994049  1
  Ir  Ir7  1  0.394407  0.396333  0.159446  1
  Ir  Ir8  1  0.763113  0.765039  0.159446  1
  Ir  Ir9  1  0.243283  0.602658  0.845942  1
  Ru  Ru10  1  0.598945  0.245785  0.844731  1
