# generated using pymatgen
data_Pr3HgPtRh3O14
_symmetry_space_group_name_H-M   'P 1'
_cell_length_a   7.50904594
_cell_length_b   7.50904464
_cell_length_c   7.30474715
_cell_angle_alpha   59.07044401
_cell_angle_beta   59.07044062
_cell_angle_gamma   59.99999985
_symmetry_Int_Tables_number   1
_chemical_formula_structural   Pr3HgPtRh3O14
_chemical_formula_sum   'Pr3 Hg1 Pt1 Rh3 O14'
_cell_volume   287.08638870
_cell_formula_units_Z   1
loop_
 _symmetry_equiv_pos_site_id
 _symmetry_equiv_pos_as_xyz
  1  'x, y, z'
loop_
 _atom_site_type_symbol
 _atom_site_label
 _atom_site_symmetry_multiplicity
 _atom_site_fract_x
 _atom_site_fract_y
 _atom_site_fract_z
 _atom_site_occupancy
  Pr  Pr0  1  0.125000  0.125000  0.125000  1
  Pr  Pr1  1  0.625000  0.125000  0.125000  1
  Pr  Pr2  1  0.125000  0.625000  0.125000  1
  Hg  Hg3  1  0.125000  0.125000  0.625000  1
  Pt  Pt4  1  0.625000  0.625000  0.125000  1
  Rh  Rh5  1  0.625000  0.625000  0.625000  1
  Rh  Rh6  1  0.625000  0.125000  0.625000  1
  Rh  Rh7  1  0.125000  0.625000  0.625000  1
  O  O8  1  0.710735  0.292406  0.286123  1
  O  O9  1  0.690653  0.303225  0.702897  1
  O  O10  1  0.006510  0.006510  0.980471  1
  O  O11  1  0.292406  0.710735  0.286123  1
  O  O12  1  0.710735  0.710735  0.286123  1
  O  O13  1  0.946775  0.559347  0.547103  1
  O  O14  1  0.303225  0.690653  0.702897  1
  O  O15  1  0.243490  0.243490  0.269529  1
  O  O16  1  0.957594  0.539265  0.963877  1
  O  O17  1  0.559347  0.946775  0.547103  1
  O  O18  1  0.539265  0.539265  0.963877  1
  O  O19  1  0.946775  0.946775  0.547103  1
  O  O20  1  0.539265  0.957594  0.963877  1
  O  O21  1  0.303225  0.303225  0.702897  1
