# generated using pymatgen
data_Ce3As4
_symmetry_space_group_name_H-M   'P 1'
_cell_length_a   8.74986800
_cell_length_b   8.74986800
_cell_length_c   8.74986800
_cell_angle_alpha   90.00000000
_cell_angle_beta   90.00000000
_cell_angle_gamma   90.00000000
_symmetry_Int_Tables_number   1
_chemical_formula_structural   Ce3As4
_chemical_formula_sum   'Ce12 As16'
_cell_volume   669.89155671
_cell_formula_units_Z   4
loop_
 _symmetry_equiv_pos_site_id
 _symmetry_equiv_pos_as_xyz
  1  'x, y, z'
loop_
 _atom_site_type_symbol
 _atom_site_label
 _atom_site_symmetry_multiplicity
 _atom_site_fract_x
 _atom_site_fract_y
 _atom_site_fract_z
 _atom_site_occupancy
  Ce  Ce0  1  0.625098  0.500215  0.250103  1
  Ce  Ce1  1  0.249897  0.374902  0.000215  1
  Ce  Ce2  1  0.000215  0.249897  0.374902  1
  Ce  Ce3  1  0.374902  0.000215  0.249897  1
  Ce  Ce4  1  0.749897  0.125098  0.999785  1
  Ce  Ce5  1  0.125098  0.999785  0.749897  1
  Ce  Ce6  1  0.500215  0.250103  0.625098  1
  Ce  Ce7  1  0.750103  0.874902  0.499785  1
  Ce  Ce8  1  0.499785  0.750103  0.874902  1
  Ce  Ce9  1  0.874902  0.499785  0.750103  1
  Ce  Ce10  1  0.250103  0.625098  0.500215  1
  Ce  Ce11  1  0.999785  0.749897  0.125098  1
  As  As12  1  0.328900  0.328900  0.328900  1
  As  As13  1  0.828900  0.171100  0.671100  1
  As  As14  1  0.671100  0.828900  0.171100  1
  As  As15  1  0.171100  0.671100  0.828900  1
  As  As16  1  0.578669  0.421331  0.921331  1
  As  As17  1  0.171227  0.328773  0.671227  1
  As  As18  1  0.921120  0.421120  0.078880  1
  As  As19  1  0.078669  0.078669  0.078669  1
  As  As20  1  0.421120  0.078880  0.921120  1
  As  As21  1  0.078880  0.921120  0.421120  1
  As  As22  1  0.671227  0.171227  0.328773  1
  As  As23  1  0.421331  0.921331  0.578669  1
  As  As24  1  0.578880  0.578880  0.578880  1
  As  As25  1  0.921331  0.578669  0.421331  1
  As  As26  1  0.328773  0.671227  0.171227  1
  As  As27  1  0.828773  0.828773  0.828773  1
