# generated using pymatgen
data_Tb2ZnCuRu
_symmetry_space_group_name_H-M   'P 1'
_cell_length_a   5.49107848
_cell_length_b   5.49107897
_cell_length_c   5.49107882
_cell_angle_alpha   134.65780881
_cell_angle_beta   118.40334272
_cell_angle_gamma   79.71489528
_symmetry_Int_Tables_number   1
_chemical_formula_structural   Tb2ZnCuRu
_chemical_formula_sum   'Tb2 Zn1 Cu1 Ru1'
_cell_volume   100.33070810
_cell_formula_units_Z   1
loop_
 _symmetry_equiv_pos_site_id
 _symmetry_equiv_pos_as_xyz
  1  'x, y, z'
loop_
 _atom_site_type_symbol
 _atom_site_label
 _atom_site_symmetry_multiplicity
 _atom_site_fract_x
 _atom_site_fract_y
 _atom_site_fract_z
 _atom_site_occupancy
  Tb  Tb0  1  0.689635  0.200334  0.489302  1
  Tb  Tb1  1  0.288968  0.799666  0.489302  1
  Zn  Zn2  1  0.002126  0.000000  0.002126  1
  Cu  Cu3  1  0.740525  0.500000  0.240525  1
  Ru  Ru4  1  0.278745  0.500000  0.778745  1
