# generated using pymatgen
data_NdTh2AlGa2Pd3
_symmetry_space_group_name_H-M   'P 1'
_cell_length_a   7.36003258
_cell_length_b   7.29450310
_cell_length_c   4.15703900
_cell_angle_alpha   90.00000000
_cell_angle_beta   90.00000000
_cell_angle_gamma   119.95063075
_symmetry_Int_Tables_number   1
_chemical_formula_structural   NdTh2AlGa2Pd3
_chemical_formula_sum   'Nd1 Th2 Al1 Ga2 Pd3'
_cell_volume   193.37753381
_cell_formula_units_Z   1
loop_
 _symmetry_equiv_pos_site_id
 _symmetry_equiv_pos_as_xyz
  1  'x, y, z'
loop_
 _atom_site_type_symbol
 _atom_site_label
 _atom_site_symmetry_multiplicity
 _atom_site_fract_x
 _atom_site_fract_y
 _atom_site_fract_z
 _atom_site_occupancy
  Nd  Nd0  1  0.418246  0.416242  0.500000  1
  Th  Th1  1  0.580920  0.998503  0.500000  1
  Th  Th2  1  0.000571  0.586767  0.500000  1
  Al  Al3  1  0.002626  0.232525  0.000000  1
  Ga  Ga4  1  0.758098  0.760509  0.000000  1
  Ga  Ga5  1  0.240306  0.005704  0.000000  1
  Pd  Pd6  1  0.680114  0.330487  0.000000  1
  Pd  Pd7  1  0.325554  0.668111  0.000000  1
  Pd  Pd8  1  0.993566  0.001151  0.500000  1
