# generated using pymatgen
data_La20Si4Sn5Sb3
_symmetry_space_group_name_H-M   'P 1'
_cell_length_a   8.32582869
_cell_length_b   9.57938784
_cell_length_c   12.85927912
_cell_angle_alpha   89.87835982
_cell_angle_beta   89.95637741
_cell_angle_gamma   89.91876994
_symmetry_Int_Tables_number   1
_chemical_formula_structural   La20Si4Sn5Sb3
_chemical_formula_sum   'La20 Si4 Sn5 Sb3'
_cell_volume   1025.60542826
_cell_formula_units_Z   1
loop_
 _symmetry_equiv_pos_site_id
 _symmetry_equiv_pos_as_xyz
  1  'x, y, z'
loop_
 _atom_site_type_symbol
 _atom_site_label
 _atom_site_symmetry_multiplicity
 _atom_site_fract_x
 _atom_site_fract_y
 _atom_site_fract_z
 _atom_site_occupancy
  La  La0  1  0.045018  0.744911  0.500785  1
  La  La1  1  0.954243  0.254673  0.499332  1
  La  La2  1  0.543910  0.252387  0.999519  1
  La  La3  1  0.449058  0.747867  0.000868  1
  La  La4  1  0.863242  0.749675  0.792850  1
  La  La5  1  0.138544  0.249095  0.207055  1
  La  La6  1  0.364257  0.251063  0.707267  1
  La  La7  1  0.636060  0.749308  0.292802  1
  La  La8  1  0.691656  0.543377  0.566656  1
  La  La9  1  0.308514  0.457707  0.434048  1
  La  La10  1  0.191256  0.456608  0.933873  1
  La  La11  1  0.308284  0.044511  0.435815  1
  La  La12  1  0.808850  0.541963  0.065740  1
  La  La13  1  0.692349  0.956316  0.563418  1
  La  La14  1  0.806517  0.958578  0.063574  1
  La  La15  1  0.191671  0.044908  0.935277  1
  La  La16  1  0.341768  0.750706  0.713909  1
  La  La17  1  0.659455  0.249221  0.285995  1
  La  La18  1  0.841353  0.249927  0.786255  1
  La  La19  1  0.159805  0.750148  0.214280  1
  Si  Si20  1  0.069921  0.751388  0.981330  1
  Si  Si21  1  0.929297  0.248899  0.018144  1
  Si  Si22  1  0.571926  0.249191  0.518599  1
  Si  Si23  1  0.428219  0.751792  0.482034  1
  Sn  Sn24  1  0.574629  0.507422  0.828190  1
  Sn  Sn25  1  0.427593  0.491569  0.172069  1
  Sn  Sn26  1  0.073433  0.492024  0.673172  1
  Sn  Sn27  1  0.427687  0.006989  0.171530  1
  Sn  Sn28  1  0.926913  0.506804  0.327697  1
  Sb  Sb29  1  0.574201  0.991792  0.827738  1
  Sb  Sb30  1  0.926522  0.991343  0.329312  1
  Sb  Sb31  1  0.073848  0.007838  0.670867  1
