# generated using pymatgen
data_K2VCoS4
_symmetry_space_group_name_H-M   'P 1'
_cell_length_a   13.36920583
_cell_length_b   11.93831796
_cell_length_c   7.13208730
_cell_angle_alpha   85.06326651
_cell_angle_beta   62.83039702
_cell_angle_gamma   32.10634120
_symmetry_Int_Tables_number   1
_chemical_formula_structural   K2VCoS4
_chemical_formula_sum   'K4 V2 Co2 S8'
_cell_volume   415.35888381
_cell_formula_units_Z   2
loop_
 _symmetry_equiv_pos_site_id
 _symmetry_equiv_pos_as_xyz
  1  'x, y, z'
loop_
 _atom_site_type_symbol
 _atom_site_label
 _atom_site_symmetry_multiplicity
 _atom_site_fract_x
 _atom_site_fract_y
 _atom_site_fract_z
 _atom_site_occupancy
  K  K0  1  0.572445  0.572445  0.927555  1
  K  K1  1  0.927555  0.927555  0.572445  1
  K  K2  1  0.322445  0.322445  0.677555  1
  K  K3  1  0.677555  0.677555  0.322445  1
  V  V4  1  0.750000  0.750000  0.750000  1
  V  V5  1  0.500000  0.500000  0.500000  1
  Co  Co6  1  0.000000  0.000000  0.000000  1
  Co  Co7  1  0.250000  0.250000  0.250000  1
  S  S8  1  0.214163  0.891719  0.597264  1
  S  S9  1  0.296855  0.597264  0.891719  1
  S  S10  1  0.597264  0.296855  0.214163  1
  S  S11  1  0.891719  0.214163  0.296855  1
  S  S12  1  0.358281  0.035837  0.953145  1
  S  S13  1  0.953145  0.652736  0.358281  1
  S  S14  1  0.652736  0.953145  0.035837  1
  S  S15  1  0.035837  0.358281  0.652736  1
