# generated using pymatgen
data_Er8Nb11Si16Ag
_symmetry_space_group_name_H-M   'P 1'
_cell_length_a   7.05507426
_cell_length_b   7.05507417
_cell_length_c   12.98790841
_cell_angle_alpha   90.24173052
_cell_angle_beta   89.75827028
_cell_angle_gamma   89.80986644
_symmetry_Int_Tables_number   1
_chemical_formula_structural   Er8Nb11Si16Ag
_chemical_formula_sum   'Er8 Nb11 Si16 Ag1'
_cell_volume   646.44598553
_cell_formula_units_Z   1
loop_
 _symmetry_equiv_pos_site_id
 _symmetry_equiv_pos_as_xyz
  1  'x, y, z'
loop_
 _atom_site_type_symbol
 _atom_site_label
 _atom_site_symmetry_multiplicity
 _atom_site_fract_x
 _atom_site_fract_y
 _atom_site_fract_z
 _atom_site_occupancy
  Er  Er0  1  0.342208  0.000964  0.466785  1
  Er  Er1  1  0.497295  0.842295  0.717075  1
  Er  Er2  1  0.503116  0.157169  0.216519  1
  Er  Er3  1  0.842295  0.497295  0.282925  1
  Er  Er4  1  0.157169  0.503116  0.783481  1
  Er  Er5  1  0.655340  0.002052  0.967169  1
  Er  Er6  1  0.000964  0.342208  0.533215  1
  Er  Er7  1  0.002052  0.655340  0.032831  1
  Nb  Nb8  1  0.171701  0.826141  0.249732  1
  Nb  Nb9  1  0.826141  0.171701  0.750268  1
  Nb  Nb10  1  0.671435  0.671435  0.500000  1
  Nb  Nb11  1  0.149804  0.007585  0.875415  1
  Nb  Nb12  1  0.497458  0.651951  0.122301  1
  Nb  Nb13  1  0.504969  0.349681  0.623111  1
  Nb  Nb14  1  0.651951  0.497458  0.877699  1
  Nb  Nb15  1  0.349681  0.504969  0.376889  1
  Nb  Nb16  1  0.848431  0.991318  0.372866  1
  Nb  Nb17  1  0.007585  0.149804  0.124585  1
  Nb  Nb18  1  0.991318  0.848431  0.627134  1
  Si  Si19  1  0.202283  0.136995  0.682686  1
  Si  Si20  1  0.370247  0.718478  0.928280  1
  Si  Si21  1  0.635818  0.293583  0.431150  1
  Si  Si22  1  0.718478  0.370247  0.071720  1
  Si  Si23  1  0.293583  0.635818  0.568850  1
  Si  Si24  1  0.796373  0.864693  0.180807  1
  Si  Si25  1  0.136995  0.202283  0.317314  1
  Si  Si26  1  0.864693  0.796373  0.819193  1
  Si  Si27  1  0.289801  0.941903  0.064423  1
  Si  Si28  1  0.545179  0.793261  0.312171  1
  Si  Si29  1  0.454547  0.206551  0.809751  1
  Si  Si30  1  0.793261  0.545179  0.687829  1
  Si  Si31  1  0.206551  0.454547  0.190249  1
  Si  Si32  1  0.704930  0.046013  0.562969  1
  Si  Si33  1  0.941903  0.289801  0.935577  1
  Si  Si34  1  0.046013  0.704930  0.437031  1
  Ag  Ag35  1  0.328433  0.328433  0.000000  1
