# generated using pymatgen
data_La3ScAl11Ru4
_symmetry_space_group_name_H-M   'P 1'
_cell_length_a   9.04908100
_cell_length_b   9.04908073
_cell_length_c   9.75667000
_cell_angle_alpha   90.00000000
_cell_angle_beta   90.00000000
_cell_angle_gamma   119.99999734
_symmetry_Int_Tables_number   1
_chemical_formula_structural   La3ScAl11Ru4
_chemical_formula_sum   'La6 Sc2 Al22 Ru8'
_cell_volume   691.89660188
_cell_formula_units_Z   2
loop_
 _symmetry_equiv_pos_site_id
 _symmetry_equiv_pos_as_xyz
  1  'x, y, z'
loop_
 _atom_site_type_symbol
 _atom_site_label
 _atom_site_symmetry_multiplicity
 _atom_site_fract_x
 _atom_site_fract_y
 _atom_site_fract_z
 _atom_site_occupancy
  La  La0  1  0.190533  0.381065  0.255249  1
  La  La1  1  0.809467  0.618935  0.744751  1
  La  La2  1  0.618935  0.809467  0.255249  1
  La  La3  1  0.381065  0.190533  0.744751  1
  La  La4  1  0.190533  0.809467  0.255249  1
  La  La5  1  0.809467  0.190533  0.744751  1
  Sc  Sc6  1  0.333333  0.666667  0.995868  1
  Sc  Sc7  1  0.666667  0.333333  0.004132  1
  Al  Al8  1  0.666667  0.333333  0.502356  1
  Al  Al9  1  0.333333  0.666667  0.497644  1
  Al  Al10  1  0.161836  0.323672  0.576852  1
  Al  Al11  1  0.838164  0.676328  0.423148  1
  Al  Al12  1  0.676328  0.838164  0.576852  1
  Al  Al13  1  0.842061  0.684121  0.076909  1
  Al  Al14  1  0.323672  0.161836  0.423148  1
  Al  Al15  1  0.157939  0.315879  0.923091  1
  Al  Al16  1  0.161836  0.838164  0.576852  1
  Al  Al17  1  0.315879  0.157939  0.076909  1
  Al  Al18  1  0.838164  0.161836  0.423148  1
  Al  Al19  1  0.684121  0.842061  0.923091  1
  Al  Al20  1  0.842061  0.157939  0.076909  1
  Al  Al21  1  0.157939  0.842061  0.923091  1
  Al  Al22  1  0.562359  0.124718  0.251979  1
  Al  Al23  1  0.437641  0.875282  0.748021  1
  Al  Al24  1  0.875282  0.437641  0.251979  1
  Al  Al25  1  0.124718  0.562359  0.748021  1
  Al  Al26  1  0.562359  0.437641  0.251979  1
  Al  Al27  1  0.437641  0.562359  0.748021  1
  Al  Al28  1  0.000000  0.000000  0.250003  1
  Al  Al29  1  0.000000  0.000000  0.749997  1
  Ru  Ru30  1  0.500000  0.000000  0.000000  1
  Ru  Ru31  1  0.000000  0.500000  0.000000  1
  Ru  Ru32  1  0.500000  0.000000  0.500000  1
  Ru  Ru33  1  0.500000  0.500000  0.000000  1
  Ru  Ru34  1  0.000000  0.500000  0.500000  1
  Ru  Ru35  1  0.500000  0.500000  0.500000  1
  Ru  Ru36  1  0.000000  0.000000  0.000000  1
  Ru  Ru37  1  0.000000  0.000000  0.500000  1
