# generated using pymatgen
data_Tb3Cu(Ni4P3)2
_symmetry_space_group_name_H-M   'P 1'
_cell_length_a   3.80887800
_cell_length_b   10.54134400
_cell_length_c   12.31906100
_cell_angle_alpha   90.00000000
_cell_angle_beta   90.00000000
_cell_angle_gamma   90.00000000
_symmetry_Int_Tables_number   1
_chemical_formula_structural   Tb3Cu(Ni4P3)2
_chemical_formula_sum   'Tb6 Cu2 Ni16 P12'
_cell_volume   494.61883936
_cell_formula_units_Z   2
loop_
 _symmetry_equiv_pos_site_id
 _symmetry_equiv_pos_as_xyz
  1  'x, y, z'
loop_
 _atom_site_type_symbol
 _atom_site_label
 _atom_site_symmetry_multiplicity
 _atom_site_fract_x
 _atom_site_fract_y
 _atom_site_fract_z
 _atom_site_occupancy
  Tb  Tb0  1  0.000000  0.500000  0.522185  1
  Tb  Tb1  1  0.500000  0.000000  0.477815  1
  Tb  Tb2  1  0.500000  0.817052  0.205021  1
  Tb  Tb3  1  0.500000  0.182948  0.205021  1
  Tb  Tb4  1  0.000000  0.682948  0.794979  1
  Tb  Tb5  1  0.000000  0.317052  0.794979  1
  Cu  Cu6  1  0.500000  0.500000  0.157401  1
  Cu  Cu7  1  0.000000  0.000000  0.842599  1
  Ni  Ni8  1  0.500000  0.500000  0.700542  1
  Ni  Ni9  1  0.000000  0.000000  0.299458  1
  Ni  Ni10  1  0.000000  0.500000  0.985936  1
  Ni  Ni11  1  0.500000  0.000000  0.014064  1
  Ni  Ni12  1  0.500000  0.333422  0.997219  1
  Ni  Ni13  1  0.500000  0.666578  0.997219  1
  Ni  Ni14  1  0.000000  0.166578  0.002781  1
  Ni  Ni15  1  0.000000  0.833422  0.002781  1
  Ni  Ni16  1  0.500000  0.299622  0.429847  1
  Ni  Ni17  1  0.500000  0.700378  0.429847  1
  Ni  Ni18  1  0.000000  0.200378  0.570153  1
  Ni  Ni19  1  0.000000  0.799622  0.570153  1
  Ni  Ni20  1  0.500000  0.879885  0.710203  1
  Ni  Ni21  1  0.500000  0.120115  0.710203  1
  Ni  Ni22  1  0.000000  0.620115  0.289797  1
  Ni  Ni23  1  0.000000  0.379885  0.289797  1
  P  P24  1  0.500000  0.500000  0.878457  1
  P  P25  1  0.000000  0.000000  0.121543  1
  P  P26  1  0.500000  0.500000  0.347173  1
  P  P27  1  0.000000  0.000000  0.652827  1
  P  P28  1  0.500000  0.312517  0.614887  1
  P  P29  1  0.500000  0.687483  0.614887  1
  P  P30  1  0.000000  0.187483  0.385113  1
  P  P31  1  0.000000  0.812517  0.385113  1
  P  P32  1  0.500000  0.843311  0.894120  1
  P  P33  1  0.500000  0.156689  0.894120  1
  P  P34  1  0.000000  0.656689  0.105880  1
  P  P35  1  0.000000  0.343311  0.105880  1
