# generated using pymatgen
data_Er(CrC)4
_symmetry_space_group_name_H-M   'P 1'
_cell_length_a   5.74244609
_cell_length_b   5.74244614
_cell_length_c   5.74244626
_cell_angle_alpha   94.38555004
_cell_angle_beta   94.38554617
_cell_angle_gamma   147.89386563
_symmetry_Int_Tables_number   1
_chemical_formula_structural   Er(CrC)4
_chemical_formula_sum   'Er1 Cr4 C4'
_cell_volume   96.71890537
_cell_formula_units_Z   1
loop_
 _symmetry_equiv_pos_site_id
 _symmetry_equiv_pos_as_xyz
  1  'x, y, z'
loop_
 _atom_site_type_symbol
 _atom_site_label
 _atom_site_symmetry_multiplicity
 _atom_site_fract_x
 _atom_site_fract_y
 _atom_site_fract_z
 _atom_site_occupancy
  Er  Er0  1  0.000000  0.000000  0.000000  1
  Cr  Cr1  1  0.819093  0.634661  0.453753  1
  Cr  Cr2  1  0.180907  0.365339  0.546247  1
  Cr  Cr3  1  0.634661  0.180907  0.815568  1
  Cr  Cr4  1  0.365339  0.819093  0.184432  1
  C  C5  1  0.256748  0.598179  0.854928  1
  C  C6  1  0.743252  0.401821  0.145072  1
  C  C7  1  0.598179  0.743252  0.341431  1
  C  C8  1  0.401821  0.256748  0.658569  1
