# generated using pymatgen
data_Dy5TlIn3Pd2
_symmetry_space_group_name_H-M   'P 1'
_cell_length_a   3.63610100
_cell_length_b   8.17803272
_cell_length_c   18.30044700
_cell_angle_alpha   89.94535273
_cell_angle_beta   90.00000000
_cell_angle_gamma   90.00000000
_symmetry_Int_Tables_number   1
_chemical_formula_structural   Dy5TlIn3Pd2
_chemical_formula_sum   'Dy10 Tl2 In6 Pd4'
_cell_volume   544.18464353
_cell_formula_units_Z   2
loop_
 _symmetry_equiv_pos_site_id
 _symmetry_equiv_pos_as_xyz
  1  'x, y, z'
loop_
 _atom_site_type_symbol
 _atom_site_label
 _atom_site_symmetry_multiplicity
 _atom_site_fract_x
 _atom_site_fract_y
 _atom_site_fract_z
 _atom_site_occupancy
  Dy  Dy0  1  0.000000  0.000000  0.000000  1
  Dy  Dy1  1  0.000000  0.500000  0.500000  1
  Dy  Dy2  1  0.000000  0.117536  0.415512  1
  Dy  Dy3  1  0.000000  0.882464  0.584488  1
  Dy  Dy4  1  0.000000  0.381090  0.916558  1
  Dy  Dy5  1  0.000000  0.618910  0.083442  1
  Dy  Dy6  1  0.000000  0.242757  0.219518  1
  Dy  Dy7  1  0.000000  0.757243  0.780482  1
  Dy  Dy8  1  0.000000  0.257925  0.720059  1
  Dy  Dy9  1  0.000000  0.742075  0.279941  1
  Tl  Tl10  1  0.500000  0.423572  0.351507  1
  Tl  Tl11  1  0.500000  0.576428  0.648493  1
  In  In12  1  0.500000  0.076831  0.850796  1
  In  In13  1  0.500000  0.923169  0.149204  1
  In  In14  1  0.500000  0.292099  0.067461  1
  In  In15  1  0.500000  0.707901  0.932539  1
  In  In16  1  0.500000  0.204889  0.566363  1
  In  In17  1  0.500000  0.795111  0.433637  1
  Pd  Pd18  1  0.500000  0.021031  0.303269  1
  Pd  Pd19  1  0.500000  0.978969  0.696731  1
  Pd  Pd20  1  0.500000  0.474922  0.805176  1
  Pd  Pd21  1  0.500000  0.525078  0.194824  1
