# generated using pymatgen
data_ScCu4Ag
_symmetry_space_group_name_H-M   'P 1'
_cell_length_a   4.94213075
_cell_length_b   4.94213089
_cell_length_c   4.94213100
_cell_angle_alpha   60.00000596
_cell_angle_beta   60.00000505
_cell_angle_gamma   59.99999655
_symmetry_Int_Tables_number   1
_chemical_formula_structural   ScCu4Ag
_chemical_formula_sum   'Sc1 Cu4 Ag1'
_cell_volume   85.35476180
_cell_formula_units_Z   1
loop_
 _symmetry_equiv_pos_site_id
 _symmetry_equiv_pos_as_xyz
  1  'x, y, z'
loop_
 _atom_site_type_symbol
 _atom_site_label
 _atom_site_symmetry_multiplicity
 _atom_site_fract_x
 _atom_site_fract_y
 _atom_site_fract_z
 _atom_site_occupancy
  Sc  Sc0  1  0.250000  0.250000  0.250000  1
  Cu  Cu1  1  0.625187  0.625187  0.625187  1
  Cu  Cu2  1  0.625187  0.625187  0.124441  1
  Cu  Cu3  1  0.625187  0.124441  0.625187  1
  Cu  Cu4  1  0.124441  0.625187  0.625187  1
  Ag  Ag5  1  0.000000  0.000000  0.000000  1
