# generated using pymatgen
data_Er3Sc2Sn3N
_symmetry_space_group_name_H-M   'P 1'
_cell_length_a   8.69480100
_cell_length_b   8.69480028
_cell_length_c   6.16024300
_cell_angle_alpha   90.00000000
_cell_angle_beta   90.00000000
_cell_angle_gamma   119.99999895
_symmetry_Int_Tables_number   1
_chemical_formula_structural   Er3Sc2Sn3N
_chemical_formula_sum   'Er6 Sc4 Sn6 N2'
_cell_volume   403.31812299
_cell_formula_units_Z   2
loop_
 _symmetry_equiv_pos_site_id
 _symmetry_equiv_pos_as_xyz
  1  'x, y, z'
loop_
 _atom_site_type_symbol
 _atom_site_label
 _atom_site_symmetry_multiplicity
 _atom_site_fract_x
 _atom_site_fract_y
 _atom_site_fract_z
 _atom_site_occupancy
  Er  Er0  1  0.783038  0.783038  0.750000  1
  Er  Er1  1  0.216962  0.000000  0.750000  1
  Er  Er2  1  0.000000  0.216962  0.750000  1
  Er  Er3  1  0.216962  0.216962  0.250000  1
  Er  Er4  1  0.783038  0.000000  0.250000  1
  Er  Er5  1  0.000000  0.783038  0.250000  1
  Sc  Sc6  1  0.666667  0.333333  0.000000  1
  Sc  Sc7  1  0.333333  0.666667  0.000000  1
  Sc  Sc8  1  0.333333  0.666667  0.500000  1
  Sc  Sc9  1  0.666667  0.333333  0.500000  1
  Sn  Sn10  1  0.408214  0.408214  0.750000  1
  Sn  Sn11  1  0.591786  0.000000  0.750000  1
  Sn  Sn12  1  0.000000  0.591786  0.750000  1
  Sn  Sn13  1  0.591786  0.591786  0.250000  1
  Sn  Sn14  1  0.408214  0.000000  0.250000  1
  Sn  Sn15  1  0.000000  0.408214  0.250000  1
  N  N16  1  0.000000  0.000000  0.000000  1
  N  N17  1  0.000000  0.000000  0.500000  1
