# generated using pymatgen
data_K3LiH6Ru
_symmetry_space_group_name_H-M   'P 1'
_cell_length_a   6.89501119
_cell_length_b   6.89501070
_cell_length_c   6.89501132
_cell_angle_alpha   96.10716772
_cell_angle_beta   96.10717959
_cell_angle_gamma   96.10716868
_symmetry_Int_Tables_number   1
_chemical_formula_structural   K3LiH6Ru
_chemical_formula_sum   'K6 Li2 H12 Ru2'
_cell_volume   321.78177087
_cell_formula_units_Z   2
loop_
 _symmetry_equiv_pos_site_id
 _symmetry_equiv_pos_as_xyz
  1  'x, y, z'
loop_
 _atom_site_type_symbol
 _atom_site_label
 _atom_site_symmetry_multiplicity
 _atom_site_fract_x
 _atom_site_fract_y
 _atom_site_fract_z
 _atom_site_occupancy
  K  K0  1  0.886944  0.613056  0.250000  1
  K  K1  1  0.250000  0.886944  0.613056  1
  K  K2  1  0.613056  0.250000  0.886944  1
  K  K3  1  0.750000  0.113056  0.386944  1
  K  K4  1  0.386944  0.750000  0.113056  1
  K  K5  1  0.113056  0.386944  0.750000  1
  Li  Li6  1  0.250000  0.250000  0.250000  1
  Li  Li7  1  0.750000  0.750000  0.750000  1
  H  H8  1  0.254252  0.521280  0.418888  1
  H  H9  1  0.418888  0.254252  0.521280  1
  H  H10  1  0.521280  0.418888  0.254252  1
  H  H11  1  0.918888  0.021280  0.754252  1
  H  H12  1  0.754252  0.918888  0.021280  1
  H  H13  1  0.021280  0.754252  0.918888  1
  H  H14  1  0.745748  0.478720  0.581112  1
  H  H15  1  0.581112  0.745748  0.478720  1
  H  H16  1  0.478720  0.581112  0.745748  1
  H  H17  1  0.081112  0.978720  0.245748  1
  H  H18  1  0.245748  0.081112  0.978720  1
  H  H19  1  0.978720  0.245748  0.081112  1
  Ru  Ru20  1  0.500000  0.500000  0.500000  1
  Ru  Ru21  1  0.000000  0.000000  0.000000  1
