# generated using pymatgen
data_SmHo2Th3Si4
_symmetry_space_group_name_H-M   'P 1'
_cell_length_a   7.63432595
_cell_length_b   7.63432643
_cell_length_c   4.26838000
_cell_angle_alpha   90.00000000
_cell_angle_beta   90.00000000
_cell_angle_gamma   90.02659067
_symmetry_Int_Tables_number   1
_chemical_formula_structural   SmHo2Th3Si4
_chemical_formula_sum   'Sm1 Ho2 Th3 Si4'
_cell_volume   248.77369321
_cell_formula_units_Z   1
loop_
 _symmetry_equiv_pos_site_id
 _symmetry_equiv_pos_as_xyz
  1  'x, y, z'
loop_
 _atom_site_type_symbol
 _atom_site_label
 _atom_site_symmetry_multiplicity
 _atom_site_fract_x
 _atom_site_fract_y
 _atom_site_fract_z
 _atom_site_occupancy
  Sm  Sm0  1  0.676311  0.176311  0.500000  1
  Ho  Ho1  1  0.500085  0.501919  0.000000  1
  Ho  Ho2  1  0.001919  0.000085  0.000000  1
  Th  Th3  1  0.322687  0.822687  0.500000  1
  Th  Th4  1  0.177758  0.321471  0.500000  1
  Th  Th5  1  0.821471  0.677758  0.500000  1
  Si  Si6  1  0.116521  0.616521  0.000000  1
  Si  Si7  1  0.882497  0.382497  0.000000  1
  Si  Si8  1  0.617335  0.883416  0.000000  1
  Si  Si9  1  0.383416  0.117335  0.000000  1
