# generated using pymatgen
data_Er3Tm9Co5Bi
_symmetry_space_group_name_H-M   'P 1'
_cell_length_a   8.19602572
_cell_length_b   8.19602576
_cell_length_c   8.19402003
_cell_angle_alpha   110.97083004
_cell_angle_beta   110.84305010
_cell_angle_gamma   106.64689480
_symmetry_Int_Tables_number   1
_chemical_formula_structural   Er3Tm9Co5Bi
_chemical_formula_sum   'Er3 Tm9 Co5 Bi1'
_cell_volume   422.89741387
_cell_formula_units_Z   1
loop_
 _symmetry_equiv_pos_site_id
 _symmetry_equiv_pos_as_xyz
  1  'x, y, z'
loop_
 _atom_site_type_symbol
 _atom_site_label
 _atom_site_symmetry_multiplicity
 _atom_site_fract_x
 _atom_site_fract_y
 _atom_site_fract_z
 _atom_site_occupancy
  Er  Er0  1  0.284979  0.183119  0.468098  1
  Er  Er1  1  0.715005  0.816933  0.531938  1
  Er  Er2  1  0.284939  0.816876  0.101814  1
  Tm  Tm3  1  0.715132  0.182972  0.898105  1
  Tm  Tm4  1  0.619903  0.311448  0.308234  1
  Tm  Tm5  1  0.380244  0.688693  0.691684  1
  Tm  Tm6  1  0.002992  0.311440  0.691684  1
  Tm  Tm7  1  0.996786  0.688331  0.308234  1
  Tm  Tm8  1  0.210356  0.406531  0.195845  1
  Tm  Tm9  1  0.789369  0.593240  0.804034  1
  Tm  Tm10  1  0.210795  0.014665  0.804034  1
  Tm  Tm11  1  0.789313  0.985489  0.195845  1
  Co  Co12  1  0.999901  0.374707  0.374608  1
  Co  Co13  1  0.999991  0.625250  0.625240  1
  Co  Co14  1  0.387963  0.887896  0.500312  1
  Co  Co15  1  0.612416  0.112349  0.500312  1
  Co  Co16  1  0.999912  0.000049  0.999961  1
  Bi  Bi17  1  0.500004  0.500011  0.000015  1
