# generated using pymatgen
data_Th2B10Os
_symmetry_space_group_name_H-M   'P 1'
_cell_length_a   4.21160000
_cell_length_b   5.74959700
_cell_length_c   11.47526200
_cell_angle_alpha   90.00000000
_cell_angle_beta   90.00000000
_cell_angle_gamma   90.00000000
_symmetry_Int_Tables_number   1
_chemical_formula_structural   Th2B10Os
_chemical_formula_sum   'Th4 B20 Os2'
_cell_volume   277.87350060
_cell_formula_units_Z   2
loop_
 _symmetry_equiv_pos_site_id
 _symmetry_equiv_pos_as_xyz
  1  'x, y, z'
loop_
 _atom_site_type_symbol
 _atom_site_label
 _atom_site_symmetry_multiplicity
 _atom_site_fract_x
 _atom_site_fract_y
 _atom_site_fract_z
 _atom_site_occupancy
  Th  Th0  1  0.500000  0.282917  0.868951  1
  Th  Th1  1  0.500000  0.717083  0.131049  1
  Th  Th2  1  0.500000  0.782917  0.631049  1
  Th  Th3  1  0.500000  0.217083  0.368951  1
  B  B4  1  0.000000  0.118308  0.542600  1
  B  B5  1  0.000000  0.881692  0.457400  1
  B  B6  1  0.000000  0.618308  0.957400  1
  B  B7  1  0.000000  0.381692  0.042600  1
  B  B8  1  0.000000  0.131715  0.696748  1
  B  B9  1  0.000000  0.868285  0.303252  1
  B  B10  1  0.300932  0.221125  0.118920  1
  B  B11  1  0.300932  0.778875  0.881080  1
  B  B12  1  0.699068  0.721125  0.381080  1
  B  B13  1  0.699068  0.278875  0.618920  1
  B  B14  1  0.699068  0.778875  0.881080  1
  B  B15  1  0.699068  0.221125  0.118920  1
  B  B16  1  0.300932  0.278875  0.618920  1
  B  B17  1  0.300932  0.721125  0.381080  1
  B  B18  1  0.000000  0.059186  0.193297  1
  B  B19  1  0.000000  0.940814  0.806703  1
  B  B20  1  0.000000  0.559186  0.306703  1
  B  B21  1  0.000000  0.440814  0.693297  1
  B  B22  1  0.000000  0.368285  0.196748  1
  B  B23  1  0.000000  0.631715  0.803252  1
  Os  Os24  1  0.000000  0.500000  0.500000  1
  Os  Os25  1  0.000000  0.000000  0.000000  1
