# generated using pymatgen
data_Rb3Dy3(PS4)4
_symmetry_space_group_name_H-M   'P 1'
_cell_length_a   9.94350591
_cell_length_b   9.94350593
_cell_length_c   14.68240600
_cell_angle_alpha   90.87553219
_cell_angle_beta   90.87553219
_cell_angle_gamma   71.99305827
_symmetry_Int_Tables_number   1
_chemical_formula_structural   Rb3Dy3(PS4)4
_chemical_formula_sum   'Rb6 Dy6 P8 S32'
_cell_volume   1380.34630253
_cell_formula_units_Z   2
loop_
 _symmetry_equiv_pos_site_id
 _symmetry_equiv_pos_as_xyz
  1  'x, y, z'
loop_
 _atom_site_type_symbol
 _atom_site_label
 _atom_site_symmetry_multiplicity
 _atom_site_fract_x
 _atom_site_fract_y
 _atom_site_fract_z
 _atom_site_occupancy
  Rb  Rb0  1  0.000000  0.000000  0.000000  1
  Rb  Rb1  1  0.972536  0.615397  0.164935  1
  Rb  Rb2  1  0.384603  0.027464  0.335065  1
  Rb  Rb3  1  0.000000  0.000000  0.500000  1
  Rb  Rb4  1  0.615397  0.972536  0.664935  1
  Rb  Rb5  1  0.027464  0.384603  0.835065  1
  Dy  Dy6  1  0.513017  0.747525  0.011363  1
  Dy  Dy7  1  0.747413  0.252586  0.250000  1
  Dy  Dy8  1  0.252475  0.486983  0.488637  1
  Dy  Dy9  1  0.747525  0.513017  0.511363  1
  Dy  Dy10  1  0.252587  0.747414  0.750000  1
  Dy  Dy11  1  0.486983  0.252475  0.988637  1
  P  P12  1  0.758617  0.399914  0.024866  1
  P  P13  1  0.666093  0.963976  0.137960  1
  P  P14  1  0.036024  0.333907  0.362039  1
  P  P15  1  0.600086  0.241383  0.475134  1
  P  P16  1  0.399915  0.758618  0.524866  1
  P  P17  1  0.963976  0.666093  0.637961  1
  P  P18  1  0.333907  0.036024  0.862039  1
  P  P19  1  0.241383  0.600086  0.975135  1
  S  S20  1  0.322313  0.053721  0.001267  1
  S  S21  1  0.216763  0.418544  0.025262  1
  S  S22  1  0.263172  0.729217  0.081116  1
  S  S23  1  0.578120  0.456952  0.104555  1
  S  S24  1  0.920314  0.298519  0.110016  1
  S  S25  1  0.526507  0.162549  0.169294  1
  S  S26  1  0.597006  0.804928  0.184434  1
  S  S27  1  0.853322  0.963954  0.197361  1
  S  S28  1  0.036046  0.146678  0.302638  1
  S  S29  1  0.195071  0.402993  0.315566  1
  S  S30  1  0.837451  0.473493  0.330706  1
  S  S31  1  0.701481  0.079686  0.389984  1
  S  S32  1  0.543048  0.421880  0.395446  1
  S  S33  1  0.270782  0.736827  0.418883  1
  S  S34  1  0.581456  0.783237  0.474738  1
  S  S35  1  0.946279  0.677687  0.498732  1
  S  S36  1  0.053721  0.322314  0.501267  1
  S  S37  1  0.418544  0.216763  0.525262  1
  S  S38  1  0.729217  0.263173  0.581116  1
  S  S39  1  0.456953  0.578121  0.604554  1
  S  S40  1  0.298519  0.920314  0.610015  1
  S  S41  1  0.162549  0.526506  0.669294  1
  S  S42  1  0.804929  0.597007  0.684434  1
  S  S43  1  0.963953  0.853321  0.697362  1
  S  S44  1  0.146678  0.036046  0.802638  1
  S  S45  1  0.402993  0.195071  0.815566  1
  S  S46  1  0.473494  0.837451  0.830705  1
  S  S47  1  0.079685  0.701481  0.889984  1
  S  S48  1  0.421880  0.543048  0.895446  1
  S  S49  1  0.736828  0.270783  0.918884  1
  S  S50  1  0.783237  0.581456  0.974738  1
  S  S51  1  0.677687  0.946279  0.998732  1
