# generated using pymatgen
data_Tb10GaBi4Sb
_symmetry_space_group_name_H-M   'P 1'
_cell_length_a   9.09311332
_cell_length_b   9.09311304
_cell_length_c   6.43086100
_cell_angle_alpha   90.00000000
_cell_angle_beta   90.00000000
_cell_angle_gamma   119.71175282
_symmetry_Int_Tables_number   1
_chemical_formula_structural   Tb10GaBi4Sb
_chemical_formula_sum   'Tb10 Ga1 Bi4 Sb1'
_cell_volume   461.82673734
_cell_formula_units_Z   1
loop_
 _symmetry_equiv_pos_site_id
 _symmetry_equiv_pos_as_xyz
  1  'x, y, z'
loop_
 _atom_site_type_symbol
 _atom_site_label
 _atom_site_symmetry_multiplicity
 _atom_site_fract_x
 _atom_site_fract_y
 _atom_site_fract_z
 _atom_site_occupancy
  Tb  Tb0  1  0.656800  0.337952  0.998394  1
  Tb  Tb1  1  0.337952  0.656800  0.998394  1
  Tb  Tb2  1  0.337952  0.656800  0.501606  1
  Tb  Tb3  1  0.656800  0.337952  0.501606  1
  Tb  Tb4  1  0.747916  0.747916  0.750000  1
  Tb  Tb5  1  0.244524  0.014133  0.750000  1
  Tb  Tb6  1  0.014133  0.244524  0.750000  1
  Tb  Tb7  1  0.244529  0.244529  0.250000  1
  Tb  Tb8  1  0.757934  0.997872  0.250000  1
  Tb  Tb9  1  0.997872  0.757934  0.250000  1
  Ga  Ga10  1  0.393505  0.393505  0.750000  1
  Bi  Bi11  1  0.611736  0.003133  0.750000  1
  Bi  Bi12  1  0.003133  0.611736  0.750000  1
  Bi  Bi13  1  0.390164  0.994926  0.250000  1
  Bi  Bi14  1  0.994926  0.390164  0.250000  1
  Sb  Sb15  1  0.610126  0.610126  0.250000  1
