# generated using pymatgen
data_Tm3Al3ZnGeRh
_symmetry_space_group_name_H-M   'P 1'
_cell_length_a   6.91822100
_cell_length_b   6.91822063
_cell_length_c   4.18997300
_cell_angle_alpha   90.00000000
_cell_angle_beta   90.00000000
_cell_angle_gamma   119.99999697
_symmetry_Int_Tables_number   1
_chemical_formula_structural   Tm3Al3ZnGeRh
_chemical_formula_sum   'Tm3 Al3 Zn1 Ge1 Rh1'
_cell_volume   173.67236120
_cell_formula_units_Z   1
loop_
 _symmetry_equiv_pos_site_id
 _symmetry_equiv_pos_as_xyz
  1  'x, y, z'
loop_
 _atom_site_type_symbol
 _atom_site_label
 _atom_site_symmetry_multiplicity
 _atom_site_fract_x
 _atom_site_fract_y
 _atom_site_fract_z
 _atom_site_occupancy
  Tm  Tm0  1  0.415853  0.000782  0.000000  1
  Tm  Tm1  1  0.999218  0.415070  0.000000  1
  Tm  Tm2  1  0.584930  0.584147  0.000000  1
  Al  Al3  1  0.769729  0.006780  0.499999  1
  Al  Al4  1  0.237051  0.230271  0.499999  1
  Al  Al5  1  0.993220  0.762948  0.499999  1
  Zn  Zn6  1  0.666667  0.333334  0.499999  1
  Ge  Ge7  1  0.333334  0.666667  0.499999  1
  Rh  Rh8  1  0.000000  0.000000  0.000000  1
