# generated using pymatgen
data_TbYb12Y7Sn16
_symmetry_space_group_name_H-M   'P 1'
_cell_length_a   7.85713402
_cell_length_b   8.43744202
_cell_length_c   16.08825803
_cell_angle_alpha   90.00494706
_cell_angle_beta   89.99451223
_cell_angle_gamma   90.00517609
_symmetry_Int_Tables_number   1
_chemical_formula_structural   TbYb12Y7Sn16
_chemical_formula_sum   'Tb1 Yb12 Y7 Sn16'
_cell_volume   1066.55677774
_cell_formula_units_Z   1
loop_
 _symmetry_equiv_pos_site_id
 _symmetry_equiv_pos_as_xyz
  1  'x, y, z'
loop_
 _atom_site_type_symbol
 _atom_site_label
 _atom_site_symmetry_multiplicity
 _atom_site_fract_x
 _atom_site_fract_y
 _atom_site_fract_z
 _atom_site_occupancy
  Tb  Tb0  1  0.169522  0.332626  0.622153  1
  Yb  Yb1  1  0.501859  0.687274  0.593268  1
  Yb  Yb2  1  0.001834  0.812710  0.906728  1
  Yb  Yb3  1  0.498157  0.312716  0.093276  1
  Yb  Yb4  1  0.998151  0.187269  0.406712  1
  Yb  Yb5  1  0.498172  0.312708  0.406724  1
  Yb  Yb6  1  0.998165  0.187281  0.093279  1
  Yb  Yb7  1  0.501849  0.687286  0.906724  1
  Yb  Yb8  1  0.001794  0.812740  0.593284  1
  Yb  Yb9  1  0.831971  0.511392  0.750000  1
  Yb  Yb10  1  0.331977  0.988594  0.750010  1
  Yb  Yb11  1  0.168028  0.488621  0.249997  1
  Yb  Yb12  1  0.668032  0.011390  0.250008  1
  Y  Y13  1  0.669622  0.167269  0.622127  1
  Y  Y14  1  0.169634  0.332706  0.877881  1
  Y  Y15  1  0.330393  0.832682  0.122155  1
  Y  Y16  1  0.830407  0.667293  0.377840  1
  Y  Y17  1  0.330407  0.832675  0.377828  1
  Y  Y18  1  0.830411  0.667319  0.122156  1
  Y  Y19  1  0.669570  0.167309  0.877867  1
  Sn  Sn20  1  0.672144  0.964935  0.459674  1
  Sn  Sn21  1  0.172131  0.535045  0.040326  1
  Sn  Sn22  1  0.327856  0.035050  0.959682  1
  Sn  Sn23  1  0.827746  0.465000  0.540314  1
  Sn  Sn24  1  0.327981  0.035073  0.540319  1
  Sn  Sn25  1  0.827884  0.464966  0.959670  1
  Sn  Sn26  1  0.672131  0.964958  0.040321  1
  Sn  Sn27  1  0.172127  0.535109  0.459602  1
  Sn  Sn28  1  0.467025  0.376969  0.750060  1
  Sn  Sn29  1  0.966942  0.123004  0.749977  1
  Sn  Sn30  1  0.533019  0.623055  0.250000  1
  Sn  Sn31  1  0.033018  0.876961  0.249996  1
  Sn  Sn32  1  0.711955  0.872247  0.750022  1
  Sn  Sn33  1  0.212002  0.627751  0.750027  1
  Sn  Sn34  1  0.288045  0.127759  0.249997  1
  Sn  Sn35  1  0.788041  0.372255  0.249998  1
