# generated using pymatgen
data_Nd2Tm4CrCo17P12
_symmetry_space_group_name_H-M   'P 1'
_cell_length_a   3.69789400
_cell_length_b   10.53760300
_cell_length_c   12.21198400
_cell_angle_alpha   90.00000000
_cell_angle_beta   90.00000000
_cell_angle_gamma   90.00000000
_symmetry_Int_Tables_number   1
_chemical_formula_structural   Nd2Tm4CrCo17P12
_chemical_formula_sum   'Nd2 Tm4 Cr1 Co17 P12'
_cell_volume   475.86363447
_cell_formula_units_Z   1
loop_
 _symmetry_equiv_pos_site_id
 _symmetry_equiv_pos_as_xyz
  1  'x, y, z'
loop_
 _atom_site_type_symbol
 _atom_site_label
 _atom_site_symmetry_multiplicity
 _atom_site_fract_x
 _atom_site_fract_y
 _atom_site_fract_z
 _atom_site_occupancy
  Nd  Nd0  1  0.000000  0.500000  0.523016  1
  Nd  Nd1  1  0.500000  0.000000  0.477305  1
  Tm  Tm2  1  0.500000  0.817670  0.204838  1
  Tm  Tm3  1  0.500000  0.182330  0.204838  1
  Tm  Tm4  1  0.000000  0.681885  0.796898  1
  Tm  Tm5  1  0.000000  0.318115  0.796898  1
  Cr  Cr6  1  0.500000  0.500000  0.153547  1
  Co  Co7  1  0.000000  0.000000  0.842637  1
  Co  Co8  1  0.500000  0.500000  0.706295  1
  Co  Co9  1  0.000000  0.000000  0.292907  1
  Co  Co10  1  0.000000  0.500000  0.987394  1
  Co  Co11  1  0.500000  0.000000  0.014305  1
  Co  Co12  1  0.500000  0.332621  0.993261  1
  Co  Co13  1  0.500000  0.667379  0.993261  1
  Co  Co14  1  0.000000  0.167047  0.006192  1
  Co  Co15  1  0.000000  0.832953  0.006192  1
  Co  Co16  1  0.500000  0.295701  0.428909  1
  Co  Co17  1  0.500000  0.704299  0.428909  1
  Co  Co18  1  0.000000  0.204077  0.570941  1
  Co  Co19  1  0.000000  0.795923  0.570941  1
  Co  Co20  1  0.500000  0.878793  0.712269  1
  Co  Co21  1  0.500000  0.121207  0.712269  1
  Co  Co22  1  0.000000  0.620822  0.287528  1
  Co  Co23  1  0.000000  0.379178  0.287528  1
  P  P24  1  0.500000  0.500000  0.882788  1
  P  P25  1  0.000000  0.000000  0.116648  1
  P  P26  1  0.500000  0.500000  0.340436  1
  P  P27  1  0.000000  0.000000  0.660607  1
  P  P28  1  0.500000  0.308380  0.619037  1
  P  P29  1  0.500000  0.691620  0.619037  1
  P  P30  1  0.000000  0.191526  0.381501  1
  P  P31  1  0.000000  0.808474  0.381501  1
  P  P32  1  0.500000  0.847534  0.893141  1
  P  P33  1  0.500000  0.152466  0.893141  1
  P  P34  1  0.000000  0.654194  0.106542  1
  P  P35  1  0.000000  0.345806  0.106542  1
