# generated using pymatgen
data_Dy7Sn23Os5Rh
_symmetry_space_group_name_H-M   'P 1'
_cell_length_a   9.86953601
_cell_length_b   9.87237378
_cell_length_c   10.13337290
_cell_angle_alpha   90.00000058
_cell_angle_beta   89.82987087
_cell_angle_gamma   120.00950735
_symmetry_Int_Tables_number   1
_chemical_formula_structural   Dy7Sn23Os5Rh
_chemical_formula_sum   'Dy7 Sn23 Os5 Rh1'
_cell_volume   854.98562799
_cell_formula_units_Z   1
loop_
 _symmetry_equiv_pos_site_id
 _symmetry_equiv_pos_as_xyz
  1  'x, y, z'
loop_
 _atom_site_type_symbol
 _atom_site_label
 _atom_site_symmetry_multiplicity
 _atom_site_fract_x
 _atom_site_fract_y
 _atom_site_fract_z
 _atom_site_occupancy
  Dy  Dy0  1  0.005150  0.002575  0.003582  1
  Dy  Dy1  1  0.483534  0.515245  0.303081  1
  Dy  Dy2  1  0.515253  0.480942  0.695748  1
  Dy  Dy3  1  0.483534  0.968289  0.303081  1
  Dy  Dy4  1  0.515253  0.034312  0.695748  1
  Dy  Dy5  1  0.032893  0.516446  0.302754  1
  Dy  Dy6  1  0.966679  0.483340  0.696732  1
  Sn  Sn7  1  0.350143  0.999732  0.000177  1
  Sn  Sn8  1  0.650581  0.002280  0.999000  1
  Sn  Sn9  1  0.000216  0.350070  0.999998  1
  Sn  Sn10  1  0.000216  0.650146  0.999998  1
  Sn  Sn11  1  0.650581  0.648301  0.999000  1
  Sn  Sn12  1  0.350143  0.350410  0.000177  1
  Sn  Sn13  1  0.331514  0.665757  0.820642  1
  Sn  Sn14  1  0.667046  0.333522  0.177796  1
  Sn  Sn15  1  0.999036  0.999518  0.501071  1
  Sn  Sn16  1  0.779829  0.220152  0.460477  1
  Sn  Sn17  1  0.219863  0.779744  0.539129  1
  Sn  Sn18  1  0.779829  0.559677  0.460477  1
  Sn  Sn19  1  0.219863  0.440119  0.539129  1
  Sn  Sn20  1  0.440107  0.220053  0.460124  1
  Sn  Sn21  1  0.558384  0.779192  0.540114  1
  Sn  Sn22  1  0.334117  0.667059  0.125896  1
  Sn  Sn23  1  0.667254  0.333627  0.873644  1
  Sn  Sn24  1  0.117210  0.882533  0.277054  1
  Sn  Sn25  1  0.882349  0.117348  0.723063  1
  Sn  Sn26  1  0.117210  0.234676  0.277054  1
  Sn  Sn27  1  0.882349  0.765002  0.723063  1
  Sn  Sn28  1  0.765195  0.882597  0.276214  1
  Sn  Sn29  1  0.234818  0.117410  0.724557  1
  Os  Os30  1  0.830253  0.169900  0.201588  1
  Os  Os31  1  0.170674  0.830566  0.798675  1
  Os  Os32  1  0.830253  0.660351  0.201588  1
  Os  Os33  1  0.170674  0.340110  0.798675  1
  Os  Os34  1  0.338899  0.169448  0.200485  1
  Rh  Rh35  1  0.659098  0.829550  0.800408  1
