# generated using pymatgen
data_Ba2Zn3H3Pd14
_symmetry_space_group_name_H-M   'P 1'
_cell_length_a   6.99505200
_cell_length_b   6.99504967
_cell_length_c   6.99505000
_cell_angle_alpha   83.29843798
_cell_angle_beta   83.29843198
_cell_angle_gamma   83.29844734
_symmetry_Int_Tables_number   1
_chemical_formula_structural   Ba2Zn3H3Pd14
_chemical_formula_sum   'Ba2 Zn3 H3 Pd14'
_cell_volume   335.76319098
_cell_formula_units_Z   1
loop_
 _symmetry_equiv_pos_site_id
 _symmetry_equiv_pos_as_xyz
  1  'x, y, z'
loop_
 _atom_site_type_symbol
 _atom_site_label
 _atom_site_symmetry_multiplicity
 _atom_site_fract_x
 _atom_site_fract_y
 _atom_site_fract_z
 _atom_site_occupancy
  Ba  Ba0  1  0.652085  0.652085  0.652085  1
  Ba  Ba1  1  0.347915  0.347915  0.347915  1
  Zn  Zn2  1  0.000000  0.000000  0.500000  1
  Zn  Zn3  1  0.500000  0.000000  0.000000  1
  Zn  Zn4  1  0.000000  0.500000  0.000000  1
  H  H5  1  0.500000  0.500000  0.000000  1
  H  H6  1  0.000000  0.500000  0.500000  1
  H  H7  1  0.500000  0.000000  0.500000  1
  Pd  Pd8  1  0.709938  0.290062  0.000000  1
  Pd  Pd9  1  0.000000  0.709938  0.290062  1
  Pd  Pd10  1  0.290062  0.000000  0.709938  1
  Pd  Pd11  1  0.000000  0.290062  0.709938  1
  Pd  Pd12  1  0.709938  0.000000  0.290062  1
  Pd  Pd13  1  0.290062  0.709938  0.000000  1
  Pd  Pd14  1  0.344612  0.344612  0.862652  1
  Pd  Pd15  1  0.862652  0.344612  0.344612  1
  Pd  Pd16  1  0.344612  0.862652  0.344612  1
  Pd  Pd17  1  0.655388  0.655388  0.137348  1
  Pd  Pd18  1  0.137348  0.655388  0.655388  1
  Pd  Pd19  1  0.655388  0.137348  0.655388  1
  Pd  Pd20  1  0.901266  0.901266  0.901266  1
  Pd  Pd21  1  0.098734  0.098734  0.098734  1
