# generated using pymatgen
data_Pr19YSi15Hg
_symmetry_space_group_name_H-M   'P 1'
_cell_length_a   7.95282903
_cell_length_b   7.94802803
_cell_length_c   15.30642809
_cell_angle_alpha   90.07743054
_cell_angle_beta   89.63198847
_cell_angle_gamma   89.81343721
_symmetry_Int_Tables_number   1
_chemical_formula_structural   Pr19YSi15Hg
_chemical_formula_sum   'Pr19 Y1 Si15 Hg1'
_cell_volume   967.48273197
_cell_formula_units_Z   1
loop_
 _symmetry_equiv_pos_site_id
 _symmetry_equiv_pos_as_xyz
  1  'x, y, z'
loop_
 _atom_site_type_symbol
 _atom_site_label
 _atom_site_symmetry_multiplicity
 _atom_site_fract_x
 _atom_site_fract_y
 _atom_site_fract_z
 _atom_site_occupancy
  Pr  Pr0  1  0.193596  0.808256  0.249417  1
  Pr  Pr1  1  0.798763  0.186836  0.752512  1
  Pr  Pr2  1  0.693148  0.690405  0.497767  1
  Pr  Pr3  1  0.374279  0.012899  0.448225  1
  Pr  Pr4  1  0.492045  0.868602  0.699502  1
  Pr  Pr5  1  0.510271  0.123079  0.197268  1
  Pr  Pr6  1  0.878488  0.488886  0.300344  1
  Pr  Pr7  1  0.119826  0.518794  0.804273  1
  Pr  Pr8  1  0.626466  0.986686  0.951374  1
  Pr  Pr9  1  0.001472  0.383073  0.547161  1
  Pr  Pr10  1  0.989317  0.625521  0.052713  1
  Pr  Pr11  1  0.129896  0.980864  0.879685  1
  Pr  Pr12  1  0.519671  0.629552  0.126394  1
  Pr  Pr13  1  0.485586  0.377618  0.626381  1
  Pr  Pr14  1  0.629143  0.520419  0.876644  1
  Pr  Pr15  1  0.373882  0.482448  0.371497  1
  Pr  Pr16  1  0.872881  0.019849  0.375559  1
  Pr  Pr17  1  0.982293  0.127078  0.123880  1
  Pr  Pr18  1  0.009839  0.860902  0.620922  1
  Y  Y19  1  0.309553  0.310137  0.000036  1
  Si  Si20  1  0.330521  0.691791  0.953998  1
  Si  Si21  1  0.662753  0.302548  0.450374  1
  Si  Si22  1  0.695532  0.331996  0.048599  1
  Si  Si23  1  0.306326  0.669705  0.546083  1
  Si  Si24  1  0.806401  0.831587  0.202527  1
  Si  Si25  1  0.169089  0.196036  0.297740  1
  Si  Si26  1  0.833704  0.804330  0.799080  1
  Si  Si27  1  0.288301  0.925600  0.060033  1
  Si  Si28  1  0.579757  0.787965  0.309337  1
  Si  Si29  1  0.430084  0.212112  0.819402  1
  Si  Si30  1  0.785820  0.577656  0.691727  1
  Si  Si31  1  0.214559  0.419189  0.187275  1
  Si  Si32  1  0.708971  0.079344  0.559185  1
  Si  Si33  1  0.927188  0.290090  0.941783  1
  Si  Si34  1  0.080183  0.713483  0.438481  1
  Hg  Hg35  1  0.190394  0.164667  0.692821  1
