# generated using pymatgen
data_SrTb6FeBr12
_symmetry_space_group_name_H-M   'P 1'
_cell_length_a   9.26872407
_cell_length_b   9.26872329
_cell_length_c   9.26872523
_cell_angle_alpha   106.09590811
_cell_angle_beta   106.09590906
_cell_angle_gamma   106.09590676
_symmetry_Int_Tables_number   1
_chemical_formula_structural   SrTb6FeBr12
_chemical_formula_sum   'Sr1 Tb6 Fe1 Br12'
_cell_volume   678.83177210
_cell_formula_units_Z   1
loop_
 _symmetry_equiv_pos_site_id
 _symmetry_equiv_pos_as_xyz
  1  'x, y, z'
loop_
 _atom_site_type_symbol
 _atom_site_label
 _atom_site_symmetry_multiplicity
 _atom_site_fract_x
 _atom_site_fract_y
 _atom_site_fract_z
 _atom_site_occupancy
  Sr  Sr0  1  0.500000  0.500000  0.500000  1
  Tb  Tb1  1  0.094769  0.017452  0.300160  1
  Tb  Tb2  1  0.300160  0.094769  0.017452  1
  Tb  Tb3  1  0.017452  0.300160  0.094769  1
  Tb  Tb4  1  0.905231  0.982548  0.699840  1
  Tb  Tb5  1  0.699840  0.905231  0.982548  1
  Tb  Tb6  1  0.982548  0.699840  0.905231  1
  Fe  Fe7  1  0.000000  0.000000  0.000000  1
  Br  Br8  1  0.074345  0.680648  0.221992  1
  Br  Br9  1  0.221992  0.074345  0.680648  1
  Br  Br10  1  0.680648  0.221992  0.074345  1
  Br  Br11  1  0.925655  0.319352  0.778008  1
  Br  Br12  1  0.778008  0.925655  0.319352  1
  Br  Br13  1  0.319352  0.778008  0.925655  1
  Br  Br14  1  0.442489  0.138775  0.362918  1
  Br  Br15  1  0.362918  0.442489  0.138775  1
  Br  Br16  1  0.138775  0.362918  0.442489  1
  Br  Br17  1  0.557511  0.861225  0.637082  1
  Br  Br18  1  0.637082  0.557511  0.861225  1
  Br  Br19  1  0.861225  0.637082  0.557511  1
