# generated using pymatgen
data_Ba4GaSi6PPt8
_symmetry_space_group_name_H-M   'P 1'
_cell_length_a   6.99300063
_cell_length_b   7.88389721
_cell_length_c   8.10729010
_cell_angle_alpha   93.42387250
_cell_angle_beta   89.40939939
_cell_angle_gamma   89.41482020
_symmetry_Int_Tables_number   1
_chemical_formula_structural   Ba4GaSi6PPt8
_chemical_formula_sum   'Ba4 Ga1 Si6 P1 Pt8'
_cell_volume   446.12412426
_cell_formula_units_Z   1
loop_
 _symmetry_equiv_pos_site_id
 _symmetry_equiv_pos_as_xyz
  1  'x, y, z'
loop_
 _atom_site_type_symbol
 _atom_site_label
 _atom_site_symmetry_multiplicity
 _atom_site_fract_x
 _atom_site_fract_y
 _atom_site_fract_z
 _atom_site_occupancy
  Ba  Ba0  1  0.872429  0.501691  0.750458  1
  Ba  Ba1  1  0.367706  0.002649  0.245733  1
  Ba  Ba2  1  0.634271  0.995518  0.743892  1
  Ba  Ba3  1  0.132406  0.505291  0.254826  1
  Ga  Ga4  1  0.410786  0.359464  0.922240  1
  Si  Si5  1  0.088069  0.863800  0.926499  1
  Si  Si6  1  0.598329  0.360479  0.427869  1
  Si  Si7  1  0.091373  0.138906  0.570442  1
  Si  Si8  1  0.596280  0.641508  0.075028  1
  Si  Si9  1  0.904894  0.141151  0.070907  1
  Si  Si10  1  0.406700  0.631019  0.582544  1
  P  P11  1  0.900181  0.854952  0.430585  1
  Pt  Pt12  1  0.848744  0.151831  0.370524  1
  Pt  Pt13  1  0.142831  0.831755  0.624548  1
  Pt  Pt14  1  0.139850  0.155355  0.864475  1
  Pt  Pt15  1  0.347052  0.329725  0.614923  1
  Pt  Pt16  1  0.358951  0.683922  0.877762  1
  Pt  Pt17  1  0.850474  0.841602  0.134460  1
  Pt  Pt18  1  0.661671  0.347857  0.135618  1
  Pt  Pt19  1  0.647001  0.661526  0.376667  1
