# generated using pymatgen
data_Sr2HgBiAs
_symmetry_space_group_name_H-M   'P 1'
_cell_length_a   4.89949648
_cell_length_b   4.90502363
_cell_length_c   10.97976884
_cell_angle_alpha   47.66271387
_cell_angle_beta   63.22614476
_cell_angle_gamma   60.07373361
_symmetry_Int_Tables_number   1
_chemical_formula_structural   Sr2HgBiAs
_chemical_formula_sum   'Sr2 Hg1 Bi1 As1'
_cell_volume   166.32206369
_cell_formula_units_Z   1
loop_
 _symmetry_equiv_pos_site_id
 _symmetry_equiv_pos_as_xyz
  1  'x, y, z'
loop_
 _atom_site_type_symbol
 _atom_site_label
 _atom_site_symmetry_multiplicity
 _atom_site_fract_x
 _atom_site_fract_y
 _atom_site_fract_z
 _atom_site_occupancy
  Sr  Sr0  1  0.784129  0.511552  0.056684  1
  Sr  Sr1  1  0.244672  0.337976  0.687782  1
  Hg  Hg2  1  0.647196  0.945584  0.484361  1
  Bi  Bi3  1  0.023340  0.455304  0.352622  1
  As  As4  1  0.519127  0.444607  0.857549  1
