# generated using pymatgen
data_SrTbTh2(Al8Pt3)3
_symmetry_space_group_name_H-M   'P 1'
_cell_length_a   7.60470138
_cell_length_b   7.61370891
_cell_length_c   13.28935231
_cell_angle_alpha   84.49919184
_cell_angle_beta   78.97377128
_cell_angle_gamma   59.92064544
_symmetry_Int_Tables_number   1
_chemical_formula_structural   SrTbTh2(Al8Pt3)3
_chemical_formula_sum   'Sr1 Tb1 Th2 Al24 Pt9'
_cell_volume   653.54114532
_cell_formula_units_Z   1
loop_
 _symmetry_equiv_pos_site_id
 _symmetry_equiv_pos_as_xyz
  1  'x, y, z'
loop_
 _atom_site_type_symbol
 _atom_site_label
 _atom_site_symmetry_multiplicity
 _atom_site_fract_x
 _atom_site_fract_y
 _atom_site_fract_z
 _atom_site_occupancy
  Sr  Sr0  1  0.733421  0.498180  0.808472  1
  Tb  Tb1  1  0.266286  0.501796  0.193044  1
  Th  Th2  1  0.394819  0.167782  0.806216  1
  Th  Th3  1  0.605315  0.831553  0.193756  1
  Al  Al4  1  0.687490  0.832983  0.946706  1
  Al  Al5  1  0.312166  0.169254  0.055795  1
  Al  Al6  1  0.146630  0.832952  0.559523  1
  Al  Al7  1  0.853670  0.167035  0.439241  1
  Al  Al8  1  0.481568  0.167305  0.556091  1
  Al  Al9  1  0.518971  0.832557  0.442713  1
  Al  Al10  1  0.212674  0.169089  0.333682  1
  Al  Al11  1  0.787942  0.830977  0.663846  1
  Al  Al12  1  0.439094  0.510344  0.664193  1
  Al  Al13  1  0.561850  0.489415  0.333223  1
  Al  Al14  1  0.108246  0.159588  0.663121  1
  Al  Al15  1  0.892460  0.840222  0.334540  1
  Al  Al16  1  0.348774  0.502782  0.948450  1
  Al  Al17  1  0.648184  0.497138  0.054597  1
  Al  Al18  1  0.013873  0.164992  0.956963  1
  Al  Al19  1  0.987207  0.832931  0.045666  1
  Al  Al20  1  0.185782  0.499929  0.441181  1
  Al  Al21  1  0.814789  0.500095  0.557334  1
  Al  Al22  1  0.734464  0.167137  0.184158  1
  Al  Al23  1  0.260166  0.839378  0.816612  1
  Al  Al24  1  0.065351  0.632787  0.815101  1
  Al  Al25  1  0.940840  0.365773  0.185498  1
  Al  Al26  1  0.858343  0.036324  0.816066  1
  Al  Al27  1  0.139377  0.959385  0.184427  1
  Pt  Pt28  1  0.124554  0.492174  0.636595  1
  Pt  Pt29  1  0.878421  0.508632  0.361358  1
  Pt  Pt30  1  0.656302  0.169542  0.001886  1
  Pt  Pt31  1  0.341772  0.830353  0.001818  1
  Pt  Pt32  1  0.538081  0.165477  0.361415  1
  Pt  Pt33  1  0.459703  0.836517  0.636708  1
  Pt  Pt34  1  0.779816  0.171655  0.635791  1
  Pt  Pt35  1  0.221710  0.825333  0.362112  1
  Pt  Pt36  1  0.999890  0.500633  0.002103  1
