# generated using pymatgen
data_Sm2Dy3Er(SbO7)2
_symmetry_space_group_name_H-M   'P 1'
_cell_length_a   6.49415337
_cell_length_b   6.48971580
_cell_length_c   7.58086500
_cell_angle_alpha   90.00000000
_cell_angle_beta   90.00000000
_cell_angle_gamma   109.31276131
_symmetry_Int_Tables_number   1
_chemical_formula_structural   Sm2Dy3Er(SbO7)2
_chemical_formula_sum   'Sm2 Dy3 Er1 Sb2 O14'
_cell_volume   301.51818250
_cell_formula_units_Z   1
loop_
 _symmetry_equiv_pos_site_id
 _symmetry_equiv_pos_as_xyz
  1  'x, y, z'
loop_
 _atom_site_type_symbol
 _atom_site_label
 _atom_site_symmetry_multiplicity
 _atom_site_fract_x
 _atom_site_fract_y
 _atom_site_fract_z
 _atom_site_occupancy
  Sm  Sm0  1  0.498811  0.499126  0.500377  1
  Sm  Sm1  1  0.498811  0.499126  0.999623  1
  Dy  Dy2  1  0.531687  0.000506  0.750000  1
  Dy  Dy3  1  0.000345  0.531492  0.250000  1
  Dy  Dy4  1  0.468726  0.999142  0.250000  1
  Er  Er5  1  0.998665  0.469066  0.750000  1
  Sb  Sb6  1  0.000260  0.000057  0.500514  1
  Sb  Sb7  1  0.000260  0.000057  0.999486  1
  O  O8  1  0.678445  0.928103  0.470526  1
  O  O9  1  0.931680  0.678917  0.531455  1
  O  O10  1  0.678445  0.928103  0.029474  1
  O  O11  1  0.931680  0.678917  0.968545  1
  O  O12  1  0.322222  0.072036  0.529392  1
  O  O13  1  0.069602  0.321897  0.471439  1
  O  O14  1  0.322222  0.072036  0.970608  1
  O  O15  1  0.069602  0.321897  0.028561  1
  O  O16  1  0.930953  0.071014  0.750000  1
  O  O17  1  0.068791  0.930276  0.250000  1
  O  O18  1  0.362775  0.632543  0.750000  1
  O  O19  1  0.633976  0.366064  0.250000  1
  O  O20  1  0.642186  0.360504  0.750000  1
  O  O21  1  0.359857  0.639122  0.250000  1
