# generated using pymatgen
data_Tm6Zn23Se
_symmetry_space_group_name_H-M   'P 1'
_cell_length_a   9.02935765
_cell_length_b   9.02935801
_cell_length_c   9.02935800
_cell_angle_alpha   60.00000005
_cell_angle_beta   59.99999871
_cell_angle_gamma   60.00000048
_symmetry_Int_Tables_number   1
_chemical_formula_structural   Tm6Zn23Se
_chemical_formula_sum   'Tm6 Zn23 Se1'
_cell_volume   520.54178950
_cell_formula_units_Z   1
loop_
 _symmetry_equiv_pos_site_id
 _symmetry_equiv_pos_as_xyz
  1  'x, y, z'
loop_
 _atom_site_type_symbol
 _atom_site_label
 _atom_site_symmetry_multiplicity
 _atom_site_fract_x
 _atom_site_fract_y
 _atom_site_fract_z
 _atom_site_occupancy
  Tm  Tm0  1  0.717399  0.282601  0.282601  1
  Tm  Tm1  1  0.717399  0.282601  0.717399  1
  Tm  Tm2  1  0.717399  0.717399  0.282601  1
  Tm  Tm3  1  0.282601  0.717399  0.717399  1
  Tm  Tm4  1  0.282601  0.717399  0.282601  1
  Tm  Tm5  1  0.282601  0.282601  0.717399  1
  Zn  Zn6  1  0.623813  0.125396  0.125396  1
  Zn  Zn7  1  0.125396  0.623813  0.125396  1
  Zn  Zn8  1  0.125396  0.125396  0.623813  1
  Zn  Zn9  1  0.125396  0.125396  0.125396  1
  Zn  Zn10  1  0.376187  0.874604  0.874604  1
  Zn  Zn11  1  0.874604  0.376187  0.874604  1
  Zn  Zn12  1  0.874604  0.874604  0.376187  1
  Zn  Zn13  1  0.874604  0.874604  0.874604  1
  Zn  Zn14  1  0.500000  0.000000  0.000000  1
  Zn  Zn15  1  0.500000  0.000000  0.500000  1
  Zn  Zn16  1  0.500000  0.500000  0.000000  1
  Zn  Zn17  1  0.000000  0.500000  0.500000  1
  Zn  Zn18  1  0.000000  0.500000  0.000000  1
  Zn  Zn19  1  0.000000  0.000000  0.500000  1
  Zn  Zn20  1  0.000000  0.000000  0.000000  1
  Zn  Zn21  1  0.011028  0.329657  0.329657  1
  Zn  Zn22  1  0.329657  0.011028  0.329657  1
  Zn  Zn23  1  0.329657  0.329657  0.011028  1
  Zn  Zn24  1  0.329657  0.329657  0.329657  1
  Zn  Zn25  1  0.988972  0.670343  0.670343  1
  Zn  Zn26  1  0.670343  0.988972  0.670343  1
  Zn  Zn27  1  0.670343  0.670343  0.988972  1
  Zn  Zn28  1  0.670343  0.670343  0.670343  1
  Se  Se29  1  0.500000  0.500000  0.500000  1
