# generated using pymatgen
data_Nd4Y9Th3Mg2(CdIr2)2
_symmetry_space_group_name_H-M   'P 1'
_cell_length_a   9.82139096
_cell_length_b   9.84171066
_cell_length_c   9.85219946
_cell_angle_alpha   60.05596174
_cell_angle_beta   59.95501237
_cell_angle_gamma   59.92294213
_symmetry_Int_Tables_number   1
_chemical_formula_structural   Nd4Y9Th3Mg2(CdIr2)2
_chemical_formula_sum   'Nd4 Y9 Th3 Mg2 Cd2 Ir4'
_cell_volume   673.04411305
_cell_formula_units_Z   1
loop_
 _symmetry_equiv_pos_site_id
 _symmetry_equiv_pos_as_xyz
  1  'x, y, z'
loop_
 _atom_site_type_symbol
 _atom_site_label
 _atom_site_symmetry_multiplicity
 _atom_site_fract_x
 _atom_site_fract_y
 _atom_site_fract_z
 _atom_site_occupancy
  Nd  Nd0  1  0.564767  0.936967  0.564363  1
  Nd  Nd1  1  0.940029  0.562879  0.934453  1
  Nd  Nd2  1  0.565414  0.565327  0.935818  1
  Nd  Nd3  1  0.939238  0.936712  0.561596  1
  Y  Y4  1  0.952504  0.349039  0.349589  1
  Y  Y5  1  0.813325  0.187965  0.187499  1
  Y  Y6  1  0.188238  0.814227  0.813963  1
  Y  Y7  1  0.188640  0.812829  0.185786  1
  Y  Y8  1  0.813250  0.186091  0.812376  1
  Y  Y9  1  0.189027  0.188009  0.811544  1
  Y  Y10  1  0.813546  0.813039  0.185166  1
  Y  Y11  1  0.944288  0.559715  0.559069  1
  Y  Y12  1  0.557930  0.942800  0.939431  1
  Th  Th13  1  0.345828  0.347216  0.347452  1
  Th  Th14  1  0.344903  0.349767  0.957398  1
  Th  Th15  1  0.344339  0.958739  0.348984  1
  Mg  Mg16  1  0.577866  0.574927  0.578742  1
  Mg  Mg17  1  0.575235  0.577325  0.267419  1
  Cd  Cd18  1  0.580570  0.257428  0.582536  1
  Cd  Cd19  1  0.255724  0.580338  0.579805  1
  Ir  Ir20  1  0.148715  0.140521  0.139549  1
  Ir  Ir21  1  0.144253  0.143331  0.571288  1
  Ir  Ir22  1  0.143496  0.571667  0.143304  1
  Ir  Ir23  1  0.568870  0.143143  0.142867  1
