# generated using pymatgen
data_Tb2Er(SiIr)2
_symmetry_space_group_name_H-M   'P 1'
_cell_length_a   5.58695281
_cell_length_b   5.58695192
_cell_length_c   13.23902400
_cell_angle_alpha   90.00000000
_cell_angle_beta   90.00000000
_cell_angle_gamma   137.03373325
_symmetry_Int_Tables_number   1
_chemical_formula_structural   Tb2Er(SiIr)2
_chemical_formula_sum   'Tb4 Er2 Si4 Ir4'
_cell_volume   281.65332175
_cell_formula_units_Z   2
loop_
 _symmetry_equiv_pos_site_id
 _symmetry_equiv_pos_as_xyz
  1  'x, y, z'
loop_
 _atom_site_type_symbol
 _atom_site_label
 _atom_site_symmetry_multiplicity
 _atom_site_fract_x
 _atom_site_fract_y
 _atom_site_fract_z
 _atom_site_occupancy
  Tb  Tb0  1  0.774097  0.225903  0.604449  1
  Tb  Tb1  1  0.225903  0.774097  0.395551  1
  Tb  Tb2  1  0.774097  0.225903  0.895551  1
  Tb  Tb3  1  0.225903  0.774097  0.104449  1
  Er  Er4  1  0.517426  0.482574  0.250000  1
  Er  Er5  1  0.482574  0.517426  0.750000  1
  Si  Si6  1  0.061407  0.938593  0.590303  1
  Si  Si7  1  0.061407  0.938593  0.909697  1
  Si  Si8  1  0.938593  0.061407  0.409697  1
  Si  Si9  1  0.938593  0.061407  0.090303  1
  Ir  Ir10  1  0.811977  0.188023  0.250000  1
  Ir  Ir11  1  0.188023  0.811977  0.750000  1
  Ir  Ir12  1  0.500000  0.500000  0.000000  1
  Ir  Ir13  1  0.500000  0.500000  0.500000  1
