# generated using pymatgen
data_Sm8Y11LuPb16
_symmetry_space_group_name_H-M   'P 1'
_cell_length_a   8.25184754
_cell_length_b   8.35353156
_cell_length_c   15.78585100
_cell_angle_alpha   90.00000000
_cell_angle_beta   90.00000000
_cell_angle_gamma   90.07007170
_symmetry_Int_Tables_number   1
_chemical_formula_structural   Sm8Y11LuPb16
_chemical_formula_sum   'Sm8 Y11 Lu1 Pb16'
_cell_volume   1088.15055488
_cell_formula_units_Z   1
loop_
 _symmetry_equiv_pos_site_id
 _symmetry_equiv_pos_as_xyz
  1  'x, y, z'
loop_
 _atom_site_type_symbol
 _atom_site_label
 _atom_site_symmetry_multiplicity
 _atom_site_fract_x
 _atom_site_fract_y
 _atom_site_fract_z
 _atom_site_occupancy
  Sm  Sm0  1  0.469435  0.677140  0.598821  1
  Sm  Sm1  1  0.969471  0.822897  0.901370  1
  Sm  Sm2  1  0.530909  0.322253  0.098888  1
  Sm  Sm3  1  0.030054  0.176699  0.401084  1
  Sm  Sm4  1  0.530909  0.322253  0.401112  1
  Sm  Sm5  1  0.030054  0.176699  0.098916  1
  Sm  Sm6  1  0.469435  0.677140  0.901179  1
  Sm  Sm7  1  0.969471  0.822897  0.598630  1
  Y  Y8  1  0.628041  0.158344  0.621333  1
  Y  Y9  1  0.128014  0.341669  0.878381  1
  Y  Y10  1  0.372825  0.842251  0.121831  1
  Y  Y11  1  0.871448  0.658627  0.378261  1
  Y  Y12  1  0.372825  0.842251  0.378169  1
  Y  Y13  1  0.871448  0.658627  0.121739  1
  Y  Y14  1  0.628041  0.158344  0.878667  1
  Y  Y15  1  0.128014  0.341669  0.621619  1
  Y  Y16  1  0.794272  0.495943  0.750000  1
  Y  Y17  1  0.294271  0.004005  0.750000  1
  Y  Y18  1  0.205523  0.503952  0.250000  1
  Lu  Lu19  1  0.706059  0.995165  0.250000  1
  Pb  Pb20  1  0.713209  0.963575  0.456095  1
  Pb  Pb21  1  0.213169  0.536834  0.043137  1
  Pb  Pb22  1  0.286856  0.036888  0.957095  1
  Pb  Pb23  1  0.786918  0.463294  0.542902  1
  Pb  Pb24  1  0.286856  0.036888  0.542905  1
  Pb  Pb25  1  0.786918  0.463294  0.957098  1
  Pb  Pb26  1  0.713209  0.963575  0.043905  1
  Pb  Pb27  1  0.213169  0.536834  0.456863  1
  Pb  Pb28  1  0.431585  0.373863  0.750000  1
  Pb  Pb29  1  0.931520  0.125966  0.750000  1
  Pb  Pb30  1  0.568893  0.627465  0.250000  1
  Pb  Pb31  1  0.066589  0.874736  0.250000  1
  Pb  Pb32  1  0.657933  0.848132  0.750000  1
  Pb  Pb33  1  0.157758  0.652307  0.750000  1
  Pb  Pb34  1  0.342992  0.151867  0.250000  1
  Pb  Pb35  1  0.841909  0.345661  0.250000  1
