# generated using pymatgen
data_La2Mo3As7Rh9
_symmetry_space_group_name_H-M   'P 1'
_cell_length_a   9.93207900
_cell_length_b   9.93207862
_cell_length_c   4.07392200
_cell_angle_alpha   90.00000000
_cell_angle_beta   90.00000000
_cell_angle_gamma   120.00000459
_symmetry_Int_Tables_number   1
_chemical_formula_structural   La2Mo3As7Rh9
_chemical_formula_sum   'La2 Mo3 As7 Rh9'
_cell_volume   348.03557256
_cell_formula_units_Z   1
loop_
 _symmetry_equiv_pos_site_id
 _symmetry_equiv_pos_as_xyz
  1  'x, y, z'
loop_
 _atom_site_type_symbol
 _atom_site_label
 _atom_site_symmetry_multiplicity
 _atom_site_fract_x
 _atom_site_fract_y
 _atom_site_fract_z
 _atom_site_occupancy
  La  La0  1  0.000000  0.000000  0.764206  1
  La  La1  1  0.333333  0.666667  0.263792  1
  Mo  Mo2  1  0.789285  0.548655  0.763614  1
  Mo  Mo3  1  0.451345  0.240630  0.763614  1
  Mo  Mo4  1  0.759370  0.210715  0.763614  1
  As  As5  1  0.666667  0.333333  0.263107  1
  As  As6  1  0.069245  0.622939  0.763766  1
  As  As7  1  0.377061  0.446307  0.763766  1
  As  As8  1  0.553693  0.930755  0.763766  1
  As  As9  1  0.257622  0.038489  0.263947  1
  As  As10  1  0.961511  0.219133  0.263947  1
  As  As11  1  0.780867  0.742378  0.263947  1
  Rh  Rh12  1  0.509586  0.057762  0.263759  1
  Rh  Rh13  1  0.942238  0.451824  0.263759  1
  Rh  Rh14  1  0.548176  0.490414  0.263759  1
  Rh  Rh15  1  0.100796  0.382199  0.763920  1
  Rh  Rh16  1  0.617801  0.718597  0.763920  1
  Rh  Rh17  1  0.281403  0.899204  0.763920  1
  Rh  Rh18  1  0.232945  0.269379  0.263938  1
  Rh  Rh19  1  0.730621  0.963567  0.263938  1
  Rh  Rh20  1  0.036433  0.767055  0.263938  1
