# generated using pymatgen
data_Tb6Al24NiOs7
_symmetry_space_group_name_H-M   'P 1'
_cell_length_a   8.82280100
_cell_length_b   8.82280179
_cell_length_c   9.55165000
_cell_angle_alpha   90.00000000
_cell_angle_beta   90.00000000
_cell_angle_gamma   119.99999329
_symmetry_Int_Tables_number   1
_chemical_formula_structural   Tb6Al24NiOs7
_chemical_formula_sum   'Tb6 Al24 Ni1 Os7'
_cell_volume   643.90540074
_cell_formula_units_Z   1
loop_
 _symmetry_equiv_pos_site_id
 _symmetry_equiv_pos_as_xyz
  1  'x, y, z'
loop_
 _atom_site_type_symbol
 _atom_site_label
 _atom_site_symmetry_multiplicity
 _atom_site_fract_x
 _atom_site_fract_y
 _atom_site_fract_z
 _atom_site_occupancy
  Tb  Tb0  1  0.193607  0.387214  0.249281  1
  Tb  Tb1  1  0.806393  0.612786  0.750719  1
  Tb  Tb2  1  0.612786  0.806393  0.249281  1
  Tb  Tb3  1  0.387214  0.193607  0.750719  1
  Tb  Tb4  1  0.193607  0.806393  0.249281  1
  Tb  Tb5  1  0.806393  0.193607  0.750719  1
  Al  Al6  1  0.333333  0.666667  0.016539  1
  Al  Al7  1  0.666667  0.333333  0.983461  1
  Al  Al8  1  0.666667  0.333333  0.515085  1
  Al  Al9  1  0.333333  0.666667  0.484915  1
  Al  Al10  1  0.161948  0.323895  0.576999  1
  Al  Al11  1  0.838052  0.676105  0.423001  1
  Al  Al12  1  0.676105  0.838052  0.576999  1
  Al  Al13  1  0.837866  0.675734  0.076222  1
  Al  Al14  1  0.323895  0.161948  0.423001  1
  Al  Al15  1  0.162134  0.324266  0.923778  1
  Al  Al16  1  0.161948  0.838052  0.576999  1
  Al  Al17  1  0.324266  0.162134  0.076222  1
  Al  Al18  1  0.838052  0.161948  0.423001  1
  Al  Al19  1  0.675734  0.837866  0.923778  1
  Al  Al20  1  0.837866  0.162134  0.076222  1
  Al  Al21  1  0.162134  0.837866  0.923778  1
  Al  Al22  1  0.560697  0.121394  0.249745  1
  Al  Al23  1  0.439303  0.878606  0.750255  1
  Al  Al24  1  0.878606  0.439303  0.249745  1
  Al  Al25  1  0.121394  0.560697  0.750255  1
  Al  Al26  1  0.560697  0.439303  0.249745  1
  Al  Al27  1  0.439303  0.560697  0.750255  1
  Al  Al28  1  0.000000  0.000000  0.243200  1
  Al  Al29  1  0.000000  0.000000  0.756800  1
  Ni  Ni30  1  0.000000  0.000000  0.000000  1
  Os  Os31  1  0.500000  0.000000  0.000000  1
  Os  Os32  1  0.000000  0.500000  0.000000  1
  Os  Os33  1  0.500000  0.000000  0.500000  1
  Os  Os34  1  0.500000  0.500000  0.000000  1
  Os  Os35  1  0.000000  0.500000  0.500000  1
  Os  Os36  1  0.500000  0.500000  0.500000  1
  Os  Os37  1  0.000000  0.000000  0.500000  1
