# generated using pymatgen
data_Tm8Al(TcB8)3
_symmetry_space_group_name_H-M   'P 1'
_cell_length_a   3.63676100
_cell_length_b   9.10645594
_cell_length_c   11.45807950
_cell_angle_alpha   89.80974297
_cell_angle_beta   90.00000000
_cell_angle_gamma   90.00000000
_symmetry_Int_Tables_number   1
_chemical_formula_structural   Tm8Al(TcB8)3
_chemical_formula_sum   'Tm8 Al1 Tc3 B24'
_cell_volume   379.46662862
_cell_formula_units_Z   1
loop_
 _symmetry_equiv_pos_site_id
 _symmetry_equiv_pos_as_xyz
  1  'x, y, z'
loop_
 _atom_site_type_symbol
 _atom_site_label
 _atom_site_symmetry_multiplicity
 _atom_site_fract_x
 _atom_site_fract_y
 _atom_site_fract_z
 _atom_site_occupancy
  Tm  Tm0  1  0.000000  0.322378  0.412627  1
  Tm  Tm1  1  0.000000  0.672171  0.581460  1
  Tm  Tm2  1  0.000000  0.822500  0.091577  1
  Tm  Tm3  1  0.000000  0.182361  0.916388  1
  Tm  Tm4  1  0.000000  0.943299  0.370474  1
  Tm  Tm5  1  0.000000  0.061387  0.628382  1
  Tm  Tm6  1  0.000000  0.443156  0.130223  1
  Tm  Tm7  1  0.000000  0.554289  0.868939  1
  Al  Al8  1  0.000000  0.861930  0.822177  1
  Tc  Tc9  1  0.000000  0.638808  0.320440  1
  Tc  Tc10  1  0.000000  0.360902  0.679378  1
  Tc  Tc11  1  0.000000  0.138987  0.179479  1
  B  B12  1  0.500000  0.552926  0.432888  1
  B  B13  1  0.500000  0.446731  0.566652  1
  B  B14  1  0.500000  0.052681  0.065243  1
  B  B15  1  0.500000  0.946863  0.935053  1
  B  B16  1  0.500000  0.749014  0.419298  1
  B  B17  1  0.500000  0.250341  0.581261  1
  B  B18  1  0.500000  0.249466  0.080272  1
  B  B19  1  0.500000  0.749460  0.921046  1
  B  B20  1  0.500000  0.792530  0.265270  1
  B  B21  1  0.500000  0.206862  0.736847  1
  B  B22  1  0.500000  0.291649  0.234846  1
  B  B23  1  0.500000  0.706033  0.762474  1
  B  B24  1  0.500000  0.631223  0.184597  1
  B  B25  1  0.500000  0.369579  0.815298  1
  B  B26  1  0.500000  0.130072  0.314856  1
  B  B27  1  0.500000  0.868520  0.681847  1
  B  B28  1  0.500000  0.981459  0.211899  1
  B  B29  1  0.500000  0.019355  0.788323  1
  B  B30  1  0.500000  0.481616  0.287680  1
  B  B31  1  0.500000  0.519268  0.711465  1
  B  B32  1  0.500000  0.603995  0.027313  1
  B  B33  1  0.500000  0.400214  0.971831  1
  B  B34  1  0.500000  0.100858  0.472243  1
  B  B35  1  0.500000  0.897120  0.529956  1
