# generated using pymatgen
data_Ti4Ga7Cu
_symmetry_space_group_name_H-M   'P 1'
_cell_length_a   3.87684465
_cell_length_b   3.91936196
_cell_length_c   12.52898049
_cell_angle_alpha   99.07202602
_cell_angle_beta   98.94151907
_cell_angle_gamma   89.94972802
_symmetry_Int_Tables_number   1
_chemical_formula_structural   Ti4Ga7Cu
_chemical_formula_sum   'Ti4 Ga7 Cu1'
_cell_volume   185.65432082
_cell_formula_units_Z   1
loop_
 _symmetry_equiv_pos_site_id
 _symmetry_equiv_pos_as_xyz
  1  'x, y, z'
loop_
 _atom_site_type_symbol
 _atom_site_label
 _atom_site_symmetry_multiplicity
 _atom_site_fract_x
 _atom_site_fract_y
 _atom_site_fract_z
 _atom_site_occupancy
  Ti  Ti0  1  0.079146  0.079367  0.158618  1
  Ti  Ti1  1  0.172105  0.672058  0.344030  1
  Ti  Ti2  1  0.327602  0.827596  0.655281  1
  Ti  Ti3  1  0.921169  0.921367  0.842630  1
  Ga  Ga4  1  0.500849  0.000583  0.001153  1
  Ga  Ga5  1  0.581701  0.582110  0.164085  1
  Ga  Ga6  1  0.660406  0.160195  0.320436  1
  Ga  Ga7  1  0.749120  0.748706  0.497972  1
  Ga  Ga8  1  0.251002  0.250747  0.501815  1
  Ga  Ga9  1  0.840422  0.340268  0.680831  1
  Ga  Ga10  1  0.417676  0.418019  0.835840  1
  Cu  Cu11  1  0.998805  0.498988  0.997309  1
