# generated using pymatgen
data_TmSc3(CrB4)4
_symmetry_space_group_name_H-M   'P 1'
_cell_length_a   5.83913015
_cell_length_b   11.26097749
_cell_length_c   3.33567700
_cell_angle_alpha   90.00040242
_cell_angle_beta   90.00005389
_cell_angle_gamma   89.86496280
_symmetry_Int_Tables_number   1
_chemical_formula_structural   TmSc3(CrB4)4
_chemical_formula_sum   'Tm1 Sc3 Cr4 B16'
_cell_volume   219.33454088
_cell_formula_units_Z   1
loop_
 _symmetry_equiv_pos_site_id
 _symmetry_equiv_pos_as_xyz
  1  'x, y, z'
loop_
 _atom_site_type_symbol
 _atom_site_label
 _atom_site_symmetry_multiplicity
 _atom_site_fract_x
 _atom_site_fract_y
 _atom_site_fract_z
 _atom_site_occupancy
  Tm  Tm0  1  0.373222  0.650763  0.999947  1
  Sc  Sc1  1  0.126196  0.150100  0.000055  1
  Sc  Sc2  1  0.873855  0.851017  0.000061  1
  Sc  Sc3  1  0.625965  0.349242  0.999942  1
  Cr  Cr4  1  0.125654  0.415877  0.999907  1
  Cr  Cr5  1  0.872431  0.580796  0.999911  1
  Cr  Cr6  1  0.627706  0.082889  0.000093  1
  Cr  Cr7  1  0.373293  0.919864  0.000092  1
  B  B8  1  0.478535  0.194828  0.500039  1
  B  B9  1  0.525013  0.807987  0.500034  1
  B  B10  1  0.977941  0.304292  0.499958  1
  B  B11  1  0.021429  0.694241  0.499962  1
  B  B12  1  0.287059  0.313185  0.499941  1
  B  B13  1  0.715728  0.686089  0.499942  1
  B  B14  1  0.787326  0.185885  0.500059  1
  B  B15  1  0.212339  0.816305  0.500054  1
  B  B16  1  0.365319  0.465910  0.499898  1
  B  B17  1  0.634056  0.530375  0.499896  1
  B  B18  1  0.866915  0.032842  0.500107  1
  B  B19  1  0.133522  0.969232  0.500106  1
  B  B20  1  0.384736  0.049606  0.500105  1
  B  B21  1  0.616739  0.952596  0.500101  1
  B  B22  1  0.883150  0.449747  0.499892  1
  B  B23  1  0.111874  0.546331  0.499898  1
