# generated using pymatgen
data_YTm7Ga3Rh
_symmetry_space_group_name_H-M   'P 1'
_cell_length_a   9.95034100
_cell_length_b   9.95034118
_cell_length_c   6.94597900
_cell_angle_alpha   90.00000000
_cell_angle_beta   90.00000000
_cell_angle_gamma   120.00000273
_symmetry_Int_Tables_number   1
_chemical_formula_structural   YTm7Ga3Rh
_chemical_formula_sum   'Y2 Tm14 Ga6 Rh2'
_cell_volume   595.57988591
_cell_formula_units_Z   2
loop_
 _symmetry_equiv_pos_site_id
 _symmetry_equiv_pos_as_xyz
  1  'x, y, z'
loop_
 _atom_site_type_symbol
 _atom_site_label
 _atom_site_symmetry_multiplicity
 _atom_site_fract_x
 _atom_site_fract_y
 _atom_site_fract_z
 _atom_site_occupancy
  Y  Y0  1  0.000000  0.000000  0.767355  1
  Y  Y1  1  0.000000  0.000000  0.267355  1
  Tm  Tm2  1  0.828059  0.656118  0.488255  1
  Tm  Tm3  1  0.343882  0.171941  0.488255  1
  Tm  Tm4  1  0.828059  0.171941  0.488255  1
  Tm  Tm5  1  0.171941  0.343882  0.988255  1
  Tm  Tm6  1  0.656118  0.828059  0.988255  1
  Tm  Tm7  1  0.171941  0.828059  0.988255  1
  Tm  Tm8  1  0.666667  0.333333  0.164588  1
  Tm  Tm9  1  0.333333  0.666667  0.664588  1
  Tm  Tm10  1  0.534777  0.069554  0.795593  1
  Tm  Tm11  1  0.930446  0.465223  0.795593  1
  Tm  Tm12  1  0.534777  0.465223  0.795593  1
  Tm  Tm13  1  0.465223  0.930446  0.295593  1
  Tm  Tm14  1  0.069554  0.534777  0.295593  1
  Tm  Tm15  1  0.465223  0.534777  0.295593  1
  Ga  Ga16  1  0.836149  0.672299  0.041389  1
  Ga  Ga17  1  0.327701  0.163851  0.041389  1
  Ga  Ga18  1  0.836149  0.163851  0.041389  1
  Ga  Ga19  1  0.163851  0.327701  0.541389  1
  Ga  Ga20  1  0.672299  0.836149  0.541389  1
  Ga  Ga21  1  0.163851  0.836149  0.541389  1
  Rh  Rh22  1  0.666667  0.333333  0.555384  1
  Rh  Rh23  1  0.333333  0.666667  0.055384  1
