# generated using pymatgen
data_Tb10Si5Ge
_symmetry_space_group_name_H-M   'P 1'
_cell_length_a   8.50072600
_cell_length_b   8.50335914
_cell_length_c   6.42558500
_cell_angle_alpha   90.00000000
_cell_angle_beta   90.00000000
_cell_angle_gamma   119.98975709
_symmetry_Int_Tables_number   1
_chemical_formula_structural   Tb10Si5Ge
_chemical_formula_sum   'Tb10 Si5 Ge1'
_cell_volume   402.28576096
_cell_formula_units_Z   1
loop_
 _symmetry_equiv_pos_site_id
 _symmetry_equiv_pos_as_xyz
  1  'x, y, z'
loop_
 _atom_site_type_symbol
 _atom_site_label
 _atom_site_symmetry_multiplicity
 _atom_site_fract_x
 _atom_site_fract_y
 _atom_site_fract_z
 _atom_site_occupancy
  Tb  Tb0  1  0.333155  0.665580  0.000807  1
  Tb  Tb1  1  0.667576  0.334420  0.499193  1
  Tb  Tb2  1  0.667576  0.334420  0.000807  1
  Tb  Tb3  1  0.333155  0.665580  0.499193  1
  Tb  Tb4  1  0.242719  0.000000  0.250000  1
  Tb  Tb5  1  0.242844  0.244224  0.750000  1
  Tb  Tb6  1  0.998620  0.755776  0.750000  1
  Tb  Tb7  1  0.999929  0.243144  0.250000  1
  Tb  Tb8  1  0.756785  0.756856  0.250000  1
  Tb  Tb9  1  0.757875  0.000000  0.750000  1
  Si  Si10  1  0.606208  0.000000  0.250000  1
  Si  Si11  1  0.606029  0.606074  0.750000  1
  Si  Si12  1  0.999955  0.393926  0.750000  1
  Si  Si13  1  0.000060  0.606124  0.250000  1
  Si  Si14  1  0.393936  0.393876  0.250000  1
  Ge  Ge15  1  0.393576  0.000000  0.750000  1
