# generated using pymatgen
data_ErTaTi2(PN3)4
_symmetry_space_group_name_H-M   'P 1'
_cell_length_a   6.52593703
_cell_length_b   6.52593607
_cell_length_c   5.26100347
_cell_angle_alpha   77.57767313
_cell_angle_beta   77.57767482
_cell_angle_gamma   82.63815953
_symmetry_Int_Tables_number   1
_chemical_formula_structural   ErTaTi2(PN3)4
_chemical_formula_sum   'Er1 Ta1 Ti2 P4 N12'
_cell_volume   212.89812718
_cell_formula_units_Z   1
loop_
 _symmetry_equiv_pos_site_id
 _symmetry_equiv_pos_as_xyz
  1  'x, y, z'
loop_
 _atom_site_type_symbol
 _atom_site_label
 _atom_site_symmetry_multiplicity
 _atom_site_fract_x
 _atom_site_fract_y
 _atom_site_fract_z
 _atom_site_occupancy
  Er  Er0  1  0.680754  0.319246  0.750000  1
  Ta  Ta1  1  0.899527  0.100473  0.250000  1
  Ti  Ti2  1  0.309715  0.690285  0.250000  1
  Ti  Ti3  1  0.109096  0.890904  0.750000  1
  P  P4  1  0.198626  0.382481  0.752352  1
  P  P5  1  0.378353  0.199915  0.255745  1
  P  P6  1  0.800085  0.621647  0.244255  1
  P  P7  1  0.617519  0.801374  0.747648  1
  N  N8  1  0.327931  0.379995  0.993284  1
  N  N9  1  0.026123  0.209672  0.850477  1
  N  N10  1  0.990980  0.779069  0.144732  1
  N  N11  1  0.373321  0.346533  0.479161  1
  N  N12  1  0.620558  0.113148  0.170014  1
  N  N13  1  0.374686  0.878856  0.861880  1
  N  N14  1  0.886852  0.379442  0.329986  1
  N  N15  1  0.653467  0.626679  0.020839  1
  N  N16  1  0.790328  0.973877  0.649523  1
  N  N17  1  0.121144  0.625314  0.638120  1
  N  N18  1  0.220931  0.009020  0.355268  1
  N  N19  1  0.620005  0.672069  0.506716  1
