# generated using pymatgen
data_Dy5HgBi2Cl
_symmetry_space_group_name_H-M   'P 1'
_cell_length_a   9.27145300
_cell_length_b   9.17126069
_cell_length_c   6.55055300
_cell_angle_alpha   90.00000000
_cell_angle_beta   90.00000000
_cell_angle_gamma   120.36204913
_symmetry_Int_Tables_number   1
_chemical_formula_structural   Dy5HgBi2Cl
_chemical_formula_sum   'Dy10 Hg2 Bi4 Cl2'
_cell_volume   480.60627115
_cell_formula_units_Z   2
loop_
 _symmetry_equiv_pos_site_id
 _symmetry_equiv_pos_as_xyz
  1  'x, y, z'
loop_
 _atom_site_type_symbol
 _atom_site_label
 _atom_site_symmetry_multiplicity
 _atom_site_fract_x
 _atom_site_fract_y
 _atom_site_fract_z
 _atom_site_occupancy
  Dy  Dy0  1  0.272965  0.000000  0.750000  1
  Dy  Dy1  1  0.727035  0.000000  0.250000  1
  Dy  Dy2  1  0.989319  0.255036  0.750000  1
  Dy  Dy3  1  0.010681  0.744964  0.250000  1
  Dy  Dy4  1  0.734282  0.744964  0.750000  1
  Dy  Dy5  1  0.265718  0.255036  0.250000  1
  Dy  Dy6  1  0.339076  0.678153  0.500000  1
  Dy  Dy7  1  0.660924  0.321847  0.500000  1
  Dy  Dy8  1  0.660924  0.321847  0.000000  1
  Dy  Dy9  1  0.339076  0.678153  0.000000  1
  Hg  Hg10  1  0.610945  0.000000  0.750000  1
  Hg  Hg11  1  0.389055  0.000000  0.250000  1
  Bi  Bi12  1  0.995973  0.612136  0.750000  1
  Bi  Bi13  1  0.004027  0.387864  0.250000  1
  Bi  Bi14  1  0.383836  0.387864  0.750000  1
  Bi  Bi15  1  0.616164  0.612136  0.250000  1
  Cl  Cl16  1  0.000000  0.000000  0.500000  1
  Cl  Cl17  1  0.000000  0.000000  0.000000  1
