# generated using pymatgen
data_Hf4ScSb3
_symmetry_space_group_name_H-M   'P 1'
_cell_length_a   7.48646100
_cell_length_b   8.74921900
_cell_length_c   10.92782000
_cell_angle_alpha   90.00000000
_cell_angle_beta   90.00000000
_cell_angle_gamma   90.00000000
_symmetry_Int_Tables_number   1
_chemical_formula_structural   Hf4ScSb3
_chemical_formula_sum   'Hf16 Sc4 Sb12'
_cell_volume   715.77971549
_cell_formula_units_Z   4
loop_
 _symmetry_equiv_pos_site_id
 _symmetry_equiv_pos_as_xyz
  1  'x, y, z'
loop_
 _atom_site_type_symbol
 _atom_site_label
 _atom_site_symmetry_multiplicity
 _atom_site_fract_x
 _atom_site_fract_y
 _atom_site_fract_z
 _atom_site_occupancy
  Hf  Hf0  1  0.025449  0.250000  0.508467  1
  Hf  Hf1  1  0.974551  0.750000  0.491533  1
  Hf  Hf2  1  0.474551  0.750000  0.008467  1
  Hf  Hf3  1  0.525449  0.250000  0.991533  1
  Hf  Hf4  1  0.354317  0.250000  0.283882  1
  Hf  Hf5  1  0.645683  0.750000  0.716118  1
  Hf  Hf6  1  0.145683  0.750000  0.783882  1
  Hf  Hf7  1  0.854317  0.250000  0.216118  1
  Hf  Hf8  1  0.197040  0.061757  0.061908  1
  Hf  Hf9  1  0.802960  0.938243  0.938092  1
  Hf  Hf10  1  0.302960  0.938243  0.561908  1
  Hf  Hf11  1  0.802960  0.561757  0.938092  1
  Hf  Hf12  1  0.697040  0.061757  0.438092  1
  Hf  Hf13  1  0.197040  0.438243  0.061908  1
  Hf  Hf14  1  0.697040  0.438243  0.438092  1
  Hf  Hf15  1  0.302960  0.561757  0.561908  1
  Sc  Sc16  1  0.187578  0.250000  0.779489  1
  Sc  Sc17  1  0.812422  0.750000  0.220511  1
  Sc  Sc18  1  0.312422  0.750000  0.279489  1
  Sc  Sc19  1  0.687578  0.250000  0.720511  1
  Sb  Sb20  1  0.412844  0.250000  0.543302  1
  Sb  Sb21  1  0.587156  0.750000  0.456698  1
  Sb  Sb22  1  0.087156  0.750000  0.043302  1
  Sb  Sb23  1  0.912844  0.250000  0.956698  1
  Sb  Sb24  1  0.069701  0.005138  0.325437  1
  Sb  Sb25  1  0.930299  0.994862  0.674563  1
  Sb  Sb26  1  0.430299  0.994862  0.825437  1
  Sb  Sb27  1  0.930299  0.505138  0.674563  1
  Sb  Sb28  1  0.569701  0.005138  0.174563  1
  Sb  Sb29  1  0.069701  0.494862  0.325437  1
  Sb  Sb30  1  0.569701  0.494862  0.174563  1
  Sb  Sb31  1  0.430299  0.505138  0.825437  1
