# generated using pymatgen
data_Ir5RuW2
_symmetry_space_group_name_H-M   'P 1'
_cell_length_a   5.54363479
_cell_length_b   5.54363548
_cell_length_c   4.43028300
_cell_angle_alpha   90.00000000
_cell_angle_beta   90.00000000
_cell_angle_gamma   120.21541452
_symmetry_Int_Tables_number   1
_chemical_formula_structural   Ir5RuW2
_chemical_formula_sum   'Ir5 Ru1 W2'
_cell_volume   117.65342513
_cell_formula_units_Z   1
loop_
 _symmetry_equiv_pos_site_id
 _symmetry_equiv_pos_as_xyz
  1  'x, y, z'
loop_
 _atom_site_type_symbol
 _atom_site_label
 _atom_site_symmetry_multiplicity
 _atom_site_fract_x
 _atom_site_fract_y
 _atom_site_fract_z
 _atom_site_occupancy
  Ir  Ir0  1  0.165103  0.332687  0.250000  1
  Ir  Ir1  1  0.667313  0.834897  0.250000  1
  Ir  Ir2  1  0.166711  0.833289  0.250000  1
  Ir  Ir3  1  0.833571  0.667250  0.750000  1
  Ir  Ir4  1  0.332750  0.166429  0.750000  1
  Ru  Ru5  1  0.833698  0.166302  0.750000  1
  W  W6  1  0.333303  0.666697  0.750000  1
  W  W7  1  0.667551  0.332449  0.250000  1
