# generated using pymatgen
data_Hf8Mo3Ir4Rh
_symmetry_space_group_name_H-M   'P 1'
_cell_length_a   6.57726200
_cell_length_b   4.63838100
_cell_length_c   9.26116800
_cell_angle_alpha   90.00000000
_cell_angle_beta   90.00013522
_cell_angle_gamma   90.00000000
_symmetry_Int_Tables_number   1
_chemical_formula_structural   Hf8Mo3Ir4Rh
_chemical_formula_sum   'Hf8 Mo3 Ir4 Rh1'
_cell_volume   282.53829724
_cell_formula_units_Z   1
loop_
 _symmetry_equiv_pos_site_id
 _symmetry_equiv_pos_as_xyz
  1  'x, y, z'
loop_
 _atom_site_type_symbol
 _atom_site_label
 _atom_site_symmetry_multiplicity
 _atom_site_fract_x
 _atom_site_fract_y
 _atom_site_fract_z
 _atom_site_occupancy
  Hf  Hf0  1  0.004097  0.750000  0.125008  1
  Hf  Hf1  1  0.495892  0.750000  0.125011  1
  Hf  Hf2  1  0.002139  0.250001  0.375867  1
  Hf  Hf3  1  0.497856  0.250001  0.375862  1
  Hf  Hf4  1  0.499739  0.750000  0.625019  1
  Hf  Hf5  1  0.000266  0.750000  0.625020  1
  Hf  Hf6  1  0.497869  0.250001  0.874110  1
  Hf  Hf7  1  0.002149  0.250001  0.874113  1
  Mo  Mo8  1  0.249993  0.750000  0.372957  1
  Mo  Mo9  1  0.750007  0.250001  0.624993  1
  Mo  Mo10  1  0.250008  0.750000  0.877058  1
  Ir  Ir11  1  0.249992  0.250001  0.125000  1
  Ir  Ir12  1  0.749992  0.750000  0.373158  1
  Ir  Ir13  1  0.250008  0.250001  0.625004  1
  Ir  Ir14  1  0.750008  0.750000  0.876838  1
  Rh  Rh15  1  0.749986  0.250001  0.124983  1
