# generated using pymatgen
data_HoEr3Re5Ru3
_symmetry_space_group_name_H-M   'P 1'
_cell_length_a   5.33220204
_cell_length_b   5.33220192
_cell_length_c   9.10457400
_cell_angle_alpha   90.00234338
_cell_angle_beta   89.99765818
_cell_angle_gamma   121.72803182
_symmetry_Int_Tables_number   1
_chemical_formula_structural   HoEr3Re5Ru3
_chemical_formula_sum   'Ho1 Er3 Re5 Ru3'
_cell_volume   220.17837654
_cell_formula_units_Z   1
loop_
 _symmetry_equiv_pos_site_id
 _symmetry_equiv_pos_as_xyz
  1  'x, y, z'
loop_
 _atom_site_type_symbol
 _atom_site_label
 _atom_site_symmetry_multiplicity
 _atom_site_fract_x
 _atom_site_fract_y
 _atom_site_fract_z
 _atom_site_occupancy
  Ho  Ho0  1  0.336037  0.663963  0.436187  1
  Er  Er1  1  0.664729  0.335271  0.563366  1
  Er  Er2  1  0.664727  0.335273  0.936685  1
  Er  Er3  1  0.336078  0.663922  0.063808  1
  Re  Re4  1  0.168199  0.341068  0.750075  1
  Re  Re5  1  0.171412  0.828588  0.750061  1
  Re  Re6  1  0.335402  0.171971  0.249907  1
  Re  Re7  1  0.828029  0.664598  0.249907  1
  Re  Re8  1  0.658932  0.831801  0.750075  1
  Ru  Ru9  1  0.006776  0.993224  0.001510  1
  Ru  Ru10  1  0.822874  0.177126  0.249889  1
  Ru  Ru11  1  0.006806  0.993194  0.498531  1
