# generated using pymatgen
data_Tb15Dy4LuSn16
_symmetry_space_group_name_H-M   'P 1'
_cell_length_a   8.04476354
_cell_length_b   8.20340280
_cell_length_c   15.52259072
_cell_angle_alpha   90.07101734
_cell_angle_beta   89.88115426
_cell_angle_gamma   90.00807047
_symmetry_Int_Tables_number   1
_chemical_formula_structural   Tb15Dy4LuSn16
_chemical_formula_sum   'Tb15 Dy4 Lu1 Sn16'
_cell_volume   1024.40161581
_cell_formula_units_Z   1
loop_
 _symmetry_equiv_pos_site_id
 _symmetry_equiv_pos_as_xyz
  1  'x, y, z'
loop_
 _atom_site_type_symbol
 _atom_site_label
 _atom_site_symmetry_multiplicity
 _atom_site_fract_x
 _atom_site_fract_y
 _atom_site_fract_z
 _atom_site_occupancy
  Tb  Tb0  1  0.865241  0.662467  0.622543  1
  Tb  Tb1  1  0.633881  0.162016  0.377496  1
  Tb  Tb2  1  0.136147  0.337291  0.121800  1
  Tb  Tb3  1  0.634114  0.162607  0.122750  1
  Tb  Tb4  1  0.135005  0.336932  0.377599  1
  Tb  Tb5  1  0.365808  0.837247  0.622241  1
  Tb  Tb6  1  0.865110  0.662504  0.878070  1
  Tb  Tb7  1  0.518189  0.320335  0.903188  1
  Tb  Tb8  1  0.018974  0.179497  0.597190  1
  Tb  Tb9  1  0.480828  0.679751  0.402958  1
  Tb  Tb10  1  0.981665  0.820749  0.096887  1
  Tb  Tb11  1  0.481794  0.680297  0.096411  1
  Tb  Tb12  1  0.981513  0.820752  0.402709  1
  Tb  Tb13  1  0.519051  0.320614  0.597431  1
  Tb  Tb14  1  0.017554  0.179195  0.903286  1
  Dy  Dy15  1  0.364594  0.837632  0.877089  1
  Dy  Dy16  1  0.196758  0.502843  0.750153  1
  Dy  Dy17  1  0.696669  0.997013  0.750095  1
  Dy  Dy18  1  0.804030  0.497407  0.250142  1
  Lu  Lu19  1  0.303071  0.003139  0.249576  1
  Sn  Sn20  1  0.294905  0.036219  0.041853  1
  Sn  Sn21  1  0.794126  0.463264  0.457976  1
  Sn  Sn22  1  0.706455  0.963427  0.542192  1
  Sn  Sn23  1  0.206298  0.538474  0.957933  1
  Sn  Sn24  1  0.703104  0.962229  0.958238  1
  Sn  Sn25  1  0.205829  0.536483  0.542216  1
  Sn  Sn26  1  0.293838  0.035893  0.457194  1
  Sn  Sn27  1  0.794574  0.462749  0.042310  1
  Sn  Sn28  1  0.562822  0.617577  0.750421  1
  Sn  Sn29  1  0.063126  0.882578  0.750413  1
  Sn  Sn30  1  0.437090  0.382320  0.250038  1
  Sn  Sn31  1  0.938856  0.117234  0.249499  1
  Sn  Sn32  1  0.327264  0.147925  0.750294  1
  Sn  Sn33  1  0.827535  0.351436  0.750398  1
  Sn  Sn34  1  0.671464  0.851713  0.249785  1
  Sn  Sn35  1  0.172718  0.650191  0.249623  1
