# generated using pymatgen
data_Yb2Sc2As6Rh7
_symmetry_space_group_name_H-M   'P 1'
_cell_length_a   7.09657787
_cell_length_b   7.08336786
_cell_length_c   7.09657900
_cell_angle_alpha   109.49194456
_cell_angle_beta   109.50529008
_cell_angle_gamma   109.49193238
_symmetry_Int_Tables_number   1
_chemical_formula_structural   Yb2Sc2As6Rh7
_chemical_formula_sum   'Yb2 Sc2 As6 Rh7'
_cell_volume   274.35353676
_cell_formula_units_Z   1
loop_
 _symmetry_equiv_pos_site_id
 _symmetry_equiv_pos_as_xyz
  1  'x, y, z'
loop_
 _atom_site_type_symbol
 _atom_site_label
 _atom_site_symmetry_multiplicity
 _atom_site_fract_x
 _atom_site_fract_y
 _atom_site_fract_z
 _atom_site_occupancy
  Yb  Yb0  1  0.500000  0.000000  0.000000  1
  Yb  Yb1  1  0.000000  0.000000  0.500000  1
  Sc  Sc2  1  0.500000  0.500000  0.500000  1
  Sc  Sc3  1  0.000000  0.500000  0.000000  1
  As  As4  1  0.684393  0.000000  0.684393  1
  As  As5  1  0.684610  0.682947  0.998338  1
  As  As6  1  0.315390  0.317053  0.001662  1
  As  As7  1  0.998338  0.682947  0.684610  1
  As  As8  1  0.001662  0.317053  0.315390  1
  As  As9  1  0.315607  0.000000  0.315607  1
  Rh  Rh10  1  0.493996  0.744055  0.250059  1
  Rh  Rh11  1  0.749941  0.255945  0.506004  1
  Rh  Rh12  1  0.250059  0.744055  0.493996  1
  Rh  Rh13  1  0.250000  0.500000  0.750000  1
  Rh  Rh14  1  0.000000  0.000000  0.000000  1
  Rh  Rh15  1  0.506004  0.255945  0.749941  1
  Rh  Rh16  1  0.750000  0.500000  0.250000  1
