# generated using pymatgen
data_YbY3Ir3PdO14
_symmetry_space_group_name_H-M   'P 1'
_cell_length_a   7.25395635
_cell_length_b   7.24117240
_cell_length_c   7.25395600
_cell_angle_alpha   59.94157455
_cell_angle_beta   59.99999247
_cell_angle_gamma   59.94157443
_symmetry_Int_Tables_number   1
_chemical_formula_structural   YbY3Ir3PdO14
_chemical_formula_sum   'Yb1 Y3 Ir3 Pd1 O14'
_cell_volume   269.19043790
_cell_formula_units_Z   1
loop_
 _symmetry_equiv_pos_site_id
 _symmetry_equiv_pos_as_xyz
  1  'x, y, z'
loop_
 _atom_site_type_symbol
 _atom_site_label
 _atom_site_symmetry_multiplicity
 _atom_site_fract_x
 _atom_site_fract_y
 _atom_site_fract_z
 _atom_site_occupancy
  Yb  Yb0  1  0.125000  0.625000  0.125000  1
  Y  Y1  1  0.625000  0.125000  0.125000  1
  Y  Y2  1  0.125000  0.125000  0.625000  1
  Y  Y3  1  0.125000  0.125000  0.125000  1
  Ir  Ir4  1  0.125000  0.625000  0.625000  1
  Ir  Ir5  1  0.625000  0.625000  0.125000  1
  Ir  Ir6  1  0.625000  0.625000  0.625000  1
  Pd  Pd7  1  0.625000  0.125000  0.625000  1
  O  O8  1  0.706095  0.704624  0.294640  1
  O  O9  1  0.282624  0.289005  0.714186  1
  O  O10  1  0.714186  0.289005  0.714186  1
  O  O11  1  0.294640  0.704624  0.294640  1
  O  O12  1  0.294640  0.704624  0.706095  1
  O  O13  1  0.714186  0.289005  0.282624  1
  O  O14  1  0.543905  0.545376  0.955360  1
  O  O15  1  0.967376  0.960995  0.535814  1
  O  O16  1  0.535814  0.960995  0.535814  1
  O  O17  1  0.955360  0.545376  0.955360  1
  O  O18  1  0.955360  0.545376  0.543905  1
  O  O19  1  0.535814  0.960995  0.967376  1
  O  O20  1  0.251369  0.245892  0.251369  1
  O  O21  1  0.998631  0.004108  0.998631  1
