# generated using pymatgen
data_CdBi3Ru2(RhO7)2
_symmetry_space_group_name_H-M   'P 1'
_cell_length_a   7.37320842
_cell_length_b   7.22433267
_cell_length_c   7.37320922
_cell_angle_alpha   59.70205343
_cell_angle_beta   60.36433194
_cell_angle_gamma   59.70204839
_symmetry_Int_Tables_number   1
_chemical_formula_structural   CdBi3Ru2(RhO7)2
_chemical_formula_sum   'Cd1 Bi3 Ru2 Rh2 O14'
_cell_volume   277.20162974
_cell_formula_units_Z   1
loop_
 _symmetry_equiv_pos_site_id
 _symmetry_equiv_pos_as_xyz
  1  'x, y, z'
loop_
 _atom_site_type_symbol
 _atom_site_label
 _atom_site_symmetry_multiplicity
 _atom_site_fract_x
 _atom_site_fract_y
 _atom_site_fract_z
 _atom_site_occupancy
  Cd  Cd0  1  0.125000  0.625000  0.125000  1
  Bi  Bi1  1  0.125000  0.125000  0.125000  1
  Bi  Bi2  1  0.625000  0.125000  0.125000  1
  Bi  Bi3  1  0.125000  0.125000  0.625000  1
  Ru  Ru4  1  0.625000  0.625000  0.125000  1
  Ru  Ru5  1  0.125000  0.625000  0.625000  1
  Rh  Rh6  1  0.625000  0.625000  0.625000  1
  Rh  Rh7  1  0.625000  0.125000  0.625000  1
  O  O8  1  0.247257  0.259181  0.247257  1
  O  O9  1  0.301499  0.706164  0.301499  1
  O  O10  1  0.956141  0.956113  0.541605  1
  O  O11  1  0.539766  0.961890  0.539766  1
  O  O12  1  0.699230  0.704729  0.294130  1
  O  O13  1  0.955870  0.545271  0.550770  1
  O  O14  1  0.710234  0.288110  0.710234  1
  O  O15  1  0.293859  0.293887  0.708395  1
  O  O16  1  0.708395  0.293887  0.293859  1
  O  O17  1  0.294130  0.704729  0.699230  1
  O  O18  1  0.948501  0.543836  0.948501  1
  O  O19  1  0.550770  0.545271  0.955870  1
  O  O20  1  0.002743  0.990819  0.002743  1
  O  O21  1  0.541605  0.956113  0.956141  1
