# generated using pymatgen
data_Tb5Ho3(TmRu2)2
_symmetry_space_group_name_H-M   'P 1'
_cell_length_a   6.34236209
_cell_length_b   7.24158814
_cell_length_c   8.47418524
_cell_angle_alpha   96.71707314
_cell_angle_beta   112.04490942
_cell_angle_gamma   89.89950020
_symmetry_Int_Tables_number   1
_chemical_formula_structural   Tb5Ho3(TmRu2)2
_chemical_formula_sum   'Tb5 Ho3 Tm2 Ru4'
_cell_volume   357.90184206
_cell_formula_units_Z   1
loop_
 _symmetry_equiv_pos_site_id
 _symmetry_equiv_pos_as_xyz
  1  'x, y, z'
loop_
 _atom_site_type_symbol
 _atom_site_label
 _atom_site_symmetry_multiplicity
 _atom_site_fract_x
 _atom_site_fract_y
 _atom_site_fract_z
 _atom_site_occupancy
  Tb  Tb0  1  0.791252  0.083551  0.813209  1
  Tb  Tb1  1  0.975748  0.416507  0.186495  1
  Tb  Tb2  1  0.209733  0.916086  0.186808  1
  Tb  Tb3  1  0.023010  0.584033  0.813302  1
  Tb  Tb4  1  0.205887  0.185954  0.566833  1
  Ho  Ho5  1  0.639748  0.315184  0.433464  1
  Ho  Ho6  1  0.793992  0.814270  0.432798  1
  Ho  Ho7  1  0.360940  0.684983  0.566412  1
  Tm  Tm8  1  0.421892  0.249414  0.000222  1
  Tm  Tm9  1  0.578028  0.750459  0.999905  1
  Ru  Ru10  1  0.602373  0.425654  0.780695  1
  Ru  Ru11  1  0.819650  0.075525  0.218533  1
  Ru  Ru12  1  0.399014  0.574656  0.220535  1
  Ru  Ru13  1  0.178732  0.923723  0.780793  1
