# generated using pymatgen
data_Ca4TaTi3O12
_symmetry_space_group_name_H-M   'P 1'
_cell_length_a   5.45483417
_cell_length_b   5.56044280
_cell_length_c   7.77542769
_cell_angle_alpha   90.11152039
_cell_angle_beta   90.00062798
_cell_angle_gamma   89.97153677
_symmetry_Int_Tables_number   1
_chemical_formula_structural   Ca4TaTi3O12
_chemical_formula_sum   'Ca4 Ta1 Ti3 O12'
_cell_volume   235.83830251
_cell_formula_units_Z   1
loop_
 _symmetry_equiv_pos_site_id
 _symmetry_equiv_pos_as_xyz
  1  'x, y, z'
loop_
 _atom_site_type_symbol
 _atom_site_label
 _atom_site_symmetry_multiplicity
 _atom_site_fract_x
 _atom_site_fract_y
 _atom_site_fract_z
 _atom_site_occupancy
  Ca  Ca0  1  0.509691  0.547386  0.760970  1
  Ca  Ca1  1  0.490309  0.452614  0.239030  1
  Ca  Ca2  1  0.992577  0.040495  0.761512  1
  Ca  Ca3  1  0.007423  0.959505  0.238488  1
  Ta  Ta4  1  0.000000  0.500000  0.500000  1
  Ti  Ti5  1  0.000000  0.500000  0.000000  1
  Ti  Ti6  1  0.500000  0.000000  0.500000  1
  Ti  Ti7  1  0.500000  0.000000  0.000000  1
  O  O8  1  0.081378  0.478727  0.749744  1
  O  O9  1  0.918622  0.521273  0.250256  1
  O  O10  1  0.422278  0.978942  0.748378  1
  O  O11  1  0.577722  0.021058  0.251622  1
  O  O12  1  0.790764  0.787936  0.960381  1
  O  O13  1  0.203694  0.206016  0.455803  1
  O  O14  1  0.209236  0.212064  0.039619  1
  O  O15  1  0.796306  0.793984  0.544197  1
  O  O16  1  0.711031  0.289351  0.960350  1
  O  O17  1  0.295593  0.705279  0.456592  1
  O  O18  1  0.288969  0.710649  0.039650  1
  O  O19  1  0.704407  0.294721  0.543408  1
