# generated using pymatgen
data_La3Mg3CuIrAu
_symmetry_space_group_name_H-M   'P 1'
_cell_length_a   7.77018300
_cell_length_b   7.77018373
_cell_length_c   4.12835800
_cell_angle_alpha   90.00000000
_cell_angle_beta   90.00000000
_cell_angle_gamma   119.99999264
_symmetry_Int_Tables_number   1
_chemical_formula_structural   La3Mg3CuIrAu
_chemical_formula_sum   'La3 Mg3 Cu1 Ir1 Au1'
_cell_volume   215.85919354
_cell_formula_units_Z   1
loop_
 _symmetry_equiv_pos_site_id
 _symmetry_equiv_pos_as_xyz
  1  'x, y, z'
loop_
 _atom_site_type_symbol
 _atom_site_label
 _atom_site_symmetry_multiplicity
 _atom_site_fract_x
 _atom_site_fract_y
 _atom_site_fract_z
 _atom_site_occupancy
  La  La0  1  0.573073  0.979288  0.000000  1
  La  La1  1  0.020712  0.593786  0.000000  1
  La  La2  1  0.406214  0.426927  0.000000  1
  Mg  Mg3  1  0.236720  0.998910  0.500000  1
  Mg  Mg4  1  0.001090  0.237810  0.500000  1
  Mg  Mg5  1  0.762190  0.763280  0.500000  1
  Cu  Cu6  1  0.000000  0.000000  0.000000  1
  Ir  Ir7  1  0.333333  0.666667  0.500000  1
  Au  Au8  1  0.666667  0.333333  0.500000  1
