# generated using pymatgen
data_Ca6CeHoSb6
_symmetry_space_group_name_H-M   'P 1'
_cell_length_a   8.23078653
_cell_length_b   8.26034215
_cell_length_c   8.17827808
_cell_angle_alpha   109.31593571
_cell_angle_beta   109.14360601
_cell_angle_gamma   109.65027156
_symmetry_Int_Tables_number   1
_chemical_formula_structural   Ca6CeHoSb6
_chemical_formula_sum   'Ca6 Ce1 Ho1 Sb6'
_cell_volume   429.62614061
_cell_formula_units_Z   1
loop_
 _symmetry_equiv_pos_site_id
 _symmetry_equiv_pos_as_xyz
  1  'x, y, z'
loop_
 _atom_site_type_symbol
 _atom_site_label
 _atom_site_symmetry_multiplicity
 _atom_site_fract_x
 _atom_site_fract_y
 _atom_site_fract_z
 _atom_site_occupancy
  Ca  Ca0  1  0.140828  0.496969  0.999479  1
  Ca  Ca1  1  0.498493  0.995846  0.639685  1
  Ca  Ca2  1  0.354525  0.357235  0.357065  1
  Ca  Ca3  1  0.002140  0.145224  0.502139  1
  Ca  Ca4  1  0.856644  0.858759  0.853937  1
  Ca  Ca5  1  0.003608  0.646006  0.504183  1
  Ce  Ce6  1  0.646431  0.499937  0.999948  1
  Ho  Ho7  1  0.499887  0.000107  0.143370  1
  Sb  Sb8  1  0.866653  0.246809  0.126558  1
  Sb  Sb9  1  0.127274  0.873879  0.244905  1
  Sb  Sb10  1  0.378225  0.631912  0.758179  1
  Sb  Sb11  1  0.256104  0.123343  0.881365  1
  Sb  Sb12  1  0.744119  0.369173  0.618220  1
  Sb  Sb13  1  0.625071  0.754803  0.370967  1
