# generated using pymatgen
data_DyEr(MnAl5)4
_symmetry_space_group_name_H-M   'P 1'
_cell_length_a   6.79939801
_cell_length_b   6.79939763
_cell_length_c   9.04669800
_cell_angle_alpha   90.00000000
_cell_angle_beta   90.00000000
_cell_angle_gamma   97.33406161
_symmetry_Int_Tables_number   1
_chemical_formula_structural   DyEr(MnAl5)4
_chemical_formula_sum   'Dy1 Er1 Mn4 Al20'
_cell_volume   414.82345177
_cell_formula_units_Z   1
loop_
 _symmetry_equiv_pos_site_id
 _symmetry_equiv_pos_as_xyz
  1  'x, y, z'
loop_
 _atom_site_type_symbol
 _atom_site_label
 _atom_site_symmetry_multiplicity
 _atom_site_fract_x
 _atom_site_fract_y
 _atom_site_fract_z
 _atom_site_occupancy
  Dy  Dy0  1  0.126526  0.873474  0.250000  1
  Er  Er1  1  0.872823  0.127177  0.750000  1
  Mn  Mn2  1  0.999963  0.500060  0.500148  1
  Mn  Mn3  1  0.999963  0.500060  0.999852  1
  Mn  Mn4  1  0.499940  0.000037  0.999852  1
  Mn  Mn5  1  0.499940  0.000037  0.500148  1
  Al  Al6  1  0.626122  0.373878  0.545844  1
  Al  Al7  1  0.374105  0.625895  0.453521  1
  Al  Al8  1  0.374105  0.625895  0.046479  1
  Al  Al9  1  0.626122  0.373878  0.954156  1
  Al  Al10  1  0.228953  0.229150  0.500451  1
  Al  Al11  1  0.770850  0.771047  0.500451  1
  Al  Al12  1  0.770850  0.771047  0.999549  1
  Al  Al13  1  0.228953  0.229150  0.999549  1
  Al  Al14  1  0.843432  0.156568  0.096103  1
  Al  Al15  1  0.156637  0.843363  0.903378  1
  Al  Al16  1  0.156637  0.843363  0.596622  1
  Al  Al17  1  0.843432  0.156568  0.403897  1
  Al  Al18  1  0.866757  0.586926  0.750000  1
  Al  Al19  1  0.132547  0.411581  0.250000  1
  Al  Al20  1  0.413074  0.133243  0.750000  1
  Al  Al21  1  0.588419  0.867453  0.250000  1
  Al  Al22  1  0.217967  0.475609  0.750000  1
  Al  Al23  1  0.781624  0.524134  0.250000  1
  Al  Al24  1  0.524391  0.782033  0.750000  1
  Al  Al25  1  0.475866  0.218376  0.250000  1
