# generated using pymatgen
data_Tb2(AsPd)3
_symmetry_space_group_name_H-M   'P 1'
_cell_length_a   4.06741600
_cell_length_b   11.12140900
_cell_length_c   13.72296000
_cell_angle_alpha   90.00000000
_cell_angle_beta   90.00000000
_cell_angle_gamma   90.00000000
_symmetry_Int_Tables_number   1
_chemical_formula_structural   Tb2(AsPd)3
_chemical_formula_sum   'Tb8 As12 Pd12'
_cell_volume   620.76354237
_cell_formula_units_Z   4
loop_
 _symmetry_equiv_pos_site_id
 _symmetry_equiv_pos_as_xyz
  1  'x, y, z'
loop_
 _atom_site_type_symbol
 _atom_site_label
 _atom_site_symmetry_multiplicity
 _atom_site_fract_x
 _atom_site_fract_y
 _atom_site_fract_z
 _atom_site_occupancy
  Tb  Tb0  1  0.250000  0.929004  0.784111  1
  Tb  Tb1  1  0.750000  0.429004  0.715889  1
  Tb  Tb2  1  0.250000  0.570996  0.284111  1
  Tb  Tb3  1  0.750000  0.070996  0.215889  1
  Tb  Tb4  1  0.250000  0.838739  0.503890  1
  Tb  Tb5  1  0.750000  0.338739  0.996110  1
  Tb  Tb6  1  0.250000  0.661261  0.003890  1
  Tb  Tb7  1  0.750000  0.161261  0.496110  1
  As  As8  1  0.250000  0.236109  0.642994  1
  As  As9  1  0.750000  0.736109  0.857006  1
  As  As10  1  0.250000  0.263891  0.142994  1
  As  As11  1  0.750000  0.763891  0.357006  1
  As  As12  1  0.250000  0.602297  0.602258  1
  As  As13  1  0.750000  0.102297  0.897742  1
  As  As14  1  0.250000  0.897703  0.102258  1
  As  As15  1  0.750000  0.397703  0.397742  1
  As  As16  1  0.250000  0.053265  0.377792  1
  As  As17  1  0.750000  0.553265  0.122208  1
  As  As18  1  0.250000  0.446735  0.877792  1
  As  As19  1  0.750000  0.946735  0.622208  1
  Pd  Pd20  1  0.250000  0.405568  0.521279  1
  Pd  Pd21  1  0.750000  0.905568  0.978721  1
  Pd  Pd22  1  0.250000  0.094432  0.021279  1
  Pd  Pd23  1  0.750000  0.594432  0.478721  1
  Pd  Pd24  1  0.250000  0.272202  0.336815  1
  Pd  Pd25  1  0.750000  0.772202  0.163185  1
  Pd  Pd26  1  0.250000  0.227798  0.836815  1
  Pd  Pd27  1  0.750000  0.727798  0.663185  1
  Pd  Pd28  1  0.250000  0.863872  0.281571  1
  Pd  Pd29  1  0.750000  0.363872  0.218429  1
  Pd  Pd30  1  0.250000  0.636128  0.781571  1
  Pd  Pd31  1  0.750000  0.136128  0.718429  1
