# generated using pymatgen
data_PuPCl10
_symmetry_space_group_name_H-M   'P 1'
_cell_length_a   10.36652400
_cell_length_b   10.36652400
_cell_length_c   8.31701800
_cell_angle_alpha   90.00000000
_cell_angle_beta   90.00000000
_cell_angle_gamma   90.00000000
_symmetry_Int_Tables_number   1
_chemical_formula_structural   PuPCl10
_chemical_formula_sum   'Pu2 P2 Cl20'
_cell_volume   893.78684100
_cell_formula_units_Z   2
loop_
 _symmetry_equiv_pos_site_id
 _symmetry_equiv_pos_as_xyz
  1  'x, y, z'
loop_
 _atom_site_type_symbol
 _atom_site_label
 _atom_site_symmetry_multiplicity
 _atom_site_fract_x
 _atom_site_fract_y
 _atom_site_fract_z
 _atom_site_occupancy
  Pu  Pu0  1  0.000000  0.500000  0.619025  1
  Pu  Pu1  1  0.500000  0.000000  0.380975  1
  P  P2  1  0.000000  0.000000  0.000000  1
  P  P3  1  0.500000  0.500000  0.000000  1
  Cl  Cl4  1  0.352628  0.543453  0.136898  1
  Cl  Cl5  1  0.043453  0.147372  0.136898  1
  Cl  Cl6  1  0.956547  0.852628  0.136898  1
  Cl  Cl7  1  0.647372  0.456547  0.136898  1
  Cl  Cl8  1  0.147372  0.956547  0.863102  1
  Cl  Cl9  1  0.456547  0.352628  0.863102  1
  Cl  Cl10  1  0.543453  0.647372  0.863102  1
  Cl  Cl11  1  0.852628  0.043453  0.863102  1
  Cl  Cl12  1  0.000000  0.500000  0.922678  1
  Cl  Cl13  1  0.500000  0.000000  0.077322  1
  Cl  Cl14  1  0.000000  0.500000  0.313930  1
  Cl  Cl15  1  0.500000  0.000000  0.686070  1
  Cl  Cl16  1  0.223428  0.595713  0.619513  1
  Cl  Cl17  1  0.095713  0.276572  0.619513  1
  Cl  Cl18  1  0.904287  0.723428  0.619513  1
  Cl  Cl19  1  0.776572  0.404287  0.619513  1
  Cl  Cl20  1  0.276572  0.904287  0.380487  1
  Cl  Cl21  1  0.404287  0.223428  0.380487  1
  Cl  Cl22  1  0.595713  0.776572  0.380487  1
  Cl  Cl23  1  0.723428  0.095713  0.380487  1
