# generated using pymatgen
data_Tb3Y(Ga3Ir)6
_symmetry_space_group_name_H-M   'P 1'
_cell_length_a   7.60308205
_cell_length_b   7.60337729
_cell_length_c   9.51947100
_cell_angle_alpha   89.99885451
_cell_angle_beta   89.99878935
_cell_angle_gamma   119.94835109
_symmetry_Int_Tables_number   1
_chemical_formula_structural   Tb3Y(Ga3Ir)6
_chemical_formula_sum   'Tb3 Y1 Ga18 Ir6'
_cell_volume   476.83207171
_cell_formula_units_Z   1
loop_
 _symmetry_equiv_pos_site_id
 _symmetry_equiv_pos_as_xyz
  1  'x, y, z'
loop_
 _atom_site_type_symbol
 _atom_site_label
 _atom_site_symmetry_multiplicity
 _atom_site_fract_x
 _atom_site_fract_y
 _atom_site_fract_z
 _atom_site_occupancy
  Tb  Tb0  1  0.996967  0.667870  0.250004  1
  Tb  Tb1  1  0.003067  0.332182  0.749996  1
  Tb  Tb2  1  0.667870  0.996981  0.250006  1
  Y  Y3  1  0.332185  0.003078  0.749995  1
  Ga  Ga4  1  0.126643  0.126637  0.250000  1
  Ga  Ga5  1  0.873322  0.873366  0.750000  1
  Ga  Ga6  1  0.999334  0.333860  0.079627  1
  Ga  Ga7  1  0.000665  0.666135  0.920399  1
  Ga  Ga8  1  0.000684  0.666152  0.579595  1
  Ga  Ga9  1  0.333844  0.999300  0.420372  1
  Ga  Ga10  1  0.999315  0.333843  0.420379  1
  Ga  Ga11  1  0.666116  0.000677  0.579594  1
  Ga  Ga12  1  0.666097  0.000660  0.920399  1
  Ga  Ga13  1  0.333862  0.999316  0.079634  1
  Ga  Ga14  1  0.332765  0.332755  0.563242  1
  Ga  Ga15  1  0.667246  0.667250  0.436771  1
  Ga  Ga16  1  0.667265  0.667266  0.063236  1
  Ga  Ga17  1  0.332747  0.332738  0.936751  1
  Ga  Ga18  1  0.338939  0.546276  0.249996  1
  Ga  Ga19  1  0.661130  0.453825  0.750004  1
  Ga  Ga20  1  0.546248  0.338925  0.249995  1
  Ga  Ga21  1  0.453769  0.661035  0.750005  1
  Ir  Ir22  1  0.671279  0.328680  0.000036  1
  Ir  Ir23  1  0.328669  0.671253  0.000036  1
  Ir  Ir24  1  0.328670  0.671247  0.499962  1
  Ir  Ir25  1  0.671278  0.328685  0.499965  1
  Ir  Ir26  1  0.000011  0.000005  0.000033  1
  Ir  Ir27  1  0.000012  0.000004  0.499967  1
