# generated using pymatgen
data_Er3Mg2ScRh3
_symmetry_space_group_name_H-M   'P 1'
_cell_length_a   7.30985500
_cell_length_b   7.31291452
_cell_length_c   4.06368200
_cell_angle_alpha   90.00000000
_cell_angle_beta   90.00000000
_cell_angle_gamma   119.98615680
_symmetry_Int_Tables_number   1
_chemical_formula_structural   Er3Mg2ScRh3
_chemical_formula_sum   'Er3 Mg2 Sc1 Rh3'
_cell_volume   188.15257682
_cell_formula_units_Z   1
loop_
 _symmetry_equiv_pos_site_id
 _symmetry_equiv_pos_as_xyz
  1  'x, y, z'
loop_
 _atom_site_type_symbol
 _atom_site_label
 _atom_site_symmetry_multiplicity
 _atom_site_fract_x
 _atom_site_fract_y
 _atom_site_fract_z
 _atom_site_occupancy
  Er  Er0  1  0.990940  0.578367  0.500000  1
  Er  Er1  1  0.412573  0.421633  0.500000  1
  Er  Er2  1  0.600439  0.000000  0.500000  1
  Mg  Mg3  1  0.753103  0.751530  0.000000  1
  Mg  Mg4  1  0.001572  0.248470  0.000000  1
  Sc  Sc5  1  0.247073  0.000000  0.000000  1
  Rh  Rh6  1  0.652059  0.322505  0.000000  1
  Rh  Rh7  1  0.329553  0.677495  0.000000  1
  Rh  Rh8  1  0.012688  0.000000  0.500000  1
