# generated using pymatgen
data_Er2Nb4FeB4Ru9
_symmetry_space_group_name_H-M   'P 1'
_cell_length_a   9.46158809
_cell_length_b   9.46158861
_cell_length_c   3.09726500
_cell_angle_alpha   90.00000000
_cell_angle_beta   90.00000000
_cell_angle_gamma   89.97087816
_symmetry_Int_Tables_number   1
_chemical_formula_structural   Er2Nb4FeB4Ru9
_chemical_formula_sum   'Er2 Nb4 Fe1 B4 Ru9'
_cell_volume   277.27225026
_cell_formula_units_Z   1
loop_
 _symmetry_equiv_pos_site_id
 _symmetry_equiv_pos_as_xyz
  1  'x, y, z'
loop_
 _atom_site_type_symbol
 _atom_site_label
 _atom_site_symmetry_multiplicity
 _atom_site_fract_x
 _atom_site_fract_y
 _atom_site_fract_z
 _atom_site_occupancy
  Er  Er0  1  0.177810  0.177810  0.000000  1
  Er  Er1  1  0.822190  0.822190  0.000000  1
  Nb  Nb2  1  0.500000  0.000000  0.000000  1
  Nb  Nb3  1  0.000000  0.500000  0.000000  1
  Nb  Nb4  1  0.669568  0.330432  0.000000  1
  Nb  Nb5  1  0.330432  0.669568  0.000000  1
  Fe  Fe6  1  0.500000  0.500000  0.500000  1
  B  B7  1  0.388016  0.388016  0.000000  1
  B  B8  1  0.611984  0.611984  0.000000  1
  B  B9  1  0.878137  0.121863  0.000000  1
  B  B10  1  0.121863  0.878137  0.000000  1
  Ru  Ru11  1  0.000000  0.000000  0.500000  1
  Ru  Ru12  1  0.443049  0.228741  0.500000  1
  Ru  Ru13  1  0.556951  0.771259  0.500000  1
  Ru  Ru14  1  0.919580  0.286185  0.500000  1
  Ru  Ru15  1  0.080420  0.713815  0.500000  1
  Ru  Ru16  1  0.713815  0.080420  0.500000  1
  Ru  Ru17  1  0.286185  0.919580  0.500000  1
  Ru  Ru18  1  0.771259  0.556951  0.500000  1
  Ru  Ru19  1  0.228741  0.443049  0.500000  1
