# generated using pymatgen
data_CsFeH9
_symmetry_space_group_name_H-M   'P 1'
_cell_length_a   7.35828800
_cell_length_b   7.35828684
_cell_length_c   8.21322100
_cell_angle_alpha   90.00000000
_cell_angle_beta   90.00000000
_cell_angle_gamma   120.00000520
_symmetry_Int_Tables_number   1
_chemical_formula_structural   CsFeH9
_chemical_formula_sum   'Cs3 Fe3 H27'
_cell_volume   385.12136601
_cell_formula_units_Z   3
loop_
 _symmetry_equiv_pos_site_id
 _symmetry_equiv_pos_as_xyz
  1  'x, y, z'
loop_
 _atom_site_type_symbol
 _atom_site_label
 _atom_site_symmetry_multiplicity
 _atom_site_fract_x
 _atom_site_fract_y
 _atom_site_fract_z
 _atom_site_occupancy
  Cs  Cs0  1  0.666667  0.333333  0.505406  1
  Cs  Cs1  1  0.333333  0.666667  0.180182  1
  Cs  Cs2  1  0.000000  0.000000  0.808366  1
  Fe  Fe3  1  0.666667  0.333333  0.008433  1
  Fe  Fe4  1  0.333333  0.666667  0.681867  1
  Fe  Fe5  1  0.000000  0.000000  0.305705  1
  H  H6  1  0.465044  0.132401  0.009215  1
  H  H7  1  0.667356  0.534956  0.009215  1
  H  H8  1  0.867599  0.332644  0.009215  1
  H  H9  1  0.649046  0.177659  0.134336  1
  H  H10  1  0.528612  0.350954  0.134336  1
  H  H11  1  0.822341  0.471388  0.134336  1
  H  H12  1  0.684654  0.194664  0.883126  1
  H  H13  1  0.510010  0.315346  0.883126  1
  H  H14  1  0.805336  0.489990  0.883126  1
  H  H15  1  0.119094  0.481282  0.685803  1
  H  H16  1  0.362187  0.880906  0.685803  1
  H  H17  1  0.518718  0.637813  0.685803  1
  H  H18  1  0.211729  0.022848  0.300690  1
  H  H19  1  0.811119  0.788271  0.300690  1
  H  H20  1  0.977152  0.188881  0.300690  1
  H  H21  1  0.310390  0.510732  0.808828  1
  H  H22  1  0.200342  0.689610  0.808828  1
  H  H23  1  0.489268  0.799658  0.808828  1
  H  H24  1  0.024274  0.867906  0.178796  1
  H  H25  1  0.843633  0.975726  0.178796  1
  H  H26  1  0.132094  0.156367  0.178796  1
  H  H27  1  0.315818  0.511160  0.555521  1
  H  H28  1  0.195343  0.684182  0.555521  1
  H  H29  1  0.488840  0.804657  0.555521  1
  H  H30  1  0.006626  0.854830  0.431369  1
  H  H31  1  0.848204  0.993374  0.431369  1
  H  H32  1  0.145170  0.151796  0.431369  1
