# generated using pymatgen
data_LaDyP7Ru12
_symmetry_space_group_name_H-M   'P 1'
_cell_length_a   9.46438200
_cell_length_b   9.46438129
_cell_length_c   3.97431600
_cell_angle_alpha   90.00000000
_cell_angle_beta   90.00000000
_cell_angle_gamma   119.99999549
_symmetry_Int_Tables_number   1
_chemical_formula_structural   LaDyP7Ru12
_chemical_formula_sum   'La1 Dy1 P7 Ru12'
_cell_volume   308.30284739
_cell_formula_units_Z   1
loop_
 _symmetry_equiv_pos_site_id
 _symmetry_equiv_pos_as_xyz
  1  'x, y, z'
loop_
 _atom_site_type_symbol
 _atom_site_label
 _atom_site_symmetry_multiplicity
 _atom_site_fract_x
 _atom_site_fract_y
 _atom_site_fract_z
 _atom_site_occupancy
  La  La0  1  0.333333  0.666667  0.000000  1
  Dy  Dy1  1  0.666667  0.333333  0.500000  1
  P  P2  1  0.607067  0.718739  0.500000  1
  P  P3  1  0.000000  0.000000  0.000000  1
  P  P4  1  0.281261  0.888328  0.500000  1
  P  P5  1  0.111672  0.392933  0.500000  1
  P  P6  1  0.887813  0.571483  0.000000  1
  P  P7  1  0.428517  0.316329  0.000000  1
  P  P8  1  0.683671  0.112187  0.000000  1
  Ru  Ru9  1  0.559789  0.956187  0.500000  1
  Ru  Ru10  1  0.396398  0.440211  0.500000  1
  Ru  Ru11  1  0.914723  0.118681  0.500000  1
  Ru  Ru12  1  0.203958  0.085277  0.500000  1
  Ru  Ru13  1  0.881319  0.796042  0.500000  1
  Ru  Ru14  1  0.729005  0.892825  0.000000  1
  Ru  Ru15  1  0.107175  0.836179  0.000000  1
  Ru  Ru16  1  0.163821  0.270995  0.000000  1
  Ru  Ru17  1  0.421023  0.069701  0.000000  1
  Ru  Ru18  1  0.930299  0.351324  0.000000  1
  Ru  Ru19  1  0.648676  0.578977  0.000000  1
  Ru  Ru20  1  0.043813  0.603602  0.500000  1
