# generated using pymatgen
data_CrTc2As7
_symmetry_space_group_name_H-M   'P 1'
_cell_length_a   7.56316643
_cell_length_b   7.56316648
_cell_length_c   7.56183644
_cell_angle_alpha   109.67094740
_cell_angle_beta   109.67094504
_cell_angle_gamma   109.07967036
_symmetry_Int_Tables_number   1
_chemical_formula_structural   CrTc2As7
_chemical_formula_sum   'Cr2 Tc4 As14'
_cell_volume   332.93450573
_cell_formula_units_Z   2
loop_
 _symmetry_equiv_pos_site_id
 _symmetry_equiv_pos_as_xyz
  1  'x, y, z'
loop_
 _atom_site_type_symbol
 _atom_site_label
 _atom_site_symmetry_multiplicity
 _atom_site_fract_x
 _atom_site_fract_y
 _atom_site_fract_z
 _atom_site_occupancy
  Cr  Cr0  1  0.340164  0.000953  0.341117  1
  Cr  Cr1  1  0.000953  0.340164  0.341117  1
  Tc  Tc2  1  0.000918  0.658825  0.659743  1
  Tc  Tc3  1  0.341008  0.341008  0.001758  1
  Tc  Tc4  1  0.660750  0.660750  0.001758  1
  Tc  Tc5  1  0.658825  0.000918  0.659743  1
  As  As6  1  0.752726  0.495487  0.248214  1
  As  As7  1  0.495487  0.752726  0.248214  1
  As  As8  1  0.495467  0.247631  0.743098  1
  As  As9  1  0.745818  0.245818  0.491637  1
  As  As10  1  0.245818  0.745818  0.491637  1
  As  As11  1  0.247631  0.495467  0.743098  1
  As  As12  1  0.006707  0.006707  0.331620  1
  As  As13  1  0.675372  0.007066  0.007267  1
  As  As14  1  0.007066  0.675372  0.007267  1
  As  As15  1  0.324913  0.324913  0.331620  1
  As  As16  1  0.000201  0.331896  0.007267  1
  As  As17  1  0.668215  0.668215  0.668280  1
  As  As18  1  0.331896  0.000201  0.007267  1
  As  As19  1  0.000065  0.000065  0.668280  1
