# generated using pymatgen
data_Li3Ho4ZnPt4
_symmetry_space_group_name_H-M   'P 1'
_cell_length_a   3.98944500
_cell_length_b   7.02892031
_cell_length_c   8.39817798
_cell_angle_alpha   89.82284505
_cell_angle_beta   90.00000000
_cell_angle_gamma   90.00000000
_symmetry_Int_Tables_number   1
_chemical_formula_structural   Li3Ho4ZnPt4
_chemical_formula_sum   'Li3 Ho4 Zn1 Pt4'
_cell_volume   235.49630666
_cell_formula_units_Z   1
loop_
 _symmetry_equiv_pos_site_id
 _symmetry_equiv_pos_as_xyz
  1  'x, y, z'
loop_
 _atom_site_type_symbol
 _atom_site_label
 _atom_site_symmetry_multiplicity
 _atom_site_fract_x
 _atom_site_fract_y
 _atom_site_fract_z
 _atom_site_occupancy
  Li  Li0  1  0.250000  0.628138  0.559985  1
  Li  Li1  1  0.250000  0.124509  0.942865  1
  Li  Li2  1  0.750000  0.373062  0.439265  1
  Ho  Ho3  1  0.250000  0.045086  0.315926  1
  Ho  Ho4  1  0.250000  0.552337  0.179302  1
  Ho  Ho5  1  0.750000  0.949833  0.685191  1
  Ho  Ho6  1  0.750000  0.452540  0.816117  1
  Zn  Zn7  1  0.750000  0.875490  0.061853  1
  Pt  Pt8  1  0.250000  0.240405  0.624398  1
  Pt  Pt9  1  0.250000  0.746422  0.877938  1
  Pt  Pt10  1  0.750000  0.756349  0.375572  1
  Pt  Pt11  1  0.750000  0.255832  0.121588  1
