# generated using pymatgen
data_Tb3LuAl2(ZnPt2)2
_symmetry_space_group_name_H-M   'P 1'
_cell_length_a   4.36143500
_cell_length_b   6.83258961
_cell_length_c   7.90504872
_cell_angle_alpha   90.35905205
_cell_angle_beta   90.00000000
_cell_angle_gamma   90.00000000
_symmetry_Int_Tables_number   1
_chemical_formula_structural   Tb3LuAl2(ZnPt2)2
_chemical_formula_sum   'Tb3 Lu1 Al2 Zn2 Pt4'
_cell_volume   235.56500014
_cell_formula_units_Z   1
loop_
 _symmetry_equiv_pos_site_id
 _symmetry_equiv_pos_as_xyz
  1  'x, y, z'
loop_
 _atom_site_type_symbol
 _atom_site_label
 _atom_site_symmetry_multiplicity
 _atom_site_fract_x
 _atom_site_fract_y
 _atom_site_fract_z
 _atom_site_occupancy
  Tb  Tb0  1  0.250000  0.526174  0.812195  1
  Tb  Tb1  1  0.750000  0.970771  0.318240  1
  Tb  Tb2  1  0.750000  0.470186  0.182722  1
  Lu  Lu3  1  0.250000  0.027329  0.686955  1
  Al  Al4  1  0.750000  0.857240  0.936824  1
  Al  Al5  1  0.750000  0.355401  0.562657  1
  Zn  Zn6  1  0.250000  0.151705  0.066929  1
  Zn  Zn7  1  0.250000  0.652877  0.432723  1
  Pt  Pt8  1  0.250000  0.261661  0.396542  1
  Pt  Pt9  1  0.250000  0.763553  0.106666  1
  Pt  Pt10  1  0.750000  0.735083  0.624308  1
  Pt  Pt11  1  0.750000  0.228020  0.873239  1
