# generated using pymatgen
data_Ho8B24MoIr2Ru
_symmetry_space_group_name_H-M   'P 1'
_cell_length_a   3.65219900
_cell_length_b   9.15895329
_cell_length_c   11.53645751
_cell_angle_alpha   90.22079574
_cell_angle_beta   90.00000000
_cell_angle_gamma   90.00000000
_symmetry_Int_Tables_number   1
_chemical_formula_structural   Ho8B24MoIr2Ru
_chemical_formula_sum   'Ho8 B24 Mo1 Ir2 Ru1'
_cell_volume   385.89533052
_cell_formula_units_Z   1
loop_
 _symmetry_equiv_pos_site_id
 _symmetry_equiv_pos_as_xyz
  1  'x, y, z'
loop_
 _atom_site_type_symbol
 _atom_site_label
 _atom_site_symmetry_multiplicity
 _atom_site_fract_x
 _atom_site_fract_y
 _atom_site_fract_z
 _atom_site_occupancy
  Ho  Ho0  1  0.000000  0.317618  0.408990  1
  Ho  Ho1  1  0.000000  0.680175  0.587104  1
  Ho  Ho2  1  0.000000  0.825035  0.085259  1
  Ho  Ho3  1  0.000000  0.175459  0.917336  1
  Ho  Ho4  1  0.000000  0.946307  0.374062  1
  Ho  Ho5  1  0.000000  0.054057  0.628517  1
  Ho  Ho6  1  0.000000  0.443526  0.124646  1
  Ho  Ho7  1  0.000000  0.558811  0.873777  1
  B  B8  1  0.500000  0.553214  0.433863  1
  B  B9  1  0.500000  0.445997  0.566054  1
  B  B10  1  0.500000  0.051267  0.064759  1
  B  B11  1  0.500000  0.945959  0.932150  1
  B  B12  1  0.500000  0.748822  0.421539  1
  B  B13  1  0.500000  0.250628  0.579044  1
  B  B14  1  0.500000  0.249214  0.078129  1
  B  B15  1  0.500000  0.753173  0.919666  1
  B  B16  1  0.500000  0.791616  0.266857  1
  B  B17  1  0.500000  0.208796  0.734480  1
  B  B18  1  0.500000  0.294758  0.235141  1
  B  B19  1  0.500000  0.708160  0.765797  1
  B  B20  1  0.500000  0.632598  0.184625  1
  B  B21  1  0.500000  0.368374  0.815794  1
  B  B22  1  0.500000  0.132465  0.316327  1
  B  B23  1  0.500000  0.867147  0.685157  1
  B  B24  1  0.500000  0.979962  0.213702  1
  B  B25  1  0.500000  0.016147  0.786841  1
  B  B26  1  0.500000  0.482384  0.287121  1
  B  B27  1  0.500000  0.517725  0.712875  1
  B  B28  1  0.500000  0.610605  0.030054  1
  B  B29  1  0.500000  0.391770  0.968203  1
  B  B30  1  0.500000  0.109356  0.471711  1
  B  B31  1  0.500000  0.889861  0.530805  1
  Mo  Mo32  1  0.000000  0.137716  0.179348  1
  Ir  Ir33  1  0.000000  0.637516  0.322567  1
  Ir  Ir34  1  0.000000  0.363010  0.678033  1
  Ru  Ru35  1  0.000000  0.860770  0.819666  1
