# generated using pymatgen
data_Nd7Dy(SiBr6)2
_symmetry_space_group_name_H-M   'P 1'
_cell_length_a   4.20163500
_cell_length_b   13.71008037
_cell_length_c   14.49220922
_cell_angle_alpha   90.40101421
_cell_angle_beta   90.00000000
_cell_angle_gamma   90.00000000
_symmetry_Int_Tables_number   1
_chemical_formula_structural   Nd7Dy(SiBr6)2
_chemical_formula_sum   'Nd7 Dy1 Si2 Br12'
_cell_volume   834.79969281
_cell_formula_units_Z   1
loop_
 _symmetry_equiv_pos_site_id
 _symmetry_equiv_pos_as_xyz
  1  'x, y, z'
loop_
 _atom_site_type_symbol
 _atom_site_label
 _atom_site_symmetry_multiplicity
 _atom_site_fract_x
 _atom_site_fract_y
 _atom_site_fract_z
 _atom_site_occupancy
  Nd  Nd0  1  0.500000  0.118891  0.340645  1
  Nd  Nd1  1  0.500000  0.881701  0.659796  1
  Nd  Nd2  1  0.500000  0.617976  0.158550  1
  Nd  Nd3  1  0.000000  0.121140  0.580897  1
  Nd  Nd4  1  0.000000  0.880546  0.420541  1
  Nd  Nd5  1  0.000000  0.619004  0.920357  1
  Nd  Nd6  1  0.000000  0.380224  0.078622  1
  Dy  Dy7  1  0.500000  0.382392  0.841641  1
  Si  Si8  1  0.500000  0.000968  0.500697  1
  Si  Si9  1  0.500000  0.498164  0.997503  1
  Br  Br10  1  0.500000  0.243010  0.161590  1
  Br  Br11  1  0.500000  0.756141  0.837321  1
  Br  Br12  1  0.500000  0.742749  0.337394  1
  Br  Br13  1  0.500000  0.259475  0.668183  1
  Br  Br14  1  0.000000  0.255478  0.412367  1
  Br  Br15  1  0.000000  0.744912  0.588104  1
  Br  Br16  1  0.000000  0.754505  0.088379  1
  Br  Br17  1  0.000000  0.251414  0.904307  1
  Br  Br18  1  0.000000  0.000970  0.243732  1
  Br  Br19  1  0.000000  0.999309  0.756873  1
  Br  Br20  1  0.000000  0.501404  0.255746  1
  Br  Br21  1  0.000000  0.489625  0.746757  1
