# generated using pymatgen
data_TaTc2P4Ru5
_symmetry_space_group_name_H-M   'P 1'
_cell_length_a   3.92881400
_cell_length_b   5.99767115
_cell_length_c   6.89589800
_cell_angle_alpha   89.93259398
_cell_angle_beta   90.00000000
_cell_angle_gamma   90.00000000
_symmetry_Int_Tables_number   1
_chemical_formula_structural   TaTc2P4Ru5
_chemical_formula_sum   'Ta1 Tc2 P4 Ru5'
_cell_volume   162.49299636
_cell_formula_units_Z   1
loop_
 _symmetry_equiv_pos_site_id
 _symmetry_equiv_pos_as_xyz
  1  'x, y, z'
loop_
 _atom_site_type_symbol
 _atom_site_label
 _atom_site_symmetry_multiplicity
 _atom_site_fract_x
 _atom_site_fract_y
 _atom_site_fract_z
 _atom_site_occupancy
  Ta  Ta0  1  0.750000  0.524240  0.831391  1
  Tc  Tc1  1  0.750000  0.024600  0.660285  1
  Tc  Tc2  1  0.250000  0.977122  0.338338  1
  P  P3  1  0.250000  0.748410  0.611674  1
  P  P4  1  0.750000  0.253844  0.388151  1
  P  P5  1  0.250000  0.239756  0.888366  1
  P  P6  1  0.750000  0.763218  0.117513  1
  Ru  Ru7  1  0.250000  0.465349  0.161515  1
  Ru  Ru8  1  0.250000  0.357584  0.572645  1
  Ru  Ru9  1  0.750000  0.638485  0.425796  1
  Ru  Ru10  1  0.250000  0.861820  0.932531  1
  Ru  Ru11  1  0.750000  0.145575  0.071796  1
