# generated using pymatgen
data_Yb3HoB15C
_symmetry_space_group_name_H-M   'P 1'
_cell_length_a   7.00707985
_cell_length_b   7.00707997
_cell_length_c   4.06441200
_cell_angle_alpha   90.00000000
_cell_angle_beta   90.00000000
_cell_angle_gamma   90.67577830
_symmetry_Int_Tables_number   1
_chemical_formula_structural   Yb3HoB15C
_chemical_formula_sum   'Yb3 Ho1 B15 C1'
_cell_volume   199.54537094
_cell_formula_units_Z   1
loop_
 _symmetry_equiv_pos_site_id
 _symmetry_equiv_pos_as_xyz
  1  'x, y, z'
loop_
 _atom_site_type_symbol
 _atom_site_label
 _atom_site_symmetry_multiplicity
 _atom_site_fract_x
 _atom_site_fract_y
 _atom_site_fract_z
 _atom_site_occupancy
  Yb  Yb0  1  0.817056  0.315957  0.000000  1
  Yb  Yb1  1  0.184043  0.682944  0.000000  1
  Yb  Yb2  1  0.676830  0.823170  0.000000  1
  Ho  Ho3  1  0.319724  0.180276  0.000000  1
  B  B4  1  0.505233  0.503486  0.796846  1
  B  B5  1  0.996514  0.994767  0.796846  1
  B  B6  1  0.505233  0.503486  0.203154  1
  B  B7  1  0.996514  0.994767  0.203154  1
  B  B8  1  0.078674  0.421326  0.500000  1
  B  B9  1  0.412507  0.915238  0.500000  1
  B  B10  1  0.584762  0.087493  0.500000  1
  B  B11  1  0.685815  0.540658  0.500000  1
  B  B12  1  0.325511  0.466737  0.500000  1
  B  B13  1  0.174352  0.959663  0.500000  1
  B  B14  1  0.821388  0.032490  0.500000  1
  B  B15  1  0.467510  0.678612  0.500000  1
  B  B16  1  0.540337  0.325648  0.500000  1
  B  B17  1  0.033263  0.174489  0.500000  1
  B  B18  1  0.959342  0.814185  0.500000  1
  C  C19  1  0.915394  0.584606  0.500000  1
