# generated using pymatgen
data_HoZnCdCu2Ir
_symmetry_space_group_name_H-M   'P 1'
_cell_length_a   5.17788604
_cell_length_b   5.13937972
_cell_length_c   5.25319753
_cell_angle_alpha   59.03425187
_cell_angle_beta   60.47312379
_cell_angle_gamma   59.75185567
_symmetry_Int_Tables_number   1
_chemical_formula_structural   HoZnCdCu2Ir
_chemical_formula_sum   'Ho1 Zn1 Cd1 Cu2 Ir1'
_cell_volume   98.26344198
_cell_formula_units_Z   1
loop_
 _symmetry_equiv_pos_site_id
 _symmetry_equiv_pos_as_xyz
  1  'x, y, z'
loop_
 _atom_site_type_symbol
 _atom_site_label
 _atom_site_symmetry_multiplicity
 _atom_site_fract_x
 _atom_site_fract_y
 _atom_site_fract_z
 _atom_site_occupancy
  Ho  Ho0  1  0.748900  0.744687  0.757515  1
  Zn  Zn1  1  0.374439  0.877288  0.373834  1
  Cd  Cd2  1  0.002789  0.997652  0.996770  1
  Cu  Cu3  1  0.374260  0.376822  0.372881  1
  Cu  Cu4  1  0.876037  0.376822  0.372881  1
  Ir  Ir5  1  0.373577  0.376730  0.876117  1
