# generated using pymatgen
data_ZrCoH6
_symmetry_space_group_name_H-M   'P 1'
_cell_length_a   4.41372918
_cell_length_b   4.41513900
_cell_length_c   4.42552008
_cell_angle_alpha   120.07573828
_cell_angle_beta   90.05284279
_cell_angle_gamma   119.81471121
_symmetry_Int_Tables_number   1
_chemical_formula_structural   ZrCoH6
_chemical_formula_sum   'Zr1 Co1 H6'
_cell_volume   61.05416060
_cell_formula_units_Z   1
loop_
 _symmetry_equiv_pos_site_id
 _symmetry_equiv_pos_as_xyz
  1  'x, y, z'
loop_
 _atom_site_type_symbol
 _atom_site_label
 _atom_site_symmetry_multiplicity
 _atom_site_fract_x
 _atom_site_fract_y
 _atom_site_fract_z
 _atom_site_occupancy
  Zr  Zr0  1  0.377320  0.031985  0.892853  1
  Co  Co1  1  0.127370  0.533808  0.143694  1
  H  H2  1  0.372237  0.523624  0.391695  1
  H  H3  1  0.878844  0.546465  0.397283  1
  H  H4  1  0.369870  0.522282  0.883739  1
  H  H5  1  0.872522  0.031465  0.892672  1
  H  H6  1  0.878123  0.548479  0.905110  1
  H  H7  1  0.393436  0.035933  0.394680  1
