# generated using pymatgen
data_Dy2Ho6Re3B24Ru
_symmetry_space_group_name_H-M   'P 1'
_cell_length_a   3.66938600
_cell_length_b   9.14794693
_cell_length_c   11.53025400
_cell_angle_alpha   90.10501827
_cell_angle_beta   90.00000000
_cell_angle_gamma   90.00000000
_symmetry_Int_Tables_number   1
_chemical_formula_structural   Dy2Ho6Re3B24Ru
_chemical_formula_sum   'Dy2 Ho6 Re3 B24 Ru1'
_cell_volume   387.03940304
_cell_formula_units_Z   1
loop_
 _symmetry_equiv_pos_site_id
 _symmetry_equiv_pos_as_xyz
  1  'x, y, z'
loop_
 _atom_site_type_symbol
 _atom_site_label
 _atom_site_symmetry_multiplicity
 _atom_site_fract_x
 _atom_site_fract_y
 _atom_site_fract_z
 _atom_site_occupancy
  Dy  Dy0  1  0.000000  0.322170  0.414209  1
  Dy  Dy1  1  0.000000  0.677217  0.587544  1
  Ho  Ho2  1  0.000000  0.824760  0.084193  1
  Ho  Ho3  1  0.000000  0.176446  0.913704  1
  Ho  Ho4  1  0.000000  0.941964  0.369615  1
  Ho  Ho5  1  0.000000  0.056361  0.629464  1
  Ho  Ho6  1  0.000000  0.443186  0.130383  1
  Ho  Ho7  1  0.000000  0.556852  0.870965  1
  Re  Re8  1  0.000000  0.361798  0.678412  1
  Re  Re9  1  0.000000  0.138385  0.179510  1
  Re  Re10  1  0.000000  0.861631  0.820949  1
  B  B11  1  0.500000  0.554176  0.432558  1
  B  B12  1  0.500000  0.446790  0.566875  1
  B  B13  1  0.500000  0.053222  0.066752  1
  B  B14  1  0.500000  0.946838  0.933064  1
  B  B15  1  0.500000  0.748629  0.418383  1
  B  B16  1  0.500000  0.250487  0.581232  1
  B  B17  1  0.500000  0.249477  0.081244  1
  B  B18  1  0.500000  0.751118  0.918866  1
  B  B19  1  0.500000  0.790969  0.265455  1
  B  B20  1  0.500000  0.207826  0.734312  1
  B  B21  1  0.500000  0.291859  0.234818  1
  B  B22  1  0.500000  0.707863  0.765903  1
  B  B23  1  0.500000  0.631616  0.185796  1
  B  B24  1  0.500000  0.369217  0.814142  1
  B  B25  1  0.500000  0.131074  0.314755  1
  B  B26  1  0.500000  0.868786  0.685701  1
  B  B27  1  0.500000  0.982454  0.211822  1
  B  B28  1  0.500000  0.017562  0.787794  1
  B  B29  1  0.500000  0.483773  0.288130  1
  B  B30  1  0.500000  0.517902  0.712105  1
  B  B31  1  0.500000  0.601944  0.028851  1
  B  B32  1  0.500000  0.398580  0.972148  1
  B  B33  1  0.500000  0.100529  0.471483  1
  B  B34  1  0.500000  0.897864  0.528077  1
  Ru  Ru35  1  0.000000  0.638681  0.320790  1
