# generated using pymatgen
data_Pr3SmIn2Rh3
_symmetry_space_group_name_H-M   'P 1'
_cell_length_a   7.77489022
_cell_length_b   7.77489101
_cell_length_c   4.21349000
_cell_angle_alpha   90.00000000
_cell_angle_beta   90.00000000
_cell_angle_gamma   121.16850307
_symmetry_Int_Tables_number   1
_chemical_formula_structural   Pr3SmIn2Rh3
_chemical_formula_sum   'Pr3 Sm1 In2 Rh3'
_cell_volume   217.93457744
_cell_formula_units_Z   1
loop_
 _symmetry_equiv_pos_site_id
 _symmetry_equiv_pos_as_xyz
  1  'x, y, z'
loop_
 _atom_site_type_symbol
 _atom_site_label
 _atom_site_symmetry_multiplicity
 _atom_site_fract_x
 _atom_site_fract_y
 _atom_site_fract_z
 _atom_site_occupancy
  Pr  Pr0  1  0.022297  0.583261  0.500000  1
  Pr  Pr1  1  0.384736  0.384736  0.500000  1
  Pr  Pr2  1  0.583261  0.022297  0.500000  1
  Sm  Sm3  1  0.757173  0.757173  0.000000  1
  In  In4  1  0.995792  0.248693  0.000000  1
  In  In5  1  0.248693  0.995792  0.000000  1
  Rh  Rh6  1  0.334486  0.667281  0.000000  1
  Rh  Rh7  1  0.006282  0.006282  0.500000  1
  Rh  Rh8  1  0.667281  0.334486  0.000000  1
