# generated using pymatgen
data_Dy3BC2N
_symmetry_space_group_name_H-M   'P 1'
_cell_length_a   3.59494476
_cell_length_b   3.59494476
_cell_length_c   15.81138600
_cell_angle_alpha   90.00000000
_cell_angle_beta   90.00000000
_cell_angle_gamma   90.20536185
_symmetry_Int_Tables_number   1
_chemical_formula_structural   Dy3BC2N
_chemical_formula_sum   'Dy6 B2 C4 N2'
_cell_volume   204.33915555
_cell_formula_units_Z   2
loop_
 _symmetry_equiv_pos_site_id
 _symmetry_equiv_pos_as_xyz
  1  'x, y, z'
loop_
 _atom_site_type_symbol
 _atom_site_label
 _atom_site_symmetry_multiplicity
 _atom_site_fract_x
 _atom_site_fract_y
 _atom_site_fract_z
 _atom_site_occupancy
  Dy  Dy0  1  0.545886  0.454113  0.104699  1
  Dy  Dy1  1  0.048735  0.951263  0.250000  1
  Dy  Dy2  1  0.545886  0.454113  0.395301  1
  Dy  Dy3  1  0.454113  0.545886  0.604699  1
  Dy  Dy4  1  0.951263  0.048735  0.750000  1
  Dy  Dy5  1  0.454113  0.545886  0.895301  1
  B  B6  1  0.000000  0.000000  0.000000  1
  B  B7  1  0.000000  0.000000  0.500000  1
  C  C8  1  0.041821  0.958178  0.093000  1
  C  C9  1  0.041821  0.958178  0.407000  1
  C  C10  1  0.958178  0.041821  0.593000  1
  C  C11  1  0.958178  0.041821  0.907000  1
  N  N12  1  0.552439  0.447560  0.250000  1
  N  N13  1  0.447560  0.552439  0.750000  1
