# generated using pymatgen
data_Pr2Nd2Y(Sn5Rh2)2
_symmetry_space_group_name_H-M   'P 1'
_cell_length_a   14.23286885
_cell_length_b   14.23286885
_cell_length_c   4.60627900
_cell_angle_alpha   90.00000000
_cell_angle_beta   90.00000000
_cell_angle_gamma   90.10385234
_symmetry_Int_Tables_number   1
_chemical_formula_structural   Pr2Nd2Y(Sn5Rh2)2
_chemical_formula_sum   'Pr4 Nd4 Y2 Sn20 Rh8'
_cell_volume   933.11338839
_cell_formula_units_Z   2
loop_
 _symmetry_equiv_pos_site_id
 _symmetry_equiv_pos_as_xyz
  1  'x, y, z'
loop_
 _atom_site_type_symbol
 _atom_site_label
 _atom_site_symmetry_multiplicity
 _atom_site_fract_x
 _atom_site_fract_y
 _atom_site_fract_z
 _atom_site_occupancy
  Pr  Pr0  1  0.889491  0.389491  0.500000  1
  Pr  Pr1  1  0.110509  0.610509  0.500000  1
  Pr  Pr2  1  0.387672  0.112328  0.500000  1
  Pr  Pr3  1  0.612328  0.887672  0.500000  1
  Nd  Nd4  1  0.500000  0.500000  0.000000  1
  Nd  Nd5  1  0.000000  0.000000  0.000000  1
  Nd  Nd6  1  0.679046  0.179046  0.500000  1
  Nd  Nd7  1  0.320954  0.820954  0.500000  1
  Y  Y8  1  0.176786  0.323214  0.500000  1
  Y  Y9  1  0.823214  0.676786  0.500000  1
  Sn  Sn10  1  0.569836  0.069836  0.000000  1
  Sn  Sn11  1  0.430164  0.930164  0.000000  1
  Sn  Sn12  1  0.070147  0.429853  0.000000  1
  Sn  Sn13  1  0.929853  0.570147  0.000000  1
  Sn  Sn14  1  0.654275  0.698455  0.000000  1
  Sn  Sn15  1  0.345725  0.301545  0.000000  1
  Sn  Sn16  1  0.152118  0.800994  0.000000  1
  Sn  Sn17  1  0.847882  0.199006  0.000000  1
  Sn  Sn18  1  0.300994  0.652118  0.000000  1
  Sn  Sn19  1  0.699006  0.347882  0.000000  1
  Sn  Sn20  1  0.198455  0.154275  0.000000  1
  Sn  Sn21  1  0.801545  0.845725  0.000000  1
  Sn  Sn22  1  0.663980  0.506085  0.500000  1
  Sn  Sn23  1  0.336020  0.493915  0.500000  1
  Sn  Sn24  1  0.162761  0.994833  0.500000  1
  Sn  Sn25  1  0.837239  0.005167  0.500000  1
  Sn  Sn26  1  0.494833  0.662761  0.500000  1
  Sn  Sn27  1  0.505167  0.337239  0.500000  1
  Sn  Sn28  1  0.006085  0.163980  0.500000  1
  Sn  Sn29  1  0.993915  0.836020  0.500000  1
  Rh  Rh30  1  0.746543  0.531090  0.000000  1
  Rh  Rh31  1  0.253457  0.468910  0.000000  1
  Rh  Rh32  1  0.245727  0.971198  0.000000  1
  Rh  Rh33  1  0.754273  0.028802  0.000000  1
  Rh  Rh34  1  0.471198  0.745727  0.000000  1
  Rh  Rh35  1  0.528802  0.254273  0.000000  1
  Rh  Rh36  1  0.031090  0.246543  0.000000  1
  Rh  Rh37  1  0.968910  0.753457  0.000000  1
