# generated using pymatgen
data_LaPrNd2(Sn2Rh)4
_symmetry_space_group_name_H-M   'P 1'
_cell_length_a   8.84817691
_cell_length_b   8.84817752
_cell_length_c   9.72286305
_cell_angle_alpha   89.92351674
_cell_angle_beta   90.07648466
_cell_angle_gamma   149.31675458
_symmetry_Int_Tables_number   1
_chemical_formula_structural   LaPrNd2(Sn2Rh)4
_chemical_formula_sum   'La1 Pr1 Nd2 Sn8 Rh4'
_cell_volume   388.43617943
_cell_formula_units_Z   1
loop_
 _symmetry_equiv_pos_site_id
 _symmetry_equiv_pos_as_xyz
  1  'x, y, z'
loop_
 _atom_site_type_symbol
 _atom_site_label
 _atom_site_symmetry_multiplicity
 _atom_site_fract_x
 _atom_site_fract_y
 _atom_site_fract_z
 _atom_site_occupancy
  La  La0  1  0.500000  0.500000  0.000000  1
  Pr  Pr1  1  0.500000  0.500000  0.500000  1
  Nd  Nd2  1  0.296533  0.703467  0.250321  1
  Nd  Nd3  1  0.703467  0.296533  0.749679  1
  Sn  Sn4  1  0.908098  0.091902  0.749565  1
  Sn  Sn5  1  0.924820  0.075180  0.251018  1
  Sn  Sn6  1  0.091902  0.908098  0.250435  1
  Sn  Sn7  1  0.075180  0.924820  0.748982  1
  Sn  Sn8  1  0.697205  0.302795  0.410099  1
  Sn  Sn9  1  0.302795  0.697205  0.589901  1
  Sn  Sn10  1  0.302170  0.697830  0.910195  1
  Sn  Sn11  1  0.697830  0.302170  0.089805  1
  Rh  Rh12  1  0.147457  0.852543  0.504780  1
  Rh  Rh13  1  0.852873  0.147127  0.004909  1
  Rh  Rh14  1  0.147127  0.852873  0.995091  1
  Rh  Rh15  1  0.852543  0.147457  0.495220  1
