# generated using pymatgen
data_Er5(Co2Sn5)2
_symmetry_space_group_name_H-M   'P 1'
_cell_length_a   13.79387300
_cell_length_b   13.79387300
_cell_length_c   4.42355400
_cell_angle_alpha   90.00000000
_cell_angle_beta   90.00000000
_cell_angle_gamma   90.00000000
_symmetry_Int_Tables_number   1
_chemical_formula_structural   Er5(Co2Sn5)2
_chemical_formula_sum   'Er10 Co8 Sn20'
_cell_volume   841.67374384
_cell_formula_units_Z   2
loop_
 _symmetry_equiv_pos_site_id
 _symmetry_equiv_pos_as_xyz
  1  'x, y, z'
loop_
 _atom_site_type_symbol
 _atom_site_label
 _atom_site_symmetry_multiplicity
 _atom_site_fract_x
 _atom_site_fract_y
 _atom_site_fract_z
 _atom_site_occupancy
  Er  Er0  1  0.000000  0.000000  0.000000  1
  Er  Er1  1  0.500000  0.500000  0.000000  1
  Er  Er2  1  0.179267  0.679267  0.500000  1
  Er  Er3  1  0.820733  0.320733  0.500000  1
  Er  Er4  1  0.679267  0.820733  0.500000  1
  Er  Er5  1  0.320733  0.179267  0.500000  1
  Er  Er6  1  0.891646  0.608354  0.500000  1
  Er  Er7  1  0.108354  0.391646  0.500000  1
  Er  Er8  1  0.391646  0.891646  0.500000  1
  Er  Er9  1  0.608354  0.108354  0.500000  1
  Co  Co10  1  0.254070  0.532966  0.000000  1
  Co  Co11  1  0.745930  0.467034  0.000000  1
  Co  Co12  1  0.754070  0.967034  0.000000  1
  Co  Co13  1  0.245930  0.032966  0.000000  1
  Co  Co14  1  0.467034  0.254070  0.000000  1
  Co  Co15  1  0.532966  0.745930  0.000000  1
  Co  Co16  1  0.032966  0.754070  0.000000  1
  Co  Co17  1  0.967034  0.245930  0.000000  1
  Sn  Sn18  1  0.350612  0.699789  0.000000  1
  Sn  Sn19  1  0.649388  0.300211  0.000000  1
  Sn  Sn20  1  0.850612  0.800211  0.000000  1
  Sn  Sn21  1  0.149388  0.199789  0.000000  1
  Sn  Sn22  1  0.300211  0.350612  0.000000  1
  Sn  Sn23  1  0.699789  0.649388  0.000000  1
  Sn  Sn24  1  0.199789  0.850612  0.000000  1
  Sn  Sn25  1  0.800211  0.149388  0.000000  1
  Sn  Sn26  1  0.334658  0.510840  0.500000  1
  Sn  Sn27  1  0.665342  0.489160  0.500000  1
  Sn  Sn28  1  0.834658  0.989160  0.500000  1
  Sn  Sn29  1  0.165342  0.010840  0.500000  1
  Sn  Sn30  1  0.489160  0.334658  0.500000  1
  Sn  Sn31  1  0.510840  0.665342  0.500000  1
  Sn  Sn32  1  0.010840  0.834658  0.500000  1
  Sn  Sn33  1  0.989160  0.165342  0.500000  1
  Sn  Sn34  1  0.072171  0.572171  0.000000  1
  Sn  Sn35  1  0.927829  0.427829  0.000000  1
  Sn  Sn36  1  0.572171  0.927829  0.000000  1
  Sn  Sn37  1  0.427829  0.072171  0.000000  1
