# generated using pymatgen
data_Ba4TbAuO8
_symmetry_space_group_name_H-M   'P 1'
_cell_length_a   7.48546162
_cell_length_b   7.48546016
_cell_length_c   6.00457700
_cell_angle_alpha   90.00000000
_cell_angle_beta   90.00000000
_cell_angle_gamma   132.77557473
_symmetry_Int_Tables_number   1
_chemical_formula_structural   Ba4TbAuO8
_chemical_formula_sum   'Ba4 Tb1 Au1 O8'
_cell_volume   246.96026022
_cell_formula_units_Z   1
loop_
 _symmetry_equiv_pos_site_id
 _symmetry_equiv_pos_as_xyz
  1  'x, y, z'
loop_
 _atom_site_type_symbol
 _atom_site_label
 _atom_site_symmetry_multiplicity
 _atom_site_fract_x
 _atom_site_fract_y
 _atom_site_fract_z
 _atom_site_occupancy
  Ba  Ba0  1  0.353598  0.646402  0.000000  1
  Ba  Ba1  1  0.853370  0.146630  0.500000  1
  Ba  Ba2  1  0.146630  0.853370  0.500000  1
  Ba  Ba3  1  0.646402  0.353598  0.000000  1
  Tb  Tb4  1  0.000000  0.000000  0.000000  1
  Au  Au5  1  0.500000  0.500000  0.500000  1
  O  O6  1  0.258380  0.258380  0.734681  1
  O  O7  1  0.741620  0.741620  0.265319  1
  O  O8  1  0.741620  0.741620  0.734681  1
  O  O9  1  0.258380  0.258380  0.265319  1
  O  O10  1  0.166201  0.833799  0.000000  1
  O  O11  1  0.653513  0.346487  0.500000  1
  O  O12  1  0.346487  0.653513  0.500000  1
  O  O13  1  0.833799  0.166201  0.000000  1
