# generated using pymatgen
data_Na4Al11InSe20
_symmetry_space_group_name_H-M   'P 1'
_cell_length_a   9.79758909
_cell_length_b   9.79636452
_cell_length_c   9.87159413
_cell_angle_alpha   91.07653512
_cell_angle_beta   90.94259535
_cell_angle_gamma   90.58011672
_symmetry_Int_Tables_number   1
_chemical_formula_structural   Na4Al11InSe20
_chemical_formula_sum   'Na4 Al11 In1 Se20'
_cell_volume   947.13602597
_cell_formula_units_Z   1
loop_
 _symmetry_equiv_pos_site_id
 _symmetry_equiv_pos_as_xyz
  1  'x, y, z'
loop_
 _atom_site_type_symbol
 _atom_site_label
 _atom_site_symmetry_multiplicity
 _atom_site_fract_x
 _atom_site_fract_y
 _atom_site_fract_z
 _atom_site_occupancy
  Na  Na0  1  0.258429  0.001478  0.743168  1
  Na  Na1  1  0.743288  0.256383  0.999618  1
  Na  Na2  1  0.999932  0.742305  0.253834  1
  Na  Na3  1  0.498551  0.499446  0.499550  1
  Al  Al4  1  0.568888  0.836830  0.883361  1
  Al  Al5  1  0.879943  0.571163  0.844126  1
  Al  Al6  1  0.162978  0.428766  0.119580  1
  Al  Al7  1  0.124918  0.163720  0.426463  1
  Al  Al8  1  0.429007  0.120600  0.160715  1
  Al  Al9  1  0.741610  0.163844  0.348137  1
  Al  Al10  1  0.345015  0.745073  0.162047  1
  Al  Al11  1  0.160663  0.347691  0.744378  1
  Al  Al12  1  0.255929  0.653266  0.839105  1
  Al  Al13  1  0.836176  0.258672  0.651746  1
  Al  Al14  1  0.651302  0.834769  0.252466  1
  In  In15  1  0.843131  0.875925  0.573652  1
  Se  Se16  1  0.180800  0.819049  0.999874  1
  Se  Se17  1  0.817746  0.998502  0.186926  1
  Se  Se18  1  0.182955  0.183320  0.181125  1
  Se  Se19  1  0.817649  0.817221  0.837436  1
  Se  Se20  1  0.999092  0.180733  0.814049  1
  Se  Se21  1  0.929661  0.496663  0.072438  1
  Se  Se22  1  0.091682  0.928501  0.490532  1
  Se  Se23  1  0.499841  0.070497  0.930195  1
  Se  Se24  1  0.742517  0.682879  0.414343  1
  Se  Se25  1  0.428890  0.745919  0.699570  1
  Se  Se26  1  0.698155  0.432351  0.747790  1
  Se  Se27  1  0.253550  0.572016  0.301117  1
  Se  Se28  1  0.303333  0.258538  0.572085  1
  Se  Se29  1  0.570807  0.304170  0.250511  1
  Se  Se30  1  0.670671  0.084440  0.571466  1
  Se  Se31  1  0.567495  0.678148  0.071190  1
  Se  Se32  1  0.070141  0.573483  0.684674  1
  Se  Se33  1  0.318302  0.427612  0.926943  1
  Se  Se34  1  0.928431  0.317420  0.428590  1
  Se  Se35  1  0.428521  0.928607  0.317198  1
