# generated using pymatgen
data_Ta2Fe2SiP
_symmetry_space_group_name_H-M   'P 1'
_cell_length_a   3.66266400
_cell_length_b   6.16285300
_cell_length_c   6.96831300
_cell_angle_alpha   90.00000000
_cell_angle_beta   90.00000000
_cell_angle_gamma   90.00000000
_symmetry_Int_Tables_number   1
_chemical_formula_structural   Ta2Fe2SiP
_chemical_formula_sum   'Ta4 Fe4 Si2 P2'
_cell_volume   157.29196521
_cell_formula_units_Z   2
loop_
 _symmetry_equiv_pos_site_id
 _symmetry_equiv_pos_as_xyz
  1  'x, y, z'
loop_
 _atom_site_type_symbol
 _atom_site_label
 _atom_site_symmetry_multiplicity
 _atom_site_fract_x
 _atom_site_fract_y
 _atom_site_fract_z
 _atom_site_occupancy
  Ta  Ta0  1  0.250000  0.515671  0.681887  1
  Ta  Ta1  1  0.250000  0.015671  0.818113  1
  Ta  Ta2  1  0.750000  0.979399  0.178305  1
  Ta  Ta3  1  0.750000  0.479399  0.321695  1
  Fe  Fe4  1  0.750000  0.356690  0.930146  1
  Fe  Fe5  1  0.250000  0.149219  0.443116  1
  Fe  Fe6  1  0.750000  0.856690  0.569854  1
  Fe  Fe7  1  0.250000  0.649219  0.056884  1
  Si  Si8  1  0.250000  0.778670  0.383010  1
  Si  Si9  1  0.250000  0.278670  0.116990  1
  P  P10  1  0.750000  0.220350  0.617275  1
  P  P11  1  0.750000  0.720350  0.882725  1
