# generated using pymatgen
data_Ta8Nb5Co8Mo3N4
_symmetry_space_group_name_H-M   'P 1'
_cell_length_a   8.15007504
_cell_length_b   8.15222260
_cell_length_c   8.15045644
_cell_angle_alpha   60.28486638
_cell_angle_beta   60.28742981
_cell_angle_gamma   60.29555269
_symmetry_Int_Tables_number   1
_chemical_formula_structural   Ta8Nb5Co8Mo3N4
_chemical_formula_sum   'Ta8 Nb5 Co8 Mo3 N4'
_cell_volume   385.42376593
_cell_formula_units_Z   1
loop_
 _symmetry_equiv_pos_site_id
 _symmetry_equiv_pos_as_xyz
  1  'x, y, z'
loop_
 _atom_site_type_symbol
 _atom_site_label
 _atom_site_symmetry_multiplicity
 _atom_site_fract_x
 _atom_site_fract_y
 _atom_site_fract_z
 _atom_site_occupancy
  Ta  Ta0  1  0.691343  0.308331  0.691531  1
  Ta  Ta1  1  0.557580  0.558152  0.941999  1
  Ta  Ta2  1  0.558933  0.940185  0.559244  1
  Ta  Ta3  1  0.940156  0.938678  0.562098  1
  Ta  Ta4  1  0.941280  0.558971  0.558890  1
  Ta  Ta5  1  0.938778  0.563064  0.938364  1
  Ta  Ta6  1  0.688188  0.310389  0.310225  1
  Ta  Ta7  1  0.126591  0.124631  0.123763  1
  Nb  Nb8  1  0.312523  0.686720  0.311981  1
  Nb  Nb9  1  0.312773  0.312347  0.686183  1
  Nb  Nb10  1  0.308478  0.691680  0.691379  1
  Nb  Nb11  1  0.690459  0.691079  0.308839  1
  Nb  Nb12  1  0.564109  0.936631  0.937672  1
  Co  Co13  1  0.234308  0.919557  0.919338  1
  Co  Co14  1  0.918059  0.236130  0.921155  1
  Co  Co15  1  0.923172  0.924259  0.922283  1
  Co  Co16  1  0.918597  0.921978  0.235955  1
  Co  Co17  1  0.014355  0.328792  0.330085  1
  Co  Co18  1  0.329370  0.331069  0.016209  1
  Co  Co19  1  0.327721  0.017716  0.331089  1
  Co  Co20  1  0.327373  0.327101  0.326372  1
  Mo  Mo21  1  0.623784  0.125090  0.125402  1
  Mo  Mo22  1  0.124378  0.126699  0.625099  1
  Mo  Mo23  1  0.123654  0.625690  0.126243  1
  N  N24  1  0.627261  0.623338  0.626760  1
  N  N25  1  0.120645  0.626224  0.626397  1
  N  N26  1  0.628346  0.124480  0.622046  1
  N  N27  1  0.627787  0.621020  0.123397  1
