# generated using pymatgen
data_Lu5Zr3(P3Ir4)4
_symmetry_space_group_name_H-M   'P 1'
_cell_length_a   12.87850000
_cell_length_b   12.87849986
_cell_length_c   3.95315100
_cell_angle_alpha   90.00000000
_cell_angle_beta   90.00000000
_cell_angle_gamma   120.00000036
_symmetry_Int_Tables_number   1
_chemical_formula_structural   Lu5Zr3(P3Ir4)4
_chemical_formula_sum   'Lu5 Zr3 P12 Ir16'
_cell_volume   567.81203528
_cell_formula_units_Z   1
loop_
 _symmetry_equiv_pos_site_id
 _symmetry_equiv_pos_as_xyz
  1  'x, y, z'
loop_
 _atom_site_type_symbol
 _atom_site_label
 _atom_site_symmetry_multiplicity
 _atom_site_fract_x
 _atom_site_fract_y
 _atom_site_fract_z
 _atom_site_occupancy
  Lu  Lu0  1  0.333333  0.666667  0.000000  1
  Lu  Lu1  1  0.666667  0.333333  0.000000  1
  Lu  Lu2  1  0.815461  0.000000  0.500000  1
  Lu  Lu3  1  0.000000  0.815461  0.500000  1
  Lu  Lu4  1  0.184539  0.184539  0.500000  1
  Zr  Zr5  1  0.449268  0.000000  0.000000  1
  Zr  Zr6  1  0.000000  0.449268  0.000000  1
  Zr  Zr7  1  0.550732  0.550732  0.000000  1
  P  P8  1  0.175061  0.000000  0.000000  1
  P  P9  1  0.000000  0.175061  0.000000  1
  P  P10  1  0.824939  0.824939  0.000000  1
  P  P11  1  0.169796  0.483187  0.500000  1
  P  P12  1  0.516813  0.686607  0.500000  1
  P  P13  1  0.313393  0.830204  0.500000  1
  P  P14  1  0.686607  0.516813  0.500000  1
  P  P15  1  0.830204  0.313393  0.500000  1
  P  P16  1  0.483187  0.169796  0.500000  1
  P  P17  1  0.650229  0.000000  0.000000  1
  P  P18  1  0.000000  0.650229  0.000000  1
  P  P19  1  0.349771  0.349771  0.000000  1
  Ir  Ir20  1  0.355964  0.494624  0.500000  1
  Ir  Ir21  1  0.505376  0.861340  0.500000  1
  Ir  Ir22  1  0.138660  0.644036  0.500000  1
  Ir  Ir23  1  0.861340  0.505376  0.500000  1
  Ir  Ir24  1  0.644036  0.138660  0.500000  1
  Ir  Ir25  1  0.494624  0.355964  0.500000  1
  Ir  Ir26  1  0.178389  0.369284  0.000000  1
  Ir  Ir27  1  0.630716  0.809106  0.000000  1
  Ir  Ir28  1  0.190894  0.821611  0.000000  1
  Ir  Ir29  1  0.809106  0.630716  0.000000  1
  Ir  Ir30  1  0.821611  0.190894  0.000000  1
  Ir  Ir31  1  0.369284  0.178389  0.000000  1
  Ir  Ir32  1  0.275794  0.000000  0.500000  1
  Ir  Ir33  1  0.000000  0.275794  0.500000  1
  Ir  Ir34  1  0.724206  0.724206  0.500000  1
  Ir  Ir35  1  0.000000  0.000000  0.000000  1
