# generated using pymatgen
data_La4Mn(Sb4Pd)2
_symmetry_space_group_name_H-M   'P 1'
_cell_length_a   11.18328706
_cell_length_b   11.18328736
_cell_length_c   11.18328693
_cell_angle_alpha   147.06431672
_cell_angle_beta   147.06431780
_cell_angle_gamma   47.26855808
_symmetry_Int_Tables_number   1
_chemical_formula_structural   La4Mn(Sb4Pd)2
_chemical_formula_sum   'La4 Mn1 Sb8 Pd2'
_cell_volume   411.86824242
_cell_formula_units_Z   1
loop_
 _symmetry_equiv_pos_site_id
 _symmetry_equiv_pos_as_xyz
  1  'x, y, z'
loop_
 _atom_site_type_symbol
 _atom_site_label
 _atom_site_symmetry_multiplicity
 _atom_site_fract_x
 _atom_site_fract_y
 _atom_site_fract_z
 _atom_site_occupancy
  La  La0  1  0.628076  0.130008  0.000000  1
  La  La1  1  0.130008  0.628076  0.000000  1
  La  La2  1  0.869992  0.869992  0.498068  1
  La  La3  1  0.371924  0.371924  0.501932  1
  Mn  Mn4  1  0.000000  0.000000  0.000000  1
  Sb  Sb5  1  0.249874  0.249874  0.000000  1
  Sb  Sb6  1  0.750126  0.750126  0.000000  1
  Sb  Sb7  1  0.250000  0.750000  0.500000  1
  Sb  Sb8  1  0.750000  0.250000  0.500000  1
  Sb  Sb9  1  0.326611  0.818097  0.000000  1
  Sb  Sb10  1  0.818097  0.326611  0.000000  1
  Sb  Sb11  1  0.181903  0.181903  0.508513  1
  Sb  Sb12  1  0.673389  0.673389  0.491487  1
  Pd  Pd13  1  0.500000  0.000000  0.500000  1
  Pd  Pd14  1  0.000000  0.500000  0.500000  1
