# generated using pymatgen
data_Mn2Co2Tc3P4W
_symmetry_space_group_name_H-M   'P 1'
_cell_length_a   3.76420100
_cell_length_b   5.77924253
_cell_length_c   6.64523407
_cell_angle_alpha   89.89921687
_cell_angle_beta   90.00000000
_cell_angle_gamma   90.00000000
_symmetry_Int_Tables_number   1
_chemical_formula_structural   Mn2Co2Tc3P4W
_chemical_formula_sum   'Mn2 Co2 Tc3 P4 W1'
_cell_volume   144.56173015
_cell_formula_units_Z   1
loop_
 _symmetry_equiv_pos_site_id
 _symmetry_equiv_pos_as_xyz
  1  'x, y, z'
loop_
 _atom_site_type_symbol
 _atom_site_label
 _atom_site_symmetry_multiplicity
 _atom_site_fract_x
 _atom_site_fract_y
 _atom_site_fract_z
 _atom_site_occupancy
  Mn  Mn0  1  0.750000  0.137338  0.060690  1
  Mn  Mn1  1  0.750000  0.637150  0.440050  1
  Co  Co2  1  0.250000  0.859004  0.926736  1
  Co  Co3  1  0.250000  0.358004  0.573185  1
  Tc  Tc4  1  0.250000  0.972523  0.329446  1
  Tc  Tc5  1  0.250000  0.472648  0.172852  1
  Tc  Tc6  1  0.750000  0.034032  0.665229  1
  P  P7  1  0.250000  0.234455  0.885758  1
  P  P8  1  0.250000  0.738397  0.614948  1
  P  P9  1  0.750000  0.763179  0.124688  1
  P  P10  1  0.750000  0.263936  0.375427  1
  W  W11  1  0.750000  0.529337  0.830992  1
