# generated using pymatgen
data_Tb9Pr8Er3Pb16
_symmetry_space_group_name_H-M   'P 1'
_cell_length_a   8.32839528
_cell_length_b   8.41430655
_cell_length_c   15.91492800
_cell_angle_alpha   90.00000000
_cell_angle_beta   90.00000000
_cell_angle_gamma   90.03551945
_symmetry_Int_Tables_number   1
_chemical_formula_structural   Tb9Pr8Er3Pb16
_chemical_formula_sum   'Tb9 Pr8 Er3 Pb16'
_cell_volume   1115.28087296
_cell_formula_units_Z   1
loop_
 _symmetry_equiv_pos_site_id
 _symmetry_equiv_pos_as_xyz
  1  'x, y, z'
loop_
 _atom_site_type_symbol
 _atom_site_label
 _atom_site_symmetry_multiplicity
 _atom_site_fract_x
 _atom_site_fract_y
 _atom_site_fract_z
 _atom_site_occupancy
  Tb  Tb0  1  0.372337  0.841355  0.878845  1
  Tb  Tb1  1  0.871370  0.659064  0.621181  1
  Tb  Tb2  1  0.628191  0.158579  0.378521  1
  Tb  Tb3  1  0.128157  0.341434  0.121696  1
  Tb  Tb4  1  0.628191  0.158579  0.121479  1
  Tb  Tb5  1  0.128157  0.341434  0.378304  1
  Tb  Tb6  1  0.372337  0.841355  0.621155  1
  Tb  Tb7  1  0.871370  0.659064  0.878819  1
  Tb  Tb8  1  0.204762  0.504490  0.750000  1
  Pr  Pr9  1  0.528504  0.322947  0.901332  1
  Pr  Pr10  1  0.028116  0.176563  0.598661  1
  Pr  Pr11  1  0.471527  0.676678  0.401020  1
  Pr  Pr12  1  0.971656  0.823315  0.098718  1
  Pr  Pr13  1  0.471527  0.676678  0.098980  1
  Pr  Pr14  1  0.971656  0.823315  0.401282  1
  Pr  Pr15  1  0.528504  0.322947  0.598668  1
  Pr  Pr16  1  0.028116  0.176563  0.901339  1
  Er  Er17  1  0.705060  0.994998  0.750000  1
  Er  Er18  1  0.795230  0.494970  0.250000  1
  Er  Er19  1  0.295275  0.004758  0.250000  1
  Pb  Pb20  1  0.289782  0.037773  0.044300  1
  Pb  Pb21  1  0.789703  0.462479  0.455705  1
  Pb  Pb22  1  0.710378  0.962686  0.543878  1
  Pb  Pb23  1  0.210121  0.537839  0.956613  1
  Pb  Pb24  1  0.710378  0.962686  0.956122  1
  Pb  Pb25  1  0.210121  0.537839  0.543387  1
  Pb  Pb26  1  0.289782  0.037773  0.455700  1
  Pb  Pb27  1  0.789703  0.462479  0.044295  1
  Pb  Pb28  1  0.567981  0.629895  0.750000  1
  Pb  Pb29  1  0.066787  0.871094  0.750000  1
  Pb  Pb30  1  0.433288  0.370131  0.250000  1
  Pb  Pb31  1  0.933282  0.129480  0.250000  1
  Pb  Pb32  1  0.339778  0.147750  0.750000  1
  Pb  Pb33  1  0.839545  0.350710  0.750000  1
  Pb  Pb34  1  0.659710  0.850609  0.250000  1
  Pb  Pb35  1  0.159622  0.649692  0.250000  1
