# generated using pymatgen
data_Dy3YIn4
_symmetry_space_group_name_H-M   'P 1'
_cell_length_a   6.49153700
_cell_length_b   6.49153782
_cell_length_c   10.77316100
_cell_angle_alpha   90.00000000
_cell_angle_beta   90.00000000
_cell_angle_gamma   110.78669814
_symmetry_Int_Tables_number   1
_chemical_formula_structural   Dy3YIn4
_chemical_formula_sum   'Dy6 Y2 In8'
_cell_volume   424.43109888
_cell_formula_units_Z   2
loop_
 _symmetry_equiv_pos_site_id
 _symmetry_equiv_pos_as_xyz
  1  'x, y, z'
loop_
 _atom_site_type_symbol
 _atom_site_label
 _atom_site_symmetry_multiplicity
 _atom_site_fract_x
 _atom_site_fract_y
 _atom_site_fract_z
 _atom_site_occupancy
  Dy  Dy0  1  0.501513  0.501513  0.250000  1
  Dy  Dy1  1  0.498487  0.498487  0.750000  1
  Dy  Dy2  1  0.251199  0.748801  0.500000  1
  Dy  Dy3  1  0.251199  0.748801  0.000000  1
  Dy  Dy4  1  0.748801  0.251199  0.500000  1
  Dy  Dy5  1  0.748801  0.251199  0.000000  1
  Y  Y6  1  0.996621  0.996621  0.250000  1
  Y  Y7  1  0.003379  0.003379  0.750000  1
  In  In8  1  0.247864  0.247864  0.001088  1
  In  In9  1  0.752136  0.752136  0.998912  1
  In  In10  1  0.247864  0.247864  0.498912  1
  In  In11  1  0.752136  0.752136  0.501088  1
  In  In12  1  0.497510  0.000920  0.250000  1
  In  In13  1  0.999080  0.502490  0.750000  1
  In  In14  1  0.502490  0.999080  0.750000  1
  In  In15  1  0.000920  0.497510  0.250000  1
