# generated using pymatgen
data_Nd4TcMoO12
_symmetry_space_group_name_H-M   'P 1'
_cell_length_a   10.20794055
_cell_length_b   10.20793971
_cell_length_c   5.59993590
_cell_angle_alpha   75.15046095
_cell_angle_beta   75.15046286
_cell_angle_gamma   68.93340871
_symmetry_Int_Tables_number   1
_chemical_formula_structural   Nd4TcMoO12
_chemical_formula_sum   'Nd8 Tc2 Mo2 O24'
_cell_volume   517.54767911
_cell_formula_units_Z   2
loop_
 _symmetry_equiv_pos_site_id
 _symmetry_equiv_pos_as_xyz
  1  'x, y, z'
loop_
 _atom_site_type_symbol
 _atom_site_label
 _atom_site_symmetry_multiplicity
 _atom_site_fract_x
 _atom_site_fract_y
 _atom_site_fract_z
 _atom_site_occupancy
  Nd  Nd0  1  0.109427  0.890573  0.750000  1
  Nd  Nd1  1  0.889847  0.110153  0.250000  1
  Nd  Nd2  1  0.060300  0.286488  0.623527  1
  Nd  Nd3  1  0.713512  0.939700  0.876473  1
  Nd  Nd4  1  0.941485  0.712904  0.375091  1
  Nd  Nd5  1  0.287096  0.058515  0.124909  1
  Nd  Nd6  1  0.631765  0.368235  0.750000  1
  Nd  Nd7  1  0.369562  0.630438  0.250000  1
  Tc  Tc8  1  0.493955  0.199806  0.444824  1
  Tc  Tc9  1  0.800194  0.506045  0.055176  1
  Mo  Mo10  1  0.506859  0.797751  0.555175  1
  Mo  Mo11  1  0.202249  0.493141  0.944825  1
  O  O12  1  0.613312  0.179000  0.145699  1
  O  O13  1  0.821000  0.386688  0.354301  1
  O  O14  1  0.386772  0.826118  0.858448  1
  O  O15  1  0.173882  0.613228  0.641552  1
  O  O16  1  0.472013  0.072390  0.734235  1
  O  O17  1  0.927610  0.527987  0.765765  1
  O  O18  1  0.525347  0.932322  0.262347  1
  O  O19  1  0.067678  0.474653  0.237653  1
  O  O20  1  0.322337  0.214856  0.369877  1
  O  O21  1  0.785144  0.677663  0.130123  1
  O  O22  1  0.676035  0.787543  0.628319  1
  O  O23  1  0.212457  0.323965  0.871681  1
  O  O24  1  0.889935  0.924428  0.075185  1
  O  O25  1  0.075572  0.110065  0.424815  1
  O  O26  1  0.110579  0.074823  0.924797  1
  O  O27  1  0.925177  0.889421  0.575203  1
  O  O28  1  0.163049  0.686735  0.084866  1
  O  O29  1  0.313265  0.836951  0.415134  1
  O  O30  1  0.839052  0.310636  0.909631  1
  O  O31  1  0.689364  0.160948  0.590369  1
  O  O32  1  0.384497  0.456610  0.982507  1
  O  O33  1  0.543390  0.615503  0.517493  1
  O  O34  1  0.617337  0.541053  0.019079  1
  O  O35  1  0.458947  0.382663  0.480921  1
