# generated using pymatgen
data_Pr4Er4Re3B24Os
_symmetry_space_group_name_H-M   'P 1'
_cell_length_a   3.72298100
_cell_length_b   9.24304667
_cell_length_c   11.71536012
_cell_angle_alpha   90.06069735
_cell_angle_beta   90.00000000
_cell_angle_gamma   90.00000000
_symmetry_Int_Tables_number   1
_chemical_formula_structural   Pr4Er4Re3B24Os
_chemical_formula_sum   'Pr4 Er4 Re3 B24 Os1'
_cell_volume   403.14508100
_cell_formula_units_Z   1
loop_
 _symmetry_equiv_pos_site_id
 _symmetry_equiv_pos_as_xyz
  1  'x, y, z'
loop_
 _atom_site_type_symbol
 _atom_site_label
 _atom_site_symmetry_multiplicity
 _atom_site_fract_x
 _atom_site_fract_y
 _atom_site_fract_z
 _atom_site_occupancy
  Pr  Pr0  1  0.000000  0.321708  0.414758  1
  Pr  Pr1  1  0.000000  0.677604  0.587018  1
  Pr  Pr2  1  0.000000  0.823601  0.084580  1
  Pr  Pr3  1  0.000000  0.177573  0.913858  1
  Er  Er4  1  0.000000  0.942790  0.369115  1
  Er  Er5  1  0.000000  0.056549  0.630410  1
  Er  Er6  1  0.000000  0.442512  0.130653  1
  Er  Er7  1  0.000000  0.556974  0.869788  1
  Re  Re8  1  0.000000  0.361140  0.680136  1
  Re  Re9  1  0.000000  0.139520  0.181549  1
  Re  Re10  1  0.000000  0.860300  0.819034  1
  B  B11  1  0.500000  0.555963  0.429769  1
  B  B12  1  0.500000  0.444664  0.569968  1
  B  B13  1  0.500000  0.055395  0.069796  1
  B  B14  1  0.500000  0.944765  0.929915  1
  B  B15  1  0.500000  0.749811  0.415317  1
  B  B16  1  0.500000  0.249243  0.584230  1
  B  B17  1  0.500000  0.250594  0.084396  1
  B  B18  1  0.500000  0.749926  0.915762  1
  B  B19  1  0.500000  0.790443  0.266388  1
  B  B20  1  0.500000  0.208788  0.733369  1
  B  B21  1  0.500000  0.291128  0.233821  1
  B  B22  1  0.500000  0.708562  0.766673  1
  B  B23  1  0.500000  0.629615  0.186828  1
  B  B24  1  0.500000  0.370775  0.813228  1
  B  B25  1  0.500000  0.129510  0.314001  1
  B  B26  1  0.500000  0.870422  0.686428  1
  B  B27  1  0.500000  0.984481  0.213480  1
  B  B28  1  0.500000  0.015644  0.786059  1
  B  B29  1  0.500000  0.485295  0.286764  1
  B  B30  1  0.500000  0.516136  0.713648  1
  B  B31  1  0.500000  0.596212  0.027029  1
  B  B32  1  0.500000  0.403807  0.973837  1
  B  B33  1  0.500000  0.095691  0.473202  1
  B  B34  1  0.500000  0.903129  0.526375  1
  Os  Os35  1  0.000000  0.639732  0.318817  1
