# generated using pymatgen
data_Pr(TaBr3)6
_symmetry_space_group_name_H-M   'P 1'
_cell_length_a   10.81805080
_cell_length_b   10.81774655
_cell_length_c   10.81167600
_cell_angle_alpha   55.86343476
_cell_angle_beta   55.86693317
_cell_angle_gamma   55.82286051
_symmetry_Int_Tables_number   1
_chemical_formula_structural   Pr(TaBr3)6
_chemical_formula_sum   'Pr1 Ta6 Br18'
_cell_volume   808.61977616
_cell_formula_units_Z   1
loop_
 _symmetry_equiv_pos_site_id
 _symmetry_equiv_pos_as_xyz
  1  'x, y, z'
loop_
 _atom_site_type_symbol
 _atom_site_label
 _atom_site_symmetry_multiplicity
 _atom_site_fract_x
 _atom_site_fract_y
 _atom_site_fract_z
 _atom_site_occupancy
  Pr  Pr0  1  0.000792  0.999663  0.999742  1
  Ta  Ta1  1  0.415525  0.310877  0.640657  1
  Ta  Ta2  1  0.359324  0.584575  0.689140  1
  Ta  Ta3  1  0.689178  0.359256  0.584552  1
  Ta  Ta4  1  0.310894  0.640789  0.415378  1
  Ta  Ta5  1  0.640780  0.415447  0.310802  1
  Ta  Ta6  1  0.584570  0.689356  0.359158  1
  Br  Br7  1  0.569557  0.165595  0.440265  1
  Br  Br8  1  0.226758  0.370228  0.904286  1
  Br  Br9  1  0.904438  0.226390  0.370153  1
  Br  Br10  1  0.369909  0.904530  0.226666  1
  Br  Br11  1  0.773310  0.629939  0.095530  1
  Br  Br12  1  0.095504  0.773328  0.630008  1
  Br  Br13  1  0.693124  0.955141  0.166685  1
  Br  Br14  1  0.953371  0.166624  0.693959  1
  Br  Br15  1  0.167079  0.693044  0.953988  1
  Br  Br16  1  0.306163  0.047419  0.832346  1
  Br  Br17  1  0.046363  0.832078  0.306647  1
  Br  Br18  1  0.832727  0.305778  0.046929  1
  Br  Br19  1  0.559536  0.430395  0.834726  1
  Br  Br20  1  0.165596  0.440627  0.569289  1
  Br  Br21  1  0.440394  0.569329  0.165430  1
  Br  Br22  1  0.430531  0.834498  0.559708  1
  Br  Br23  1  0.834549  0.559435  0.430636  1
  Br  Br24  1  0.630030  0.095658  0.773321  1
