# generated using pymatgen
data_NaSrInF6
_symmetry_space_group_name_H-M   'P 1'
_cell_length_a   5.56266000
_cell_length_b   9.76090600
_cell_length_c   10.77085200
_cell_angle_alpha   90.00000000
_cell_angle_beta   90.00000000
_cell_angle_gamma   90.00000000
_symmetry_Int_Tables_number   1
_chemical_formula_structural   NaSrInF6
_chemical_formula_sum   'Na4 Sr4 In4 F24'
_cell_volume   584.82065746
_cell_formula_units_Z   4
loop_
 _symmetry_equiv_pos_site_id
 _symmetry_equiv_pos_as_xyz
  1  'x, y, z'
loop_
 _atom_site_type_symbol
 _atom_site_label
 _atom_site_symmetry_multiplicity
 _atom_site_fract_x
 _atom_site_fract_y
 _atom_site_fract_z
 _atom_site_occupancy
  Na  Na0  1  0.043060  0.648701  0.086365  1
  Na  Na1  1  0.456940  0.351299  0.586365  1
  Na  Na2  1  0.956940  0.148701  0.413635  1
  Na  Na3  1  0.543060  0.851299  0.913635  1
  Sr  Sr4  1  0.507129  0.315329  0.175440  1
  Sr  Sr5  1  0.992871  0.684671  0.675440  1
  Sr  Sr6  1  0.492871  0.815329  0.324560  1
  Sr  Sr7  1  0.007129  0.184671  0.824560  1
  In  In8  1  0.036882  0.000780  0.125473  1
  In  In9  1  0.463118  0.999220  0.625473  1
  In  In10  1  0.963118  0.500780  0.374527  1
  In  In11  1  0.536882  0.499220  0.874527  1
  F  F12  1  0.200508  0.151065  0.587747  1
  F  F13  1  0.299492  0.848935  0.087747  1
  F  F14  1  0.799492  0.651065  0.912253  1
  F  F15  1  0.700508  0.348935  0.412253  1
  F  F16  1  0.219769  0.628777  0.290911  1
  F  F17  1  0.280231  0.371223  0.790911  1
  F  F18  1  0.780231  0.128777  0.209089  1
  F  F19  1  0.719769  0.871223  0.709089  1
  F  F20  1  0.226007  0.167044  0.044571  1
  F  F21  1  0.273993  0.832956  0.544571  1
  F  F22  1  0.773993  0.667044  0.455429  1
  F  F23  1  0.726007  0.332956  0.955429  1
  F  F24  1  0.169571  0.330725  0.316772  1
  F  F25  1  0.330429  0.669275  0.816772  1
  F  F26  1  0.830429  0.830725  0.183228  1
  F  F27  1  0.669571  0.169275  0.683228  1
  F  F28  1  0.346048  0.499540  0.042103  1
  F  F29  1  0.153952  0.500460  0.542103  1
  F  F30  1  0.653952  0.999540  0.457897  1
  F  F31  1  0.846048  0.000460  0.957897  1
  F  F32  1  0.224723  0.016781  0.294685  1
  F  F33  1  0.275277  0.983219  0.794685  1
  F  F34  1  0.775277  0.516781  0.205315  1
  F  F35  1  0.724723  0.483219  0.705315  1
