# generated using pymatgen
data_Y3MgIr8
_symmetry_space_group_name_H-M   'P 1'
_cell_length_a   5.33450700
_cell_length_b   5.33450661
_cell_length_c   8.67314000
_cell_angle_alpha   90.00000000
_cell_angle_beta   90.00000000
_cell_angle_gamma   119.99998378
_symmetry_Int_Tables_number   1
_chemical_formula_structural   Y3MgIr8
_chemical_formula_sum   'Y3 Mg1 Ir8'
_cell_volume   213.74482400
_cell_formula_units_Z   1
loop_
 _symmetry_equiv_pos_site_id
 _symmetry_equiv_pos_as_xyz
  1  'x, y, z'
loop_
 _atom_site_type_symbol
 _atom_site_label
 _atom_site_symmetry_multiplicity
 _atom_site_fract_x
 _atom_site_fract_y
 _atom_site_fract_z
 _atom_site_occupancy
  Y  Y0  1  0.333333  0.666667  0.079150  1
  Y  Y1  1  0.666667  0.333333  0.558636  1
  Y  Y2  1  0.666667  0.333333  0.930075  1
  Mg  Mg3  1  0.333333  0.666667  0.439809  1
  Ir  Ir4  1  0.000000  0.000000  0.997293  1
  Ir  Ir5  1  0.000000  0.000000  0.497680  1
  Ir  Ir6  1  0.830544  0.661088  0.251100  1
  Ir  Ir7  1  0.170460  0.829540  0.748019  1
  Ir  Ir8  1  0.659081  0.829540  0.748019  1
  Ir  Ir9  1  0.338912  0.169456  0.251100  1
  Ir  Ir10  1  0.830544  0.169456  0.251100  1
  Ir  Ir11  1  0.170460  0.340919  0.748019  1
