# generated using pymatgen
data_NdY4Er(Al3Os)8
_symmetry_space_group_name_H-M   'P 1'
_cell_length_a   8.83467900
_cell_length_b   8.83804308
_cell_length_c   9.61787400
_cell_angle_alpha   90.00000000
_cell_angle_beta   90.00000000
_cell_angle_gamma   119.98740569
_symmetry_Int_Tables_number   1
_chemical_formula_structural   NdY4Er(Al3Os)8
_chemical_formula_sum   'Nd1 Y4 Er1 Al24 Os8'
_cell_volume   650.44668618
_cell_formula_units_Z   1
loop_
 _symmetry_equiv_pos_site_id
 _symmetry_equiv_pos_as_xyz
  1  'x, y, z'
loop_
 _atom_site_type_symbol
 _atom_site_label
 _atom_site_symmetry_multiplicity
 _atom_site_fract_x
 _atom_site_fract_y
 _atom_site_fract_z
 _atom_site_occupancy
  Nd  Nd0  1  0.191523  0.383046  0.250000  1
  Y  Y1  1  0.613368  0.807113  0.250000  1
  Y  Y2  1  0.385996  0.193189  0.750000  1
  Y  Y3  1  0.193746  0.807113  0.250000  1
  Y  Y4  1  0.807192  0.193189  0.750000  1
  Er  Er5  1  0.806572  0.613145  0.750000  1
  Al  Al6  1  0.333875  0.667750  0.014774  1
  Al  Al7  1  0.666602  0.333202  0.981952  1
  Al  Al8  1  0.666602  0.333202  0.518048  1
  Al  Al9  1  0.333875  0.667750  0.485226  1
  Al  Al10  1  0.163732  0.327466  0.577083  1
  Al  Al11  1  0.836485  0.672971  0.426553  1
  Al  Al12  1  0.673212  0.836267  0.574886  1
  Al  Al13  1  0.836485  0.672971  0.073447  1
  Al  Al14  1  0.328318  0.163345  0.426825  1
  Al  Al15  1  0.163732  0.327466  0.922917  1
  Al  Al16  1  0.163055  0.836267  0.574886  1
  Al  Al17  1  0.328318  0.163345  0.073175  1
  Al  Al18  1  0.835028  0.163345  0.426825  1
  Al  Al19  1  0.673212  0.836267  0.925114  1
  Al  Al20  1  0.835028  0.163345  0.073175  1
  Al  Al21  1  0.163055  0.836267  0.925114  1
  Al  Al22  1  0.561282  0.122566  0.250000  1
  Al  Al23  1  0.438952  0.877905  0.750000  1
  Al  Al24  1  0.875778  0.439411  0.250000  1
  Al  Al25  1  0.121673  0.561496  0.750000  1
  Al  Al26  1  0.563634  0.439411  0.250000  1
  Al  Al27  1  0.439822  0.561496  0.750000  1
  Al  Al28  1  0.998256  0.996513  0.250000  1
  Al  Al29  1  0.998963  0.997926  0.750000  1
  Os  Os30  1  0.500199  0.000397  0.999622  1
  Os  Os31  1  0.998956  0.500884  0.998509  1
  Os  Os32  1  0.500199  0.000397  0.500378  1
  Os  Os33  1  0.501927  0.500884  0.998509  1
  Os  Os34  1  0.998956  0.500884  0.501491  1
  Os  Os35  1  0.501927  0.500884  0.501491  1
  Os  Os36  1  0.000231  0.000463  0.999920  1
  Os  Os37  1  0.000231  0.000463  0.500080  1
