# generated using pymatgen
data_Fe2HgSb2(PO4)6
_symmetry_space_group_name_H-M   'P 1'
_cell_length_a   8.41724898
_cell_length_b   8.41724856
_cell_length_c   8.97284316
_cell_angle_alpha   117.97200928
_cell_angle_beta   62.02798919
_cell_angle_gamma   120.00000579
_symmetry_Int_Tables_number   1
_chemical_formula_structural   Fe2HgSb2(PO4)6
_chemical_formula_sum   'Fe2 Hg1 Sb2 P6 O24'
_cell_volume   462.81652464
_cell_formula_units_Z   1
loop_
 _symmetry_equiv_pos_site_id
 _symmetry_equiv_pos_as_xyz
  1  'x, y, z'
loop_
 _atom_site_type_symbol
 _atom_site_label
 _atom_site_symmetry_multiplicity
 _atom_site_fract_x
 _atom_site_fract_y
 _atom_site_fract_z
 _atom_site_occupancy
  Fe  Fe0  1  0.852328  0.147672  0.443015  1
  Fe  Fe1  1  0.147672  0.852328  0.556985  1
  Hg  Hg2  1  0.000000  0.000000  0.000000  1
  Sb  Sb3  1  0.648671  0.351328  0.053984  1
  Sb  Sb4  1  0.351328  0.648671  0.946016  1
  P  P5  1  0.247690  0.038009  0.248455  1
  P  P6  1  0.961991  0.458136  0.248455  1
  P  P7  1  0.541864  0.752309  0.248455  1
  P  P8  1  0.458136  0.247691  0.751544  1
  P  P9  1  0.038009  0.541864  0.751544  1
  P  P10  1  0.752309  0.961991  0.751544  1
  O  O11  1  0.157700  0.471981  0.091479  1
  O  O12  1  0.528019  0.777196  0.091479  1
  O  O13  1  0.222804  0.842300  0.091479  1
  O  O14  1  0.461467  0.181566  0.205120  1
  O  O15  1  0.818435  0.485021  0.205120  1
  O  O16  1  0.514980  0.538533  0.205120  1
  O  O17  1  0.109925  0.113517  0.256061  1
  O  O18  1  0.886484  0.252469  0.256061  1
  O  O19  1  0.747531  0.890075  0.256061  1
  O  O20  1  0.203901  0.009142  0.419613  1
  O  O21  1  0.990857  0.614371  0.419613  1
  O  O22  1  0.385628  0.796099  0.419613  1
  O  O23  1  0.614371  0.203901  0.580388  1
  O  O24  1  0.009142  0.385629  0.580388  1
  O  O25  1  0.796098  0.990857  0.580388  1
  O  O26  1  0.252468  0.109925  0.743939  1
  O  O27  1  0.113517  0.747532  0.743939  1
  O  O28  1  0.890075  0.886484  0.743939  1
  O  O29  1  0.485021  0.461468  0.794880  1
  O  O30  1  0.181567  0.514980  0.794880  1
  O  O31  1  0.538532  0.818434  0.794880  1
  O  O32  1  0.777196  0.157700  0.908522  1
  O  O33  1  0.471980  0.222804  0.908522  1
  O  O34  1  0.842300  0.528020  0.908522  1
