# generated using pymatgen
data_Hf6Ga6Pt5Rh
_symmetry_space_group_name_H-M   'P 1'
_cell_length_a   7.18135600
_cell_length_b   7.18135587
_cell_length_c   7.01781500
_cell_angle_alpha   90.00000000
_cell_angle_beta   90.00000000
_cell_angle_gamma   120.00000982
_symmetry_Int_Tables_number   1
_chemical_formula_structural   Hf6Ga6Pt5Rh
_chemical_formula_sum   'Hf6 Ga6 Pt5 Rh1'
_cell_volume   313.43349764
_cell_formula_units_Z   1
loop_
 _symmetry_equiv_pos_site_id
 _symmetry_equiv_pos_as_xyz
  1  'x, y, z'
loop_
 _atom_site_type_symbol
 _atom_site_label
 _atom_site_symmetry_multiplicity
 _atom_site_fract_x
 _atom_site_fract_y
 _atom_site_fract_z
 _atom_site_occupancy
  Hf  Hf0  1  0.406687  0.384054  0.250000  1
  Hf  Hf1  1  0.590204  0.976802  0.750000  1
  Hf  Hf2  1  0.386598  0.409796  0.750000  1
  Hf  Hf3  1  0.023198  0.613402  0.750000  1
  Hf  Hf4  1  0.977367  0.593313  0.250000  1
  Hf  Hf5  1  0.615946  0.022633  0.250000  1
  Ga  Ga6  1  0.266567  0.999888  0.002782  1
  Ga  Ga7  1  0.266567  0.999888  0.497218  1
  Ga  Ga8  1  0.000112  0.266679  0.497218  1
  Ga  Ga9  1  0.000112  0.266679  0.002782  1
  Ga  Ga10  1  0.733321  0.733433  0.002782  1
  Ga  Ga11  1  0.733321  0.733433  0.497218  1
  Pt  Pt12  1  0.666667  0.333333  0.532196  1
  Pt  Pt13  1  0.000000  0.000000  0.750000  1
  Pt  Pt14  1  0.666667  0.333333  0.967804  1
  Pt  Pt15  1  0.333333  0.666667  0.032252  1
  Pt  Pt16  1  0.333333  0.666667  0.467748  1
  Rh  Rh17  1  0.000000  0.000000  0.250000  1
