# generated using pymatgen
data_Zr10GaSn3GeBi3
_symmetry_space_group_name_H-M   'P 1'
_cell_length_a   8.80452300
_cell_length_b   8.80452224
_cell_length_c   5.93578700
_cell_angle_alpha   90.00000000
_cell_angle_beta   90.00000000
_cell_angle_gamma   119.99999909
_symmetry_Int_Tables_number   1
_chemical_formula_structural   Zr10GaSn3GeBi3
_chemical_formula_sum   'Zr10 Ga1 Sn3 Ge1 Bi3'
_cell_volume   398.49288467
_cell_formula_units_Z   1
loop_
 _symmetry_equiv_pos_site_id
 _symmetry_equiv_pos_as_xyz
  1  'x, y, z'
loop_
 _atom_site_type_symbol
 _atom_site_label
 _atom_site_symmetry_multiplicity
 _atom_site_fract_x
 _atom_site_fract_y
 _atom_site_fract_z
 _atom_site_occupancy
  Zr  Zr0  1  0.729862  0.000000  0.252620  1
  Zr  Zr1  1  0.000000  0.729862  0.252620  1
  Zr  Zr2  1  0.270138  0.270138  0.252620  1
  Zr  Zr3  1  0.257813  0.000000  0.747252  1
  Zr  Zr4  1  0.000000  0.257813  0.747252  1
  Zr  Zr5  1  0.742187  0.742187  0.747252  1
  Zr  Zr6  1  0.333333  0.666667  0.492846  1
  Zr  Zr7  1  0.666667  0.333333  0.492846  1
  Zr  Zr8  1  0.666667  0.333333  0.006584  1
  Zr  Zr9  1  0.333333  0.666667  0.006584  1
  Ga  Ga10  1  0.000000  0.000000  0.008564  1
  Sn  Sn11  1  0.385299  0.000000  0.248735  1
  Sn  Sn12  1  0.000000  0.385299  0.248735  1
  Sn  Sn13  1  0.614701  0.614701  0.248735  1
  Ge  Ge14  1  0.000000  0.000000  0.490933  1
  Bi  Bi15  1  0.603482  0.000000  0.751940  1
  Bi  Bi16  1  0.000000  0.603482  0.751940  1
  Bi  Bi17  1  0.396518  0.396518  0.751940  1
