# generated using pymatgen
data_Zr6Ti6CuSn9
_symmetry_space_group_name_H-M   'P 1'
_cell_length_a   9.48400000
_cell_length_b   9.48399920
_cell_length_c   5.80710300
_cell_angle_alpha   90.00000000
_cell_angle_beta   90.00000000
_cell_angle_gamma   120.00000281
_symmetry_Int_Tables_number   1
_chemical_formula_structural   Zr6Ti6CuSn9
_chemical_formula_sum   'Zr6 Ti6 Cu1 Sn9'
_cell_volume   452.34854976
_cell_formula_units_Z   1
loop_
 _symmetry_equiv_pos_site_id
 _symmetry_equiv_pos_as_xyz
  1  'x, y, z'
loop_
 _atom_site_type_symbol
 _atom_site_label
 _atom_site_symmetry_multiplicity
 _atom_site_fract_x
 _atom_site_fract_y
 _atom_site_fract_z
 _atom_site_occupancy
  Zr  Zr0  1  0.849324  0.698649  0.741374  1
  Zr  Zr1  1  0.150676  0.849324  0.258626  1
  Zr  Zr2  1  0.698649  0.849324  0.258626  1
  Zr  Zr3  1  0.301351  0.150676  0.741374  1
  Zr  Zr4  1  0.849324  0.150676  0.741374  1
  Zr  Zr5  1  0.150676  0.301351  0.258626  1
  Ti  Ti6  1  0.500000  0.000000  0.500000  1
  Ti  Ti7  1  0.500000  0.500000  0.000000  1
  Ti  Ti8  1  0.000000  0.500000  0.000000  1
  Ti  Ti9  1  0.000000  0.500000  0.500000  1
  Ti  Ti10  1  0.500000  0.000000  0.000000  1
  Ti  Ti11  1  0.500000  0.500000  0.500000  1
  Cu  Cu12  1  0.000000  0.000000  0.500000  1
  Sn  Sn13  1  0.207950  0.415900  0.753765  1
  Sn  Sn14  1  0.792050  0.207950  0.246235  1
  Sn  Sn15  1  0.415900  0.207950  0.246235  1
  Sn  Sn16  1  0.584100  0.792050  0.753765  1
  Sn  Sn17  1  0.207950  0.792050  0.753765  1
  Sn  Sn18  1  0.792050  0.584100  0.246235  1
  Sn  Sn19  1  0.666667  0.333333  0.749228  1
  Sn  Sn20  1  0.333333  0.666667  0.250772  1
  Sn  Sn21  1  0.000000  0.000000  0.000000  1
