# generated using pymatgen
data_Ho4LuCo16(TcP4)3
_symmetry_space_group_name_H-M   'P 1'
_cell_length_a   12.00622003
_cell_length_b   12.00621976
_cell_length_c   3.70191100
_cell_angle_alpha   90.00000000
_cell_angle_beta   90.00000000
_cell_angle_gamma   119.99162284
_symmetry_Int_Tables_number   1
_chemical_formula_structural   Ho4LuCo16(TcP4)3
_chemical_formula_sum   'Ho4 Lu1 Co16 Tc3 P12'
_cell_volume   462.17435738
_cell_formula_units_Z   1
loop_
 _symmetry_equiv_pos_site_id
 _symmetry_equiv_pos_as_xyz
  1  'x, y, z'
loop_
 _atom_site_type_symbol
 _atom_site_label
 _atom_site_symmetry_multiplicity
 _atom_site_fract_x
 _atom_site_fract_y
 _atom_site_fract_z
 _atom_site_occupancy
  Ho  Ho0  1  0.666823  0.333056  0.000000  1
  Ho  Ho1  1  0.333056  0.666823  0.000000  1
  Ho  Ho2  1  0.184457  0.000016  0.500000  1
  Ho  Ho3  1  0.000016  0.184457  0.500000  1
  Lu  Lu4  1  0.815405  0.815405  0.500000  1
  Co  Co5  1  0.873716  0.356126  0.500000  1
  Co  Co6  1  0.644126  0.517975  0.500000  1
  Co  Co7  1  0.482972  0.126166  0.500000  1
  Co  Co8  1  0.356126  0.873716  0.500000  1
  Co  Co9  1  0.517975  0.644126  0.500000  1
  Co  Co10  1  0.126166  0.482972  0.500000  1
  Co  Co11  1  0.803350  0.178261  0.000000  1
  Co  Co12  1  0.820809  0.625499  0.000000  1
  Co  Co13  1  0.375964  0.196863  0.000000  1
  Co  Co14  1  0.178261  0.803350  0.000000  1
  Co  Co15  1  0.625499  0.820809  0.000000  1
  Co  Co16  1  0.196863  0.375964  0.000000  1
  Co  Co17  1  0.282237  0.282237  0.500000  1
  Co  Co18  1  0.718134  0.998906  0.500000  1
  Co  Co19  1  0.998906  0.718134  0.500000  1
  Co  Co20  1  0.999441  0.999441  0.000000  1
  Tc  Tc21  1  0.446447  0.446447  0.000000  1
  Tc  Tc22  1  0.554098  0.999345  0.000000  1
  Tc  Tc23  1  0.999345  0.554098  0.000000  1
  P  P24  1  0.686136  0.164528  0.500000  1
  P  P25  1  0.834795  0.520625  0.500000  1
  P  P26  1  0.479450  0.314325  0.500000  1
  P  P27  1  0.164528  0.686136  0.500000  1
  P  P28  1  0.520625  0.834795  0.500000  1
  P  P29  1  0.314325  0.479450  0.500000  1
  P  P30  1  0.178757  0.178757  0.000000  1
  P  P31  1  0.821285  0.998709  0.000000  1
  P  P32  1  0.998709  0.821285  0.000000  1
  P  P33  1  0.638513  0.638513  0.000000  1
  P  P34  1  0.362649  0.000034  0.000000  1
  P  P35  1  0.000034  0.362649  0.000000  1
