# generated using pymatgen
data_Dy3Ho2AlSb2
_symmetry_space_group_name_H-M   'P 1'
_cell_length_a   8.88458000
_cell_length_b   8.88892380
_cell_length_c   6.40192700
_cell_angle_alpha   90.00000000
_cell_angle_beta   90.00000000
_cell_angle_gamma   120.01617394
_symmetry_Int_Tables_number   1
_chemical_formula_structural   Dy3Ho2AlSb2
_chemical_formula_sum   'Dy6 Ho4 Al2 Sb4'
_cell_volume   437.78071948
_cell_formula_units_Z   2
loop_
 _symmetry_equiv_pos_site_id
 _symmetry_equiv_pos_as_xyz
  1  'x, y, z'
loop_
 _atom_site_type_symbol
 _atom_site_label
 _atom_site_symmetry_multiplicity
 _atom_site_fract_x
 _atom_site_fract_y
 _atom_site_fract_z
 _atom_site_occupancy
  Dy  Dy0  1  0.755870  0.998927  0.750000  1
  Dy  Dy1  1  0.755870  0.756943  0.250000  1
  Dy  Dy2  1  0.008375  0.242799  0.250000  1
  Dy  Dy3  1  0.008375  0.765576  0.750000  1
  Dy  Dy4  1  0.241446  0.232223  0.750000  1
  Dy  Dy5  1  0.241446  0.009222  0.250000  1
  Ho  Ho6  1  0.335767  0.667884  0.000000  1
  Ho  Ho7  1  0.655893  0.327946  0.500000  1
  Ho  Ho8  1  0.655893  0.327946  0.000000  1
  Ho  Ho9  1  0.335767  0.667884  0.500000  1
  Al  Al10  1  0.398242  0.997042  0.750000  1
  Al  Al11  1  0.398242  0.401199  0.250000  1
  Sb  Sb12  1  0.998607  0.606263  0.250000  1
  Sb  Sb13  1  0.998607  0.392344  0.750000  1
  Sb  Sb14  1  0.605801  0.604898  0.750000  1
  Sb  Sb15  1  0.605801  0.000902  0.250000  1
