# generated using pymatgen
data_Er3Hf(P3Rh4)2
_symmetry_space_group_name_H-M   'P 1'
_cell_length_a   3.93213600
_cell_length_b   11.21632800
_cell_length_c   12.92009400
_cell_angle_alpha   90.00000000
_cell_angle_beta   90.00000000
_cell_angle_gamma   90.00000000
_symmetry_Int_Tables_number   1
_chemical_formula_structural   Er3Hf(P3Rh4)2
_chemical_formula_sum   'Er6 Hf2 P12 Rh16'
_cell_volume   569.82946813
_cell_formula_units_Z   2
loop_
 _symmetry_equiv_pos_site_id
 _symmetry_equiv_pos_as_xyz
  1  'x, y, z'
loop_
 _atom_site_type_symbol
 _atom_site_label
 _atom_site_symmetry_multiplicity
 _atom_site_fract_x
 _atom_site_fract_y
 _atom_site_fract_z
 _atom_site_occupancy
  Er  Er0  1  0.750000  0.250000  0.477071  1
  Er  Er1  1  0.250000  0.750000  0.522929  1
  Er  Er2  1  0.250000  0.929998  0.798421  1
  Er  Er3  1  0.250000  0.570002  0.798421  1
  Er  Er4  1  0.750000  0.070002  0.201579  1
  Er  Er5  1  0.750000  0.429998  0.201579  1
  Hf  Hf6  1  0.250000  0.250000  0.841300  1
  Hf  Hf7  1  0.750000  0.750000  0.158700  1
  P  P8  1  0.250000  0.250000  0.122684  1
  P  P9  1  0.750000  0.750000  0.877316  1
  P  P10  1  0.250000  0.250000  0.639710  1
  P  P11  1  0.750000  0.750000  0.360290  1
  P  P12  1  0.250000  0.435611  0.383179  1
  P  P13  1  0.250000  0.064389  0.383179  1
  P  P14  1  0.750000  0.564389  0.616821  1
  P  P15  1  0.750000  0.935611  0.616821  1
  P  P16  1  0.250000  0.908202  0.112514  1
  P  P17  1  0.250000  0.591798  0.112514  1
  P  P18  1  0.750000  0.091798  0.887486  1
  P  P19  1  0.750000  0.408202  0.887486  1
  Rh  Rh20  1  0.250000  0.250000  0.300227  1
  Rh  Rh21  1  0.750000  0.750000  0.699773  1
  Rh  Rh22  1  0.750000  0.250000  0.014969  1
  Rh  Rh23  1  0.250000  0.750000  0.985031  1
  Rh  Rh24  1  0.250000  0.418364  0.011265  1
  Rh  Rh25  1  0.250000  0.081636  0.011265  1
  Rh  Rh26  1  0.750000  0.581636  0.988735  1
  Rh  Rh27  1  0.750000  0.918364  0.988735  1
  Rh  Rh28  1  0.250000  0.457813  0.567691  1
  Rh  Rh29  1  0.250000  0.042187  0.567691  1
  Rh  Rh30  1  0.750000  0.542187  0.432309  1
  Rh  Rh31  1  0.750000  0.957813  0.432309  1
  Rh  Rh32  1  0.250000  0.876941  0.293869  1
  Rh  Rh33  1  0.250000  0.623059  0.293869  1
  Rh  Rh34  1  0.750000  0.123059  0.706131  1
  Rh  Rh35  1  0.750000  0.376941  0.706131  1
