# generated using pymatgen
data_Gd12InCo6
_symmetry_space_group_name_H-M   'P 1'
_cell_length_a   8.40796451
_cell_length_b   8.40796562
_cell_length_c   8.40796600
_cell_angle_alpha   109.26829432
_cell_angle_beta   109.49579831
_cell_angle_gamma   109.64979786
_symmetry_Int_Tables_number   1
_chemical_formula_structural   Gd12InCo6
_chemical_formula_sum   'Gd12 In1 Co6'
_cell_volume   457.55781163
_cell_formula_units_Z   1
loop_
 _symmetry_equiv_pos_site_id
 _symmetry_equiv_pos_as_xyz
  1  'x, y, z'
loop_
 _atom_site_type_symbol
 _atom_site_label
 _atom_site_symmetry_multiplicity
 _atom_site_fract_x
 _atom_site_fract_y
 _atom_site_fract_z
 _atom_site_occupancy
  Gd  Gd0  1  0.806259  0.696021  0.502713  1
  Gd  Gd1  1  0.193120  0.302888  0.495844  1
  Gd  Gd2  1  0.193308  0.696021  0.889761  1
  Gd  Gd3  1  0.807045  0.302888  0.109768  1
  Gd  Gd4  1  0.698253  0.506523  0.808271  1
  Gd  Gd5  1  0.303536  0.496616  0.193081  1
  Gd  Gd6  1  0.696714  0.889768  0.193053  1
  Gd  Gd7  1  0.301233  0.109456  0.808223  1
  Gd  Gd8  1  0.503270  0.805977  0.696295  1
  Gd  Gd9  1  0.497055  0.192870  0.302998  1
  Gd  Gd10  1  0.109682  0.805977  0.302707  1
  Gd  Gd11  1  0.889872  0.192870  0.695814  1
  In  In12  1  0.000008  0.999761  0.999754  1
  Co  Co13  1  0.886060  0.386031  0.499971  1
  Co  Co14  1  0.114280  0.613106  0.498826  1
  Co  Co15  1  0.386062  0.499383  0.885326  1
  Co  Co16  1  0.614057  0.499383  0.113323  1
  Co  Co17  1  0.500271  0.888220  0.387949  1
  Co  Co18  1  0.499916  0.116238  0.616321  1
