# generated using pymatgen
data_CaY(CuO2)4
_symmetry_space_group_name_H-M   'P 1'
_cell_length_a   6.27846456
_cell_length_b   6.27846424
_cell_length_c   6.27846470
_cell_angle_alpha   125.65174481
_cell_angle_beta   125.65173633
_cell_angle_gamma   80.46128448
_symmetry_Int_Tables_number   1
_chemical_formula_structural   CaY(CuO2)4
_chemical_formula_sum   'Ca1 Y1 Cu4 O8'
_cell_volume   157.63632371
_cell_formula_units_Z   1
loop_
 _symmetry_equiv_pos_site_id
 _symmetry_equiv_pos_as_xyz
  1  'x, y, z'
loop_
 _atom_site_type_symbol
 _atom_site_label
 _atom_site_symmetry_multiplicity
 _atom_site_fract_x
 _atom_site_fract_y
 _atom_site_fract_z
 _atom_site_occupancy
  Ca  Ca0  1  0.000000  0.000000  0.000000  1
  Y  Y1  1  0.750000  0.250000  0.500000  1
  Cu  Cu2  1  0.874230  0.629046  0.253969  1
  Cu  Cu3  1  0.375077  0.620260  0.746031  1
  Cu  Cu4  1  0.379740  0.125770  0.754817  1
  Cu  Cu5  1  0.370954  0.624923  0.245183  1
  O  O6  1  0.355648  0.981437  0.934874  1
  O  O7  1  0.046563  0.420774  0.065126  1
  O  O8  1  0.690988  0.837061  0.424614  1
  O  O9  1  0.412446  0.266373  0.575386  1
  O  O10  1  0.162939  0.587554  0.853928  1
  O  O11  1  0.733627  0.309012  0.146072  1
  O  O12  1  0.579226  0.644352  0.625789  1
  O  O13  1  0.018563  0.953437  0.374211  1
