# generated using pymatgen
data_Tb3Sm3CoBr10
_symmetry_space_group_name_H-M   'P 1'
_cell_length_a   7.43198505
_cell_length_b   9.22901172
_cell_length_c   9.36161759
_cell_angle_alpha   108.03065645
_cell_angle_beta   96.38284297
_cell_angle_gamma   104.70526795
_symmetry_Int_Tables_number   1
_chemical_formula_structural   Tb3Sm3CoBr10
_chemical_formula_sum   'Tb3 Sm3 Co1 Br10'
_cell_volume   577.87476628
_cell_formula_units_Z   1
loop_
 _symmetry_equiv_pos_site_id
 _symmetry_equiv_pos_as_xyz
  1  'x, y, z'
loop_
 _atom_site_type_symbol
 _atom_site_label
 _atom_site_symmetry_multiplicity
 _atom_site_fract_x
 _atom_site_fract_y
 _atom_site_fract_z
 _atom_site_occupancy
  Tb  Tb0  1  0.125969  0.048353  0.258673  1
  Tb  Tb1  1  0.352687  0.128295  0.674497  1
  Tb  Tb2  1  0.646847  0.871877  0.326722  1
  Sm  Sm3  1  0.034015  0.714708  0.409436  1
  Sm  Sm4  1  0.965795  0.284871  0.587336  1
  Sm  Sm5  1  0.873443  0.951145  0.746250  1
  Co  Co6  1  0.999923  0.999602  0.500202  1
  Br  Br7  1  0.451753  0.820292  0.582352  1
  Br  Br8  1  0.544529  0.178477  0.416682  1
  Br  Br9  1  0.912950  0.628280  0.670437  1
  Br  Br10  1  0.089472  0.366946  0.324505  1
  Br  Br11  1  0.249483  0.083647  0.954988  1
  Br  Br12  1  0.756642  0.918647  0.051647  1
  Br  Br13  1  0.346229  0.445389  0.768637  1
  Br  Br14  1  0.651451  0.554572  0.230108  1
  Br  Br15  1  0.770654  0.250486  0.841823  1
  Br  Br16  1  0.228157  0.754413  0.155704  1
