# generated using pymatgen
data_Nb3B2Os5
_symmetry_space_group_name_H-M   'P 1'
_cell_length_a   9.57575700
_cell_length_b   9.57575700
_cell_length_c   3.02184200
_cell_angle_alpha   90.00000000
_cell_angle_beta   90.00000000
_cell_angle_gamma   90.00000000
_symmetry_Int_Tables_number   1
_chemical_formula_structural   Nb3B2Os5
_chemical_formula_sum   'Nb6 B4 Os10'
_cell_volume   277.08817123
_cell_formula_units_Z   2
loop_
 _symmetry_equiv_pos_site_id
 _symmetry_equiv_pos_as_xyz
  1  'x, y, z'
loop_
 _atom_site_type_symbol
 _atom_site_label
 _atom_site_symmetry_multiplicity
 _atom_site_fract_x
 _atom_site_fract_y
 _atom_site_fract_z
 _atom_site_occupancy
  Nb  Nb0  1  0.822723  0.677277  0.000000  1
  Nb  Nb1  1  0.177277  0.322723  0.000000  1
  Nb  Nb2  1  0.322723  0.822723  0.000000  1
  Nb  Nb3  1  0.677277  0.177277  0.000000  1
  Nb  Nb4  1  0.500000  0.500000  0.000000  1
  Nb  Nb5  1  0.000000  0.000000  0.000000  1
  B  B6  1  0.620899  0.879101  0.000000  1
  B  B7  1  0.379101  0.120899  0.000000  1
  B  B8  1  0.120899  0.620899  0.000000  1
  B  B9  1  0.879101  0.379101  0.000000  1
  Os  Os10  1  0.571671  0.719185  0.500000  1
  Os  Os11  1  0.428329  0.280815  0.500000  1
  Os  Os12  1  0.071671  0.780815  0.500000  1
  Os  Os13  1  0.928329  0.219185  0.500000  1
  Os  Os14  1  0.280815  0.571671  0.500000  1
  Os  Os15  1  0.719185  0.428329  0.500000  1
  Os  Os16  1  0.219185  0.071671  0.500000  1
  Os  Os17  1  0.780815  0.928329  0.500000  1
  Os  Os18  1  0.500000  0.000000  0.500000  1
  Os  Os19  1  0.000000  0.500000  0.500000  1
