# generated using pymatgen
data_CrFe(TcO4)6
_symmetry_space_group_name_H-M   'P 1'
_cell_length_a   10.49704282
_cell_length_b   10.49704254
_cell_length_c   10.49704245
_cell_angle_alpha   49.07360001
_cell_angle_beta   49.07360667
_cell_angle_gamma   49.07360452
_symmetry_Int_Tables_number   1
_chemical_formula_structural   CrFe(TcO4)6
_chemical_formula_sum   'Cr1 Fe1 Tc6 O24'
_cell_volume   606.36019223
_cell_formula_units_Z   1
loop_
 _symmetry_equiv_pos_site_id
 _symmetry_equiv_pos_as_xyz
  1  'x, y, z'
loop_
 _atom_site_type_symbol
 _atom_site_label
 _atom_site_symmetry_multiplicity
 _atom_site_fract_x
 _atom_site_fract_y
 _atom_site_fract_z
 _atom_site_occupancy
  Cr  Cr0  1  0.000000  0.000000  0.000000  1
  Fe  Fe1  1  0.500000  0.500000  0.500000  1
  Tc  Tc2  1  0.599027  0.902264  0.249199  1
  Tc  Tc3  1  0.249199  0.599027  0.902264  1
  Tc  Tc4  1  0.902264  0.249199  0.599027  1
  Tc  Tc5  1  0.750801  0.400973  0.097736  1
  Tc  Tc6  1  0.097736  0.750801  0.400973  1
  Tc  Tc7  1  0.400973  0.097736  0.750801  1
  O  O8  1  0.817708  0.886598  0.169839  1
  O  O9  1  0.169839  0.817708  0.886598  1
  O  O10  1  0.886598  0.169839  0.817708  1
  O  O11  1  0.671049  0.385663  0.316352  1
  O  O12  1  0.316352  0.671049  0.385663  1
  O  O13  1  0.385663  0.316352  0.671049  1
  O  O14  1  0.182292  0.113402  0.830161  1
  O  O15  1  0.830161  0.182292  0.113402  1
  O  O16  1  0.113402  0.830161  0.182292  1
  O  O17  1  0.328951  0.614337  0.683648  1
  O  O18  1  0.683648  0.328951  0.614337  1
  O  O19  1  0.614337  0.683648  0.328951  1
  O  O20  1  0.443863  0.976251  0.423922  1
  O  O21  1  0.423922  0.443863  0.976251  1
  O  O22  1  0.976251  0.423922  0.443863  1
  O  O23  1  0.924187  0.476643  0.943237  1
  O  O24  1  0.943237  0.924187  0.476643  1
  O  O25  1  0.476643  0.943237  0.924187  1
  O  O26  1  0.556137  0.023749  0.576078  1
  O  O27  1  0.576078  0.556137  0.023749  1
  O  O28  1  0.023749  0.576078  0.556137  1
  O  O29  1  0.075813  0.523357  0.056763  1
  O  O30  1  0.056763  0.075813  0.523357  1
  O  O31  1  0.523357  0.056763  0.075813  1
