# generated using pymatgen
data_Dy4Er3Lu13Bi12
_symmetry_space_group_name_H-M   'P 1'
_cell_length_a   8.17443869
_cell_length_b   9.38728400
_cell_length_c   11.88608900
_cell_angle_alpha   90.00000000
_cell_angle_beta   90.04705282
_cell_angle_gamma   90.00000000
_symmetry_Int_Tables_number   1
_chemical_formula_structural   Dy4Er3Lu13Bi12
_chemical_formula_sum   'Dy4 Er3 Lu13 Bi12'
_cell_volume   912.08797362
_cell_formula_units_Z   1
loop_
 _symmetry_equiv_pos_site_id
 _symmetry_equiv_pos_as_xyz
  1  'x, y, z'
loop_
 _atom_site_type_symbol
 _atom_site_label
 _atom_site_symmetry_multiplicity
 _atom_site_fract_x
 _atom_site_fract_y
 _atom_site_fract_z
 _atom_site_occupancy
  Dy  Dy0  1  0.312595  0.250000  0.217907  1
  Dy  Dy1  1  0.812537  0.250000  0.282110  1
  Dy  Dy2  1  0.687224  0.750000  0.782011  1
  Dy  Dy3  1  0.187562  0.750000  0.717824  1
  Er  Er4  1  0.352125  0.750000  0.217596  1
  Er  Er5  1  0.852209  0.750000  0.282311  1
  Er  Er6  1  0.647584  0.250000  0.782357  1
  Lu  Lu7  1  0.147892  0.250000  0.717920  1
  Lu  Lu8  1  0.692781  0.567210  0.059456  1
  Lu  Lu9  1  0.192693  0.932823  0.440594  1
  Lu  Lu10  1  0.307195  0.067162  0.940228  1
  Lu  Lu11  1  0.807446  0.433005  0.559521  1
  Lu  Lu12  1  0.307195  0.432838  0.940228  1
  Lu  Lu13  1  0.807446  0.066995  0.559521  1
  Lu  Lu14  1  0.692781  0.932790  0.059456  1
  Lu  Lu15  1  0.192693  0.567177  0.440594  1
  Lu  Lu16  1  0.476546  0.250000  0.489051  1
  Lu  Lu17  1  0.976712  0.250000  0.010679  1
  Lu  Lu18  1  0.523295  0.750000  0.511100  1
  Lu  Lu19  1  0.023467  0.750000  0.989072  1
  Bi  Bi20  1  0.403998  0.750000  0.958395  1
  Bi  Bi21  1  0.903956  0.750000  0.541474  1
  Bi  Bi22  1  0.596117  0.250000  0.041624  1
  Bi  Bi23  1  0.096345  0.250000  0.459185  1
  Bi  Bi24  1  0.565247  0.994873  0.326125  1
  Bi  Bi25  1  0.065278  0.505246  0.173838  1
  Bi  Bi26  1  0.434374  0.494823  0.673952  1
  Bi  Bi27  1  0.934903  0.005496  0.825976  1
  Bi  Bi28  1  0.434374  0.005177  0.673952  1
  Bi  Bi29  1  0.934903  0.494504  0.825976  1
  Bi  Bi30  1  0.565247  0.505127  0.326125  1
  Bi  Bi31  1  0.065278  0.994754  0.173838  1
