# generated using pymatgen
data_LuTh7CrSe17
_symmetry_space_group_name_H-M   'P 1'
_cell_length_a   8.40984751
_cell_length_b   8.41286447
_cell_length_c   11.16854424
_cell_angle_alpha   80.32883478
_cell_angle_beta   80.33682698
_cell_angle_gamma   64.74369590
_symmetry_Int_Tables_number   1
_chemical_formula_structural   LuTh7CrSe17
_chemical_formula_sum   'Lu1 Th7 Cr1 Se17'
_cell_volume   700.38171625
_cell_formula_units_Z   1
loop_
 _symmetry_equiv_pos_site_id
 _symmetry_equiv_pos_as_xyz
  1  'x, y, z'
loop_
 _atom_site_type_symbol
 _atom_site_label
 _atom_site_symmetry_multiplicity
 _atom_site_fract_x
 _atom_site_fract_y
 _atom_site_fract_z
 _atom_site_occupancy
  Lu  Lu0  1  0.815982  0.304892  0.295947  1
  Th  Th1  1  0.697423  0.185672  0.700530  1
  Th  Th2  1  0.182987  0.698037  0.703069  1
  Th  Th3  1  0.302449  0.815872  0.295350  1
  Th  Th4  1  0.204566  0.204223  0.542485  1
  Th  Th5  1  0.795698  0.798430  0.452370  1
  Th  Th6  1  0.682935  0.675551  0.982082  1
  Th  Th7  1  0.319078  0.319738  0.023380  1
  Cr  Cr8  1  0.999400  0.002010  0.001098  1
  Se  Se9  1  0.822174  0.429527  0.528201  1
  Se  Se10  1  0.570808  0.180949  0.464427  1
  Se  Se11  1  0.178995  0.567241  0.465934  1
  Se  Se12  1  0.433490  0.820564  0.532978  1
  Se  Se13  1  0.945741  0.317086  0.031017  1
  Se  Se14  1  0.681289  0.053598  0.972817  1
  Se  Se15  1  0.053167  0.681820  0.974241  1
  Se  Se16  1  0.319763  0.946283  0.025872  1
  Se  Se17  1  0.205266  0.211843  0.278576  1
  Se  Se18  1  0.787917  0.787916  0.721996  1
  Se  Se19  1  0.056140  0.057307  0.776858  1
  Se  Se20  1  0.938677  0.956210  0.225609  1
  Se  Se21  1  0.301301  0.301838  0.756667  1
  Se  Se22  1  0.700166  0.690898  0.244598  1
  Se  Se23  1  0.519538  0.520683  0.831779  1
  Se  Se24  1  0.482012  0.477385  0.168217  1
  Se  Se25  1  0.003036  0.994426  0.503904  1
