# generated using pymatgen
data_AcYbPt4
_symmetry_space_group_name_H-M   'P 1'
_cell_length_a   5.53891740
_cell_length_b   5.53891753
_cell_length_c   5.53891800
_cell_angle_alpha   59.99999720
_cell_angle_beta   59.99999639
_cell_angle_gamma   59.99999496
_symmetry_Int_Tables_number   1
_chemical_formula_structural   AcYbPt4
_chemical_formula_sum   'Ac1 Yb1 Pt4'
_cell_volume   120.15993585
_cell_formula_units_Z   1
loop_
 _symmetry_equiv_pos_site_id
 _symmetry_equiv_pos_as_xyz
  1  'x, y, z'
loop_
 _atom_site_type_symbol
 _atom_site_label
 _atom_site_symmetry_multiplicity
 _atom_site_fract_x
 _atom_site_fract_y
 _atom_site_fract_z
 _atom_site_occupancy
  Ac  Ac0  1  0.750000  0.750000  0.750000  1
  Yb  Yb1  1  0.500000  0.500000  0.500000  1
  Pt  Pt2  1  0.125619  0.623144  0.125619  1
  Pt  Pt3  1  0.125619  0.125619  0.623144  1
  Pt  Pt4  1  0.623144  0.125619  0.125619  1
  Pt  Pt5  1  0.125619  0.125619  0.125619  1
