# generated using pymatgen
data_Ac3(ZnNi2)2
_symmetry_space_group_name_H-M   'P 1'
_cell_length_a   4.25213100
_cell_length_b   5.66606954
_cell_length_c   8.63651360
_cell_angle_alpha   98.51558726
_cell_angle_beta   90.00000000
_cell_angle_gamma   112.03839507
_symmetry_Int_Tables_number   1
_chemical_formula_structural   Ac3(ZnNi2)2
_chemical_formula_sum   'Ac3 Zn2 Ni4'
_cell_volume   190.39762931
_cell_formula_units_Z   1
loop_
 _symmetry_equiv_pos_site_id
 _symmetry_equiv_pos_as_xyz
  1  'x, y, z'
loop_
 _atom_site_type_symbol
 _atom_site_label
 _atom_site_symmetry_multiplicity
 _atom_site_fract_x
 _atom_site_fract_y
 _atom_site_fract_z
 _atom_site_occupancy
  Ac  Ac0  1  0.623598  0.247195  0.876970  1
  Ac  Ac1  1  0.376402  0.752805  0.123030  1
  Ac  Ac2  1  0.000000  0.000000  0.500000  1
  Zn  Zn3  1  0.321553  0.643107  0.711890  1
  Zn  Zn4  1  0.678447  0.356893  0.288110  1
  Ni  Ni5  1  0.913266  0.826533  0.861296  1
  Ni  Ni6  1  0.086734  0.173467  0.138704  1
  Ni  Ni7  1  0.739653  0.479306  0.583994  1
  Ni  Ni8  1  0.260347  0.520694  0.416006  1
