# generated using pymatgen
data_TmMnFe3P3Ir
_symmetry_space_group_name_H-M   'P 1'
_cell_length_a   3.67992500
_cell_length_b   10.35697300
_cell_length_c   12.19733600
_cell_angle_alpha   90.00000000
_cell_angle_beta   90.00000000
_cell_angle_gamma   90.00000000
_symmetry_Int_Tables_number   1
_chemical_formula_structural   TmMnFe3P3Ir
_chemical_formula_sum   'Tm4 Mn4 Fe12 P12 Ir4'
_cell_volume   464.87565046
_cell_formula_units_Z   4
loop_
 _symmetry_equiv_pos_site_id
 _symmetry_equiv_pos_as_xyz
  1  'x, y, z'
loop_
 _atom_site_type_symbol
 _atom_site_label
 _atom_site_symmetry_multiplicity
 _atom_site_fract_x
 _atom_site_fract_y
 _atom_site_fract_z
 _atom_site_occupancy
  Tm  Tm0  1  0.250000  0.580722  0.712940  1
  Tm  Tm1  1  0.250000  0.919278  0.212940  1
  Tm  Tm2  1  0.750000  0.419278  0.287060  1
  Tm  Tm3  1  0.750000  0.080722  0.787060  1
  Mn  Mn4  1  0.250000  0.701174  0.988407  1
  Mn  Mn5  1  0.250000  0.798826  0.488407  1
  Mn  Mn6  1  0.750000  0.298826  0.011593  1
  Mn  Mn7  1  0.750000  0.201174  0.511593  1
  Fe  Fe8  1  0.250000  0.221373  0.170722  1
  Fe  Fe9  1  0.250000  0.278627  0.670722  1
  Fe  Fe10  1  0.750000  0.778627  0.829278  1
  Fe  Fe11  1  0.750000  0.721373  0.329278  1
  Fe  Fe12  1  0.250000  0.878389  0.695108  1
  Fe  Fe13  1  0.250000  0.621611  0.195108  1
  Fe  Fe14  1  0.750000  0.121611  0.304892  1
  Fe  Fe15  1  0.750000  0.378389  0.804892  1
  Fe  Fe16  1  0.250000  0.461715  0.936171  1
  Fe  Fe17  1  0.250000  0.038285  0.436171  1
  Fe  Fe18  1  0.750000  0.538285  0.063829  1
  Fe  Fe19  1  0.750000  0.961715  0.563829  1
  P  P20  1  0.250000  0.424717  0.113724  1
  P  P21  1  0.250000  0.075283  0.613724  1
  P  P22  1  0.750000  0.575283  0.886276  1
  P  P23  1  0.750000  0.924717  0.386276  1
  P  P24  1  0.250000  0.273184  0.855156  1
  P  P25  1  0.250000  0.226816  0.355156  1
  P  P26  1  0.750000  0.726816  0.144844  1
  P  P27  1  0.750000  0.773184  0.644844  1
  P  P28  1  0.250000  0.604645  0.377086  1
  P  P29  1  0.250000  0.895355  0.877086  1
  P  P30  1  0.750000  0.395355  0.622914  1
  P  P31  1  0.750000  0.104645  0.122914  1
  Ir  Ir32  1  0.250000  0.401685  0.477506  1
  Ir  Ir33  1  0.250000  0.098315  0.977506  1
  Ir  Ir34  1  0.750000  0.598315  0.522494  1
  Ir  Ir35  1  0.750000  0.901685  0.022494  1
