# generated using pymatgen
data_Er20Ir3(PtRh2)3
_symmetry_space_group_name_H-M   'P 1'
_cell_length_a   10.86376426
_cell_length_b   10.85986044
_cell_length_c   6.31366445
_cell_angle_alpha   89.97956546
_cell_angle_beta   90.01571884
_cell_angle_gamma   89.71643233
_symmetry_Int_Tables_number   1
_chemical_formula_structural   Er20Ir3(PtRh2)3
_chemical_formula_sum   'Er20 Ir3 Pt3 Rh6'
_cell_volume   744.87039081
_cell_formula_units_Z   1
loop_
 _symmetry_equiv_pos_site_id
 _symmetry_equiv_pos_as_xyz
  1  'x, y, z'
loop_
 _atom_site_type_symbol
 _atom_site_label
 _atom_site_symmetry_multiplicity
 _atom_site_fract_x
 _atom_site_fract_y
 _atom_site_fract_z
 _atom_site_occupancy
  Er  Er0  1  0.294325  0.090159  0.376094  1
  Er  Er1  1  0.294374  0.909445  0.875673  1
  Er  Er2  1  0.708132  0.086370  0.875845  1
  Er  Er3  1  0.707723  0.908671  0.376239  1
  Er  Er4  1  0.588282  0.789027  0.878592  1
  Er  Er5  1  0.586664  0.208018  0.374518  1
  Er  Er6  1  0.414339  0.790314  0.377829  1
  Er  Er7  1  0.410976  0.208539  0.880027  1
  Er  Er8  1  0.211060  0.413955  0.621639  1
  Er  Er9  1  0.209830  0.586185  0.122054  1
  Er  Er10  1  0.792245  0.413971  0.125213  1
  Er  Er11  1  0.791575  0.591140  0.619997  1
  Er  Er12  1  0.908421  0.706922  0.121431  1
  Er  Er13  1  0.912271  0.293201  0.622184  1
  Er  Er14  1  0.089006  0.707162  0.626044  1
  Er  Er15  1  0.089850  0.293113  0.126237  1
  Er  Er16  1  0.996461  0.000473  0.499432  1
  Er  Er17  1  0.997524  0.999686  0.000504  1
  Er  Er18  1  0.498627  0.501279  0.000553  1
  Er  Er19  1  0.499336  0.501212  0.499640  1
  Ir  Ir20  1  0.654542  0.653658  0.250602  1
  Ir  Ir21  1  0.346061  0.345072  0.249554  1
  Ir  Ir22  1  0.344385  0.655516  0.749439  1
  Pt  Pt23  1  0.153106  0.154033  0.749501  1
  Pt  Pt24  1  0.153515  0.845675  0.249911  1
  Pt  Pt25  1  0.655601  0.344653  0.749911  1
  Rh  Rh26  1  0.844904  0.155059  0.250016  1
  Rh  Rh27  1  0.846201  0.847223  0.750867  1
  Rh  Rh28  1  0.500519  0.000581  0.125211  1
  Rh  Rh29  1  0.500319  0.999867  0.626856  1
  Rh  Rh30  1  0.999892  0.500105  0.873355  1
  Rh  Rh31  1  0.999936  0.499716  0.375033  1
