# generated using pymatgen
data_Tb9CePt18
_symmetry_space_group_name_H-M   'P 1'
_cell_length_a   9.83698284
_cell_length_b   9.83698284
_cell_length_c   5.80860300
_cell_angle_alpha   90.00000000
_cell_angle_beta   90.00000000
_cell_angle_gamma   89.65402253
_symmetry_Int_Tables_number   1
_chemical_formula_structural   Tb9CePt18
_chemical_formula_sum   'Tb9 Ce1 Pt18'
_cell_volume   562.06637404
_cell_formula_units_Z   1
loop_
 _symmetry_equiv_pos_site_id
 _symmetry_equiv_pos_as_xyz
  1  'x, y, z'
loop_
 _atom_site_type_symbol
 _atom_site_label
 _atom_site_symmetry_multiplicity
 _atom_site_fract_x
 _atom_site_fract_y
 _atom_site_fract_z
 _atom_site_occupancy
  Tb  Tb0  1  0.453265  0.809036  0.000000  1
  Tb  Tb1  1  0.546735  0.190964  0.000000  1
  Tb  Tb2  1  0.190964  0.546735  0.000000  1
  Tb  Tb3  1  0.809036  0.453265  0.000000  1
  Tb  Tb4  1  0.306809  0.046308  0.500000  1
  Tb  Tb5  1  0.693191  0.953692  0.500000  1
  Tb  Tb6  1  0.953692  0.693191  0.500000  1
  Tb  Tb7  1  0.046308  0.306809  0.500000  1
  Tb  Tb8  1  0.000000  0.000000  0.000000  1
  Ce  Ce9  1  0.500000  0.500000  0.500000  1
  Pt  Pt10  1  0.192806  0.807194  0.250328  1
  Pt  Pt11  1  0.807194  0.192806  0.749672  1
  Pt  Pt12  1  0.807194  0.192806  0.250328  1
  Pt  Pt13  1  0.192806  0.807194  0.749672  1
  Pt  Pt14  1  0.441140  0.779732  0.500000  1
  Pt  Pt15  1  0.558860  0.220268  0.500000  1
  Pt  Pt16  1  0.220268  0.558860  0.500000  1
  Pt  Pt17  1  0.779732  0.441140  0.500000  1
  Pt  Pt18  1  0.305541  0.305541  0.249752  1
  Pt  Pt19  1  0.694459  0.694459  0.750248  1
  Pt  Pt20  1  0.694459  0.694459  0.249752  1
  Pt  Pt21  1  0.305541  0.305541  0.750248  1
  Pt  Pt22  1  0.281193  0.058233  0.000000  1
  Pt  Pt23  1  0.718807  0.941767  0.000000  1
  Pt  Pt24  1  0.941767  0.718807  0.000000  1
  Pt  Pt25  1  0.058233  0.281193  0.000000  1
  Pt  Pt26  1  0.000000  0.000000  0.500000  1
  Pt  Pt27  1  0.500000  0.500000  0.000000  1
