# generated using pymatgen
data_La5TbYbCoI12
_symmetry_space_group_name_H-M   'P 1'
_cell_length_a   10.14786468
_cell_length_b   9.98313846
_cell_length_c   10.18300595
_cell_angle_alpha   107.10385533
_cell_angle_beta   106.78082831
_cell_angle_gamma   106.98774251
_symmetry_Int_Tables_number   1
_chemical_formula_structural   La5TbYbCoI12
_chemical_formula_sum   'La5 Tb1 Yb1 Co1 I12'
_cell_volume   860.12831133
_cell_formula_units_Z   1
loop_
 _symmetry_equiv_pos_site_id
 _symmetry_equiv_pos_as_xyz
  1  'x, y, z'
loop_
 _atom_site_type_symbol
 _atom_site_label
 _atom_site_symmetry_multiplicity
 _atom_site_fract_x
 _atom_site_fract_y
 _atom_site_fract_z
 _atom_site_occupancy
  La  La0  1  0.024777  0.102561  0.306766  1
  La  La1  1  0.091668  0.286170  0.024573  1
  La  La2  1  0.309268  0.025074  0.101023  1
  La  La3  1  0.975647  0.897177  0.693028  1
  La  La4  1  0.902897  0.712058  0.974067  1
  Tb  Tb5  1  0.704735  0.974138  0.901296  1
  Yb  Yb6  1  0.499504  0.502021  0.500817  1
  Co  Co7  1  0.999335  0.998718  0.999498  1
  I  I8  1  0.164801  0.468658  0.386053  1
  I  I9  1  0.463077  0.389156  0.164642  1
  I  I10  1  0.383431  0.160460  0.462585  1
  I  I11  1  0.833280  0.531026  0.613872  1
  I  I12  1  0.537136  0.624817  0.837896  1
  I  I13  1  0.617687  0.847388  0.550018  1
  I  I14  1  0.677437  0.067265  0.211754  1
  I  I15  1  0.073146  0.229823  0.680611  1
  I  I16  1  0.222265  0.674542  0.071060  1
  I  I17  1  0.327035  0.929602  0.776045  1
  I  I18  1  0.925863  0.769876  0.319265  1
  I  I19  1  0.767011  0.309471  0.925129  1
