# generated using pymatgen
data_HoPa3(TaN2)4
_symmetry_space_group_name_H-M   'P 1'
_cell_length_a   3.30204500
_cell_length_b   5.70095987
_cell_length_c   10.96218772
_cell_angle_alpha   90.10474995
_cell_angle_beta   90.00000000
_cell_angle_gamma   90.00000000
_symmetry_Int_Tables_number   1
_chemical_formula_structural   HoPa3(TaN2)4
_chemical_formula_sum   'Ho1 Pa3 Ta4 N8'
_cell_volume   206.36093210
_cell_formula_units_Z   1
loop_
 _symmetry_equiv_pos_site_id
 _symmetry_equiv_pos_as_xyz
  1  'x, y, z'
loop_
 _atom_site_type_symbol
 _atom_site_label
 _atom_site_symmetry_multiplicity
 _atom_site_fract_x
 _atom_site_fract_y
 _atom_site_fract_z
 _atom_site_occupancy
  Ho  Ho0  1  0.250000  0.578664  0.855545  1
  Pa  Pa1  1  0.750000  0.424017  0.138372  1
  Pa  Pa2  1  0.750000  0.921533  0.357051  1
  Pa  Pa3  1  0.250000  0.079379  0.645671  1
  Ta  Ta4  1  0.250000  0.921870  0.099322  1
  Ta  Ta5  1  0.750000  0.072133  0.902081  1
  Ta  Ta6  1  0.750000  0.577091  0.602307  1
  Ta  Ta7  1  0.250000  0.424140  0.399577  1
  N  N8  1  0.250000  0.661731  0.246377  1
  N  N9  1  0.750000  0.334740  0.753044  1
  N  N10  1  0.750000  0.841932  0.745316  1
  N  N11  1  0.250000  0.160567  0.254308  1
  N  N12  1  0.250000  0.758291  0.506799  1
  N  N13  1  0.750000  0.243463  0.495165  1
  N  N14  1  0.750000  0.739234  0.003768  1
  N  N15  1  0.250000  0.261213  0.995295  1
