# generated using pymatgen
data_LaYb7(Sc3Sb4)4
_symmetry_space_group_name_H-M   'P 1'
_cell_length_a   7.85750979
_cell_length_b   7.92520787
_cell_length_c   15.06814500
_cell_angle_alpha   90.03541040
_cell_angle_beta   89.97438373
_cell_angle_gamma   89.98273718
_symmetry_Int_Tables_number   1
_chemical_formula_structural   LaYb7(Sc3Sb4)4
_chemical_formula_sum   'La1 Yb7 Sc12 Sb16'
_cell_volume   938.32921324
_cell_formula_units_Z   1
loop_
 _symmetry_equiv_pos_site_id
 _symmetry_equiv_pos_as_xyz
  1  'x, y, z'
loop_
 _atom_site_type_symbol
 _atom_site_label
 _atom_site_symmetry_multiplicity
 _atom_site_fract_x
 _atom_site_fract_y
 _atom_site_fract_z
 _atom_site_occupancy
  La  La0  1  0.477937  0.679771  0.594147  1
  Yb  Yb1  1  0.974977  0.821760  0.907824  1
  Yb  Yb2  1  0.526479  0.320893  0.092971  1
  Yb  Yb3  1  0.025311  0.177205  0.405562  1
  Yb  Yb4  1  0.525668  0.318608  0.407019  1
  Yb  Yb5  1  0.026686  0.178976  0.093141  1
  Yb  Yb6  1  0.472257  0.678116  0.906472  1
  Yb  Yb7  1  0.972911  0.821687  0.593456  1
  Sc  Sc8  1  0.646830  0.144002  0.626081  1
  Sc  Sc9  1  0.147612  0.351941  0.874704  1
  Sc  Sc10  1  0.350446  0.852890  0.125055  1
  Sc  Sc11  1  0.849443  0.647036  0.374135  1
  Sc  Sc12  1  0.349252  0.852594  0.373755  1
  Sc  Sc13  1  0.850987  0.647737  0.125177  1
  Sc  Sc14  1  0.650047  0.147837  0.875806  1
  Sc  Sc15  1  0.150550  0.352587  0.624960  1
  Sc  Sc16  1  0.810143  0.498779  0.750231  1
  Sc  Sc17  1  0.309895  0.005488  0.750245  1
  Sc  Sc18  1  0.190849  0.503253  0.249097  1
  Sc  Sc19  1  0.690633  0.996188  0.249385  1
  Sb  Sb20  1  0.700971  0.950567  0.451956  1
  Sb  Sb21  1  0.202339  0.547437  0.047890  1
  Sb  Sb22  1  0.297552  0.048694  0.952355  1
  Sb  Sb23  1  0.802466  0.447324  0.547949  1
  Sb  Sb24  1  0.295268  0.048257  0.547137  1
  Sb  Sb25  1  0.796858  0.453470  0.952244  1
  Sb  Sb26  1  0.702305  0.952365  0.048322  1
  Sb  Sb27  1  0.200157  0.546218  0.450103  1
  Sb  Sb28  1  0.453713  0.357726  0.750033  1
  Sb  Sb29  1  0.953436  0.144787  0.749834  1
  Sb  Sb30  1  0.546563  0.643613  0.249351  1
  Sb  Sb31  1  0.046362  0.856498  0.249634  1
  Sb  Sb32  1  0.661181  0.849078  0.754580  1
  Sb  Sb33  1  0.156457  0.656854  0.750434  1
  Sb  Sb34  1  0.343139  0.156056  0.249382  1
  Sb  Sb35  1  0.842318  0.343708  0.249571  1
