# generated using pymatgen
data_Ce2Th12Tc5Os
_symmetry_space_group_name_H-M   'P 1'
_cell_length_a   9.95649994
_cell_length_b   9.93494322
_cell_length_c   6.28690287
_cell_angle_alpha   90.03783353
_cell_angle_beta   89.94094083
_cell_angle_gamma   120.03423426
_symmetry_Int_Tables_number   1
_chemical_formula_structural   Ce2Th12Tc5Os
_chemical_formula_sum   'Ce2 Th12 Tc5 Os1'
_cell_volume   538.38048526
_cell_formula_units_Z   1
loop_
 _symmetry_equiv_pos_site_id
 _symmetry_equiv_pos_as_xyz
  1  'x, y, z'
loop_
 _atom_site_type_symbol
 _atom_site_label
 _atom_site_symmetry_multiplicity
 _atom_site_fract_x
 _atom_site_fract_y
 _atom_site_fract_z
 _atom_site_occupancy
  Ce  Ce0  1  0.462003  0.540216  0.307486  1
  Ce  Ce1  1  0.076202  0.536001  0.304746  1
  Th  Th2  1  0.922517  0.461302  0.799904  1
  Th  Th3  1  0.248652  0.126038  0.506374  1
  Th  Th4  1  0.541599  0.081295  0.794729  1
  Th  Th5  1  0.751360  0.874347  0.006280  1
  Th  Th6  1  0.667956  0.335951  0.285986  1
  Th  Th7  1  0.126407  0.872961  0.004214  1
  Th  Th8  1  0.461379  0.921926  0.295732  1
  Th  Th9  1  0.537816  0.461514  0.802628  1
  Th  Th10  1  0.873292  0.126555  0.504078  1
  Th  Th11  1  0.126356  0.250808  0.008662  1
  Th  Th12  1  0.873520  0.751003  0.506928  1
  Th  Th13  1  0.333774  0.667458  0.783937  1
  Tc  Tc14  1  0.816008  0.632120  0.045762  1
  Tc  Tc15  1  0.814933  0.183829  0.046814  1
  Tc  Tc16  1  0.624940  0.805918  0.543473  1
  Tc  Tc17  1  0.369106  0.184872  0.045997  1
  Tc  Tc18  1  0.188263  0.375337  0.540220  1
  Os  Os19  1  0.183914  0.810550  0.550049  1
