# generated using pymatgen
data_Y4Ti4Al3CoO20
_symmetry_space_group_name_H-M   'P 1'
_cell_length_a   5.71069500
_cell_length_b   7.44339676
_cell_length_c   8.48934893
_cell_angle_alpha   89.94742120
_cell_angle_beta   90.00000000
_cell_angle_gamma   90.00000000
_symmetry_Int_Tables_number   1
_chemical_formula_structural   Y4Ti4Al3CoO20
_chemical_formula_sum   'Y4 Ti4 Al3 Co1 O20'
_cell_volume   360.85633659
_cell_formula_units_Z   1
loop_
 _symmetry_equiv_pos_site_id
 _symmetry_equiv_pos_as_xyz
  1  'x, y, z'
loop_
 _atom_site_type_symbol
 _atom_site_label
 _atom_site_symmetry_multiplicity
 _atom_site_fract_x
 _atom_site_fract_y
 _atom_site_fract_z
 _atom_site_occupancy
  Y  Y0  1  0.497681  0.359299  0.329150  1
  Y  Y1  1  0.497681  0.640701  0.670850  1
  Y  Y2  1  0.499150  0.142248  0.829595  1
  Y  Y3  1  0.499150  0.857752  0.170405  1
  Ti  Ti4  1  0.000227  0.123267  0.146117  1
  Ti  Ti5  1  0.000227  0.876733  0.853883  1
  Ti  Ti6  1  0.998909  0.376415  0.645953  1
  Ti  Ti7  1  0.998909  0.623585  0.354047  1
  Al  Al8  1  0.257349  0.000000  0.500000  1
  Al  Al9  1  0.742344  0.000000  0.500000  1
  Al  Al10  1  0.745501  0.500000  0.000000  1
  Co  Co11  1  0.254548  0.500000  0.000000  1
  O  O12  1  0.223237  0.000000  0.000000  1
  O  O13  1  0.776157  0.000000  0.000000  1
  O  O14  1  0.776479  0.500000  0.500000  1
  O  O15  1  0.221922  0.500000  0.500000  1
  O  O16  1  0.996880  0.348623  0.071519  1
  O  O17  1  0.996880  0.651377  0.928481  1
  O  O18  1  0.999976  0.150046  0.571569  1
  O  O19  1  0.999976  0.849954  0.428431  1
  O  O20  1  0.249233  0.107756  0.293978  1
  O  O21  1  0.750605  0.891823  0.706058  1
  O  O22  1  0.249233  0.892244  0.706022  1
  O  O23  1  0.752455  0.391842  0.793859  1
  O  O24  1  0.750605  0.108177  0.293942  1
  O  O25  1  0.253008  0.606743  0.207988  1
  O  O26  1  0.752455  0.608158  0.206141  1
  O  O27  1  0.253008  0.393257  0.792012  1
  O  O28  1  0.503439  0.340377  0.057747  1
  O  O29  1  0.503439  0.659623  0.942253  1
  O  O30  1  0.499668  0.159845  0.557934  1
  O  O31  1  0.499668  0.840155  0.442066  1
