# generated using pymatgen
data_La4Mg(InAu5)2
_symmetry_space_group_name_H-M   'P 1'
_cell_length_a   8.81036400
_cell_length_b   8.81036440
_cell_length_c   10.52946500
_cell_angle_alpha   90.00000000
_cell_angle_beta   90.00000000
_cell_angle_gamma   108.08741461
_symmetry_Int_Tables_number   1
_chemical_formula_structural   La4Mg(InAu5)2
_chemical_formula_sum   'La8 Mg2 In4 Au20'
_cell_volume   776.93467735
_cell_formula_units_Z   2
loop_
 _symmetry_equiv_pos_site_id
 _symmetry_equiv_pos_as_xyz
  1  'x, y, z'
loop_
 _atom_site_type_symbol
 _atom_site_label
 _atom_site_symmetry_multiplicity
 _atom_site_fract_x
 _atom_site_fract_y
 _atom_site_fract_z
 _atom_site_occupancy
  La  La0  1  0.701659  0.298341  0.000000  1
  La  La1  1  0.298341  0.701659  0.000000  1
  La  La2  1  0.798341  0.201659  0.500000  1
  La  La3  1  0.201659  0.798341  0.500000  1
  La  La4  1  0.298714  0.298714  0.203591  1
  La  La5  1  0.701286  0.701286  0.796409  1
  La  La6  1  0.201286  0.201286  0.703591  1
  La  La7  1  0.798714  0.798714  0.296409  1
  Mg  Mg8  1  0.000000  0.000000  0.000000  1
  Mg  Mg9  1  0.500000  0.500000  0.500000  1
  In  In10  1  0.015122  0.515122  0.250000  1
  In  In11  1  0.984878  0.484878  0.750000  1
  In  In12  1  0.484878  0.984878  0.750000  1
  In  In13  1  0.515122  0.015122  0.250000  1
  Au  Au14  1  0.095172  0.095172  0.406116  1
  Au  Au15  1  0.904828  0.904828  0.593884  1
  Au  Au16  1  0.404828  0.404828  0.906116  1
  Au  Au17  1  0.595172  0.595172  0.093884  1
  Au  Au18  1  0.894716  0.166421  0.204578  1
  Au  Au19  1  0.105284  0.833579  0.795422  1
  Au  Au20  1  0.605284  0.333579  0.704578  1
  Au  Au21  1  0.666421  0.394716  0.295422  1
  Au  Au22  1  0.394716  0.666421  0.295422  1
  Au  Au23  1  0.333579  0.605284  0.704578  1
  Au  Au24  1  0.833579  0.105284  0.795422  1
  Au  Au25  1  0.166421  0.894716  0.204578  1
  Au  Au26  1  0.931970  0.666724  0.024316  1
  Au  Au27  1  0.068030  0.333276  0.975684  1
  Au  Au28  1  0.568030  0.833276  0.524316  1
  Au  Au29  1  0.166724  0.431970  0.475684  1
  Au  Au30  1  0.431970  0.166724  0.475684  1
  Au  Au31  1  0.833276  0.568030  0.524316  1
  Au  Au32  1  0.333276  0.068030  0.975684  1
  Au  Au33  1  0.666724  0.931970  0.024316  1
