# generated using pymatgen
data_Pr8Nd8AlCd2AgIr4
_symmetry_space_group_name_H-M   'P 1'
_cell_length_a   9.97528560
_cell_length_b   9.97445658
_cell_length_c   9.98138500
_cell_angle_alpha   60.07144559
_cell_angle_beta   60.06460315
_cell_angle_gamma   60.08229202
_symmetry_Int_Tables_number   1
_chemical_formula_structural   Pr8Nd8AlCd2AgIr4
_chemical_formula_sum   'Pr8 Nd8 Al1 Cd2 Ag1 Ir4'
_cell_volume   703.40602731
_cell_formula_units_Z   1
loop_
 _symmetry_equiv_pos_site_id
 _symmetry_equiv_pos_as_xyz
  1  'x, y, z'
loop_
 _atom_site_type_symbol
 _atom_site_label
 _atom_site_symmetry_multiplicity
 _atom_site_fract_x
 _atom_site_fract_y
 _atom_site_fract_z
 _atom_site_occupancy
  Pr  Pr0  1  0.190004  0.189985  0.809485  1
  Pr  Pr1  1  0.806412  0.806430  0.192672  1
  Pr  Pr2  1  0.937983  0.560353  0.561249  1
  Pr  Pr3  1  0.559287  0.938199  0.942115  1
  Pr  Pr4  1  0.560342  0.937980  0.561272  1
  Pr  Pr5  1  0.938138  0.559293  0.942119  1
  Pr  Pr6  1  0.560257  0.560264  0.940721  1
  Pr  Pr7  1  0.939980  0.939945  0.559383  1
  Nd  Nd8  1  0.348552  0.348560  0.347319  1
  Nd  Nd9  1  0.349588  0.349604  0.952703  1
  Nd  Nd10  1  0.349913  0.951271  0.350286  1
  Nd  Nd11  1  0.951292  0.349900  0.350271  1
  Nd  Nd12  1  0.808835  0.190094  0.190757  1
  Nd  Nd13  1  0.193657  0.806450  0.805727  1
  Nd  Nd14  1  0.190108  0.808843  0.190753  1
  Nd  Nd15  1  0.806462  0.193696  0.805677  1
  Al  Al16  1  0.579261  0.579263  0.577667  1
  Cd  Cd17  1  0.580246  0.265656  0.577981  1
  Cd  Cd18  1  0.265645  0.580225  0.578005  1
  Ag  Ag19  1  0.581403  0.581398  0.261490  1
  Ir  Ir20  1  0.141332  0.141310  0.142828  1
  Ir  Ir21  1  0.142381  0.142375  0.574755  1
  Ir  Ir22  1  0.143683  0.575215  0.142402  1
  Ir  Ir23  1  0.575232  0.143691  0.142364  1
