# generated using pymatgen
data_Y5Zr3Fe6(As6Pd5)2
_symmetry_space_group_name_H-M   'P 1'
_cell_length_a   13.31563600
_cell_length_b   13.31563423
_cell_length_c   3.98614600
_cell_angle_alpha   90.00000000
_cell_angle_beta   90.00000000
_cell_angle_gamma   120.00000440
_symmetry_Int_Tables_number   1
_chemical_formula_structural   Y5Zr3Fe6(As6Pd5)2
_chemical_formula_sum   'Y5 Zr3 Fe6 As12 Pd10'
_cell_volume   612.07914955
_cell_formula_units_Z   1
loop_
 _symmetry_equiv_pos_site_id
 _symmetry_equiv_pos_as_xyz
  1  'x, y, z'
loop_
 _atom_site_type_symbol
 _atom_site_label
 _atom_site_symmetry_multiplicity
 _atom_site_fract_x
 _atom_site_fract_y
 _atom_site_fract_z
 _atom_site_occupancy
  Y  Y0  1  0.184427  0.184758  0.500000  1
  Y  Y1  1  0.815242  0.999668  0.500000  1
  Y  Y2  1  0.000332  0.815573  0.500000  1
  Y  Y3  1  0.333333  0.666667  0.000000  1
  Y  Y4  1  0.666667  0.333333  0.000000  1
  Zr  Zr5  1  0.558497  0.559482  0.000000  1
  Zr  Zr6  1  0.440518  0.999015  0.000000  1
  Zr  Zr7  1  0.000985  0.441503  0.000000  1
  Fe  Fe8  1  0.717066  0.719537  0.500000  1
  Fe  Fe9  1  0.280463  0.997529  0.500000  1
  Fe  Fe10  1  0.002471  0.282934  0.500000  1
  Fe  Fe11  1  0.177673  0.380089  0.000000  1
  Fe  Fe12  1  0.619911  0.797584  0.000000  1
  Fe  Fe13  1  0.202416  0.822327  0.000000  1
  As  As14  1  0.808966  0.823329  0.000000  1
  As  As15  1  0.176671  0.985637  0.000000  1
  As  As16  1  0.014363  0.191034  0.000000  1
  As  As17  1  0.164336  0.471330  0.500000  1
  As  As18  1  0.528670  0.693006  0.500000  1
  As  As19  1  0.306994  0.835664  0.500000  1
  As  As20  1  0.683246  0.522040  0.500000  1
  As  As21  1  0.838793  0.316754  0.500000  1
  As  As22  1  0.477960  0.161207  0.500000  1
  As  As23  1  0.343440  0.357400  0.000000  1
  As  As24  1  0.642600  0.986039  0.000000  1
  As  As25  1  0.013961  0.656560  0.000000  1
  Pd  Pd26  1  0.814711  0.636071  0.000000  1
  Pd  Pd27  1  0.821360  0.185289  0.000000  1
  Pd  Pd28  1  0.363929  0.178640  0.000000  1
  Pd  Pd29  1  0.358680  0.489535  0.500000  1
  Pd  Pd30  1  0.510465  0.869144  0.500000  1
  Pd  Pd31  1  0.130856  0.641320  0.500000  1
  Pd  Pd32  1  0.872957  0.518477  0.500000  1
  Pd  Pd33  1  0.645520  0.127043  0.500000  1
  Pd  Pd34  1  0.481523  0.354480  0.500000  1
  Pd  Pd35  1  0.000000  0.000000  0.000000  1
