# generated using pymatgen
data_Dy3Y2Er3Pt4
_symmetry_space_group_name_H-M   'P 1'
_cell_length_a   4.75787200
_cell_length_b   7.15251566
_cell_length_c   8.76818255
_cell_angle_alpha   89.79743877
_cell_angle_beta   90.00000000
_cell_angle_gamma   90.00000000
_symmetry_Int_Tables_number   1
_chemical_formula_structural   Dy3Y2Er3Pt4
_chemical_formula_sum   'Dy3 Y2 Er3 Pt4'
_cell_volume   298.38599829
_cell_formula_units_Z   1
loop_
 _symmetry_equiv_pos_site_id
 _symmetry_equiv_pos_as_xyz
  1  'x, y, z'
loop_
 _atom_site_type_symbol
 _atom_site_label
 _atom_site_symmetry_multiplicity
 _atom_site_fract_x
 _atom_site_fract_y
 _atom_site_fract_z
 _atom_site_occupancy
  Dy  Dy0  1  0.750000  0.644995  0.420198  1
  Dy  Dy1  1  0.250000  0.990612  0.331498  1
  Dy  Dy2  1  0.750000  0.010742  0.669777  1
  Y  Y3  1  0.250000  0.489191  0.168255  1
  Y  Y4  1  0.750000  0.510422  0.830536  1
  Er  Er5  1  0.250000  0.856623  0.920924  1
  Er  Er6  1  0.250000  0.355266  0.579583  1
  Er  Er7  1  0.750000  0.143590  0.079196  1
  Pt  Pt8  1  0.250000  0.254865  0.906034  1
  Pt  Pt9  1  0.250000  0.756871  0.595370  1
  Pt  Pt10  1  0.750000  0.745176  0.091870  1
  Pt  Pt11  1  0.750000  0.241646  0.406760  1
