# generated using pymatgen
data_Pr3Ho2P12Ru9Rh10
_symmetry_space_group_name_H-M   'P 1'
_cell_length_a   12.68647400
_cell_length_b   12.68647420
_cell_length_c   3.97362400
_cell_angle_alpha   90.00000000
_cell_angle_beta   90.00000000
_cell_angle_gamma   119.99999948
_symmetry_Int_Tables_number   1
_chemical_formula_structural   Pr3Ho2P12Ru9Rh10
_chemical_formula_sum   'Pr3 Ho2 P12 Ru9 Rh10'
_cell_volume   553.85907802
_cell_formula_units_Z   1
loop_
 _symmetry_equiv_pos_site_id
 _symmetry_equiv_pos_as_xyz
  1  'x, y, z'
loop_
 _atom_site_type_symbol
 _atom_site_label
 _atom_site_symmetry_multiplicity
 _atom_site_fract_x
 _atom_site_fract_y
 _atom_site_fract_z
 _atom_site_occupancy
  Pr  Pr0  1  0.000000  0.186227  0.500000  1
  Pr  Pr1  1  0.813773  0.813773  0.500000  1
  Pr  Pr2  1  0.186227  0.000000  0.500000  1
  Ho  Ho3  1  0.666667  0.333333  0.000000  1
  Ho  Ho4  1  0.333333  0.666667  0.000000  1
  P  P5  1  0.000000  0.813568  0.000000  1
  P  P6  1  0.186432  0.186432  0.000000  1
  P  P7  1  0.813568  0.000000  0.000000  1
  P  P8  1  0.690199  0.174584  0.500000  1
  P  P9  1  0.825416  0.515616  0.500000  1
  P  P10  1  0.484384  0.309801  0.500000  1
  P  P11  1  0.174584  0.690199  0.500000  1
  P  P12  1  0.515616  0.825416  0.500000  1
  P  P13  1  0.309801  0.484384  0.500000  1
  P  P14  1  0.000000  0.372424  0.000000  1
  P  P15  1  0.627576  0.627576  0.000000  1
  P  P16  1  0.372424  0.000000  0.000000  1
  Ru  Ru17  1  0.000000  0.710803  0.500000  1
  Ru  Ru18  1  0.289197  0.289197  0.500000  1
  Ru  Ru19  1  0.710803  0.000000  0.500000  1
  Ru  Ru20  1  0.872999  0.363245  0.500000  1
  Ru  Ru21  1  0.636755  0.509754  0.500000  1
  Ru  Ru22  1  0.490246  0.127001  0.500000  1
  Ru  Ru23  1  0.363245  0.872999  0.500000  1
  Ru  Ru24  1  0.509754  0.636755  0.500000  1
  Ru  Ru25  1  0.127001  0.490246  0.500000  1
  Rh  Rh26  1  0.000000  0.550691  0.000000  1
  Rh  Rh27  1  0.449309  0.449309  0.000000  1
  Rh  Rh28  1  0.550691  0.000000  0.000000  1
  Rh  Rh29  1  0.803434  0.183079  0.000000  1
  Rh  Rh30  1  0.816921  0.620354  0.000000  1
  Rh  Rh31  1  0.379646  0.196566  0.000000  1
  Rh  Rh32  1  0.183079  0.803434  0.000000  1
  Rh  Rh33  1  0.620354  0.816921  0.000000  1
  Rh  Rh34  1  0.196566  0.379646  0.000000  1
  Rh  Rh35  1  0.000000  0.000000  0.000000  1
