# generated using pymatgen
data_ErThNi2Hg
_symmetry_space_group_name_H-M   'P 1'
_cell_length_a   7.47196167
_cell_length_b   7.47196213
_cell_length_c   3.64437700
_cell_angle_alpha   90.00000000
_cell_angle_beta   90.00000000
_cell_angle_gamma   92.77273751
_symmetry_Int_Tables_number   1
_chemical_formula_structural   ErThNi2Hg
_chemical_formula_sum   'Er2 Th2 Ni4 Hg2'
_cell_volume   203.22814562
_cell_formula_units_Z   2
loop_
 _symmetry_equiv_pos_site_id
 _symmetry_equiv_pos_as_xyz
  1  'x, y, z'
loop_
 _atom_site_type_symbol
 _atom_site_label
 _atom_site_symmetry_multiplicity
 _atom_site_fract_x
 _atom_site_fract_y
 _atom_site_fract_z
 _atom_site_occupancy
  Er  Er0  1  0.172759  0.327241  0.500000  1
  Er  Er1  1  0.827241  0.672759  0.500000  1
  Th  Th2  1  0.676321  0.176321  0.500000  1
  Th  Th3  1  0.323679  0.823679  0.500000  1
  Ni  Ni4  1  0.121041  0.621041  0.000000  1
  Ni  Ni5  1  0.878959  0.378959  0.000000  1
  Ni  Ni6  1  0.620129  0.879871  0.000000  1
  Ni  Ni7  1  0.379871  0.120129  0.000000  1
  Hg  Hg8  1  0.500000  0.500000  0.000000  1
  Hg  Hg9  1  0.000000  0.000000  0.000000  1
