# generated using pymatgen
data_Ca3SmSb6Rh7
_symmetry_space_group_name_H-M   'P 1'
_cell_length_a   7.64511531
_cell_length_b   7.64511602
_cell_length_c   7.64511562
_cell_angle_alpha   109.42596798
_cell_angle_beta   109.42597504
_cell_angle_gamma   109.42597743
_symmetry_Int_Tables_number   1
_chemical_formula_structural   Ca3SmSb6Rh7
_chemical_formula_sum   'Ca3 Sm1 Sb6 Rh7'
_cell_volume   344.55273699
_cell_formula_units_Z   1
loop_
 _symmetry_equiv_pos_site_id
 _symmetry_equiv_pos_as_xyz
  1  'x, y, z'
loop_
 _atom_site_type_symbol
 _atom_site_label
 _atom_site_symmetry_multiplicity
 _atom_site_fract_x
 _atom_site_fract_y
 _atom_site_fract_z
 _atom_site_occupancy
  Ca  Ca0  1  0.500000  0.000000  0.000000  1
  Ca  Ca1  1  0.000000  0.500000  0.000000  1
  Ca  Ca2  1  0.000000  0.000000  0.500000  1
  Sm  Sm3  1  0.500000  0.500000  0.500000  1
  Sb  Sb4  1  0.995448  0.316703  0.316703  1
  Sb  Sb5  1  0.683297  0.004552  0.683297  1
  Sb  Sb6  1  0.683297  0.683297  0.004552  1
  Sb  Sb7  1  0.004552  0.683297  0.683297  1
  Sb  Sb8  1  0.316703  0.995448  0.316703  1
  Sb  Sb9  1  0.316703  0.316703  0.995448  1
  Rh  Rh10  1  0.000000  0.000000  0.000000  1
  Rh  Rh11  1  0.500000  0.747746  0.252254  1
  Rh  Rh12  1  0.747746  0.500000  0.252254  1
  Rh  Rh13  1  0.252254  0.747746  0.500000  1
  Rh  Rh14  1  0.252254  0.500000  0.747746  1
  Rh  Rh15  1  0.500000  0.252254  0.747746  1
  Rh  Rh16  1  0.747746  0.252254  0.500000  1
