# generated using pymatgen
data_PrY2Tm(MoN3)4
_symmetry_space_group_name_H-M   'P 1'
_cell_length_a   7.28010340
_cell_length_b   7.28010408
_cell_length_c   6.23865128
_cell_angle_alpha   74.94139160
_cell_angle_beta   74.94138594
_cell_angle_gamma   82.43626282
_symmetry_Int_Tables_number   1
_chemical_formula_structural   PrY2Tm(MoN3)4
_chemical_formula_sum   'Pr1 Y2 Tm1 Mo4 N12'
_cell_volume   307.59934043
_cell_formula_units_Z   1
loop_
 _symmetry_equiv_pos_site_id
 _symmetry_equiv_pos_as_xyz
  1  'x, y, z'
loop_
 _atom_site_type_symbol
 _atom_site_label
 _atom_site_symmetry_multiplicity
 _atom_site_fract_x
 _atom_site_fract_y
 _atom_site_fract_z
 _atom_site_occupancy
  Pr  Pr0  1  0.695789  0.304211  0.250000  1
  Y  Y1  1  0.088728  0.911272  0.250000  1
  Y  Y2  1  0.300127  0.699873  0.750000  1
  Tm  Tm3  1  0.916584  0.083416  0.750000  1
  Mo  Mo4  1  0.801618  0.619703  0.754088  1
  Mo  Mo5  1  0.197701  0.381533  0.243152  1
  Mo  Mo6  1  0.618467  0.802299  0.256848  1
  Mo  Mo7  1  0.380297  0.198382  0.745912  1
  N  N8  1  0.218964  0.998127  0.848887  1
  N  N9  1  0.349206  0.362467  0.464888  1
  N  N10  1  0.643859  0.638041  0.539499  1
  N  N11  1  0.622679  0.110345  0.669649  1
  N  N12  1  0.001873  0.781036  0.651113  1
  N  N13  1  0.786668  0.995608  0.142963  1
  N  N14  1  0.105317  0.621417  0.157095  1
  N  N15  1  0.889655  0.377321  0.830351  1
  N  N16  1  0.004392  0.213332  0.357037  1
  N  N17  1  0.361959  0.356141  0.960501  1
  N  N18  1  0.637533  0.650794  0.035112  1
  N  N19  1  0.378583  0.894683  0.342905  1
