# generated using pymatgen
data_Dy6Ho4Si5Bi
_symmetry_space_group_name_H-M   'P 1'
_cell_length_a   8.52590000
_cell_length_b   8.56733977
_cell_length_c   6.35377000
_cell_angle_alpha   90.00000000
_cell_angle_beta   90.00000000
_cell_angle_gamma   119.84012366
_symmetry_Int_Tables_number   1
_chemical_formula_structural   Dy6Ho4Si5Bi
_chemical_formula_sum   'Dy6 Ho4 Si5 Bi1'
_cell_volume   402.57402699
_cell_formula_units_Z   1
loop_
 _symmetry_equiv_pos_site_id
 _symmetry_equiv_pos_as_xyz
  1  'x, y, z'
loop_
 _atom_site_type_symbol
 _atom_site_label
 _atom_site_symmetry_multiplicity
 _atom_site_fract_x
 _atom_site_fract_y
 _atom_site_fract_z
 _atom_site_occupancy
  Dy  Dy0  1  0.984684  0.745006  0.750000  1
  Dy  Dy1  1  0.998526  0.243354  0.250000  1
  Dy  Dy2  1  0.755174  0.756646  0.250000  1
  Dy  Dy3  1  0.767785  0.000000  0.750000  1
  Dy  Dy4  1  0.239679  0.254994  0.750000  1
  Dy  Dy5  1  0.240128  0.000000  0.250000  1
  Ho  Ho6  1  0.330811  0.654121  0.494991  1
  Ho  Ho7  1  0.676691  0.345879  0.005009  1
  Ho  Ho8  1  0.676691  0.345879  0.494991  1
  Ho  Ho9  1  0.330811  0.654121  0.005009  1
  Si  Si10  1  0.393393  0.391001  0.250000  1
  Si  Si11  1  0.002392  0.608999  0.250000  1
  Si  Si12  1  0.998795  0.394605  0.750000  1
  Si  Si13  1  0.604190  0.605395  0.750000  1
  Si  Si14  1  0.606910  0.000000  0.250000  1
  Bi  Bi15  1  0.393339  0.000000  0.750000  1
