# generated using pymatgen
data_Y5Tm4Lu11Sb12
_symmetry_space_group_name_H-M   'P 1'
_cell_length_a   8.07302430
_cell_length_b   9.15086214
_cell_length_c   11.72616855
_cell_angle_alpha   89.99982713
_cell_angle_beta   89.91989562
_cell_angle_gamma   89.99815838
_symmetry_Int_Tables_number   1
_chemical_formula_structural   Y5Tm4Lu11Sb12
_chemical_formula_sum   'Y5 Tm4 Lu11 Sb12'
_cell_volume   866.27140728
_cell_formula_units_Z   1
loop_
 _symmetry_equiv_pos_site_id
 _symmetry_equiv_pos_as_xyz
  1  'x, y, z'
loop_
 _atom_site_type_symbol
 _atom_site_label
 _atom_site_symmetry_multiplicity
 _atom_site_fract_x
 _atom_site_fract_y
 _atom_site_fract_z
 _atom_site_occupancy
  Y  Y0  1  0.309268  0.440810  0.434450  1
  Y  Y1  1  0.175418  0.750165  0.228329  1
  Y  Y2  1  0.675224  0.249775  0.271380  1
  Y  Y3  1  0.824354  0.249775  0.771612  1
  Y  Y4  1  0.324352  0.749912  0.728545  1
  Tm  Tm5  1  0.659534  0.749549  0.290583  1
  Tm  Tm6  1  0.159449  0.248976  0.208515  1
  Tm  Tm7  1  0.340499  0.249302  0.709821  1
  Tm  Tm8  1  0.840433  0.749853  0.790771  1
  Lu  Lu9  1  0.809018  0.938181  0.065974  1
  Lu  Lu10  1  0.308782  0.061962  0.433892  1
  Lu  Lu11  1  0.190723  0.438443  0.933992  1
  Lu  Lu12  1  0.690706  0.561586  0.565973  1
  Lu  Lu13  1  0.190824  0.061433  0.933996  1
  Lu  Lu14  1  0.691640  0.938653  0.566216  1
  Lu  Lu15  1  0.809019  0.561618  0.065823  1
  Lu  Lu16  1  0.524514  0.249804  0.994942  1
  Lu  Lu17  1  0.024539  0.750113  0.504807  1
  Lu  Lu18  1  0.475440  0.750004  0.004692  1
  Lu  Lu19  1  0.974746  0.249322  0.495285  1
  Sb  Sb20  1  0.935992  0.990708  0.327060  1
  Sb  Sb21  1  0.436519  0.008541  0.172578  1
  Sb  Sb22  1  0.063514  0.490815  0.673197  1
  Sb  Sb23  1  0.563820  0.508782  0.827246  1
  Sb  Sb24  1  0.063247  0.008445  0.673071  1
  Sb  Sb25  1  0.563680  0.990912  0.827294  1
  Sb  Sb26  1  0.935422  0.508608  0.326838  1
  Sb  Sb27  1  0.437022  0.490977  0.171719  1
  Sb  Sb28  1  0.902117  0.249973  0.026932  1
  Sb  Sb29  1  0.404414  0.754137  0.473978  1
  Sb  Sb30  1  0.097421  0.749975  0.972812  1
  Sb  Sb31  1  0.598348  0.248893  0.527676  1
