# generated using pymatgen
data_Ti2Fe10Co2P7
_symmetry_space_group_name_H-M   'P 1'
_cell_length_a   8.82182634
_cell_length_b   8.79496367
_cell_length_c   3.51937100
_cell_angle_alpha   90.00000000
_cell_angle_beta   90.00000000
_cell_angle_gamma   119.87358263
_symmetry_Int_Tables_number   1
_chemical_formula_structural   Ti2Fe10Co2P7
_chemical_formula_sum   'Ti2 Fe10 Co2 P7'
_cell_volume   236.77729859
_cell_formula_units_Z   1
loop_
 _symmetry_equiv_pos_site_id
 _symmetry_equiv_pos_as_xyz
  1  'x, y, z'
loop_
 _atom_site_type_symbol
 _atom_site_label
 _atom_site_symmetry_multiplicity
 _atom_site_fract_x
 _atom_site_fract_y
 _atom_site_fract_z
 _atom_site_occupancy
  Ti  Ti0  1  0.999049  0.997198  0.000000  1
  Ti  Ti1  1  0.334101  0.666900  0.500000  1
  Fe  Fe2  1  0.101152  0.397000  0.000000  1
  Fe  Fe3  1  0.602589  0.703377  0.000000  1
  Fe  Fe4  1  0.296733  0.898827  0.000000  1
  Fe  Fe5  1  0.052180  0.772086  0.500000  1
  Fe  Fe6  1  0.227961  0.278683  0.500000  1
  Fe  Fe7  1  0.721252  0.949403  0.500000  1
  Fe  Fe8  1  0.824159  0.611276  0.000000  1
  Fe  Fe9  1  0.889682  0.430273  0.500000  1
  Fe  Fe10  1  0.567853  0.459375  0.500000  1
  Fe  Fe11  1  0.540568  0.111276  0.500000  1
  Co  Co12  1  0.389694  0.214060  0.000000  1
  Co  Co13  1  0.786118  0.175958  0.000000  1
  P  P14  1  0.787147  0.743785  0.500000  1
  P  P15  1  0.255758  0.042314  0.500000  1
  P  P16  1  0.957930  0.212978  0.500000  1
  P  P17  1  0.666870  0.334834  0.000000  1
  P  P18  1  0.082820  0.630588  0.000000  1
  P  P19  1  0.368986  0.453064  0.000000  1
  P  P20  1  0.547397  0.916745  0.000000  1
