# generated using pymatgen
data_Th6SiHg7
_symmetry_space_group_name_H-M   'P 1'
_cell_length_a   8.52761681
_cell_length_b   8.52761723
_cell_length_c   8.52761676
_cell_angle_alpha   113.87649358
_cell_angle_beta   113.87648591
_cell_angle_gamma   113.87647331
_symmetry_Int_Tables_number   1
_chemical_formula_structural   Th6SiHg7
_chemical_formula_sum   'Th6 Si1 Hg7'
_cell_volume   380.18713824
_cell_formula_units_Z   1
loop_
 _symmetry_equiv_pos_site_id
 _symmetry_equiv_pos_as_xyz
  1  'x, y, z'
loop_
 _atom_site_type_symbol
 _atom_site_label
 _atom_site_symmetry_multiplicity
 _atom_site_fract_x
 _atom_site_fract_y
 _atom_site_fract_z
 _atom_site_occupancy
  Th  Th0  1  0.015179  0.376174  0.260316  1
  Th  Th1  1  0.376174  0.260316  0.015179  1
  Th  Th2  1  0.739684  0.984821  0.623826  1
  Th  Th3  1  0.260316  0.015179  0.376174  1
  Th  Th4  1  0.623826  0.739684  0.984821  1
  Th  Th5  1  0.984821  0.623826  0.739684  1
  Si  Si6  1  0.000000  0.000000  0.000000  1
  Hg  Hg7  1  0.500000  0.500000  0.500000  1
  Hg  Hg8  1  0.423351  0.911477  0.750611  1
  Hg  Hg9  1  0.911477  0.750611  0.423351  1
  Hg  Hg10  1  0.249389  0.576649  0.088523  1
  Hg  Hg11  1  0.750611  0.423351  0.911477  1
  Hg  Hg12  1  0.088523  0.249389  0.576649  1
  Hg  Hg13  1  0.576649  0.088523  0.249389  1
