# generated using pymatgen
data_La2Nd2CdHgPd4
_symmetry_space_group_name_H-M   'P 1'
_cell_length_a   7.89430662
_cell_length_b   7.86912001
_cell_length_c   3.94924000
_cell_angle_alpha   90.00000000
_cell_angle_beta   90.00000000
_cell_angle_gamma   90.64231244
_symmetry_Int_Tables_number   1
_chemical_formula_structural   La2Nd2CdHgPd4
_chemical_formula_sum   'La2 Nd2 Cd1 Hg1 Pd4'
_cell_volume   245.31629453
_cell_formula_units_Z   1
loop_
 _symmetry_equiv_pos_site_id
 _symmetry_equiv_pos_as_xyz
  1  'x, y, z'
loop_
 _atom_site_type_symbol
 _atom_site_label
 _atom_site_symmetry_multiplicity
 _atom_site_fract_x
 _atom_site_fract_y
 _atom_site_fract_z
 _atom_site_occupancy
  La  La0  1  0.683029  0.167451  0.500000  1
  La  La1  1  0.316971  0.832549  0.500000  1
  Nd  Nd2  1  0.165286  0.317769  0.500000  1
  Nd  Nd3  1  0.834714  0.682231  0.500000  1
  Cd  Cd4  1  0.500000  0.500000  0.000000  1
  Hg  Hg5  1  0.000000  0.000000  0.000000  1
  Pd  Pd6  1  0.135966  0.618327  0.000000  1
  Pd  Pd7  1  0.864034  0.381673  0.000000  1
  Pd  Pd8  1  0.619109  0.863124  0.000000  1
  Pd  Pd9  1  0.380891  0.136876  0.000000  1
