# generated using pymatgen
data_TbYGa9Ir2Pt
_symmetry_space_group_name_H-M   'P 1'
_cell_length_a   7.63078702
_cell_length_b   7.63090846
_cell_length_c   9.49042400
_cell_angle_alpha   90.00154823
_cell_angle_beta   90.00088380
_cell_angle_gamma   119.88572762
_symmetry_Int_Tables_number   1
_chemical_formula_structural   TbYGa9Ir2Pt
_chemical_formula_sum   'Tb2 Y2 Ga18 Ir4 Pt2'
_cell_volume   479.13815413
_cell_formula_units_Z   2
loop_
 _symmetry_equiv_pos_site_id
 _symmetry_equiv_pos_as_xyz
  1  'x, y, z'
loop_
 _atom_site_type_symbol
 _atom_site_label
 _atom_site_symmetry_multiplicity
 _atom_site_fract_x
 _atom_site_fract_y
 _atom_site_fract_z
 _atom_site_occupancy
  Tb  Tb0  1  0.996504  0.670027  0.249860  1
  Tb  Tb1  1  0.003496  0.329973  0.750140  1
  Y  Y2  1  0.670042  0.996474  0.249878  1
  Y  Y3  1  0.329958  0.003526  0.750122  1
  Ga  Ga4  1  0.132048  0.131980  0.250016  1
  Ga  Ga5  1  0.867952  0.868020  0.749984  1
  Ga  Ga6  1  0.998576  0.337680  0.081170  1
  Ga  Ga7  1  0.001424  0.662320  0.918830  1
  Ga  Ga8  1  0.001388  0.662294  0.581224  1
  Ga  Ga9  1  0.337793  0.998636  0.418790  1
  Ga  Ga10  1  0.998612  0.337706  0.418776  1
  Ga  Ga11  1  0.662207  0.001364  0.581210  1
  Ga  Ga12  1  0.662235  0.001401  0.918844  1
  Ga  Ga13  1  0.337765  0.998599  0.081156  1
  Ga  Ga14  1  0.335766  0.335735  0.567411  1
  Ga  Ga15  1  0.664234  0.664265  0.432589  1
  Ga  Ga16  1  0.664196  0.664226  0.067355  1
  Ga  Ga17  1  0.335804  0.335774  0.932645  1
  Ga  Ga18  1  0.337378  0.546587  0.249987  1
  Ga  Ga19  1  0.662622  0.453413  0.750013  1
  Ga  Ga20  1  0.546623  0.337496  0.249986  1
  Ga  Ga21  1  0.453377  0.662504  0.750014  1
  Ir  Ir22  1  0.671205  0.328871  0.999991  1
  Ir  Ir23  1  0.328795  0.671129  0.000009  1
  Ir  Ir24  1  0.328769  0.671154  0.499991  1
  Ir  Ir25  1  0.671231  0.328846  0.500009  1
  Pt  Pt26  1  0.000000  0.000000  0.000000  1
  Pt  Pt27  1  0.000000  0.000000  0.500000  1
