# generated using pymatgen
data_Pr2Dy3Y3(Si3Rh)4
_symmetry_space_group_name_H-M   'P 1'
_cell_length_a   8.20659800
_cell_length_b   8.20659943
_cell_length_c   8.06625000
_cell_angle_alpha   90.00000000
_cell_angle_beta   90.00000000
_cell_angle_gamma   119.99999423
_symmetry_Int_Tables_number   1
_chemical_formula_structural   Pr2Dy3Y3(Si3Rh)4
_chemical_formula_sum   'Pr2 Dy3 Y3 Si12 Rh4'
_cell_volume   470.46652859
_cell_formula_units_Z   1
loop_
 _symmetry_equiv_pos_site_id
 _symmetry_equiv_pos_as_xyz
  1  'x, y, z'
loop_
 _atom_site_type_symbol
 _atom_site_label
 _atom_site_symmetry_multiplicity
 _atom_site_fract_x
 _atom_site_fract_y
 _atom_site_fract_z
 _atom_site_occupancy
  Pr  Pr0  1  0.000000  0.000000  0.250000  1
  Pr  Pr1  1  0.000000  0.000000  0.750000  1
  Dy  Dy2  1  0.491370  0.508630  0.750000  1
  Dy  Dy3  1  0.491370  0.982738  0.750000  1
  Dy  Dy4  1  0.017262  0.508630  0.750000  1
  Y  Y5  1  0.508683  0.491317  0.250000  1
  Y  Y6  1  0.508683  0.017367  0.250000  1
  Y  Y7  1  0.982633  0.491317  0.250000  1
  Si  Si8  1  0.168507  0.831493  0.500862  1
  Si  Si9  1  0.168507  0.337016  0.500862  1
  Si  Si10  1  0.662984  0.831493  0.500862  1
  Si  Si11  1  0.831423  0.168577  0.499932  1
  Si  Si12  1  0.831423  0.662844  0.499932  1
  Si  Si13  1  0.337156  0.168577  0.499932  1
  Si  Si14  1  0.831423  0.168577  0.000068  1
  Si  Si15  1  0.831423  0.662844  0.000068  1
  Si  Si16  1  0.337156  0.168577  0.000068  1
  Si  Si17  1  0.168507  0.831493  0.999138  1
  Si  Si18  1  0.168507  0.337016  0.999138  1
  Si  Si19  1  0.662984  0.831493  0.999138  1
  Rh  Rh20  1  0.333333  0.666667  0.467930  1
  Rh  Rh21  1  0.666667  0.333333  0.534878  1
  Rh  Rh22  1  0.666667  0.333333  0.965122  1
  Rh  Rh23  1  0.333333  0.666667  0.032070  1
