# generated using pymatgen
data_Tm3Al2GaGe2Os
_symmetry_space_group_name_H-M   'P 1'
_cell_length_a   6.92881300
_cell_length_b   6.87873642
_cell_length_c   4.23692900
_cell_angle_alpha   90.00000000
_cell_angle_beta   90.00000000
_cell_angle_gamma   120.24111591
_symmetry_Int_Tables_number   1
_chemical_formula_structural   Tm3Al2GaGe2Os
_chemical_formula_sum   'Tm3 Al2 Ga1 Ge2 Os1'
_cell_volume   174.45724513
_cell_formula_units_Z   1
loop_
 _symmetry_equiv_pos_site_id
 _symmetry_equiv_pos_as_xyz
  1  'x, y, z'
loop_
 _atom_site_type_symbol
 _atom_site_label
 _atom_site_symmetry_multiplicity
 _atom_site_fract_x
 _atom_site_fract_y
 _atom_site_fract_z
 _atom_site_occupancy
  Tm  Tm0  1  0.418018  0.000000  0.000000  1
  Tm  Tm1  1  0.999277  0.417225  0.000000  1
  Tm  Tm2  1  0.582053  0.582777  0.000000  1
  Al  Al3  1  0.227783  0.225582  0.500000  1
  Al  Al4  1  0.002201  0.774417  0.500000  1
  Ga  Ga5  1  0.769565  0.000000  0.500000  1
  Ge  Ge6  1  0.666513  0.336024  0.500000  1
  Ge  Ge7  1  0.330489  0.663976  0.500000  1
  Os  Os8  1  0.004099  0.000000  0.000000  1
