# generated using pymatgen
data_Tb2TmZn(Ga3Co4)2
_symmetry_space_group_name_H-M   'P 1'
_cell_length_a   4.06997600
_cell_length_b   8.81860016
_cell_length_c   8.81860131
_cell_angle_alpha   59.09010385
_cell_angle_beta   90.00000000
_cell_angle_gamma   90.00000000
_symmetry_Int_Tables_number   1
_chemical_formula_structural   Tb2TmZn(Ga3Co4)2
_chemical_formula_sum   'Tb2 Tm1 Zn1 Ga6 Co8'
_cell_volume   271.56040421
_cell_formula_units_Z   1
loop_
 _symmetry_equiv_pos_site_id
 _symmetry_equiv_pos_as_xyz
  1  'x, y, z'
loop_
 _atom_site_type_symbol
 _atom_site_label
 _atom_site_symmetry_multiplicity
 _atom_site_fract_x
 _atom_site_fract_y
 _atom_site_fract_z
 _atom_site_occupancy
  Tb  Tb0  1  0.500000  0.332050  0.327034  1
  Tb  Tb1  1  0.500000  0.672966  0.667950  1
  Tm  Tm2  1  0.000000  0.000667  0.999333  1
  Zn  Zn3  1  0.500000  0.295162  0.704838  1
  Ga  Ga4  1  0.000000  0.497041  0.502959  1
  Ga  Ga5  1  0.000000  0.505521  0.001735  1
  Ga  Ga6  1  0.000000  0.998265  0.494479  1
  Ga  Ga7  1  0.500000  0.729481  0.270519  1
  Ga  Ga8  1  0.500000  0.271045  0.007139  1
  Ga  Ga9  1  0.500000  0.992861  0.728955  1
  Co  Co10  1  0.000000  0.179136  0.179702  1
  Co  Co11  1  0.000000  0.177807  0.633278  1
  Co  Co12  1  0.000000  0.643039  0.178976  1
  Co  Co13  1  0.000000  0.820298  0.820864  1
  Co  Co14  1  0.000000  0.366722  0.822193  1
  Co  Co15  1  0.000000  0.821024  0.356961  1
  Co  Co16  1  0.500000  0.701155  0.004338  1
  Co  Co17  1  0.500000  0.995662  0.298845  1
