# generated using pymatgen
data_Er5Ga2Te
_symmetry_space_group_name_H-M   'P 1'
_cell_length_a   8.62216408
_cell_length_b   8.62012145
_cell_length_c   6.39338800
_cell_angle_alpha   90.00000000
_cell_angle_beta   90.00000000
_cell_angle_gamma   119.99216745
_symmetry_Int_Tables_number   1
_chemical_formula_structural   Er5Ga2Te
_chemical_formula_sum   'Er10 Ga4 Te2'
_cell_volume   411.55286835
_cell_formula_units_Z   2
loop_
 _symmetry_equiv_pos_site_id
 _symmetry_equiv_pos_as_xyz
  1  'x, y, z'
loop_
 _atom_site_type_symbol
 _atom_site_label
 _atom_site_symmetry_multiplicity
 _atom_site_fract_x
 _atom_site_fract_y
 _atom_site_fract_z
 _atom_site_occupancy
  Er  Er0  1  0.986417  0.751498  0.750000  1
  Er  Er1  1  0.986417  0.234919  0.250000  1
  Er  Er2  1  0.767712  0.766588  0.250000  1
  Er  Er3  1  0.767712  0.001124  0.750000  1
  Er  Er4  1  0.233097  0.249541  0.750000  1
  Er  Er5  1  0.233097  0.983556  0.250000  1
  Er  Er6  1  0.330000  0.665000  0.500000  1
  Er  Er7  1  0.685850  0.342925  0.000000  1
  Er  Er8  1  0.685850  0.342925  0.500000  1
  Er  Er9  1  0.330000  0.665000  0.000000  1
  Ga  Ga10  1  0.003607  0.603281  0.250000  1
  Ga  Ga11  1  0.003607  0.400326  0.750000  1
  Ga  Ga12  1  0.600713  0.603182  0.750000  1
  Ga  Ga13  1  0.600713  0.997531  0.250000  1
  Te  Te14  1  0.392604  0.004822  0.750000  1
  Te  Te15  1  0.392604  0.387782  0.250000  1
