# generated using pymatgen
data_Ho4Ga2(TcRu)3
_symmetry_space_group_name_H-M   'P 1'
_cell_length_a   5.30071154
_cell_length_b   5.28131818
_cell_length_c   9.00049600
_cell_angle_alpha   90.00000000
_cell_angle_beta   90.00000000
_cell_angle_gamma   119.86218555
_symmetry_Int_Tables_number   1
_chemical_formula_structural   Ho4Ga2(TcRu)3
_chemical_formula_sum   'Ho4 Ga2 Tc3 Ru3'
_cell_volume   218.51186019
_cell_formula_units_Z   1
loop_
 _symmetry_equiv_pos_site_id
 _symmetry_equiv_pos_as_xyz
  1  'x, y, z'
loop_
 _atom_site_type_symbol
 _atom_site_label
 _atom_site_symmetry_multiplicity
 _atom_site_fract_x
 _atom_site_fract_y
 _atom_site_fract_z
 _atom_site_occupancy
  Ho  Ho0  1  0.666922  0.333276  0.562285  1
  Ho  Ho1  1  0.339267  0.670091  0.439726  1
  Ho  Ho2  1  0.339267  0.670091  0.060274  1
  Ho  Ho3  1  0.666922  0.333276  0.937715  1
  Ga  Ga4  1  0.827257  0.660218  0.250000  1
  Ga  Ga5  1  0.828964  0.167121  0.250000  1
  Tc  Tc6  1  0.165557  0.336214  0.750000  1
  Tc  Tc7  1  0.166286  0.829904  0.750000  1
  Tc  Tc8  1  0.650830  0.824601  0.750000  1
  Ru  Ru9  1  0.007614  0.004137  0.497919  1
  Ru  Ru10  1  0.007614  0.004137  0.002081  1
  Ru  Ru11  1  0.333498  0.166934  0.250000  1
