# generated using pymatgen
data_TmScAlB6
_symmetry_space_group_name_H-M   'P 1'
_cell_length_a   3.48369500
_cell_length_b   9.02198700
_cell_length_c   11.35944900
_cell_angle_alpha   90.00000000
_cell_angle_beta   90.00000000
_cell_angle_gamma   90.00000000
_symmetry_Int_Tables_number   1
_chemical_formula_structural   TmScAlB6
_chemical_formula_sum   'Tm4 Sc4 Al4 B24'
_cell_volume   357.02578953
_cell_formula_units_Z   4
loop_
 _symmetry_equiv_pos_site_id
 _symmetry_equiv_pos_as_xyz
  1  'x, y, z'
loop_
 _atom_site_type_symbol
 _atom_site_label
 _atom_site_symmetry_multiplicity
 _atom_site_fract_x
 _atom_site_fract_y
 _atom_site_fract_z
 _atom_site_occupancy
  Tm  Tm0  1  0.000000  0.820830  0.085641  1
  Tm  Tm1  1  0.000000  0.179170  0.914359  1
  Tm  Tm2  1  0.000000  0.320830  0.414359  1
  Tm  Tm3  1  0.000000  0.679170  0.585641  1
  Sc  Sc4  1  0.000000  0.444337  0.128068  1
  Sc  Sc5  1  0.000000  0.555663  0.871932  1
  Sc  Sc6  1  0.000000  0.944337  0.371932  1
  Sc  Sc7  1  0.000000  0.055663  0.628068  1
  Al  Al8  1  0.000000  0.141812  0.181568  1
  Al  Al9  1  0.000000  0.858188  0.818432  1
  Al  Al10  1  0.000000  0.641812  0.318432  1
  Al  Al11  1  0.000000  0.358188  0.681568  1
  B  B12  1  0.500000  0.051594  0.064568  1
  B  B13  1  0.500000  0.948406  0.935432  1
  B  B14  1  0.500000  0.551594  0.435432  1
  B  B15  1  0.500000  0.448406  0.564568  1
  B  B16  1  0.500000  0.254914  0.080268  1
  B  B17  1  0.500000  0.745086  0.919732  1
  B  B18  1  0.500000  0.754914  0.419732  1
  B  B19  1  0.500000  0.245086  0.580268  1
  B  B20  1  0.500000  0.298008  0.237169  1
  B  B21  1  0.500000  0.701992  0.762831  1
  B  B22  1  0.500000  0.798008  0.262831  1
  B  B23  1  0.500000  0.201992  0.737169  1
  B  B24  1  0.500000  0.129647  0.318926  1
  B  B25  1  0.500000  0.870353  0.681074  1
  B  B26  1  0.500000  0.629647  0.181074  1
  B  B27  1  0.500000  0.370353  0.818926  1
  B  B28  1  0.500000  0.479260  0.286508  1
  B  B29  1  0.500000  0.520740  0.713492  1
  B  B30  1  0.500000  0.979260  0.213492  1
  B  B31  1  0.500000  0.020740  0.786508  1
  B  B32  1  0.500000  0.098077  0.473307  1
  B  B33  1  0.500000  0.901923  0.526693  1
  B  B34  1  0.500000  0.598077  0.026693  1
  B  B35  1  0.500000  0.401923  0.973307  1
