# generated using pymatgen
data_TbPr19Si15Cl
_symmetry_space_group_name_H-M   'P 1'
_cell_length_a   7.95962573
_cell_length_b   7.89202053
_cell_length_c   15.29921760
_cell_angle_alpha   89.52986908
_cell_angle_beta   89.16194534
_cell_angle_gamma   90.73415846
_symmetry_Int_Tables_number   1
_chemical_formula_structural   TbPr19Si15Cl
_chemical_formula_sum   'Tb1 Pr19 Si15 Cl1'
_cell_volume   960.84351077
_cell_formula_units_Z   1
loop_
 _symmetry_equiv_pos_site_id
 _symmetry_equiv_pos_as_xyz
  1  'x, y, z'
loop_
 _atom_site_type_symbol
 _atom_site_label
 _atom_site_symmetry_multiplicity
 _atom_site_fract_x
 _atom_site_fract_y
 _atom_site_fract_z
 _atom_site_occupancy
  Tb  Tb0  1  0.312926  0.310647  0.998790  1
  Pr  Pr1  1  0.186956  0.806353  0.249319  1
  Pr  Pr2  1  0.796073  0.189422  0.753014  1
  Pr  Pr3  1  0.688067  0.687569  0.497713  1
  Pr  Pr4  1  0.381525  0.003431  0.442287  1
  Pr  Pr5  1  0.499330  0.861242  0.701019  1
  Pr  Pr6  1  0.510680  0.122409  0.196761  1
  Pr  Pr7  1  0.874003  0.483417  0.299709  1
  Pr  Pr8  1  0.123779  0.518154  0.801972  1
  Pr  Pr9  1  0.634527  0.986818  0.952772  1
  Pr  Pr10  1  0.996179  0.382235  0.546575  1
  Pr  Pr11  1  0.994195  0.623782  0.051905  1
  Pr  Pr12  1  0.141639  0.990485  0.873441  1
  Pr  Pr13  1  0.518114  0.630562  0.124810  1
  Pr  Pr14  1  0.474574  0.362211  0.631636  1
  Pr  Pr15  1  0.636520  0.520441  0.876503  1
  Pr  Pr16  1  0.366757  0.477299  0.375746  1
  Pr  Pr17  1  0.871197  0.019280  0.377302  1
  Pr  Pr18  1  0.984405  0.126195  0.123177  1
  Pr  Pr19  1  0.018777  0.874025  0.622031  1
  Si  Si20  1  0.333431  0.696891  0.949014  1
  Si  Si21  1  0.660276  0.303217  0.453949  1
  Si  Si22  1  0.700912  0.335265  0.050557  1
  Si  Si23  1  0.302871  0.665036  0.552152  1
  Si  Si24  1  0.804034  0.831183  0.202624  1
  Si  Si25  1  0.167865  0.193600  0.296244  1
  Si  Si26  1  0.845044  0.804711  0.797885  1
  Si  Si27  1  0.289848  0.925476  0.057135  1
  Si  Si28  1  0.575756  0.784082  0.308338  1
  Si  Si29  1  0.448743  0.209166  0.825993  1
  Si  Si30  1  0.790841  0.578580  0.687965  1
  Si  Si31  1  0.213089  0.421257  0.188003  1
  Si  Si32  1  0.704369  0.074186  0.561503  1
  Si  Si33  1  0.931513  0.292161  0.940613  1
  Si  Si34  1  0.076682  0.711425  0.441700  1
  Cl  Cl35  1  0.144502  0.197791  0.689849  1
