# generated using pymatgen
data_TbYPdPtO7
_symmetry_space_group_name_H-M   'P 1'
_cell_length_a   7.27687915
_cell_length_b   7.27120037
_cell_length_c   7.27687947
_cell_angle_alpha   60.02580749
_cell_angle_beta   60.01376948
_cell_angle_gamma   60.02581007
_symmetry_Int_Tables_number   1
_chemical_formula_structural   TbYPdPtO7
_chemical_formula_sum   'Tb2 Y2 Pd2 Pt2 O14'
_cell_volume   272.39302078
_cell_formula_units_Z   2
loop_
 _symmetry_equiv_pos_site_id
 _symmetry_equiv_pos_as_xyz
  1  'x, y, z'
loop_
 _atom_site_type_symbol
 _atom_site_label
 _atom_site_symmetry_multiplicity
 _atom_site_fract_x
 _atom_site_fract_y
 _atom_site_fract_z
 _atom_site_occupancy
  Tb  Tb0  1  0.125000  0.625000  0.125000  1
  Tb  Tb1  1  0.125000  0.125000  0.125000  1
  Y  Y2  1  0.125000  0.125000  0.625000  1
  Y  Y3  1  0.625000  0.125000  0.125000  1
  Pd  Pd4  1  0.125000  0.625000  0.625000  1
  Pd  Pd5  1  0.625000  0.625000  0.125000  1
  Pt  Pt6  1  0.625000  0.625000  0.625000  1
  Pt  Pt7  1  0.625000  0.125000  0.625000  1
  O  O8  1  0.286038  0.715413  0.714823  1
  O  O9  1  0.535177  0.966274  0.963962  1
  O  O10  1  0.714823  0.715413  0.286038  1
  O  O11  1  0.286038  0.283726  0.714823  1
  O  O12  1  0.999143  0.000857  0.999143  1
  O  O13  1  0.285176  0.714824  0.285176  1
  O  O14  1  0.715654  0.284346  0.715654  1
  O  O15  1  0.964824  0.535176  0.964824  1
  O  O16  1  0.535177  0.534587  0.963962  1
  O  O17  1  0.963962  0.966274  0.535177  1
  O  O18  1  0.250857  0.249143  0.250857  1
  O  O19  1  0.534346  0.965654  0.534346  1
  O  O20  1  0.714823  0.283726  0.286038  1
  O  O21  1  0.963962  0.534587  0.535177  1
