# generated using pymatgen
data_Dy2Lu4Al23VOs8
_symmetry_space_group_name_H-M   'P 1'
_cell_length_a   8.80962540
_cell_length_b   8.80977805
_cell_length_c   9.50152403
_cell_angle_alpha   90.00880742
_cell_angle_beta   89.99027247
_cell_angle_gamma   119.86615072
_symmetry_Int_Tables_number   1
_chemical_formula_structural   Dy2Lu4Al23VOs8
_chemical_formula_sum   'Dy2 Lu4 Al23 V1 Os8'
_cell_volume   639.48517625
_cell_formula_units_Z   1
loop_
 _symmetry_equiv_pos_site_id
 _symmetry_equiv_pos_as_xyz
  1  'x, y, z'
loop_
 _atom_site_type_symbol
 _atom_site_label
 _atom_site_symmetry_multiplicity
 _atom_site_fract_x
 _atom_site_fract_y
 _atom_site_fract_z
 _atom_site_occupancy
  Dy  Dy0  1  0.194236  0.805787  0.246406  1
  Dy  Dy1  1  0.808602  0.191376  0.750796  1
  Lu  Lu2  1  0.197948  0.396845  0.244072  1
  Lu  Lu3  1  0.805237  0.609931  0.750100  1
  Lu  Lu4  1  0.603193  0.802147  0.243993  1
  Lu  Lu5  1  0.390105  0.194838  0.750049  1
  Al  Al6  1  0.666829  0.333119  0.977660  1
  Al  Al7  1  0.666902  0.333121  0.519252  1
  Al  Al8  1  0.333386  0.666648  0.480927  1
  Al  Al9  1  0.162731  0.324258  0.575425  1
  Al  Al10  1  0.836683  0.674847  0.424564  1
  Al  Al11  1  0.675677  0.837258  0.575411  1
  Al  Al12  1  0.835197  0.671333  0.076768  1
  Al  Al13  1  0.325089  0.163313  0.424559  1
  Al  Al14  1  0.161408  0.320729  0.924770  1
  Al  Al15  1  0.162031  0.837932  0.576743  1
  Al  Al16  1  0.328613  0.164759  0.076798  1
  Al  Al17  1  0.837357  0.162623  0.423380  1
  Al  Al18  1  0.679213  0.838535  0.924772  1
  Al  Al19  1  0.835895  0.164128  0.077963  1
  Al  Al20  1  0.160583  0.839420  0.924158  1
  Al  Al21  1  0.562187  0.124359  0.253426  1
  Al  Al22  1  0.441355  0.882724  0.751554  1
  Al  Al23  1  0.875708  0.437834  0.253384  1
  Al  Al24  1  0.117310  0.558646  0.751507  1
  Al  Al25  1  0.561443  0.438607  0.253649  1
  Al  Al26  1  0.442032  0.558005  0.751762  1
  Al  Al27  1  0.996949  0.003081  0.250439  1
  Al  Al28  1  0.002944  0.997114  0.749835  1
  V  V29  1  0.333101  0.666848  0.985725  1
  Os  Os30  1  0.495962  0.991121  0.005592  1
  Os  Os31  1  0.008914  0.504203  0.005580  1
  Os  Os32  1  0.499249  0.999150  0.504156  1
  Os  Os33  1  0.495471  0.504639  0.005659  1
  Os  Os34  1  0.000836  0.500626  0.504142  1
  Os  Os35  1  0.499804  0.500243  0.504543  1
  Os  Os36  1  0.000027  0.999816  0.000829  1
  Os  Os37  1  0.999791  0.000036  0.499647  1
