# generated using pymatgen
data_LiLa8(Ir2Pt)2
_symmetry_space_group_name_H-M   'P 1'
_cell_length_a   7.74142557
_cell_length_b   7.76107094
_cell_length_c   7.74782000
_cell_angle_alpha   69.75885243
_cell_angle_beta   69.74235901
_cell_angle_gamma   69.63522083
_symmetry_Int_Tables_number   1
_chemical_formula_structural   LiLa8(Ir2Pt)2
_chemical_formula_sum   'Li1 La8 Ir4 Pt2'
_cell_volume   395.72965224
_cell_formula_units_Z   1
loop_
 _symmetry_equiv_pos_site_id
 _symmetry_equiv_pos_as_xyz
  1  'x, y, z'
loop_
 _atom_site_type_symbol
 _atom_site_label
 _atom_site_symmetry_multiplicity
 _atom_site_fract_x
 _atom_site_fract_y
 _atom_site_fract_z
 _atom_site_occupancy
  Li  Li0  1  0.001519  0.999880  0.001049  1
  La  La1  1  0.812777  0.808611  0.811700  1
  La  La2  1  0.182684  0.187673  0.180928  1
  La  La3  1  0.141613  0.385647  0.687600  1
  La  La4  1  0.684439  0.140130  0.383999  1
  La  La5  1  0.379762  0.682684  0.138005  1
  La  La6  1  0.867484  0.616628  0.313015  1
  La  La7  1  0.316572  0.857420  0.621901  1
  La  La8  1  0.612320  0.320640  0.862809  1
  Ir  Ir9  1  0.186780  0.572657  0.948870  1
  Ir  Ir10  1  0.051803  0.815027  0.425118  1
  Ir  Ir11  1  0.427177  0.053615  0.811710  1
  Ir  Ir12  1  0.811514  0.424594  0.054293  1
  Pt  Pt13  1  0.948849  0.185498  0.575488  1
  Pt  Pt14  1  0.574707  0.949300  0.183513  1
