# generated using pymatgen
data_Np3InO10
_symmetry_space_group_name_H-M   'P 1'
_cell_length_a   5.65622440
_cell_length_b   5.70332082
_cell_length_c   7.80092384
_cell_angle_alpha   69.53200511
_cell_angle_beta   71.00908049
_cell_angle_gamma   72.49403085
_symmetry_Int_Tables_number   1
_chemical_formula_structural   Np3InO10
_chemical_formula_sum   'Np3 In1 O10'
_cell_volume   217.90795177
_cell_formula_units_Z   1
loop_
 _symmetry_equiv_pos_site_id
 _symmetry_equiv_pos_as_xyz
  1  'x, y, z'
loop_
 _atom_site_type_symbol
 _atom_site_label
 _atom_site_symmetry_multiplicity
 _atom_site_fract_x
 _atom_site_fract_y
 _atom_site_fract_z
 _atom_site_occupancy
  Np  Np0  1  0.965221  0.026917  0.265873  1
  Np  Np1  1  0.500000  0.500000  0.000000  1
  Np  Np2  1  0.034779  0.973083  0.734127  1
  In  In3  1  0.500000  0.500000  0.500000  1
  O  O4  1  0.404394  0.592967  0.760529  1
  O  O5  1  0.258962  0.197213  0.633912  1
  O  O6  1  0.741038  0.802787  0.366088  1
  O  O7  1  0.192917  0.253888  0.146152  1
  O  O8  1  0.595606  0.407033  0.239471  1
  O  O9  1  0.807083  0.746112  0.853848  1
  O  O10  1  0.216400  0.799047  0.043659  1
  O  O11  1  0.818176  0.195026  0.529028  1
  O  O12  1  0.783600  0.200953  0.956341  1
  O  O13  1  0.181824  0.804974  0.470972  1
