# generated using pymatgen
data_TbDy10YCo5Bi
_symmetry_space_group_name_H-M   'P 1'
_cell_length_a   8.32490996
_cell_length_b   8.32491028
_cell_length_c   8.31476292
_cell_angle_alpha   110.74365221
_cell_angle_beta   110.72615337
_cell_angle_gamma   107.02409083
_symmetry_Int_Tables_number   1
_chemical_formula_structural   TbDy10YCo5Bi
_chemical_formula_sum   'Tb1 Dy10 Y1 Co5 Bi1'
_cell_volume   442.69578986
_cell_formula_units_Z   1
loop_
 _symmetry_equiv_pos_site_id
 _symmetry_equiv_pos_as_xyz
  1  'x, y, z'
loop_
 _atom_site_type_symbol
 _atom_site_label
 _atom_site_symmetry_multiplicity
 _atom_site_fract_x
 _atom_site_fract_y
 _atom_site_fract_z
 _atom_site_occupancy
  Tb  Tb0  1  0.816057  0.710127  0.526184  1
  Dy  Dy1  1  0.183280  0.709855  0.893134  1
  Dy  Dy2  1  0.816404  0.290839  0.107244  1
  Dy  Dy3  1  0.689123  0.378964  0.690747  1
  Dy  Dy4  1  0.311753  0.621359  0.309784  1
  Dy  Dy5  1  0.688425  0.998031  0.309784  1
  Dy  Dy6  1  0.311783  0.001625  0.690747  1
  Dy  Dy7  1  0.601306  0.795377  0.806398  1
  Dy  Dy8  1  0.400564  0.205575  0.194514  1
  Dy  Dy9  1  0.988940  0.793949  0.194514  1
  Dy  Dy10  1  0.011021  0.205093  0.806398  1
  Y  Y11  1  0.184809  0.289905  0.474715  1
  Co  Co12  1  0.623034  0.999281  0.622315  1
  Co  Co13  1  0.376730  0.000517  0.377248  1
  Co  Co14  1  0.109473  0.611665  0.498747  1
  Co  Co15  1  0.887082  0.389274  0.498747  1
  Co  Co16  1  0.000667  0.998762  0.999428  1
  Bi  Bi17  1  0.499549  0.499804  0.999353  1
