# generated using pymatgen
data_Tb11Dy5Cd4CoRu3
_symmetry_space_group_name_H-M   'P 1'
_cell_length_a   9.65862964
_cell_length_b   9.65716659
_cell_length_c   9.58670252
_cell_angle_alpha   59.62561988
_cell_angle_beta   59.62929696
_cell_angle_gamma   59.84720495
_symmetry_Int_Tables_number   1
_chemical_formula_structural   Tb11Dy5Cd4CoRu3
_chemical_formula_sum   'Tb11 Dy5 Cd4 Co1 Ru3'
_cell_volume   627.98982494
_cell_formula_units_Z   1
loop_
 _symmetry_equiv_pos_site_id
 _symmetry_equiv_pos_as_xyz
  1  'x, y, z'
loop_
 _atom_site_type_symbol
 _atom_site_label
 _atom_site_symmetry_multiplicity
 _atom_site_fract_x
 _atom_site_fract_y
 _atom_site_fract_z
 _atom_site_occupancy
  Tb  Tb0  1  0.815453  0.187040  0.810235  1
  Tb  Tb1  1  0.439688  0.060560  0.437879  1
  Tb  Tb2  1  0.593955  0.211274  0.601199  1
  Tb  Tb3  1  0.811145  0.811419  0.188529  1
  Tb  Tb4  1  0.211357  0.594290  0.600865  1
  Tb  Tb5  1  0.810208  0.190145  0.189805  1
  Tb  Tb6  1  0.060598  0.439824  0.437931  1
  Tb  Tb7  1  0.190147  0.810431  0.189386  1
  Tb  Tb8  1  0.595875  0.596307  0.210525  1
  Tb  Tb9  1  0.188071  0.187587  0.810456  1
  Tb  Tb10  1  0.065159  0.438799  0.057271  1
  Dy  Dy11  1  0.438295  0.438230  0.057354  1
  Dy  Dy12  1  0.594864  0.594919  0.601556  1
  Dy  Dy13  1  0.187440  0.815192  0.810226  1
  Dy  Dy14  1  0.061092  0.060766  0.436491  1
  Dy  Dy15  1  0.438820  0.064809  0.057618  1
  Cd  Cd16  1  0.830094  0.830188  0.508452  1
  Cd  Cd17  1  0.830468  0.830360  0.829078  1
  Cd  Cd18  1  0.508638  0.829921  0.829490  1
  Cd  Cd19  1  0.829838  0.508843  0.829443  1
  Co  Co20  1  0.390550  0.390927  0.830394  1
  Ru  Ru21  1  0.388293  0.388264  0.390397  1
  Ru  Ru22  1  0.830681  0.389194  0.392665  1
  Ru  Ru23  1  0.389268  0.830710  0.392754  1
