# generated using pymatgen
data_Sc3Zn3CuSi2
_symmetry_space_group_name_H-M   'P 1'
_cell_length_a   6.45688000
_cell_length_b   6.45687991
_cell_length_c   4.01470800
_cell_angle_alpha   90.00000000
_cell_angle_beta   90.00000000
_cell_angle_gamma   120.00000048
_symmetry_Int_Tables_number   1
_chemical_formula_structural   Sc3Zn3CuSi2
_chemical_formula_sum   'Sc3 Zn3 Cu1 Si2'
_cell_volume   144.95393752
_cell_formula_units_Z   1
loop_
 _symmetry_equiv_pos_site_id
 _symmetry_equiv_pos_as_xyz
  1  'x, y, z'
loop_
 _atom_site_type_symbol
 _atom_site_label
 _atom_site_symmetry_multiplicity
 _atom_site_fract_x
 _atom_site_fract_y
 _atom_site_fract_z
 _atom_site_occupancy
  Sc  Sc0  1  0.422008  0.000000  0.500001  1
  Sc  Sc1  1  0.000000  0.422009  0.500001  1
  Sc  Sc2  1  0.577992  0.577992  0.500001  1
  Zn  Zn3  1  0.757937  0.000000  0.000000  1
  Zn  Zn4  1  0.242062  0.242062  0.000000  1
  Zn  Zn5  1  0.000000  0.757937  0.000000  1
  Cu  Cu6  1  0.000000  0.000000  0.500001  1
  Si  Si7  1  0.666666  0.333334  0.000000  1
  Si  Si8  1  0.333334  0.666667  0.000000  1
