# generated using pymatgen
data_Tb3Ho2Tm3(SiBr6)2
_symmetry_space_group_name_H-M   'P 1'
_cell_length_a   4.04283300
_cell_length_b   13.21305649
_cell_length_c   13.96764540
_cell_angle_alpha   90.02141444
_cell_angle_beta   90.00000000
_cell_angle_gamma   90.00000000
_symmetry_Int_Tables_number   1
_chemical_formula_structural   Tb3Ho2Tm3(SiBr6)2
_chemical_formula_sum   'Tb3 Ho2 Tm3 Si2 Br12'
_cell_volume   746.12615564
_cell_formula_units_Z   1
loop_
 _symmetry_equiv_pos_site_id
 _symmetry_equiv_pos_as_xyz
  1  'x, y, z'
loop_
 _atom_site_type_symbol
 _atom_site_label
 _atom_site_symmetry_multiplicity
 _atom_site_fract_x
 _atom_site_fract_y
 _atom_site_fract_z
 _atom_site_occupancy
  Tb  Tb0  1  0.000000  0.881897  0.421410  1
  Tb  Tb1  1  0.000000  0.618745  0.920894  1
  Tb  Tb2  1  0.000000  0.381146  0.078940  1
  Ho  Ho3  1  0.500000  0.382208  0.841645  1
  Ho  Ho4  1  0.000000  0.117924  0.578398  1
  Tm  Tm5  1  0.500000  0.117488  0.342190  1
  Tm  Tm6  1  0.500000  0.882761  0.657983  1
  Tm  Tm7  1  0.500000  0.617600  0.158206  1
  Si  Si8  1  0.500000  0.000828  0.500570  1
  Si  Si9  1  0.500000  0.500433  0.000600  1
  Br  Br10  1  0.500000  0.241924  0.165318  1
  Br  Br11  1  0.500000  0.758300  0.834884  1
  Br  Br12  1  0.500000  0.742467  0.335354  1
  Br  Br13  1  0.500000  0.255140  0.663046  1
  Br  Br14  1  0.000000  0.253953  0.410375  1
  Br  Br15  1  0.000000  0.745811  0.590940  1
  Br  Br16  1  0.000000  0.754501  0.091067  1
  Br  Br17  1  0.000000  0.244341  0.909801  1
  Br  Br18  1  0.000000  0.004611  0.243103  1
  Br  Br19  1  0.000000  0.996797  0.756094  1
  Br  Br20  1  0.000000  0.504646  0.257183  1
  Br  Br21  1  0.000000  0.496478  0.742002  1
