# generated using pymatgen
data_Tb2Th3Pb3C
_symmetry_space_group_name_H-M   'P 1'
_cell_length_a   9.35454700
_cell_length_b   9.35454832
_cell_length_c   6.57265500
_cell_angle_alpha   90.00000000
_cell_angle_beta   90.00000000
_cell_angle_gamma   120.00000594
_symmetry_Int_Tables_number   1
_chemical_formula_structural   Tb2Th3Pb3C
_chemical_formula_sum   'Tb4 Th6 Pb6 C2'
_cell_volume   498.10055576
_cell_formula_units_Z   2
loop_
 _symmetry_equiv_pos_site_id
 _symmetry_equiv_pos_as_xyz
  1  'x, y, z'
loop_
 _atom_site_type_symbol
 _atom_site_label
 _atom_site_symmetry_multiplicity
 _atom_site_fract_x
 _atom_site_fract_y
 _atom_site_fract_z
 _atom_site_occupancy
  Tb  Tb0  1  0.333333  0.666667  0.000000  1
  Tb  Tb1  1  0.666667  0.333333  0.000000  1
  Tb  Tb2  1  0.666667  0.333333  0.500000  1
  Tb  Tb3  1  0.333333  0.666667  0.500000  1
  Th  Th4  1  0.218988  0.000000  0.250000  1
  Th  Th5  1  0.781012  0.000000  0.750000  1
  Th  Th6  1  0.000000  0.218988  0.250000  1
  Th  Th7  1  0.000000  0.781012  0.750000  1
  Th  Th8  1  0.781012  0.781012  0.250000  1
  Th  Th9  1  0.218988  0.218988  0.750000  1
  Pb  Pb10  1  0.593656  0.000000  0.250000  1
  Pb  Pb11  1  0.406344  0.000000  0.750000  1
  Pb  Pb12  1  0.000000  0.593656  0.250000  1
  Pb  Pb13  1  0.000000  0.406344  0.750000  1
  Pb  Pb14  1  0.406344  0.406344  0.250000  1
  Pb  Pb15  1  0.593656  0.593656  0.750000  1
  C  C16  1  0.000000  0.000000  0.000000  1
  C  C17  1  0.000000  0.000000  0.500000  1
