# generated using pymatgen
data_Li2LaPr3(ZnPd2)2
_symmetry_space_group_name_H-M   'P 1'
_cell_length_a   7.35029059
_cell_length_b   4.17054500
_cell_length_c   8.58701212
_cell_angle_alpha   90.00000000
_cell_angle_beta   90.20942134
_cell_angle_gamma   90.00000000
_symmetry_Int_Tables_number   1
_chemical_formula_structural   Li2LaPr3(ZnPd2)2
_chemical_formula_sum   'Li2 La1 Pr3 Zn2 Pd4'
_cell_volume   263.23067394
_cell_formula_units_Z   1
loop_
 _symmetry_equiv_pos_site_id
 _symmetry_equiv_pos_as_xyz
  1  'x, y, z'
loop_
 _atom_site_type_symbol
 _atom_site_label
 _atom_site_symmetry_multiplicity
 _atom_site_fract_x
 _atom_site_fract_y
 _atom_site_fract_z
 _atom_site_occupancy
  Li  Li0  1  0.373969  0.750000  0.443315  1
  Li  Li1  1  0.871806  0.750000  0.056683  1
  La  La2  1  0.452462  0.750000  0.813601  1
  Pr  Pr3  1  0.043103  0.250000  0.307901  1
  Pr  Pr4  1  0.542365  0.250000  0.194163  1
  Pr  Pr5  1  0.954088  0.750000  0.686171  1
  Zn  Zn6  1  0.636119  0.250000  0.563441  1
  Zn  Zn7  1  0.127531  0.250000  0.935879  1
  Pd  Pd8  1  0.255258  0.250000  0.619156  1
  Pd  Pd9  1  0.750427  0.250000  0.882359  1
  Pd  Pd10  1  0.748126  0.750000  0.385540  1
  Pd  Pd11  1  0.244746  0.750000  0.111791  1
