# generated using pymatgen
data_Ac7PrTe8
_symmetry_space_group_name_H-M   'P 1'
_cell_length_a   9.41583419
_cell_length_b   9.42071043
_cell_length_c   9.42071100
_cell_angle_alpha   60.00000852
_cell_angle_beta   59.98287585
_cell_angle_gamma   59.98287494
_symmetry_Int_Tables_number   1
_chemical_formula_structural   Ac7PrTe8
_chemical_formula_sum   'Ac7 Pr1 Te8'
_cell_volume   590.74316786
_cell_formula_units_Z   1
loop_
 _symmetry_equiv_pos_site_id
 _symmetry_equiv_pos_as_xyz
  1  'x, y, z'
loop_
 _atom_site_type_symbol
 _atom_site_label
 _atom_site_symmetry_multiplicity
 _atom_site_fract_x
 _atom_site_fract_y
 _atom_site_fract_z
 _atom_site_occupancy
  Ac  Ac0  1  0.125000  0.625000  0.125000  1
  Ac  Ac1  1  0.125000  0.125000  0.625000  1
  Ac  Ac2  1  0.625000  0.125000  0.125000  1
  Ac  Ac3  1  0.125000  0.125000  0.125000  1
  Ac  Ac4  1  0.625000  0.125000  0.625000  1
  Ac  Ac5  1  0.625000  0.625000  0.625000  1
  Ac  Ac6  1  0.625000  0.625000  0.125000  1
  Pr  Pr7  1  0.125000  0.625000  0.625000  1
  Te  Te8  1  0.370833  0.870909  0.379129  1
  Te  Te9  1  0.879167  0.379091  0.870871  1
  Te  Te10  1  0.879167  0.870871  0.379091  1
  Te  Te11  1  0.879167  0.870871  0.870871  1
  Te  Te12  1  0.874896  0.375034  0.375034  1
  Te  Te13  1  0.370833  0.379129  0.870909  1
  Te  Te14  1  0.370833  0.379129  0.379129  1
  Te  Te15  1  0.375104  0.874966  0.874966  1
