# generated using pymatgen
data_Ta12Mn3Al8VC4
_symmetry_space_group_name_H-M   'P 1'
_cell_length_a   8.27074228
_cell_length_b   8.27074248
_cell_length_c   8.25910110
_cell_angle_alpha   59.95336721
_cell_angle_beta   59.95336718
_cell_angle_gamma   59.99999925
_symmetry_Int_Tables_number   1
_chemical_formula_structural   Ta12Mn3Al8VC4
_chemical_formula_sum   'Ta12 Mn3 Al8 V1 C4'
_cell_volume   399.20897353
_cell_formula_units_Z   1
loop_
 _symmetry_equiv_pos_site_id
 _symmetry_equiv_pos_as_xyz
  1  'x, y, z'
loop_
 _atom_site_type_symbol
 _atom_site_label
 _atom_site_symmetry_multiplicity
 _atom_site_fract_x
 _atom_site_fract_y
 _atom_site_fract_z
 _atom_site_occupancy
  Ta  Ta0  1  0.554944  0.944143  0.556770  1
  Ta  Ta1  1  0.305857  0.695056  0.693230  1
  Ta  Ta2  1  0.693275  0.306959  0.306491  1
  Ta  Ta3  1  0.306959  0.693275  0.306491  1
  Ta  Ta4  1  0.693275  0.693275  0.306491  1
  Ta  Ta5  1  0.305857  0.305857  0.693230  1
  Ta  Ta6  1  0.556725  0.556725  0.943509  1
  Ta  Ta7  1  0.944143  0.554944  0.556770  1
  Ta  Ta8  1  0.556725  0.943041  0.943509  1
  Ta  Ta9  1  0.944143  0.944143  0.556770  1
  Ta  Ta10  1  0.695056  0.305857  0.693230  1
  Ta  Ta11  1  0.943041  0.556725  0.943509  1
  Mn  Mn12  1  0.125000  0.125000  0.125000  1
  Mn  Mn13  1  0.625000  0.125000  0.125000  1
  Mn  Mn14  1  0.125000  0.625000  0.125000  1
  Al  Al15  1  0.913911  0.913911  0.920452  1
  Al  Al16  1  0.998274  0.336089  0.329548  1
  Al  Al17  1  0.336089  0.998274  0.329548  1
  Al  Al18  1  0.333562  0.333562  0.999313  1
  Al  Al19  1  0.913911  0.251726  0.920452  1
  Al  Al20  1  0.916438  0.916438  0.250687  1
  Al  Al21  1  0.251726  0.913911  0.920452  1
  Al  Al22  1  0.336089  0.336089  0.329548  1
  V  V23  1  0.125000  0.125000  0.625000  1
  C  C24  1  0.625000  0.625000  0.625000  1
  C  C25  1  0.125000  0.625000  0.625000  1
  C  C26  1  0.625000  0.125000  0.625000  1
  C  C27  1  0.625000  0.625000  0.125000  1
