# generated using pymatgen
data_Li11Pr12Ag(TeO6)8
_symmetry_space_group_name_H-M   'P 1'
_cell_length_a   11.10632211
_cell_length_b   11.10631701
_cell_length_c   11.10632051
_cell_angle_alpha   109.43279662
_cell_angle_beta   109.54829173
_cell_angle_gamma   109.43281562
_symmetry_Int_Tables_number   1
_chemical_formula_structural   Li11Pr12Ag(TeO6)8
_chemical_formula_sum   'Li11 Pr12 Ag1 Te8 O48'
_cell_volume   1054.59790305
_cell_formula_units_Z   1
loop_
 _symmetry_equiv_pos_site_id
 _symmetry_equiv_pos_as_xyz
  1  'x, y, z'
loop_
 _atom_site_type_symbol
 _atom_site_label
 _atom_site_symmetry_multiplicity
 _atom_site_fract_x
 _atom_site_fract_y
 _atom_site_fract_z
 _atom_site_occupancy
  Li  Li0  1  0.249199  0.874440  0.124678  1
  Li  Li1  1  0.875321  0.124519  0.249760  1
  Li  Li2  1  0.375228  0.624395  0.250975  1
  Li  Li3  1  0.750239  0.625560  0.374759  1
  Li  Li4  1  0.625001  0.250002  0.375002  1
  Li  Li5  1  0.374999  0.749998  0.624998  1
  Li  Li6  1  0.249170  0.375750  0.624774  1
  Li  Li7  1  0.126580  0.875606  0.750832  1
  Li  Li8  1  0.625239  0.375480  0.750801  1
  Li  Li9  1  0.124998  0.249998  0.874998  1
  Li  Li10  1  0.749027  0.124253  0.873422  1
  Pr  Pr11  1  0.749849  0.373048  0.124716  1
  Pr  Pr12  1  0.376268  0.250001  0.126268  1
  Pr  Pr13  1  0.623196  0.874865  0.250150  1
  Pr  Pr14  1  0.125412  0.374687  0.250367  1
  Pr  Pr15  1  0.251669  0.126953  0.376802  1
  Pr  Pr16  1  0.126537  0.750000  0.376537  1
  Pr  Pr17  1  0.749632  0.875045  0.624319  1
  Pr  Pr18  1  0.873734  0.250000  0.623733  1
  Pr  Pr19  1  0.375680  0.125312  0.750725  1
  Pr  Pr20  1  0.875284  0.625133  0.748331  1
  Pr  Pr21  1  0.249275  0.624955  0.874587  1
  Pr  Pr22  1  0.623463  0.750000  0.873463  1
  Ag  Ag23  1  0.875001  0.750001  0.125000  1
  Te  Te24  1  0.002031  0.004414  0.995276  1
  Te  Te25  1  0.500282  0.000021  0.000380  1
  Te  Te26  1  0.490862  0.495586  0.997617  1
  Te  Te27  1  0.002383  0.493245  0.997969  1
  Te  Te28  1  0.004724  0.006755  0.509138  1
  Te  Te29  1  0.500360  0.499980  0.500261  1
  Te  Te30  1  0.499741  0.000099  0.499721  1
  Te  Te31  1  0.999622  0.499901  0.499641  1
  O  O32  1  0.908683  0.322570  0.018370  1
  O  O33  1  0.119784  0.196815  0.023425  1
  O  O34  1  0.405663  0.883283  0.075318  1
  O  O35  1  0.649004  0.694163  0.074128  1
  O  O36  1  0.670323  0.978911  0.094540  1
  O  O37  1  0.413888  0.609688  0.091316  1
  O  O38  1  0.925872  0.574876  0.120034  1
  O  O39  1  0.191394  0.022570  0.114594  1
  O  O40  1  0.575707  0.191020  0.170348  1
  O  O41  1  0.592026  0.477432  0.168825  1
  O  O42  1  0.172699  0.572741  0.190800  1
  O  O43  1  0.020011  0.113040  0.187437  1
  O  O44  1  0.384622  0.478048  0.309044  1
  O  O45  1  0.924681  0.330345  0.307964  1
  O  O46  1  0.308587  0.924217  0.329678  1
  O  O47  1  0.045160  0.925125  0.350997  1
  O  O48  1  0.905461  0.575783  0.384371  1
  O  O49  1  0.479330  0.308982  0.384688  1
  O  O50  1  0.522121  0.830328  0.405895  1
  O  O51  1  0.885406  0.076800  0.407975  1
  O  O52  1  0.812563  0.832574  0.425603  1
  O  O53  1  0.615312  0.094642  0.424293  1
  O  O54  1  0.308206  0.383774  0.477877  1
  O  O55  1  0.169956  0.594661  0.478405  1
  O  O56  1  0.692036  0.616718  0.522380  1
  O  O57  1  0.829651  0.405357  0.520670  1
  O  O58  1  0.195801  0.177429  0.586113  1
  O  O59  1  0.383745  0.905340  0.575295  1
  O  O60  1  0.118058  0.927258  0.599958  1
  O  O61  1  0.477621  0.169656  0.594338  1
  O  O62  1  0.521596  0.691551  0.616255  1
  O  O63  1  0.093426  0.424422  0.615377  1
  O  O64  1  0.976576  0.096360  0.673390  1
  O  O65  1  0.690956  0.075577  0.669003  1
  O  O66  1  0.615629  0.521091  0.691412  1
  O  O67  1  0.075568  0.669671  0.691794  1
  O  O68  1  0.981629  0.890312  0.804199  1
  O  O69  1  0.831174  0.423200  0.808605  1
  O  O70  1  0.400041  0.518099  0.827299  1
  O  O71  1  0.424705  0.808450  0.830045  1
  O  O72  1  0.809200  0.981900  0.881942  1
  O  O73  1  0.077031  0.403641  0.880216  1
  O  O74  1  0.574398  0.386961  0.906971  1
  O  O75  1  0.330996  0.021951  0.906573  1
  O  O76  1  0.326611  0.303185  0.922969  1
  O  O77  1  0.594104  0.116226  0.924432  1
  O  O78  1  0.093030  0.667427  0.979990  1
  O  O79  1  0.879965  0.805837  0.954840  1
