# generated using pymatgen
data_Tb3YCdHgPd4
_symmetry_space_group_name_H-M   'P 1'
_cell_length_a   3.77061300
_cell_length_b   7.71590966
_cell_length_c   7.71355465
_cell_angle_alpha   89.77664625
_cell_angle_beta   90.00000000
_cell_angle_gamma   90.00000000
_symmetry_Int_Tables_number   1
_chemical_formula_structural   Tb3YCdHgPd4
_chemical_formula_sum   'Tb3 Y1 Cd1 Hg1 Pd4'
_cell_volume   224.41421125
_cell_formula_units_Z   1
loop_
 _symmetry_equiv_pos_site_id
 _symmetry_equiv_pos_as_xyz
  1  'x, y, z'
loop_
 _atom_site_type_symbol
 _atom_site_label
 _atom_site_symmetry_multiplicity
 _atom_site_fract_x
 _atom_site_fract_y
 _atom_site_fract_z
 _atom_site_occupancy
  Tb  Tb0  1  0.500000  0.840663  0.316680  1
  Tb  Tb1  1  0.500000  0.316464  0.159423  1
  Tb  Tb2  1  0.500000  0.683715  0.840384  1
  Y  Y3  1  0.500000  0.159507  0.683516  1
  Cd  Cd4  1  0.000000  0.499606  0.500294  1
  Hg  Hg5  1  0.000000  0.000298  0.999799  1
  Pd  Pd6  1  0.000000  0.618560  0.140305  1
  Pd  Pd7  1  0.000000  0.382192  0.860480  1
  Pd  Pd8  1  0.000000  0.859117  0.618127  1
  Pd  Pd9  1  0.000000  0.139878  0.380993  1
