# generated using pymatgen
data_HoLuMgB2Rh5
_symmetry_space_group_name_H-M   'P 1'
_cell_length_a   9.59284563
_cell_length_b   9.59284563
_cell_length_c   3.17325700
_cell_angle_alpha   90.00000000
_cell_angle_beta   90.00000000
_cell_angle_gamma   90.39721333
_symmetry_Int_Tables_number   1
_chemical_formula_structural   HoLuMgB2Rh5
_chemical_formula_sum   'Ho2 Lu2 Mg2 B4 Rh10'
_cell_volume   292.00461935
_cell_formula_units_Z   2
loop_
 _symmetry_equiv_pos_site_id
 _symmetry_equiv_pos_as_xyz
  1  'x, y, z'
loop_
 _atom_site_type_symbol
 _atom_site_label
 _atom_site_symmetry_multiplicity
 _atom_site_fract_x
 _atom_site_fract_y
 _atom_site_fract_z
 _atom_site_occupancy
  Ho  Ho0  1  0.175878  0.324122  0.000000  1
  Ho  Ho1  1  0.824122  0.675878  0.000000  1
  Lu  Lu2  1  0.675550  0.175550  0.000000  1
  Lu  Lu3  1  0.324450  0.824450  0.000000  1
  Mg  Mg4  1  0.000000  0.000000  0.000000  1
  Mg  Mg5  1  0.500000  0.500000  0.000000  1
  B  B6  1  0.123282  0.623282  0.000000  1
  B  B7  1  0.876718  0.376718  0.000000  1
  B  B8  1  0.622559  0.877441  0.000000  1
  B  B9  1  0.377441  0.122559  0.000000  1
  Rh  Rh10  1  0.500000  0.000000  0.500000  1
  Rh  Rh11  1  0.000000  0.500000  0.500000  1
  Rh  Rh12  1  0.224362  0.068423  0.500000  1
  Rh  Rh13  1  0.775638  0.931577  0.500000  1
  Rh  Rh14  1  0.072455  0.777423  0.500000  1
  Rh  Rh15  1  0.722577  0.427545  0.500000  1
  Rh  Rh16  1  0.927545  0.222577  0.500000  1
  Rh  Rh17  1  0.277423  0.572455  0.500000  1
  Rh  Rh18  1  0.568423  0.724362  0.500000  1
  Rh  Rh19  1  0.431577  0.275638  0.500000  1
