# generated using pymatgen
data_Er3Tm5Os2(WC4)2
_symmetry_space_group_name_H-M   'P 1'
_cell_length_a   5.03625400
_cell_length_b   6.54249358
_cell_length_c   9.78039893
_cell_angle_alpha   89.19323639
_cell_angle_beta   90.00000000
_cell_angle_gamma   90.00000000
_symmetry_Int_Tables_number   1
_chemical_formula_structural   Er3Tm5Os2(WC4)2
_chemical_formula_sum   'Er3 Tm5 Os2 W2 C8'
_cell_volume   322.22886831
_cell_formula_units_Z   1
loop_
 _symmetry_equiv_pos_site_id
 _symmetry_equiv_pos_as_xyz
  1  'x, y, z'
loop_
 _atom_site_type_symbol
 _atom_site_label
 _atom_site_symmetry_multiplicity
 _atom_site_fract_x
 _atom_site_fract_y
 _atom_site_fract_z
 _atom_site_occupancy
  Er  Er0  1  0.750000  0.459968  0.781775  1
  Er  Er1  1  0.750000  0.967259  0.716322  1
  Er  Er2  1  0.250000  0.032905  0.283565  1
  Tm  Tm3  1  0.250000  0.675629  0.558506  1
  Tm  Tm4  1  0.750000  0.324520  0.441337  1
  Tm  Tm5  1  0.750000  0.826025  0.058912  1
  Tm  Tm6  1  0.250000  0.173799  0.941235  1
  Tm  Tm7  1  0.250000  0.540065  0.218259  1
  Os  Os8  1  0.750000  0.781872  0.368595  1
  Os  Os9  1  0.250000  0.218184  0.631221  1
  W  W10  1  0.250000  0.713568  0.870158  1
  W  W11  1  0.750000  0.286484  0.130017  1
  C  C12  1  0.250000  0.447135  0.758375  1
  C  C13  1  0.750000  0.553007  0.241489  1
  C  C14  1  0.750000  0.050142  0.259971  1
  C  C15  1  0.250000  0.949915  0.740086  1
  C  C16  1  0.250000  0.827630  0.056401  1
  C  C17  1  0.750000  0.171522  0.944050  1
  C  C18  1  0.750000  0.673098  0.551529  1
  C  C19  1  0.250000  0.327269  0.448197  1
