# generated using pymatgen
data_Tb15Y5Ir11Ru
_symmetry_space_group_name_H-M   'P 1'
_cell_length_a   10.92530144
_cell_length_b   10.92141434
_cell_length_c   6.41976917
_cell_angle_alpha   89.98486898
_cell_angle_beta   89.97842384
_cell_angle_gamma   90.02432606
_symmetry_Int_Tables_number   1
_chemical_formula_structural   Tb15Y5Ir11Ru
_chemical_formula_sum   'Tb15 Y5 Ir11 Ru1'
_cell_volume   766.00506269
_cell_formula_units_Z   1
loop_
 _symmetry_equiv_pos_site_id
 _symmetry_equiv_pos_as_xyz
  1  'x, y, z'
loop_
 _atom_site_type_symbol
 _atom_site_label
 _atom_site_symmetry_multiplicity
 _atom_site_fract_x
 _atom_site_fract_y
 _atom_site_fract_z
 _atom_site_occupancy
  Tb  Tb0  1  0.292288  0.087357  0.377711  1
  Tb  Tb1  1  0.292678  0.912521  0.880632  1
  Tb  Tb2  1  0.707309  0.087460  0.880705  1
  Tb  Tb3  1  0.707692  0.912604  0.377822  1
  Tb  Tb4  1  0.587507  0.792696  0.880738  1
  Tb  Tb5  1  0.587317  0.207804  0.377974  1
  Tb  Tb6  1  0.412730  0.792252  0.377922  1
  Tb  Tb7  1  0.412545  0.207362  0.880908  1
  Tb  Tb8  1  0.208754  0.411567  0.621082  1
  Tb  Tb9  1  0.208870  0.588331  0.120785  1
  Tb  Tb10  1  0.791152  0.411803  0.120566  1
  Tb  Tb11  1  0.999934  0.999969  0.499039  1
  Tb  Tb12  1  0.000040  0.000021  0.998955  1
  Tb  Tb13  1  0.500036  0.499987  0.999064  1
  Tb  Tb14  1  0.500137  0.500053  0.499262  1
  Y  Y15  1  0.791168  0.588467  0.621231  1
  Y  Y16  1  0.911674  0.708955  0.120677  1
  Y  Y17  1  0.911566  0.291065  0.621206  1
  Y  Y18  1  0.088232  0.708969  0.621100  1
  Y  Y19  1  0.088205  0.290903  0.120761  1
  Ir  Ir20  1  0.846920  0.153630  0.249644  1
  Ir  Ir21  1  0.846956  0.846999  0.749612  1
  Ir  Ir22  1  0.153044  0.153187  0.749429  1
  Ir  Ir23  1  0.153068  0.846350  0.249681  1
  Ir  Ir24  1  0.653104  0.346904  0.749773  1
  Ir  Ir25  1  0.653531  0.653093  0.249691  1
  Ir  Ir26  1  0.346303  0.346889  0.250026  1
  Ir  Ir27  1  0.346784  0.652997  0.749813  1
  Ir  Ir28  1  0.500016  0.000000  0.624736  1
  Ir  Ir29  1  0.000206  0.499922  0.877001  1
  Ir  Ir30  1  0.000214  0.499862  0.376574  1
  Ru  Ru31  1  0.500021  0.000023  0.125875  1
