# generated using pymatgen
data_Tb4Sm2PtI10
_symmetry_space_group_name_H-M   'P 1'
_cell_length_a   7.78548725
_cell_length_b   9.81225709
_cell_length_c   9.89026205
_cell_angle_alpha   107.33580202
_cell_angle_beta   96.84026290
_cell_angle_gamma   104.99057837
_symmetry_Int_Tables_number   1
_chemical_formula_structural   Tb4Sm2PtI10
_chemical_formula_sum   'Tb4 Sm2 Pt1 I10'
_cell_volume   680.73377171
_cell_formula_units_Z   1
loop_
 _symmetry_equiv_pos_site_id
 _symmetry_equiv_pos_as_xyz
  1  'x, y, z'
loop_
 _atom_site_type_symbol
 _atom_site_label
 _atom_site_symmetry_multiplicity
 _atom_site_fract_x
 _atom_site_fract_y
 _atom_site_fract_z
 _atom_site_occupancy
  Tb  Tb0  1  0.350074  0.126511  0.165784  1
  Tb  Tb1  1  0.649926  0.873489  0.834216  1
  Tb  Tb2  1  0.971700  0.287406  0.087226  1
  Tb  Tb3  1  0.028300  0.712594  0.912774  1
  Sm  Sm4  1  0.882707  0.958383  0.244087  1
  Sm  Sm5  1  0.117293  0.041617  0.755913  1
  Pt  Pt6  1  0.000000  0.000000  0.000000  1
  I  I7  1  0.355301  0.452812  0.272070  1
  I  I8  1  0.644699  0.547188  0.727930  1
  I  I9  1  0.915641  0.624603  0.177070  1
  I  I10  1  0.084359  0.375397  0.822930  1
  I  I11  1  0.449851  0.816816  0.089493  1
  I  I12  1  0.550149  0.183184  0.910507  1
  I  I13  1  0.266163  0.089567  0.460840  1
  I  I14  1  0.733837  0.910433  0.539160  1
  I  I15  1  0.779306  0.262601  0.346534  1
  I  I16  1  0.220694  0.737399  0.653466  1
