# generated using pymatgen
data_KMn(SnSe3)2
_symmetry_space_group_name_H-M   'P 1'
_cell_length_a   9.55560553
_cell_length_b   9.55560441
_cell_length_c   9.55560500
_cell_angle_alpha   40.78360175
_cell_angle_beta   40.78360955
_cell_angle_gamma   40.78360705
_symmetry_Int_Tables_number   1
_chemical_formula_structural   KMn(SnSe3)2
_chemical_formula_sum   'K1 Mn1 Sn2 Se6'
_cell_volume   335.94605019
_cell_formula_units_Z   1
loop_
 _symmetry_equiv_pos_site_id
 _symmetry_equiv_pos_as_xyz
  1  'x, y, z'
loop_
 _atom_site_type_symbol
 _atom_site_label
 _atom_site_symmetry_multiplicity
 _atom_site_fract_x
 _atom_site_fract_y
 _atom_site_fract_z
 _atom_site_occupancy
  K  K0  1  0.998235  0.998235  0.998235  1
  Mn  Mn1  1  0.167351  0.167351  0.167351  1
  Sn  Sn2  1  0.500937  0.500937  0.500937  1
  Sn  Sn3  1  0.832061  0.832061  0.832061  1
  Se  Se4  1  0.524837  0.223951  0.921241  1
  Se  Se5  1  0.921241  0.524837  0.223951  1
  Se  Se6  1  0.223951  0.921241  0.524837  1
  Se  Se7  1  0.808814  0.116538  0.406036  1
  Se  Se8  1  0.116538  0.406036  0.808814  1
  Se  Se9  1  0.406036  0.808814  0.116538  1
