# generated using pymatgen
data_Ho2Tm6Cd2RuPt
_symmetry_space_group_name_H-M   'P 1'
_cell_length_a   9.54352028
_cell_length_b   9.53893958
_cell_length_c   9.59445410
_cell_angle_alpha   59.83895560
_cell_angle_beta   59.79165211
_cell_angle_gamma   59.62340461
_symmetry_Int_Tables_number   1
_chemical_formula_structural   Ho2Tm6Cd2RuPt
_chemical_formula_sum   'Ho4 Tm12 Cd4 Ru2 Pt2'
_cell_volume   614.11730449
_cell_formula_units_Z   2
loop_
 _symmetry_equiv_pos_site_id
 _symmetry_equiv_pos_as_xyz
  1  'x, y, z'
loop_
 _atom_site_type_symbol
 _atom_site_label
 _atom_site_symmetry_multiplicity
 _atom_site_fract_x
 _atom_site_fract_y
 _atom_site_fract_z
 _atom_site_occupancy
  Ho  Ho0  1  0.809511  0.187411  0.816309  1
  Ho  Ho1  1  0.187411  0.809511  0.186770  1
  Ho  Ho2  1  0.814060  0.814060  0.185940  1
  Ho  Ho3  1  0.188690  0.188690  0.811310  1
  Tm  Tm4  1  0.599095  0.599426  0.602039  1
  Tm  Tm5  1  0.599426  0.599095  0.199442  1
  Tm  Tm6  1  0.596971  0.203590  0.599505  1
  Tm  Tm7  1  0.203590  0.596971  0.599934  1
  Tm  Tm8  1  0.065730  0.437592  0.438966  1
  Tm  Tm9  1  0.437592  0.065730  0.057712  1
  Tm  Tm10  1  0.437657  0.065709  0.439240  1
  Tm  Tm11  1  0.065709  0.437657  0.057394  1
  Tm  Tm12  1  0.437370  0.437370  0.062630  1
  Tm  Tm13  1  0.059376  0.059376  0.440624  1
  Tm  Tm14  1  0.187912  0.808862  0.815785  1
  Tm  Tm15  1  0.808862  0.187912  0.187441  1
  Cd  Cd16  1  0.830115  0.829403  0.831436  1
  Cd  Cd17  1  0.829403  0.830115  0.509047  1
  Cd  Cd18  1  0.830566  0.505508  0.832241  1
  Cd  Cd19  1  0.505508  0.830566  0.831685  1
  Ru  Ru20  1  0.394114  0.393693  0.389015  1
  Ru  Ru21  1  0.393693  0.394114  0.823178  1
  Pt  Pt22  1  0.393627  0.824019  0.391367  1
  Pt  Pt23  1  0.824019  0.393627  0.390987  1
