# generated using pymatgen
data_Y8ZnCdPd23
_symmetry_space_group_name_H-M   'P 1'
_cell_length_a   8.32911200
_cell_length_b   8.42671300
_cell_length_c   8.43266200
_cell_angle_alpha   90.00000000
_cell_angle_beta   90.00000000
_cell_angle_gamma   90.00000000
_symmetry_Int_Tables_number   1
_chemical_formula_structural   Y8ZnCdPd23
_chemical_formula_sum   'Y8 Zn1 Cd1 Pd23'
_cell_volume   591.86355448
_cell_formula_units_Z   1
loop_
 _symmetry_equiv_pos_site_id
 _symmetry_equiv_pos_as_xyz
  1  'x, y, z'
loop_
 _atom_site_type_symbol
 _atom_site_label
 _atom_site_symmetry_multiplicity
 _atom_site_fract_x
 _atom_site_fract_y
 _atom_site_fract_z
 _atom_site_occupancy
  Y  Y0  1  0.250545  0.241666  0.260844  1
  Y  Y1  1  0.748513  0.747999  0.750141  1
  Y  Y2  1  0.748513  0.747999  0.249859  1
  Y  Y3  1  0.748513  0.252001  0.750141  1
  Y  Y4  1  0.250545  0.241666  0.739156  1
  Y  Y5  1  0.250545  0.758334  0.260844  1
  Y  Y6  1  0.250545  0.758334  0.739156  1
  Y  Y7  1  0.748513  0.252001  0.249859  1
  Zn  Zn8  1  0.999058  0.000000  0.000000  1
  Cd  Cd9  1  0.265942  0.500000  0.000000  1
  Pd  Pd10  1  0.740254  0.500000  0.000000  1
  Pd  Pd11  1  0.997264  0.260054  0.500000  1
  Pd  Pd12  1  0.497232  0.259210  0.000000  1
  Pd  Pd13  1  0.997264  0.739946  0.500000  1
  Pd  Pd14  1  0.497232  0.740790  0.000000  1
  Pd  Pd15  1  0.501460  0.000000  0.260779  1
  Pd  Pd16  1  0.260014  0.000000  0.500000  1
  Pd  Pd17  1  0.501460  0.000000  0.739221  1
  Pd  Pd18  1  0.738670  0.000000  0.500000  1
  Pd  Pd19  1  0.003531  0.500000  0.260804  1
  Pd  Pd20  1  0.003531  0.500000  0.739196  1
  Pd  Pd21  1  0.252239  0.500000  0.500000  1
  Pd  Pd22  1  0.748094  0.500000  0.500000  1
  Pd  Pd23  1  0.502107  0.252819  0.500000  1
  Pd  Pd24  1  0.502107  0.747181  0.500000  1
  Pd  Pd25  1  0.496815  0.500000  0.255389  1
  Pd  Pd26  1  0.496815  0.500000  0.744611  1
  Pd  Pd27  1  0.294261  0.000000  0.000000  1
  Pd  Pd28  1  0.704404  0.000000  0.000000  1
  Pd  Pd29  1  0.005028  0.293181  0.000000  1
  Pd  Pd30  1  0.005028  0.706819  0.000000  1
  Pd  Pd31  1  0.996979  0.000000  0.293493  1
  Pd  Pd32  1  0.996979  0.000000  0.706507  1
