# generated using pymatgen
data_Sr2ScTcO6
_symmetry_space_group_name_H-M   'P 1'
_cell_length_a   5.70266000
_cell_length_b   5.71921061
_cell_length_c   9.87530633
_cell_angle_alpha   54.51121570
_cell_angle_beta   90.00000000
_cell_angle_gamma   90.00000000
_symmetry_Int_Tables_number   1
_chemical_formula_structural   Sr2ScTcO6
_chemical_formula_sum   'Sr4 Sc2 Tc2 O12'
_cell_volume   262.24716710
_cell_formula_units_Z   2
loop_
 _symmetry_equiv_pos_site_id
 _symmetry_equiv_pos_as_xyz
  1  'x, y, z'
loop_
 _atom_site_type_symbol
 _atom_site_label
 _atom_site_symmetry_multiplicity
 _atom_site_fract_x
 _atom_site_fract_y
 _atom_site_fract_z
 _atom_site_occupancy
  Sr  Sr0  1  0.481645  0.753643  0.250157  1
  Sr  Sr1  1  0.518355  0.246357  0.749843  1
  Sr  Sr2  1  0.981645  0.246357  0.249843  1
  Sr  Sr3  1  0.018355  0.753643  0.750157  1
  Sc  Sc4  1  0.000000  0.000000  0.000000  1
  Sc  Sc5  1  0.500000  0.000000  0.500000  1
  Tc  Tc6  1  0.000000  0.500000  0.500000  1
  Tc  Tc7  1  0.500000  0.500000  0.000000  1
  O  O8  1  0.719290  0.203996  0.029827  1
  O  O9  1  0.280710  0.796004  0.970173  1
  O  O10  1  0.219290  0.796004  0.470173  1
  O  O11  1  0.780710  0.203996  0.529827  1
  O  O12  1  0.007993  0.685129  0.257607  1
  O  O13  1  0.992007  0.314871  0.742393  1
  O  O14  1  0.507993  0.314871  0.242393  1
  O  O15  1  0.492007  0.685129  0.757607  1
  O  O16  1  0.232757  0.251238  0.030392  1
  O  O17  1  0.767243  0.748762  0.969608  1
  O  O18  1  0.732757  0.748762  0.469608  1
  O  O19  1  0.267243  0.251238  0.530392  1
