# generated using pymatgen
data_K3Ba3ScP4
_symmetry_space_group_name_H-M   'P 1'
_cell_length_a   10.43743000
_cell_length_b   10.43742991
_cell_length_c   7.92263500
_cell_angle_alpha   90.00000000
_cell_angle_beta   90.00000000
_cell_angle_gamma   119.99999396
_symmetry_Int_Tables_number   1
_chemical_formula_structural   K3Ba3ScP4
_chemical_formula_sum   'K6 Ba6 Sc2 P8'
_cell_volume   747.45913539
_cell_formula_units_Z   2
loop_
 _symmetry_equiv_pos_site_id
 _symmetry_equiv_pos_as_xyz
  1  'x, y, z'
loop_
 _atom_site_type_symbol
 _atom_site_label
 _atom_site_symmetry_multiplicity
 _atom_site_fract_x
 _atom_site_fract_y
 _atom_site_fract_z
 _atom_site_occupancy
  K  K0  1  0.732188  0.866093  0.169643  1
  K  K1  1  0.866093  0.133907  0.669643  1
  K  K2  1  0.866093  0.732188  0.669643  1
  K  K3  1  0.133907  0.267812  0.169643  1
  K  K4  1  0.133907  0.866093  0.169643  1
  K  K5  1  0.267812  0.133907  0.669643  1
  Ba  Ba6  1  0.059294  0.529647  0.495261  1
  Ba  Ba7  1  0.470353  0.940706  0.495261  1
  Ba  Ba8  1  0.470353  0.529647  0.495261  1
  Ba  Ba9  1  0.529647  0.470353  0.995261  1
  Ba  Ba10  1  0.529647  0.059294  0.995261  1
  Ba  Ba11  1  0.940706  0.470353  0.995261  1
  Sc  Sc12  1  0.333333  0.666667  0.888389  1
  Sc  Sc13  1  0.666667  0.333333  0.388389  1
  P  P14  1  0.666667  0.333333  0.721590  1
  P  P15  1  0.601150  0.800576  0.774836  1
  P  P16  1  0.800576  0.199424  0.274836  1
  P  P17  1  0.800576  0.601150  0.274836  1
  P  P18  1  0.333333  0.666667  0.221590  1
  P  P19  1  0.199424  0.398850  0.774836  1
  P  P20  1  0.199424  0.800576  0.774836  1
  P  P21  1  0.398850  0.199424  0.274836  1
