# generated using pymatgen
data_Gd4Lu(SiP)2
_symmetry_space_group_name_H-M   'P 1'
_cell_length_a   8.17654100
_cell_length_b   8.17654165
_cell_length_c   7.60627800
_cell_angle_alpha   90.00000000
_cell_angle_beta   90.00000000
_cell_angle_gamma   125.09568864
_symmetry_Int_Tables_number   1
_chemical_formula_structural   Gd4Lu(SiP)2
_chemical_formula_sum   'Gd8 Lu2 Si4 P4'
_cell_volume   416.07077973
_cell_formula_units_Z   2
loop_
 _symmetry_equiv_pos_site_id
 _symmetry_equiv_pos_as_xyz
  1  'x, y, z'
loop_
 _atom_site_type_symbol
 _atom_site_label
 _atom_site_symmetry_multiplicity
 _atom_site_fract_x
 _atom_site_fract_y
 _atom_site_fract_z
 _atom_site_occupancy
  Gd  Gd0  1  0.030917  0.311203  0.334137  1
  Gd  Gd1  1  0.969083  0.688797  0.665863  1
  Gd  Gd2  1  0.469083  0.188797  0.834137  1
  Gd  Gd3  1  0.811203  0.530917  0.165863  1
  Gd  Gd4  1  0.530917  0.811203  0.165863  1
  Gd  Gd5  1  0.188797  0.469083  0.834137  1
  Gd  Gd6  1  0.688797  0.969083  0.665863  1
  Gd  Gd7  1  0.311203  0.030917  0.334137  1
  Lu  Lu8  1  0.000000  0.000000  0.000000  1
  Lu  Lu9  1  0.500000  0.500000  0.500000  1
  Si  Si10  1  0.376743  0.376743  0.122933  1
  Si  Si11  1  0.623257  0.623257  0.877067  1
  Si  Si12  1  0.123257  0.123257  0.622933  1
  Si  Si13  1  0.876743  0.876743  0.377067  1
  P  P14  1  0.803413  0.196587  0.000000  1
  P  P15  1  0.196587  0.803413  0.000000  1
  P  P16  1  0.696587  0.303413  0.500000  1
  P  P17  1  0.303413  0.696587  0.500000  1
