# generated using pymatgen
data_Yb4RuO6
_symmetry_space_group_name_H-M   'P 1'
_cell_length_a   6.45383453
_cell_length_b   6.45383496
_cell_length_c   6.45383417
_cell_angle_alpha   90.90285492
_cell_angle_beta   90.90285559
_cell_angle_gamma   90.90287431
_symmetry_Int_Tables_number   1
_chemical_formula_structural   Yb4RuO6
_chemical_formula_sum   'Yb8 Ru2 O12'
_cell_volume   268.71380337
_cell_formula_units_Z   2
loop_
 _symmetry_equiv_pos_site_id
 _symmetry_equiv_pos_as_xyz
  1  'x, y, z'
loop_
 _atom_site_type_symbol
 _atom_site_label
 _atom_site_symmetry_multiplicity
 _atom_site_fract_x
 _atom_site_fract_y
 _atom_site_fract_z
 _atom_site_occupancy
  Yb  Yb0  1  0.250000  0.250000  0.250000  1
  Yb  Yb1  1  0.750000  0.750000  0.750000  1
  Yb  Yb2  1  0.750000  0.113101  0.386899  1
  Yb  Yb3  1  0.386899  0.750000  0.113101  1
  Yb  Yb4  1  0.113101  0.386899  0.750000  1
  Yb  Yb5  1  0.250000  0.886899  0.613101  1
  Yb  Yb6  1  0.613101  0.250000  0.886899  1
  Yb  Yb7  1  0.886899  0.613101  0.250000  1
  Ru  Ru8  1  0.500000  0.500000  0.500000  1
  Ru  Ru9  1  0.000000  0.000000  0.000000  1
  O  O10  1  0.425210  0.200736  0.557139  1
  O  O11  1  0.557139  0.425210  0.200736  1
  O  O12  1  0.200736  0.557139  0.425210  1
  O  O13  1  0.074790  0.942861  0.299264  1
  O  O14  1  0.299264  0.074790  0.942861  1
  O  O15  1  0.942861  0.299264  0.074790  1
  O  O16  1  0.574790  0.799264  0.442861  1
  O  O17  1  0.442861  0.574790  0.799264  1
  O  O18  1  0.799264  0.442861  0.574790  1
  O  O19  1  0.925210  0.057139  0.700736  1
  O  O20  1  0.057139  0.700736  0.925210  1
  O  O21  1  0.700736  0.925210  0.057139  1
