# generated using pymatgen
data_Yb3Ir4PbO14
_symmetry_space_group_name_H-M   'P 1'
_cell_length_a   7.18495280
_cell_length_b   7.27144142
_cell_length_c   7.27144200
_cell_angle_alpha   59.99999737
_cell_angle_beta   59.60099586
_cell_angle_gamma   59.60099692
_symmetry_Int_Tables_number   1
_chemical_formula_structural   Yb3Ir4PbO14
_chemical_formula_sum   'Yb3 Ir4 Pb1 O14'
_cell_volume   266.99569967
_cell_formula_units_Z   1
loop_
 _symmetry_equiv_pos_site_id
 _symmetry_equiv_pos_as_xyz
  1  'x, y, z'
loop_
 _atom_site_type_symbol
 _atom_site_label
 _atom_site_symmetry_multiplicity
 _atom_site_fract_x
 _atom_site_fract_y
 _atom_site_fract_z
 _atom_site_occupancy
  Yb  Yb0  1  0.125000  0.625000  0.125000  1
  Yb  Yb1  1  0.125000  0.125000  0.625000  1
  Yb  Yb2  1  0.125000  0.125000  0.125000  1
  Ir  Ir3  1  0.125000  0.625000  0.625000  1
  Ir  Ir4  1  0.625000  0.125000  0.625000  1
  Ir  Ir5  1  0.625000  0.625000  0.125000  1
  Ir  Ir6  1  0.625000  0.625000  0.625000  1
  Pb  Pb7  1  0.625000  0.125000  0.125000  1
  O  O8  1  0.692661  0.712153  0.297593  1
  O  O9  1  0.294550  0.293565  0.705943  1
  O  O10  1  0.692661  0.297593  0.712153  1
  O  O11  1  0.294550  0.705943  0.293565  1
  O  O12  1  0.294550  0.705943  0.705943  1
  O  O13  1  0.692661  0.297593  0.297593  1
  O  O14  1  0.557339  0.537847  0.952407  1
  O  O15  1  0.955450  0.956435  0.544057  1
  O  O16  1  0.557339  0.952407  0.537847  1
  O  O17  1  0.955450  0.544057  0.956435  1
  O  O18  1  0.955450  0.544057  0.544057  1
  O  O19  1  0.557339  0.952407  0.952407  1
  O  O20  1  0.262106  0.245965  0.245965  1
  O  O21  1  0.987894  0.004035  0.004035  1
