# generated using pymatgen
data_Tm2LuAuO7
_symmetry_space_group_name_H-M   'P 1'
_cell_length_a   6.39350717
_cell_length_b   6.38956989
_cell_length_c   7.31560600
_cell_angle_alpha   90.00000000
_cell_angle_beta   90.00000000
_cell_angle_gamma   108.68110417
_symmetry_Int_Tables_number   1
_chemical_formula_structural   Tm2LuAuO7
_chemical_formula_sum   'Tm4 Lu2 Au2 O14'
_cell_volume   283.11047909
_cell_formula_units_Z   2
loop_
 _symmetry_equiv_pos_site_id
 _symmetry_equiv_pos_as_xyz
  1  'x, y, z'
loop_
 _atom_site_type_symbol
 _atom_site_label
 _atom_site_symmetry_multiplicity
 _atom_site_fract_x
 _atom_site_fract_y
 _atom_site_fract_z
 _atom_site_occupancy
  Tm  Tm0  1  0.528695  0.998010  0.750980  1
  Tm  Tm1  1  0.471305  0.001990  0.250980  1
  Tm  Tm2  1  0.502894  0.502650  0.500048  1
  Tm  Tm3  1  0.497106  0.497350  0.000048  1
  Lu  Lu4  1  0.001718  0.471425  0.749038  1
  Lu  Lu5  1  0.998282  0.528575  0.249038  1
  Au  Au6  1  0.999382  0.999574  0.499971  1
  Au  Au7  1  0.000618  0.000426  0.999971  1
  O  O8  1  0.641284  0.361794  0.750055  1
  O  O9  1  0.358716  0.638206  0.250055  1
  O  O10  1  0.917940  0.085702  0.749946  1
  O  O11  1  0.082060  0.914298  0.249946  1
  O  O12  1  0.917378  0.664770  0.524232  1
  O  O13  1  0.082622  0.335230  0.024232  1
  O  O14  1  0.335277  0.087678  0.976221  1
  O  O15  1  0.664723  0.912322  0.476221  1
  O  O16  1  0.364607  0.631851  0.749933  1
  O  O17  1  0.635393  0.368149  0.249933  1
  O  O18  1  0.919887  0.666414  0.974150  1
  O  O19  1  0.080113  0.333586  0.474150  1
  O  O20  1  0.333606  0.085487  0.525427  1
  O  O21  1  0.666394  0.914513  0.025427  1
