# generated using pymatgen
data_Lu3Al3ZnGaPt
_symmetry_space_group_name_H-M   'P 1'
_cell_length_a   6.89189800
_cell_length_b   6.89189772
_cell_length_c   4.22426700
_cell_angle_alpha   90.00000000
_cell_angle_beta   90.00000000
_cell_angle_gamma   119.99999175
_symmetry_Int_Tables_number   1
_chemical_formula_structural   Lu3Al3ZnGaPt
_chemical_formula_sum   'Lu3 Al3 Zn1 Ga1 Pt1'
_cell_volume   173.76395507
_cell_formula_units_Z   1
loop_
 _symmetry_equiv_pos_site_id
 _symmetry_equiv_pos_as_xyz
  1  'x, y, z'
loop_
 _atom_site_type_symbol
 _atom_site_label
 _atom_site_symmetry_multiplicity
 _atom_site_fract_x
 _atom_site_fract_y
 _atom_site_fract_z
 _atom_site_occupancy
  Lu  Lu0  1  0.418418  0.000113  0.000000  1
  Lu  Lu1  1  0.999887  0.418304  0.000000  1
  Lu  Lu2  1  0.581695  0.581582  0.000000  1
  Al  Al3  1  0.766227  0.006230  0.500001  1
  Al  Al4  1  0.240003  0.233773  0.500001  1
  Al  Al5  1  0.993770  0.759996  0.500001  1
  Zn  Zn6  1  0.666667  0.333334  0.500001  1
  Ga  Ga7  1  0.333334  0.666667  0.500001  1
  Pt  Pt8  1  0.000000  0.000000  0.000000  1
