# generated using pymatgen
data_Ca3La8Ho9Si16
_symmetry_space_group_name_H-M   'P 1'
_cell_length_a   7.53561000
_cell_length_b   7.88840800
_cell_length_c   14.98987600
_cell_angle_alpha   90.00000000
_cell_angle_beta   90.00000000
_cell_angle_gamma   89.99690694
_symmetry_Int_Tables_number   1
_chemical_formula_structural   Ca3La8Ho9Si16
_chemical_formula_sum   'Ca3 La8 Ho9 Si16'
_cell_volume   891.05768177
_cell_formula_units_Z   1
loop_
 _symmetry_equiv_pos_site_id
 _symmetry_equiv_pos_as_xyz
  1  'x, y, z'
loop_
 _atom_site_type_symbol
 _atom_site_label
 _atom_site_symmetry_multiplicity
 _atom_site_fract_x
 _atom_site_fract_y
 _atom_site_fract_z
 _atom_site_occupancy
  Ca  Ca0  1  0.650359  0.990542  0.250000  1
  Ca  Ca1  1  0.150921  0.509486  0.250000  1
  Ca  Ca2  1  0.848937  0.489943  0.750000  1
  La  La3  1  0.975209  0.821389  0.098247  1
  La  La4  1  0.476055  0.679375  0.401897  1
  La  La5  1  0.524339  0.322097  0.901741  1
  La  La6  1  0.023059  0.179041  0.598914  1
  La  La7  1  0.023059  0.179041  0.901086  1
  La  La8  1  0.524339  0.322097  0.598259  1
  La  La9  1  0.476055  0.679375  0.098103  1
  La  La10  1  0.975209  0.821389  0.401753  1
  Ho  Ho11  1  0.348753  0.008474  0.750000  1
  Ho  Ho12  1  0.680596  0.819497  0.876694  1
  Ho  Ho13  1  0.179245  0.679225  0.623559  1
  Ho  Ho14  1  0.819601  0.319699  0.122262  1
  Ho  Ho15  1  0.321152  0.180190  0.378024  1
  Ho  Ho16  1  0.321152  0.180190  0.121976  1
  Ho  Ho17  1  0.819601  0.319699  0.377738  1
  Ho  Ho18  1  0.179245  0.679225  0.876441  1
  Ho  Ho19  1  0.680596  0.819497  0.623306  1
  Si  Si20  1  0.763559  0.608169  0.250000  1
  Si  Si21  1  0.263541  0.891158  0.250000  1
  Si  Si22  1  0.726914  0.108218  0.750000  1
  Si  Si23  1  0.237711  0.382264  0.750000  1
  Si  Si24  1  0.030147  0.110766  0.250000  1
  Si  Si25  1  0.529835  0.387939  0.250000  1
  Si  Si26  1  0.469193  0.617402  0.750000  1
  Si  Si27  1  0.976844  0.892688  0.750000  1
  Si  Si28  1  0.854822  0.533551  0.964568  1
  Si  Si29  1  0.355327  0.969015  0.539859  1
  Si  Si30  1  0.645913  0.031742  0.035515  1
  Si  Si31  1  0.146326  0.466654  0.464567  1
  Si  Si32  1  0.146326  0.466654  0.035433  1
  Si  Si33  1  0.645913  0.031742  0.464485  1
  Si  Si34  1  0.355327  0.969015  0.960141  1
  Si  Si35  1  0.854822  0.533551  0.535432  1
