# generated using pymatgen
data_Hf2B4Mo2Os3
_symmetry_space_group_name_H-M   'P 1'
_cell_length_a   8.77397603
_cell_length_b   3.10572700
_cell_length_c   10.02174303
_cell_angle_alpha   89.99993452
_cell_angle_beta   89.99148472
_cell_angle_gamma   90.00003151
_symmetry_Int_Tables_number   1
_chemical_formula_structural   Hf2B4Mo2Os3
_chemical_formula_sum   'Hf4 B8 Mo4 Os6'
_cell_volume   273.08822759
_cell_formula_units_Z   2
loop_
 _symmetry_equiv_pos_site_id
 _symmetry_equiv_pos_as_xyz
  1  'x, y, z'
loop_
 _atom_site_type_symbol
 _atom_site_label
 _atom_site_symmetry_multiplicity
 _atom_site_fract_x
 _atom_site_fract_y
 _atom_site_fract_z
 _atom_site_occupancy
  Hf  Hf0  1  0.164917  0.500000  0.680528  1
  Hf  Hf1  1  0.835083  0.500000  0.319472  1
  Hf  Hf2  1  0.664930  0.500000  0.819489  1
  Hf  Hf3  1  0.335070  0.500000  0.180511  1
  B  B4  1  0.351685  0.500000  0.899605  1
  B  B5  1  0.648315  0.500000  0.100395  1
  B  B6  1  0.467463  0.500000  0.585793  1
  B  B7  1  0.532537  0.500000  0.414207  1
  B  B8  1  0.851727  0.500000  0.600400  1
  B  B9  1  0.148273  0.500000  0.399600  1
  B  B10  1  0.967476  0.500000  0.914218  1
  B  B11  1  0.032524  0.500000  0.085782  1
  Mo  Mo12  1  0.163830  0.000000  0.952125  1
  Mo  Mo13  1  0.836170  0.000000  0.047875  1
  Mo  Mo14  1  0.663896  0.000000  0.547899  1
  Mo  Mo15  1  0.336104  0.000000  0.452101  1
  Os  Os16  1  0.411241  0.000000  0.738383  1
  Os  Os17  1  0.588759  0.000000  0.261617  1
  Os  Os18  1  0.911242  0.000000  0.761648  1
  Os  Os19  1  0.088758  0.000000  0.238352  1
  Os  Os20  1  0.500000  0.000000  0.000000  1
  Os  Os21  1  0.000000  0.000000  0.500000  1
