# generated using pymatgen
data_Pr8DyHoRu4
_symmetry_space_group_name_H-M   'P 1'
_cell_length_a   8.87911653
_cell_length_b   8.87911899
_cell_length_c   7.34301886
_cell_angle_alpha   84.27822560
_cell_angle_beta   84.27823246
_cell_angle_gamma   44.00879371
_symmetry_Int_Tables_number   1
_chemical_formula_structural   Pr8DyHoRu4
_chemical_formula_sum   'Pr8 Dy1 Ho1 Ru4'
_cell_volume   399.87944462
_cell_formula_units_Z   1
loop_
 _symmetry_equiv_pos_site_id
 _symmetry_equiv_pos_as_xyz
  1  'x, y, z'
loop_
 _atom_site_type_symbol
 _atom_site_label
 _atom_site_symmetry_multiplicity
 _atom_site_fract_x
 _atom_site_fract_y
 _atom_site_fract_z
 _atom_site_occupancy
  Pr  Pr0  1  0.205071  0.977150  0.584609  1
  Pr  Pr1  1  0.022850  0.794929  0.915391  1
  Pr  Pr2  1  0.208117  0.361525  0.313366  1
  Pr  Pr3  1  0.638475  0.791883  0.186634  1
  Pr  Pr4  1  0.791858  0.638361  0.686722  1
  Pr  Pr5  1  0.361639  0.208142  0.813278  1
  Pr  Pr6  1  0.977101  0.205168  0.084349  1
  Pr  Pr7  1  0.794832  0.022899  0.415651  1
  Dy  Dy8  1  0.430225  0.569775  0.250000  1
  Ho  Ho9  1  0.569576  0.430424  0.750000  1
  Ru  Ru10  1  0.185573  0.601404  0.571702  1
  Ru  Ru11  1  0.398596  0.814427  0.928298  1
  Ru  Ru12  1  0.814524  0.398434  0.428651  1
  Ru  Ru13  1  0.601566  0.185476  0.071349  1
