# generated using pymatgen
data_HfTa5(NbN3)4
_symmetry_space_group_name_H-M   'P 1'
_cell_length_a   5.26394766
_cell_length_b   5.26472965
_cell_length_c   10.45641802
_cell_angle_alpha   89.99888764
_cell_angle_beta   90.00690635
_cell_angle_gamma   120.13003736
_symmetry_Int_Tables_number   1
_chemical_formula_structural   HfTa5(NbN3)4
_chemical_formula_sum   'Hf1 Ta5 Nb4 N12'
_cell_volume   250.62860373
_cell_formula_units_Z   1
loop_
 _symmetry_equiv_pos_site_id
 _symmetry_equiv_pos_as_xyz
  1  'x, y, z'
loop_
 _atom_site_type_symbol
 _atom_site_label
 _atom_site_symmetry_multiplicity
 _atom_site_fract_x
 _atom_site_fract_y
 _atom_site_fract_z
 _atom_site_occupancy
  Hf  Hf0  1  0.665187  0.333109  0.000379  1
  Ta  Ta1  1  0.677714  0.000912  0.251603  1
  Ta  Ta2  1  0.999487  0.676903  0.251576  1
  Ta  Ta3  1  0.333143  0.665319  0.999546  1
  Ta  Ta4  1  0.333529  0.664947  0.499927  1
  Ta  Ta5  1  0.665042  0.333644  0.499814  1
  Nb  Nb6  1  0.677177  0.676368  0.748403  1
  Nb  Nb7  1  0.323736  0.000838  0.748386  1
  Nb  Nb8  1  0.999157  0.322978  0.748447  1
  Nb  Nb9  1  0.324671  0.324046  0.251882  1
  N  N10  1  0.663920  0.663991  0.380032  1
  N  N11  1  0.341713  0.996252  0.379554  1
  N  N12  1  0.996337  0.341757  0.379563  1
  N  N13  1  0.340767  0.340877  0.618982  1
  N  N14  1  0.657522  0.999887  0.618717  1
  N  N15  1  0.999934  0.657602  0.618726  1
  N  N16  1  0.339750  0.345861  0.877961  1
  N  N17  1  0.652975  0.993822  0.877954  1
  N  N18  1  0.006101  0.659186  0.877986  1
  N  N19  1  0.658916  0.664723  0.123162  1
  N  N20  1  0.340851  0.990270  0.123677  1
  N  N21  1  0.002373  0.346704  0.123722  1
