# generated using pymatgen
data_Pa3(SiIr)2
_symmetry_space_group_name_H-M   'P 1'
_cell_length_a   5.68603041
_cell_length_b   5.68603018
_cell_length_c   13.10265000
_cell_angle_alpha   90.00000000
_cell_angle_beta   90.00000000
_cell_angle_gamma   139.22115456
_symmetry_Int_Tables_number   1
_chemical_formula_structural   Pa3(SiIr)2
_chemical_formula_sum   'Pa6 Si4 Ir4'
_cell_volume   276.68426884
_cell_formula_units_Z   2
loop_
 _symmetry_equiv_pos_site_id
 _symmetry_equiv_pos_as_xyz
  1  'x, y, z'
loop_
 _atom_site_type_symbol
 _atom_site_label
 _atom_site_symmetry_multiplicity
 _atom_site_fract_x
 _atom_site_fract_y
 _atom_site_fract_z
 _atom_site_occupancy
  Pa  Pa0  1  0.773114  0.226886  0.593051  1
  Pa  Pa1  1  0.517072  0.482928  0.250000  1
  Pa  Pa2  1  0.226886  0.773114  0.406949  1
  Pa  Pa3  1  0.773114  0.226886  0.906949  1
  Pa  Pa4  1  0.482928  0.517072  0.750000  1
  Pa  Pa5  1  0.226886  0.773114  0.093051  1
  Si  Si6  1  0.058293  0.941707  0.597987  1
  Si  Si7  1  0.058293  0.941707  0.902013  1
  Si  Si8  1  0.941707  0.058293  0.402013  1
  Si  Si9  1  0.941707  0.058293  0.097987  1
  Ir  Ir10  1  0.787125  0.212875  0.250000  1
  Ir  Ir11  1  0.212875  0.787125  0.750000  1
  Ir  Ir12  1  0.500000  0.500000  0.000000  1
  Ir  Ir13  1  0.500000  0.500000  0.500000  1
