# generated using pymatgen
data_Ho5Al2HgC4
_symmetry_space_group_name_H-M   'P 1'
_cell_length_a   10.94262800
_cell_length_b   10.94262800
_cell_length_c   3.49727000
_cell_angle_alpha   90.00000000
_cell_angle_beta   90.00000000
_cell_angle_gamma   90.00000000
_symmetry_Int_Tables_number   1
_chemical_formula_structural   Ho5Al2HgC4
_chemical_formula_sum   'Ho10 Al4 Hg2 C8'
_cell_volume   418.76698319
_cell_formula_units_Z   2
loop_
 _symmetry_equiv_pos_site_id
 _symmetry_equiv_pos_as_xyz
  1  'x, y, z'
loop_
 _atom_site_type_symbol
 _atom_site_label
 _atom_site_symmetry_multiplicity
 _atom_site_fract_x
 _atom_site_fract_y
 _atom_site_fract_z
 _atom_site_occupancy
  Ho  Ho0  1  0.549437  0.732619  0.500000  1
  Ho  Ho1  1  0.450563  0.267381  0.500000  1
  Ho  Ho2  1  0.049437  0.767381  0.500000  1
  Ho  Ho3  1  0.950563  0.232619  0.500000  1
  Ho  Ho4  1  0.267381  0.549437  0.500000  1
  Ho  Ho5  1  0.732619  0.450563  0.500000  1
  Ho  Ho6  1  0.232619  0.049437  0.500000  1
  Ho  Ho7  1  0.767381  0.950563  0.500000  1
  Ho  Ho8  1  0.500000  0.000000  0.000000  1
  Ho  Ho9  1  0.000000  0.500000  0.000000  1
  Al  Al10  1  0.703671  0.203671  0.000000  1
  Al  Al11  1  0.296329  0.796329  0.000000  1
  Al  Al12  1  0.203671  0.296329  0.000000  1
  Al  Al13  1  0.796329  0.703671  0.000000  1
  Hg  Hg14  1  0.500000  0.500000  0.000000  1
  Hg  Hg15  1  0.000000  0.000000  0.000000  1
  C  C16  1  0.631526  0.131526  0.500000  1
  C  C17  1  0.368474  0.868474  0.500000  1
  C  C18  1  0.131526  0.368474  0.500000  1
  C  C19  1  0.868474  0.631526  0.500000  1
  C  C20  1  0.161318  0.661318  0.000000  1
  C  C21  1  0.838682  0.338682  0.000000  1
  C  C22  1  0.661318  0.838682  0.000000  1
  C  C23  1  0.338682  0.161318  0.000000  1
