# generated using pymatgen
data_Gd6V3FeC12
_symmetry_space_group_name_H-M   'P 1'
_cell_length_a   8.27245800
_cell_length_b   8.27245756
_cell_length_c   5.01850900
_cell_angle_alpha   90.00000000
_cell_angle_beta   90.00000000
_cell_angle_gamma   119.99997778
_symmetry_Int_Tables_number   1
_chemical_formula_structural   Gd6V3FeC12
_chemical_formula_sum   'Gd6 V3 Fe1 C12'
_cell_volume   297.42300335
_cell_formula_units_Z   1
loop_
 _symmetry_equiv_pos_site_id
 _symmetry_equiv_pos_as_xyz
  1  'x, y, z'
loop_
 _atom_site_type_symbol
 _atom_site_label
 _atom_site_symmetry_multiplicity
 _atom_site_fract_x
 _atom_site_fract_y
 _atom_site_fract_z
 _atom_site_occupancy
  Gd  Gd0  1  0.619338  0.684250  0.750000  1
  Gd  Gd1  1  0.936962  0.623192  0.250000  1
  Gd  Gd2  1  0.686229  0.063038  0.250000  1
  Gd  Gd3  1  0.315750  0.935089  0.750000  1
  Gd  Gd4  1  0.064911  0.380662  0.750000  1
  Gd  Gd5  1  0.376808  0.313771  0.250000  1
  V  V6  1  0.000000  0.000000  0.496854  1
  V  V7  1  0.000000  0.000000  0.003146  1
  V  V8  1  0.333333  0.666667  0.250000  1
  Fe  Fe9  1  0.666667  0.333333  0.750000  1
  C  C10  1  0.957333  0.762062  0.750000  1
  C  C11  1  0.186727  0.962236  0.250000  1
  C  C12  1  0.775510  0.813273  0.250000  1
  C  C13  1  0.237938  0.195271  0.750000  1
  C  C14  1  0.804729  0.042667  0.750000  1
  C  C15  1  0.037764  0.224490  0.250000  1
  C  C16  1  0.860844  0.571891  0.750000  1
  C  C17  1  0.286791  0.868850  0.250000  1
  C  C18  1  0.582058  0.713209  0.250000  1
  C  C19  1  0.428109  0.288952  0.750000  1
  C  C20  1  0.131150  0.417942  0.250000  1
  C  C21  1  0.711048  0.139156  0.750000  1
