# generated using pymatgen
data_Yb20PtRh3
_symmetry_space_group_name_H-M   'P 1'
_cell_length_a   6.68774671
_cell_length_b   7.37980453
_cell_length_c   15.93292800
_cell_angle_alpha   90.00000000
_cell_angle_beta   90.00000000
_cell_angle_gamma   89.92211090
_symmetry_Int_Tables_number   1
_chemical_formula_structural   Yb20PtRh3
_chemical_formula_sum   'Yb20 Pt1 Rh3'
_cell_volume   786.35719991
_cell_formula_units_Z   1
loop_
 _symmetry_equiv_pos_site_id
 _symmetry_equiv_pos_as_xyz
  1  'x, y, z'
loop_
 _atom_site_type_symbol
 _atom_site_label
 _atom_site_symmetry_multiplicity
 _atom_site_fract_x
 _atom_site_fract_y
 _atom_site_fract_z
 _atom_site_occupancy
  Yb  Yb0  1  0.354165  0.309852  0.063352  1
  Yb  Yb1  1  0.644238  0.690449  0.935292  1
  Yb  Yb2  1  0.855414  0.191061  0.935501  1
  Yb  Yb3  1  0.644238  0.690449  0.564708  1
  Yb  Yb4  1  0.145787  0.809686  0.064088  1
  Yb  Yb5  1  0.354165  0.309852  0.436648  1
  Yb  Yb6  1  0.145787  0.809686  0.435912  1
  Yb  Yb7  1  0.855414  0.191061  0.564499  1
  Yb  Yb8  1  0.151408  0.091405  0.250000  1
  Yb  Yb9  1  0.843508  0.906234  0.750000  1
  Yb  Yb10  1  0.656327  0.406071  0.750000  1
  Yb  Yb11  1  0.339948  0.599464  0.250000  1
  Yb  Yb12  1  0.322852  0.035784  0.646568  1
  Yb  Yb13  1  0.677640  0.959075  0.355295  1
  Yb  Yb14  1  0.826085  0.466292  0.355006  1
  Yb  Yb15  1  0.677640  0.959075  0.144705  1
  Yb  Yb16  1  0.177231  0.536143  0.646517  1
  Yb  Yb17  1  0.322852  0.035784  0.853432  1
  Yb  Yb18  1  0.177231  0.536143  0.853483  1
  Yb  Yb19  1  0.826085  0.466292  0.144994  1
  Pt  Pt20  1  0.539365  0.258798  0.250000  1
  Rh  Rh21  1  0.465876  0.741413  0.750000  1
  Rh  Rh22  1  0.034710  0.241040  0.750000  1
  Rh  Rh23  1  0.962031  0.758894  0.250000  1
