# generated using pymatgen
data_Zr6Ta4Cr(Ga2Rh)6
_symmetry_space_group_name_H-M   'P 1'
_cell_length_a   8.82991501
_cell_length_b   8.82991445
_cell_length_c   8.82991500
_cell_angle_alpha   60.00000167
_cell_angle_beta   60.00000377
_cell_angle_gamma   60.00000041
_symmetry_Int_Tables_number   1
_chemical_formula_structural   Zr6Ta4Cr(Ga2Rh)6
_chemical_formula_sum   'Zr6 Ta4 Cr1 Ga12 Rh6'
_cell_volume   486.80447653
_cell_formula_units_Z   1
loop_
 _symmetry_equiv_pos_site_id
 _symmetry_equiv_pos_as_xyz
  1  'x, y, z'
loop_
 _atom_site_type_symbol
 _atom_site_label
 _atom_site_symmetry_multiplicity
 _atom_site_fract_x
 _atom_site_fract_y
 _atom_site_fract_z
 _atom_site_occupancy
  Zr  Zr0  1  0.697964  0.697964  0.302036  1
  Zr  Zr1  1  0.302036  0.697964  0.302036  1
  Zr  Zr2  1  0.697964  0.302036  0.302036  1
  Zr  Zr3  1  0.302036  0.302036  0.697964  1
  Zr  Zr4  1  0.697964  0.302036  0.697964  1
  Zr  Zr5  1  0.302036  0.697964  0.697964  1
  Ta  Ta6  1  0.879969  0.879969  0.360095  1
  Ta  Ta7  1  0.879969  0.360095  0.879969  1
  Ta  Ta8  1  0.360095  0.879969  0.879969  1
  Ta  Ta9  1  0.879969  0.879969  0.879969  1
  Cr  Cr10  1  0.000000  0.000000  0.000000  1
  Ga  Ga11  1  0.117161  0.117161  0.648516  1
  Ga  Ga12  1  0.117161  0.648516  0.117161  1
  Ga  Ga13  1  0.648516  0.117161  0.117161  1
  Ga  Ga14  1  0.117161  0.117161  0.117161  1
  Ga  Ga15  1  0.657408  0.657408  0.027775  1
  Ga  Ga16  1  0.657408  0.027775  0.657408  1
  Ga  Ga17  1  0.027775  0.657408  0.657408  1
  Ga  Ga18  1  0.657408  0.657408  0.657408  1
  Ga  Ga19  1  0.340856  0.340856  0.977434  1
  Ga  Ga20  1  0.340856  0.977434  0.340856  1
  Ga  Ga21  1  0.977434  0.340856  0.340856  1
  Ga  Ga22  1  0.340856  0.340856  0.340856  1
  Rh  Rh23  1  0.997464  0.997464  0.502536  1
  Rh  Rh24  1  0.502536  0.997464  0.502536  1
  Rh  Rh25  1  0.997464  0.502536  0.502536  1
  Rh  Rh26  1  0.502536  0.502536  0.997464  1
  Rh  Rh27  1  0.997464  0.502536  0.997464  1
  Rh  Rh28  1  0.502536  0.997464  0.997464  1
