# generated using pymatgen
data_Sr7Ca(MgSb2)4
_symmetry_space_group_name_H-M   'P 1'
_cell_length_a   4.81000100
_cell_length_b   7.66591788
_cell_length_c   18.32219647
_cell_angle_alpha   89.99049699
_cell_angle_beta   90.00000000
_cell_angle_gamma   90.00000000
_symmetry_Int_Tables_number   1
_chemical_formula_structural   Sr7Ca(MgSb2)4
_chemical_formula_sum   'Sr7 Ca1 Mg4 Sb8'
_cell_volume   675.59567304
_cell_formula_units_Z   1
loop_
 _symmetry_equiv_pos_site_id
 _symmetry_equiv_pos_as_xyz
  1  'x, y, z'
loop_
 _atom_site_type_symbol
 _atom_site_label
 _atom_site_symmetry_multiplicity
 _atom_site_fract_x
 _atom_site_fract_y
 _atom_site_fract_z
 _atom_site_occupancy
  Sr  Sr0  1  0.750000  0.771437  0.449047  1
  Sr  Sr1  1  0.250000  0.734733  0.946680  1
  Sr  Sr2  1  0.250000  0.530276  0.727778  1
  Sr  Sr3  1  0.750000  0.970164  0.225786  1
  Sr  Sr4  1  0.750000  0.272478  0.050250  1
  Sr  Sr5  1  0.250000  0.223689  0.553545  1
  Sr  Sr6  1  0.750000  0.469644  0.273724  1
  Ca  Ca7  1  0.250000  0.032529  0.773326  1
  Mg  Mg8  1  0.250000  0.633853  0.151485  1
  Mg  Mg9  1  0.750000  0.865224  0.654425  1
  Mg  Mg10  1  0.750000  0.365769  0.846959  1
  Mg  Mg11  1  0.250000  0.133215  0.348349  1
  Sb  Sb12  1  0.750000  0.237152  0.690240  1
  Sb  Sb13  1  0.250000  0.757339  0.312944  1
  Sb  Sb14  1  0.250000  0.257432  0.185969  1
  Sb  Sb15  1  0.750000  0.729553  0.076731  1
  Sb  Sb16  1  0.750000  0.751998  0.812357  1
  Sb  Sb17  1  0.250000  0.264355  0.918708  1
  Sb  Sb18  1  0.750000  0.229736  0.422845  1
  Sb  Sb19  1  0.250000  0.769426  0.578852  1
