# generated using pymatgen
data_Hf6Co16As7P5Ru2
_symmetry_space_group_name_H-M   'P 1'
_cell_length_a   12.18962359
_cell_length_b   12.17464405
_cell_length_c   3.68647300
_cell_angle_alpha   90.00000000
_cell_angle_beta   90.00000000
_cell_angle_gamma   119.95936703
_symmetry_Int_Tables_number   1
_chemical_formula_structural   Hf6Co16As7P5Ru2
_chemical_formula_sum   'Hf6 Co16 As7 P5 Ru2'
_cell_volume   473.98645484
_cell_formula_units_Z   1
loop_
 _symmetry_equiv_pos_site_id
 _symmetry_equiv_pos_as_xyz
  1  'x, y, z'
loop_
 _atom_site_type_symbol
 _atom_site_label
 _atom_site_symmetry_multiplicity
 _atom_site_fract_x
 _atom_site_fract_y
 _atom_site_fract_z
 _atom_site_occupancy
  Hf  Hf0  1  0.823372  0.820013  0.500000  1
  Hf  Hf1  1  0.000000  0.163525  0.500000  1
  Hf  Hf2  1  0.335641  0.668373  0.000000  1
  Hf  Hf3  1  0.664359  0.332731  0.000000  1
  Hf  Hf4  1  0.000000  0.558942  0.000000  1
  Hf  Hf5  1  0.176628  0.996642  0.500000  1
  Co  Co6  1  0.634321  0.821879  0.000000  1
  Co  Co7  1  0.365679  0.187558  0.000000  1
  Co  Co8  1  0.000000  0.728155  0.500000  1
  Co  Co9  1  0.274496  0.271737  0.500000  1
  Co  Co10  1  0.872387  0.351130  0.500000  1
  Co  Co11  1  0.725504  0.997241  0.500000  1
  Co  Co12  1  0.819551  0.638326  0.000000  1
  Co  Co13  1  0.180449  0.818775  0.000000  1
  Co  Co14  1  0.355999  0.883902  0.500000  1
  Co  Co15  1  0.127613  0.478743  0.500000  1
  Co  Co16  1  0.644001  0.527902  0.500000  1
  Co  Co17  1  0.000000  0.001462  0.000000  1
  Co  Co18  1  0.524071  0.648871  0.500000  1
  Co  Co19  1  0.475929  0.124801  0.500000  1
  Co  Co20  1  0.195561  0.363020  0.000000  1
  Co  Co21  1  0.804439  0.167458  0.000000  1
  As  As22  1  0.000000  0.343114  0.000000  1
  As  As23  1  0.823582  0.515288  0.500000  1
  As  As24  1  0.681456  0.163299  0.500000  1
  As  As25  1  0.517456  0.835796  0.500000  1
  As  As26  1  0.176418  0.691704  0.500000  1
  As  As27  1  0.482544  0.318340  0.500000  1
  As  As28  1  0.318544  0.481843  0.500000  1
  P  P29  1  0.175907  0.171256  0.000000  1
  P  P30  1  0.642315  0.646410  0.000000  1
  P  P31  1  0.824093  0.995349  0.000000  1
  P  P32  1  0.357685  0.004095  0.000000  1
  P  P33  1  0.000000  0.828212  0.000000  1
  Ru  Ru34  1  0.453368  0.453736  0.000000  1
  Ru  Ru35  1  0.546632  0.000369  0.000000  1
