# generated using pymatgen
data_Y4HoBi3C
_symmetry_space_group_name_H-M   'P 1'
_cell_length_a   9.14783447
_cell_length_b   9.15313930
_cell_length_c   6.52489400
_cell_angle_alpha   89.99645149
_cell_angle_beta   90.00362180
_cell_angle_gamma   120.01357695
_symmetry_Int_Tables_number   1
_chemical_formula_structural   Y4HoBi3C
_chemical_formula_sum   'Y8 Ho2 Bi6 C2'
_cell_volume   473.07830115
_cell_formula_units_Z   2
loop_
 _symmetry_equiv_pos_site_id
 _symmetry_equiv_pos_as_xyz
  1  'x, y, z'
loop_
 _atom_site_type_symbol
 _atom_site_label
 _atom_site_symmetry_multiplicity
 _atom_site_fract_x
 _atom_site_fract_y
 _atom_site_fract_z
 _atom_site_occupancy
  Y  Y0  1  0.666453  0.333242  0.500099  1
  Y  Y1  1  0.333564  0.666738  0.500089  1
  Y  Y2  1  0.333530  0.666728  0.999907  1
  Y  Y3  1  0.666466  0.333261  0.999910  1
  Y  Y4  1  0.999888  0.208550  0.250007  1
  Y  Y5  1  0.208682  0.208138  0.750001  1
  Y  Y6  1  0.791420  0.999575  0.750040  1
  Y  Y7  1  0.000068  0.791549  0.749969  1
  Ho  Ho8  1  0.794902  0.794986  0.249989  1
  Ho  Ho9  1  0.205038  0.000037  0.249990  1
  Bi  Bi10  1  0.401157  0.400744  0.249999  1
  Bi  Bi11  1  0.598701  0.999577  0.249994  1
  Bi  Bi12  1  0.999986  0.599659  0.250008  1
  Bi  Bi13  1  0.598942  0.598972  0.749999  1
  Bi  Bi14  1  0.401202  0.000047  0.750012  1
  Bi  Bi15  1  0.999999  0.400886  0.749993  1
  C  C16  1  0.000006  0.998650  0.497968  1
  C  C17  1  0.000000  0.998662  0.002025  1
