# generated using pymatgen
data_SrYErAl7Cu2
_symmetry_space_group_name_H-M   'P 1'
_cell_length_a   9.10290731
_cell_length_b   9.10290766
_cell_length_c   9.10290796
_cell_angle_alpha   35.71253908
_cell_angle_beta   35.71253855
_cell_angle_gamma   35.71253314
_symmetry_Int_Tables_number   1
_chemical_formula_structural   SrYErAl7Cu2
_chemical_formula_sum   'Sr1 Y1 Er1 Al7 Cu2'
_cell_volume   229.76025448
_cell_formula_units_Z   1
loop_
 _symmetry_equiv_pos_site_id
 _symmetry_equiv_pos_as_xyz
  1  'x, y, z'
loop_
 _atom_site_type_symbol
 _atom_site_label
 _atom_site_symmetry_multiplicity
 _atom_site_fract_x
 _atom_site_fract_y
 _atom_site_fract_z
 _atom_site_occupancy
  Sr  Sr0  1  0.999933  0.999933  0.999933  1
  Y  Y1  1  0.142593  0.142593  0.142593  1
  Er  Er2  1  0.857650  0.857650  0.857650  1
  Al  Al3  1  0.417226  0.417226  0.926543  1
  Al  Al4  1  0.926543  0.417226  0.417226  1
  Al  Al5  1  0.417226  0.926543  0.417226  1
  Al  Al6  1  0.500082  0.500082  0.500082  1
  Al  Al7  1  0.582874  0.073151  0.582874  1
  Al  Al8  1  0.073151  0.582874  0.582874  1
  Al  Al9  1  0.582874  0.582874  0.073151  1
  Cu  Cu10  1  0.664626  0.664626  0.664626  1
  Cu  Cu11  1  0.335221  0.335221  0.335221  1
