# generated using pymatgen
data_Dy5Ho4Al(SiB4)4
_symmetry_space_group_name_H-M   'P 1'
_cell_length_a   7.15725802
_cell_length_b   7.15761602
_cell_length_c   7.96154700
_cell_angle_alpha   89.99672533
_cell_angle_beta   90.00162986
_cell_angle_gamma   90.00758883
_symmetry_Int_Tables_number   1
_chemical_formula_structural   Dy5Ho4Al(SiB4)4
_chemical_formula_sum   'Dy5 Ho4 Al1 Si4 B16'
_cell_volume   407.86132775
_cell_formula_units_Z   1
loop_
 _symmetry_equiv_pos_site_id
 _symmetry_equiv_pos_as_xyz
  1  'x, y, z'
loop_
 _atom_site_type_symbol
 _atom_site_label
 _atom_site_symmetry_multiplicity
 _atom_site_fract_x
 _atom_site_fract_y
 _atom_site_fract_z
 _atom_site_occupancy
  Dy  Dy0  1  0.682362  0.179418  0.227801  1
  Dy  Dy1  1  0.317665  0.820654  0.772119  1
  Dy  Dy2  1  0.317644  0.820633  0.227862  1
  Dy  Dy3  1  0.820659  0.682280  0.227852  1
  Dy  Dy4  1  0.820621  0.682292  0.772175  1
  Ho  Ho5  1  0.682323  0.179409  0.772772  1
  Ho  Ho6  1  0.179387  0.317622  0.772836  1
  Ho  Ho7  1  0.179354  0.317639  0.227187  1
  Ho  Ho8  1  0.499900  0.499847  0.500063  1
  Al  Al9  1  0.000007  0.000177  0.500050  1
  Si  Si10  1  0.113827  0.620360  0.500041  1
  Si  Si11  1  0.886513  0.378926  0.500204  1
  Si  Si12  1  0.379048  0.114095  0.500134  1
  Si  Si13  1  0.620733  0.886562  0.500174  1
  B  B14  1  0.174525  0.039981  0.999954  1
  B  B15  1  0.825526  0.960541  0.999851  1
  B  B16  1  0.960439  0.174665  0.999890  1
  B  B17  1  0.327260  0.539187  0.999963  1
  B  B18  1  0.039669  0.825630  0.999965  1
  B  B19  1  0.672617  0.460352  0.999915  1
  B  B20  1  0.539417  0.672518  0.999950  1
  B  B21  1  0.460404  0.327209  0.999875  1
  B  B22  1  0.090038  0.588358  0.999979  1
  B  B23  1  0.910242  0.411349  0.999979  1
  B  B24  1  0.411489  0.090060  0.999867  1
  B  B25  1  0.588593  0.910161  0.999840  1
  B  B26  1  0.000113  0.000244  0.161318  1
  B  B27  1  0.999929  0.000345  0.838514  1
  B  B28  1  0.499899  0.499640  0.835641  1
  B  B29  1  0.499796  0.499844  0.164231  1
