# generated using pymatgen
data_Rb3NaLiZrP3
_symmetry_space_group_name_H-M   'P 1'
_cell_length_a   10.66703094
_cell_length_b   10.66703208
_cell_length_c   15.58888100
_cell_angle_alpha   90.00000000
_cell_angle_beta   90.00000000
_cell_angle_gamma   143.90105681
_symmetry_Int_Tables_number   1
_chemical_formula_structural   Rb3NaLiZrP3
_chemical_formula_sum   'Rb12 Na4 Li4 Zr4 P12'
_cell_volume   1045.08392094
_cell_formula_units_Z   4
loop_
 _symmetry_equiv_pos_site_id
 _symmetry_equiv_pos_as_xyz
  1  'x, y, z'
loop_
 _atom_site_type_symbol
 _atom_site_label
 _atom_site_symmetry_multiplicity
 _atom_site_fract_x
 _atom_site_fract_y
 _atom_site_fract_z
 _atom_site_occupancy
  Rb  Rb0  1  0.947502  0.609283  0.823486  1
  Rb  Rb1  1  0.552498  0.890717  0.323486  1
  Rb  Rb2  1  0.390717  0.052498  0.176514  1
  Rb  Rb3  1  0.052498  0.390717  0.176514  1
  Rb  Rb4  1  0.890717  0.552498  0.323486  1
  Rb  Rb5  1  0.447502  0.109283  0.676514  1
  Rb  Rb6  1  0.609283  0.947502  0.823486  1
  Rb  Rb7  1  0.288610  0.288610  0.316952  1
  Rb  Rb8  1  0.788610  0.788610  0.183048  1
  Rb  Rb9  1  0.211390  0.211390  0.816952  1
  Rb  Rb10  1  0.711390  0.711390  0.683048  1
  Rb  Rb11  1  0.109283  0.447502  0.676514  1
  Na  Na12  1  0.755858  0.244142  0.000000  1
  Na  Na13  1  0.744142  0.255858  0.500000  1
  Na  Na14  1  0.244142  0.755858  0.000000  1
  Na  Na15  1  0.255858  0.744142  0.500000  1
  Li  Li16  1  0.921187  0.078813  0.000000  1
  Li  Li17  1  0.578813  0.421187  0.500000  1
  Li  Li18  1  0.078813  0.921187  0.000000  1
  Li  Li19  1  0.421187  0.578813  0.500000  1
  Zr  Zr20  1  0.585172  0.414828  0.000000  1
  Zr  Zr21  1  0.914828  0.085172  0.500000  1
  Zr  Zr22  1  0.414828  0.585172  0.000000  1
  Zr  Zr23  1  0.085172  0.914828  0.500000  1
  P  P24  1  0.883992  0.576596  0.093560  1
  P  P25  1  0.423404  0.116008  0.906440  1
  P  P26  1  0.616008  0.923404  0.593560  1
  P  P27  1  0.923404  0.616008  0.593560  1
  P  P28  1  0.116008  0.423404  0.906440  1
  P  P29  1  0.576596  0.883992  0.093560  1
  P  P30  1  0.383992  0.076596  0.406440  1
  P  P31  1  0.225578  0.225578  0.580239  1
  P  P32  1  0.725578  0.725578  0.919761  1
  P  P33  1  0.274422  0.274422  0.080239  1
  P  P34  1  0.076596  0.383992  0.406440  1
  P  P35  1  0.774422  0.774422  0.419761  1
