# generated using pymatgen
data_Pa8Si13Pt3
_symmetry_space_group_name_H-M   'P 1'
_cell_length_a   8.16073100
_cell_length_b   8.16073094
_cell_length_c   7.97140500
_cell_angle_alpha   90.00000000
_cell_angle_beta   90.00000000
_cell_angle_gamma   120.00000430
_symmetry_Int_Tables_number   1
_chemical_formula_structural   Pa8Si13Pt3
_chemical_formula_sum   'Pa8 Si13 Pt3'
_cell_volume   459.75198123
_cell_formula_units_Z   1
loop_
 _symmetry_equiv_pos_site_id
 _symmetry_equiv_pos_as_xyz
  1  'x, y, z'
loop_
 _atom_site_type_symbol
 _atom_site_label
 _atom_site_symmetry_multiplicity
 _atom_site_fract_x
 _atom_site_fract_y
 _atom_site_fract_z
 _atom_site_occupancy
  Pa  Pa0  1  0.000000  0.000000  0.248810  1
  Pa  Pa1  1  0.000000  0.000000  0.751065  1
  Pa  Pa2  1  0.496993  0.503007  0.241240  1
  Pa  Pa3  1  0.496993  0.993988  0.241240  1
  Pa  Pa4  1  0.006012  0.503007  0.241240  1
  Pa  Pa5  1  0.496405  0.503595  0.758874  1
  Pa  Pa6  1  0.496405  0.992810  0.758874  1
  Pa  Pa7  1  0.007190  0.503595  0.758874  1
  Si  Si8  1  0.164504  0.835496  0.499121  1
  Si  Si9  1  0.164504  0.329007  0.499121  1
  Si  Si10  1  0.670993  0.835496  0.499121  1
  Si  Si11  1  0.835193  0.164807  0.500791  1
  Si  Si12  1  0.835193  0.670386  0.500791  1
  Si  Si13  1  0.329614  0.164807  0.500791  1
  Si  Si14  1  0.836877  0.163123  0.999973  1
  Si  Si15  1  0.836877  0.673753  0.999973  1
  Si  Si16  1  0.326247  0.163123  0.999973  1
  Si  Si17  1  0.168635  0.831365  0.000020  1
  Si  Si18  1  0.168635  0.337271  0.000020  1
  Si  Si19  1  0.662729  0.831365  0.000020  1
  Si  Si20  1  0.333333  0.666667  0.000856  1
  Pt  Pt21  1  0.333333  0.666667  0.499879  1
  Pt  Pt22  1  0.666667  0.333333  0.500347  1
  Pt  Pt23  1  0.666667  0.333333  0.998984  1
