# generated using pymatgen
data_Mg4Al7ZnIr4
_symmetry_space_group_name_H-M   'P 1'
_cell_length_a   5.15243639
_cell_length_b   7.40851536
_cell_length_c   7.19624575
_cell_angle_alpha   89.87423104
_cell_angle_beta   90.22512379
_cell_angle_gamma   90.67035439
_symmetry_Int_Tables_number   1
_chemical_formula_structural   Mg4Al7ZnIr4
_chemical_formula_sum   'Mg4 Al7 Zn1 Ir4'
_cell_volume   274.67284759
_cell_formula_units_Z   1
loop_
 _symmetry_equiv_pos_site_id
 _symmetry_equiv_pos_as_xyz
  1  'x, y, z'
loop_
 _atom_site_type_symbol
 _atom_site_label
 _atom_site_symmetry_multiplicity
 _atom_site_fract_x
 _atom_site_fract_y
 _atom_site_fract_z
 _atom_site_occupancy
  Mg  Mg0  1  0.390940  0.246924  0.024422  1
  Mg  Mg1  1  0.898197  0.751050  0.476476  1
  Mg  Mg2  1  0.103169  0.247399  0.530349  1
  Mg  Mg3  1  0.603940  0.752380  0.972674  1
  Al  Al4  1  0.899211  0.053239  0.161284  1
  Al  Al5  1  0.895012  0.445083  0.165643  1
  Al  Al6  1  0.400591  0.553552  0.334086  1
  Al  Al7  1  0.398121  0.945281  0.335622  1
  Al  Al8  1  0.602006  0.052835  0.667087  1
  Al  Al9  1  0.602949  0.444683  0.664933  1
  Al  Al10  1  0.103795  0.559872  0.837543  1
  Zn  Zn11  1  0.101749  0.950370  0.825506  1
  Ir  Ir12  1  0.114636  0.746835  0.135253  1
  Ir  Ir13  1  0.615125  0.248975  0.369854  1
  Ir  Ir14  1  0.393016  0.744368  0.627016  1
  Ir  Ir15  1  0.877543  0.257155  0.872254  1
