# generated using pymatgen
data_Ho5ErZn23C
_symmetry_space_group_name_H-M   'P 1'
_cell_length_a   8.97726815
_cell_length_b   8.94433632
_cell_length_c   8.94433600
_cell_angle_alpha   60.24373046
_cell_angle_beta   59.87812716
_cell_angle_gamma   59.87811950
_symmetry_Int_Tables_number   1
_chemical_formula_structural   Ho5ErZn23C
_chemical_formula_sum   'Ho5 Er1 Zn23 C1'
_cell_volume   507.82436373
_cell_formula_units_Z   1
loop_
 _symmetry_equiv_pos_site_id
 _symmetry_equiv_pos_as_xyz
  1  'x, y, z'
loop_
 _atom_site_type_symbol
 _atom_site_label
 _atom_site_symmetry_multiplicity
 _atom_site_fract_x
 _atom_site_fract_y
 _atom_site_fract_z
 _atom_site_occupancy
  Ho  Ho0  1  0.302805  0.697196  0.697196  1
  Ho  Ho1  1  0.306295  0.693707  0.306634  1
  Ho  Ho2  1  0.693367  0.306631  0.693711  1
  Ho  Ho3  1  0.306295  0.306634  0.693707  1
  Ho  Ho4  1  0.693367  0.693711  0.306631  1
  Er  Er5  1  0.696331  0.303666  0.303666  1
  Zn  Zn6  1  0.127106  0.119444  0.119444  1
  Zn  Zn7  1  0.875516  0.879369  0.879369  1
  Zn  Zn8  1  0.120629  0.124485  0.634257  1
  Zn  Zn9  1  0.120629  0.634257  0.124485  1
  Zn  Zn10  1  0.880559  0.872892  0.365992  1
  Zn  Zn11  1  0.880559  0.365992  0.872892  1
  Zn  Zn12  1  0.634007  0.119445  0.119445  1
  Zn  Zn13  1  0.365741  0.879371  0.879371  1
  Zn  Zn14  1  0.499738  0.000261  0.000261  1
  Zn  Zn15  1  0.999741  0.500260  0.500260  1
  Zn  Zn16  1  0.999304  0.499550  0.000694  1
  Zn  Zn17  1  0.500450  0.000695  0.499549  1
  Zn  Zn18  1  0.999304  0.000694  0.499550  1
  Zn  Zn19  1  0.500450  0.499549  0.000695  1
  Zn  Zn20  1  0.328981  0.327854  0.327854  1
  Zn  Zn21  1  0.669824  0.672703  0.672703  1
  Zn  Zn22  1  0.327298  0.330172  0.015229  1
  Zn  Zn23  1  0.327298  0.015229  0.330172  1
  Zn  Zn24  1  0.672143  0.671022  0.984690  1
  Zn  Zn25  1  0.672143  0.984690  0.671022  1
  Zn  Zn26  1  0.015310  0.327855  0.327855  1
  Zn  Zn27  1  0.984773  0.672702  0.672702  1
  Zn  Zn28  1  0.000075  0.999925  0.999925  1
  C  C29  1  0.499960  0.500037  0.500037  1
