# generated using pymatgen
data_Np(As3Os)4
_symmetry_space_group_name_H-M   'P 1'
_cell_length_a   7.46041402
_cell_length_b   7.46051097
_cell_length_c   7.45697279
_cell_angle_alpha   109.39439695
_cell_angle_beta   109.53218687
_cell_angle_gamma   109.45655347
_symmetry_Int_Tables_number   1
_chemical_formula_structural   Np(As3Os)4
_chemical_formula_sum   'Np1 As12 Os4'
_cell_volume   319.62091858
_cell_formula_units_Z   1
loop_
 _symmetry_equiv_pos_site_id
 _symmetry_equiv_pos_as_xyz
  1  'x, y, z'
loop_
 _atom_site_type_symbol
 _atom_site_label
 _atom_site_symmetry_multiplicity
 _atom_site_fract_x
 _atom_site_fract_y
 _atom_site_fract_z
 _atom_site_occupancy
  Np  Np0  1  0.000000  0.000000  0.000000  1
  As  As1  1  0.345018  0.196153  0.851212  1
  As  As2  1  0.654982  0.803847  0.148788  1
  As  As3  1  0.655036  0.506199  0.851127  1
  As  As4  1  0.344964  0.493801  0.148873  1
  As  As5  1  0.196387  0.851292  0.345218  1
  As  As6  1  0.803613  0.148708  0.654782  1
  As  As7  1  0.506135  0.851268  0.654962  1
  As  As8  1  0.493865  0.148732  0.345038  1
  As  As9  1  0.851322  0.345076  0.196227  1
  As  As10  1  0.148678  0.654924  0.803773  1
  As  As11  1  0.851225  0.654979  0.506206  1
  As  As12  1  0.148775  0.345021  0.493794  1
  Os  Os13  1  0.000000  0.000000  0.500000  1
  Os  Os14  1  0.500000  0.000000  0.000000  1
  Os  Os15  1  0.000000  0.500000  0.000000  1
  Os  Os16  1  0.500000  0.500000  0.500000  1
