# generated using pymatgen
data_Cr2GaRu2Pt3
_symmetry_space_group_name_H-M   'P 1'
_cell_length_a   5.45494831
_cell_length_b   5.45494732
_cell_length_c   3.89373100
_cell_angle_alpha   90.00000000
_cell_angle_beta   90.00000000
_cell_angle_gamma   93.62864482
_symmetry_Int_Tables_number   1
_chemical_formula_structural   Cr2GaRu2Pt3
_chemical_formula_sum   'Cr2 Ga1 Ru2 Pt3'
_cell_volume   115.63135185
_cell_formula_units_Z   1
loop_
 _symmetry_equiv_pos_site_id
 _symmetry_equiv_pos_as_xyz
  1  'x, y, z'
loop_
 _atom_site_type_symbol
 _atom_site_label
 _atom_site_symmetry_multiplicity
 _atom_site_fract_x
 _atom_site_fract_y
 _atom_site_fract_z
 _atom_site_occupancy
  Cr  Cr0  1  0.725384  0.273346  0.500000  1
  Cr  Cr1  1  0.273346  0.725384  0.500000  1
  Ga  Ga2  1  0.001430  0.001430  0.000000  1
  Ru  Ru3  1  0.494642  0.494642  0.000000  1
  Ru  Ru4  1  0.244020  0.244020  0.500000  1
  Pt  Pt5  1  0.998105  0.492607  0.000000  1
  Pt  Pt6  1  0.492607  0.998105  0.000000  1
  Pt  Pt7  1  0.770467  0.770467  0.500000  1
