# generated using pymatgen
data_TmLu(Si7Ir3)2
_symmetry_space_group_name_H-M   'P 1'
_cell_length_a   8.03974119
_cell_length_b   8.03974000
_cell_length_c   8.03974100
_cell_angle_alpha   56.46274633
_cell_angle_beta   56.46275198
_cell_angle_gamma   56.46274248
_symmetry_Int_Tables_number   1
_chemical_formula_structural   TmLu(Si7Ir3)2
_chemical_formula_sum   'Tm1 Lu1 Si14 Ir6'
_cell_volume   337.41254684
_cell_formula_units_Z   1
loop_
 _symmetry_equiv_pos_site_id
 _symmetry_equiv_pos_as_xyz
  1  'x, y, z'
loop_
 _atom_site_type_symbol
 _atom_site_label
 _atom_site_symmetry_multiplicity
 _atom_site_fract_x
 _atom_site_fract_y
 _atom_site_fract_z
 _atom_site_occupancy
  Tm  Tm0  1  0.500000  0.500000  0.500000  1
  Lu  Lu1  1  0.000000  0.000000  0.000000  1
  Si  Si2  1  0.850336  0.063940  0.672731  1
  Si  Si3  1  0.672731  0.850336  0.063940  1
  Si  Si4  1  0.063940  0.672731  0.850336  1
  Si  Si5  1  0.649758  0.827536  0.435660  1
  Si  Si6  1  0.250006  0.250006  0.250006  1
  Si  Si7  1  0.749994  0.749994  0.749994  1
  Si  Si8  1  0.172464  0.564340  0.350242  1
  Si  Si9  1  0.564340  0.350242  0.172464  1
  Si  Si10  1  0.350242  0.172464  0.564340  1
  Si  Si11  1  0.936060  0.327269  0.149664  1
  Si  Si12  1  0.327269  0.149664  0.936060  1
  Si  Si13  1  0.149664  0.936060  0.327269  1
  Si  Si14  1  0.827536  0.435660  0.649758  1
  Si  Si15  1  0.435660  0.649758  0.827536  1
  Ir  Ir16  1  0.750470  0.071310  0.428011  1
  Ir  Ir17  1  0.428011  0.750470  0.071310  1
  Ir  Ir18  1  0.071310  0.428011  0.750470  1
  Ir  Ir19  1  0.249530  0.928690  0.571989  1
  Ir  Ir20  1  0.571989  0.249530  0.928690  1
  Ir  Ir21  1  0.928690  0.571989  0.249530  1
