# generated using pymatgen
data_LiMg3(SiNi)4
_symmetry_space_group_name_H-M   'P 1'
_cell_length_a   6.36079846
_cell_length_b   3.95361900
_cell_length_c   6.68474587
_cell_angle_alpha   90.00000000
_cell_angle_beta   90.76442821
_cell_angle_gamma   90.00000000
_symmetry_Int_Tables_number   1
_chemical_formula_structural   LiMg3(SiNi)4
_chemical_formula_sum   'Li1 Mg3 Si4 Ni4'
_cell_volume   168.09418806
_cell_formula_units_Z   1
loop_
 _symmetry_equiv_pos_site_id
 _symmetry_equiv_pos_as_xyz
  1  'x, y, z'
loop_
 _atom_site_type_symbol
 _atom_site_label
 _atom_site_symmetry_multiplicity
 _atom_site_fract_x
 _atom_site_fract_y
 _atom_site_fract_z
 _atom_site_occupancy
  Li  Li0  1  0.992619  0.750000  0.187045  1
  Mg  Mg1  1  0.494928  0.750000  0.313200  1
  Mg  Mg2  1  0.497671  0.250001  0.678958  1
  Mg  Mg3  1  0.002976  0.250001  0.825867  1
  Si  Si4  1  0.715508  0.250001  0.122376  1
  Si  Si5  1  0.193906  0.250001  0.367340  1
  Si  Si6  1  0.796238  0.750000  0.619453  1
  Si  Si7  1  0.295777  0.750000  0.884883  1
  Ni  Ni8  1  0.356564  0.250001  0.054244  1
  Ni  Ni9  1  0.846429  0.250001  0.447561  1
  Ni  Ni10  1  0.152796  0.750000  0.555047  1
  Ni  Ni11  1  0.654587  0.750000  0.944021  1
