# generated using pymatgen
data_SmLu2Bi5O14
_symmetry_space_group_name_H-M   'P 1'
_cell_length_a   6.59224751
_cell_length_b   6.71342326
_cell_length_c   7.74487900
_cell_angle_alpha   106.70680050
_cell_angle_beta   89.49652750
_cell_angle_gamma   99.10724487
_symmetry_Int_Tables_number   1
_chemical_formula_structural   SmLu2Bi5O14
_chemical_formula_sum   'Sm1 Lu2 Bi5 O14'
_cell_volume   323.91018244
_cell_formula_units_Z   1
loop_
 _symmetry_equiv_pos_site_id
 _symmetry_equiv_pos_as_xyz
  1  'x, y, z'
loop_
 _atom_site_type_symbol
 _atom_site_label
 _atom_site_symmetry_multiplicity
 _atom_site_fract_x
 _atom_site_fract_y
 _atom_site_fract_z
 _atom_site_occupancy
  Sm  Sm0  1  0.265192  0.541530  0.885441  1
  Lu  Lu1  1  0.463571  0.004789  0.254424  1
  Lu  Lu2  1  0.538243  0.994129  0.749784  1
  Bi  Bi3  1  0.002041  0.004717  0.501154  1
  Bi  Bi4  1  0.000909  0.001541  0.000517  1
  Bi  Bi5  1  0.737902  0.471389  0.115395  1
  Bi  Bi6  1  0.725133  0.461169  0.612512  1
  Bi  Bi7  1  0.270230  0.532777  0.389372  1
  O  O8  1  0.452449  0.661454  0.172739  1
  O  O9  1  0.542184  0.335448  0.821393  1
  O  O10  1  0.305321  0.928714  0.948094  1
  O  O11  1  0.692262  0.050662  0.050261  1
  O  O12  1  0.303258  0.926501  0.517693  1
  O  O13  1  0.697317  0.075939  0.485059  1
  O  O14  1  0.530400  0.348914  0.347322  1
  O  O15  1  0.463311  0.649428  0.656953  1
  O  O16  1  0.930712  0.668436  0.954859  1
  O  O17  1  0.077440  0.328690  0.042359  1
  O  O18  1  0.089101  0.333499  0.620891  1
  O  O19  1  0.909620  0.676612  0.373749  1
  O  O20  1  0.870838  0.933437  0.733239  1
  O  O21  1  0.132566  0.070225  0.266790  1
