# generated using pymatgen
data_Ta3Ti5V2(Si3C)2
_symmetry_space_group_name_H-M   'P 1'
_cell_length_a   7.45349441
_cell_length_b   7.44964721
_cell_length_c   5.12147301
_cell_angle_alpha   89.99576745
_cell_angle_beta   89.99978272
_cell_angle_gamma   120.07964839
_symmetry_Int_Tables_number   1
_chemical_formula_structural   Ta3Ti5V2(Si3C)2
_chemical_formula_sum   'Ta3 Ti5 V2 Si6 C2'
_cell_volume   246.07757270
_cell_formula_units_Z   1
loop_
 _symmetry_equiv_pos_site_id
 _symmetry_equiv_pos_as_xyz
  1  'x, y, z'
loop_
 _atom_site_type_symbol
 _atom_site_label
 _atom_site_symmetry_multiplicity
 _atom_site_fract_x
 _atom_site_fract_y
 _atom_site_fract_z
 _atom_site_occupancy
  Ta  Ta0  1  0.236174  0.999705  0.251652  1
  Ta  Ta1  1  0.763506  0.999238  0.748753  1
  Ta  Ta2  1  0.000646  0.238576  0.251485  1
  Ti  Ti3  1  0.666558  0.332307  0.500504  1
  Ti  Ti4  1  0.333234  0.666254  0.500502  1
  Ti  Ti5  1  0.999672  0.765473  0.748724  1
  Ti  Ti6  1  0.764267  0.763724  0.251655  1
  Ti  Ti7  1  0.236303  0.236282  0.748728  1
  V  V8  1  0.333249  0.666610  0.999717  1
  V  V9  1  0.666492  0.331661  0.999691  1
  Si  Si10  1  0.590327  0.997268  0.238962  1
  Si  Si11  1  0.406946  0.999486  0.760823  1
  Si  Si12  1  0.997561  0.591477  0.237797  1
  Si  Si13  1  0.001765  0.413673  0.761861  1
  Si  Si14  1  0.413202  0.412863  0.237013  1
  Si  Si15  1  0.589666  0.587329  0.762910  1
  C  C16  1  0.000289  0.998794  0.998769  1
  C  C17  1  0.000146  0.999282  0.500452  1
