# generated using pymatgen
data_Tb11Cd9(CuNi)2
_symmetry_space_group_name_H-M   'P 1'
_cell_length_a   3.64062900
_cell_length_b   13.09367473
_cell_length_c   13.09719223
_cell_angle_alpha   111.28245620
_cell_angle_beta   90.00000000
_cell_angle_gamma   90.00000000
_symmetry_Int_Tables_number   1
_chemical_formula_structural   Tb11Cd9(CuNi)2
_chemical_formula_sum   'Tb11 Cd9 Cu2 Ni2'
_cell_volume   581.75483803
_cell_formula_units_Z   1
loop_
 _symmetry_equiv_pos_site_id
 _symmetry_equiv_pos_as_xyz
  1  'x, y, z'
loop_
 _atom_site_type_symbol
 _atom_site_label
 _atom_site_symmetry_multiplicity
 _atom_site_fract_x
 _atom_site_fract_y
 _atom_site_fract_z
 _atom_site_occupancy
  Tb  Tb0  1  0.000000  0.920951  0.581553  1
  Tb  Tb1  1  0.000000  0.079049  0.418447  1
  Tb  Tb2  1  0.000000  0.581863  0.917731  1
  Tb  Tb3  1  0.000000  0.418137  0.082269  1
  Tb  Tb4  1  0.000000  0.161507  0.838851  1
  Tb  Tb5  1  0.000000  0.838493  0.161149  1
  Tb  Tb6  1  0.000000  0.381273  0.634471  1
  Tb  Tb7  1  0.000000  0.618727  0.365529  1
  Tb  Tb8  1  0.000000  0.688045  0.694990  1
  Tb  Tb9  1  0.000000  0.311955  0.305010  1
  Tb  Tb10  1  0.000000  0.000000  0.000000  1
  Cd  Cd11  1  0.500000  0.161741  0.634363  1
  Cd  Cd12  1  0.500000  0.838259  0.365637  1
  Cd  Cd13  1  0.500000  0.634475  0.159697  1
  Cd  Cd14  1  0.500000  0.365525  0.840303  1
  Cd  Cd15  1  0.500000  0.926338  0.782033  1
  Cd  Cd16  1  0.500000  0.073662  0.217967  1
  Cd  Cd17  1  0.500000  0.783254  0.926480  1
  Cd  Cd18  1  0.500000  0.216746  0.073520  1
  Cd  Cd19  1  0.500000  0.500000  0.500000  1
  Cu  Cu20  1  0.500000  0.744905  0.546471  1
  Cu  Cu21  1  0.500000  0.255095  0.453529  1
  Ni  Ni22  1  0.500000  0.548574  0.751288  1
  Ni  Ni23  1  0.500000  0.451426  0.248712  1
