# generated using pymatgen
data_Nd8Si15Ag
_symmetry_space_group_name_H-M   'P 1'
_cell_length_a   8.27816400
_cell_length_b   8.27816322
_cell_length_c   8.41197300
_cell_angle_alpha   90.00000000
_cell_angle_beta   90.00000000
_cell_angle_gamma   119.99999512
_symmetry_Int_Tables_number   1
_chemical_formula_structural   Nd8Si15Ag
_chemical_formula_sum   'Nd8 Si15 Ag1'
_cell_volume   499.22523993
_cell_formula_units_Z   1
loop_
 _symmetry_equiv_pos_site_id
 _symmetry_equiv_pos_as_xyz
  1  'x, y, z'
loop_
 _atom_site_type_symbol
 _atom_site_label
 _atom_site_symmetry_multiplicity
 _atom_site_fract_x
 _atom_site_fract_y
 _atom_site_fract_z
 _atom_site_occupancy
  Nd  Nd0  1  0.000000  0.000000  0.748733  1
  Nd  Nd1  1  0.000000  0.000000  0.251546  1
  Nd  Nd2  1  0.495552  0.504448  0.743041  1
  Nd  Nd3  1  0.495552  0.991106  0.743041  1
  Nd  Nd4  1  0.008894  0.504448  0.743041  1
  Nd  Nd5  1  0.497181  0.502819  0.256854  1
  Nd  Nd6  1  0.005639  0.502819  0.256854  1
  Nd  Nd7  1  0.497181  0.994361  0.256854  1
  Si  Si8  1  0.836858  0.163142  0.000376  1
  Si  Si9  1  0.836858  0.673716  0.000376  1
  Si  Si10  1  0.326284  0.163142  0.000376  1
  Si  Si11  1  0.833171  0.166829  0.500270  1
  Si  Si12  1  0.833171  0.666343  0.500270  1
  Si  Si13  1  0.333657  0.166829  0.500270  1
  Si  Si14  1  0.166748  0.833252  0.499797  1
  Si  Si15  1  0.666505  0.833252  0.499797  1
  Si  Si16  1  0.166748  0.333495  0.499797  1
  Si  Si17  1  0.166000  0.834000  0.000069  1
  Si  Si18  1  0.668000  0.834000  0.000069  1
  Si  Si19  1  0.166000  0.332000  0.000069  1
  Si  Si20  1  0.666667  0.333333  0.503163  1
  Si  Si21  1  0.333333  0.666667  0.497137  1
  Si  Si22  1  0.333333  0.666667  0.001953  1
  Ag  Ag23  1  0.666667  0.333333  0.996248  1
