# generated using pymatgen
data_Hf8Nb(CoP2)2
_symmetry_space_group_name_H-M   'P 1'
_cell_length_a   11.89713200
_cell_length_b   11.89713200
_cell_length_c   3.61821200
_cell_angle_alpha   90.00000000
_cell_angle_beta   90.00000000
_cell_angle_gamma   90.00000000
_symmetry_Int_Tables_number   1
_chemical_formula_structural   Hf8Nb(CoP2)2
_chemical_formula_sum   'Hf16 Nb2 Co4 P8'
_cell_volume   512.12805772
_cell_formula_units_Z   2
loop_
 _symmetry_equiv_pos_site_id
 _symmetry_equiv_pos_as_xyz
  1  'x, y, z'
loop_
 _atom_site_type_symbol
 _atom_site_label
 _atom_site_symmetry_multiplicity
 _atom_site_fract_x
 _atom_site_fract_y
 _atom_site_fract_z
 _atom_site_occupancy
  Hf  Hf0  1  0.178784  0.102369  0.500000  1
  Hf  Hf1  1  0.821216  0.897631  0.500000  1
  Hf  Hf2  1  0.102369  0.821216  0.500000  1
  Hf  Hf3  1  0.678784  0.397631  0.500000  1
  Hf  Hf4  1  0.897631  0.178784  0.500000  1
  Hf  Hf5  1  0.321216  0.602369  0.500000  1
  Hf  Hf6  1  0.602369  0.678784  0.500000  1
  Hf  Hf7  1  0.397631  0.321216  0.500000  1
  Hf  Hf8  1  0.621471  0.121471  0.500000  1
  Hf  Hf9  1  0.378529  0.878529  0.500000  1
  Hf  Hf10  1  0.121471  0.378529  0.500000  1
  Hf  Hf11  1  0.878529  0.621471  0.500000  1
  Hf  Hf12  1  0.096320  0.596320  0.000000  1
  Hf  Hf13  1  0.903680  0.403680  0.000000  1
  Hf  Hf14  1  0.596320  0.903680  0.000000  1
  Hf  Hf15  1  0.403680  0.096320  0.000000  1
  Nb  Nb16  1  0.000000  0.000000  0.000000  1
  Nb  Nb17  1  0.500000  0.500000  0.000000  1
  Co  Co18  1  0.749949  0.249949  0.000000  1
  Co  Co19  1  0.250051  0.750051  0.000000  1
  Co  Co20  1  0.249949  0.250051  0.000000  1
  Co  Co21  1  0.750051  0.749949  0.000000  1
  P  P22  1  0.056806  0.222866  0.000000  1
  P  P23  1  0.943194  0.777134  0.000000  1
  P  P24  1  0.222866  0.943194  0.000000  1
  P  P25  1  0.556806  0.277134  0.000000  1
  P  P26  1  0.777134  0.056806  0.000000  1
  P  P27  1  0.443194  0.722866  0.000000  1
  P  P28  1  0.722866  0.556806  0.000000  1
  P  P29  1  0.277134  0.443194  0.000000  1
