# generated using pymatgen
data_Ho4Tm16(Bi3Sb)3
_symmetry_space_group_name_H-M   'P 1'
_cell_length_a   8.12205420
_cell_length_b   9.39881300
_cell_length_c   11.86865329
_cell_angle_alpha   90.00000000
_cell_angle_beta   90.02539560
_cell_angle_gamma   90.00000000
_symmetry_Int_Tables_number   1
_chemical_formula_structural   Ho4Tm16(Bi3Sb)3
_chemical_formula_sum   'Ho4 Tm16 Bi9 Sb3'
_cell_volume   906.02523265
_cell_formula_units_Z   1
loop_
 _symmetry_equiv_pos_site_id
 _symmetry_equiv_pos_as_xyz
  1  'x, y, z'
loop_
 _atom_site_type_symbol
 _atom_site_label
 _atom_site_symmetry_multiplicity
 _atom_site_fract_x
 _atom_site_fract_y
 _atom_site_fract_z
 _atom_site_occupancy
  Ho  Ho0  1  0.317291  0.250000  0.216042  1
  Ho  Ho1  1  0.812563  0.250000  0.280365  1
  Ho  Ho2  1  0.683980  0.750000  0.782507  1
  Ho  Ho3  1  0.184021  0.750000  0.717437  1
  Tm  Tm4  1  0.353866  0.750000  0.214925  1
  Tm  Tm5  1  0.853843  0.750000  0.285031  1
  Tm  Tm6  1  0.646290  0.250000  0.785088  1
  Tm  Tm7  1  0.146859  0.250000  0.717761  1
  Tm  Tm8  1  0.688720  0.564287  0.058496  1
  Tm  Tm9  1  0.189710  0.932499  0.441350  1
  Tm  Tm10  1  0.311282  0.064149  0.941573  1
  Tm  Tm11  1  0.808898  0.437674  0.559506  1
  Tm  Tm12  1  0.311282  0.435851  0.941573  1
  Tm  Tm13  1  0.808898  0.062326  0.559506  1
  Tm  Tm14  1  0.688720  0.935713  0.058496  1
  Tm  Tm15  1  0.189710  0.567501  0.441350  1
  Tm  Tm16  1  0.477091  0.250000  0.489090  1
  Tm  Tm17  1  0.973760  0.250000  0.011043  1
  Tm  Tm18  1  0.526684  0.750000  0.511212  1
  Tm  Tm19  1  0.026322  0.750000  0.988890  1
  Bi  Bi20  1  0.095611  0.250000  0.458027  1
  Bi  Bi21  1  0.566079  0.995386  0.325920  1
  Bi  Bi22  1  0.066242  0.504411  0.174073  1
  Bi  Bi23  1  0.433681  0.495437  0.674120  1
  Bi  Bi24  1  0.933739  0.004386  0.825982  1
  Bi  Bi25  1  0.433681  0.004563  0.674120  1
  Bi  Bi26  1  0.933739  0.495614  0.825982  1
  Bi  Bi27  1  0.566079  0.504614  0.325920  1
  Bi  Bi28  1  0.066242  0.995589  0.174073  1
  Sb  Sb29  1  0.404762  0.750000  0.959224  1
  Sb  Sb30  1  0.904859  0.750000  0.540718  1
  Sb  Sb31  1  0.595494  0.250000  0.040596  1
