# generated using pymatgen
data_YbPr3Ho3CoI12
_symmetry_space_group_name_H-M   'P 1'
_cell_length_a   9.83072278
_cell_length_b   9.94357065
_cell_length_c   9.89223223
_cell_angle_alpha   106.51971655
_cell_angle_beta   107.18427865
_cell_angle_gamma   107.01261507
_symmetry_Int_Tables_number   1
_chemical_formula_structural   YbPr3Ho3CoI12
_chemical_formula_sum   'Yb1 Pr3 Ho3 Co1 I12'
_cell_volume   807.36232479
_cell_formula_units_Z   1
loop_
 _symmetry_equiv_pos_site_id
 _symmetry_equiv_pos_as_xyz
  1  'x, y, z'
loop_
 _atom_site_type_symbol
 _atom_site_label
 _atom_site_symmetry_multiplicity
 _atom_site_fract_x
 _atom_site_fract_y
 _atom_site_fract_z
 _atom_site_occupancy
  Yb  Yb0  1  0.499897  0.500437  0.499517  1
  Pr  Pr1  1  0.290556  0.025370  0.095299  1
  Pr  Pr2  1  0.900229  0.695683  0.976615  1
  Pr  Pr3  1  0.710383  0.976040  0.904670  1
  Ho  Ho4  1  0.974854  0.906142  0.706160  1
  Ho  Ho5  1  0.026590  0.098661  0.294308  1
  Ho  Ho6  1  0.097227  0.292762  0.024362  1
  Co  Co7  1  0.000639  0.000870  0.000744  1
  I  I8  1  0.530144  0.613930  0.839191  1
  I  I9  1  0.456704  0.386110  0.153876  1
  I  I10  1  0.310151  0.924551  0.766889  1
  I  I11  1  0.376347  0.157947  0.464364  1
  I  I12  1  0.932630  0.789421  0.330839  1
  I  I13  1  0.690160  0.075780  0.233360  1
  I  I14  1  0.070524  0.219449  0.682671  1
  I  I15  1  0.781986  0.321761  0.928972  1
  I  I16  1  0.229156  0.672851  0.073502  1
  I  I17  1  0.849474  0.547732  0.615460  1
  I  I18  1  0.148892  0.451667  0.373312  1
  I  I19  1  0.623456  0.842835  0.535891  1
