# generated using pymatgen
data_TbYP7(RuRh)6
_symmetry_space_group_name_H-M   'P 1'
_cell_length_a   3.87791802
_cell_length_b   9.55871109
_cell_length_c   9.55361262
_cell_angle_alpha   119.94643240
_cell_angle_beta   90.01134457
_cell_angle_gamma   89.99469062
_symmetry_Int_Tables_number   1
_chemical_formula_structural   TbYP7(RuRh)6
_chemical_formula_sum   'Tb1 Y1 P7 Ru6 Rh6'
_cell_volume   306.85300582
_cell_formula_units_Z   1
loop_
 _symmetry_equiv_pos_site_id
 _symmetry_equiv_pos_as_xyz
  1  'x, y, z'
loop_
 _atom_site_type_symbol
 _atom_site_label
 _atom_site_symmetry_multiplicity
 _atom_site_fract_x
 _atom_site_fract_y
 _atom_site_fract_z
 _atom_site_occupancy
  Tb  Tb0  1  0.746699  0.333132  0.666547  1
  Y  Y1  1  0.253261  0.666853  0.333448  1
  P  P2  1  0.499713  0.000000  0.000002  1
  P  P3  1  0.753678  0.882815  0.597712  1
  P  P4  1  0.753665  0.402553  0.285246  1
  P  P5  1  0.753953  0.714878  0.117243  1
  P  P6  1  0.246361  0.117157  0.402190  1
  P  P7  1  0.246381  0.597536  0.714818  1
  P  P8  1  0.246091  0.285056  0.882783  1
  Ru  Ru9  1  0.742684  0.115089  0.851984  1
  Ru  Ru10  1  0.743048  0.148380  0.262826  1
  Ru  Ru11  1  0.742917  0.737353  0.885406  1
  Ru  Ru12  1  0.257331  0.884842  0.147988  1
  Ru  Ru13  1  0.256968  0.851650  0.737137  1
  Ru  Ru14  1  0.257095  0.262680  0.114660  1
  Rh  Rh15  1  0.752691  0.616818  0.553377  1
  Rh  Rh16  1  0.752864  0.447042  0.063892  1
  Rh  Rh17  1  0.752651  0.936526  0.383190  1
  Rh  Rh18  1  0.247367  0.383179  0.446579  1
  Rh  Rh19  1  0.247191  0.553012  0.936161  1
  Rh  Rh20  1  0.247392  0.063449  0.616812  1
