# generated using pymatgen
data_ZrUCo6B
_symmetry_space_group_name_H-M   'P 1'
_cell_length_a   5.38337618
_cell_length_b   5.38337648
_cell_length_c   5.38337600
_cell_angle_alpha   59.99999066
_cell_angle_beta   59.99998879
_cell_angle_gamma   59.99999085
_symmetry_Int_Tables_number   1
_chemical_formula_structural   ZrUCo6B
_chemical_formula_sum   'Zr1 U1 Co6 B1'
_cell_volume   110.31869092
_cell_formula_units_Z   1
loop_
 _symmetry_equiv_pos_site_id
 _symmetry_equiv_pos_as_xyz
  1  'x, y, z'
loop_
 _atom_site_type_symbol
 _atom_site_label
 _atom_site_symmetry_multiplicity
 _atom_site_fract_x
 _atom_site_fract_y
 _atom_site_fract_z
 _atom_site_occupancy
  Zr  Zr0  1  0.250000  0.250000  0.250000  1
  U  U1  1  0.750000  0.750000  0.750000  1
  Co  Co2  1  0.740667  0.740667  0.259333  1
  Co  Co3  1  0.259333  0.740667  0.259333  1
  Co  Co4  1  0.740667  0.259333  0.259333  1
  Co  Co5  1  0.259333  0.259333  0.740667  1
  Co  Co6  1  0.740667  0.259333  0.740667  1
  Co  Co7  1  0.259333  0.740667  0.740667  1
  B  B8  1  0.000000  0.000000  0.000000  1
