# generated using pymatgen
data_Nd4HfV3F28
_symmetry_space_group_name_H-M   'P 1'
_cell_length_a   5.70515905
_cell_length_b   9.21997517
_cell_length_c   12.27243400
_cell_angle_alpha   62.46300786
_cell_angle_beta   89.91653425
_cell_angle_gamma   89.97887422
_symmetry_Int_Tables_number   1
_chemical_formula_structural   Nd4HfV3F28
_chemical_formula_sum   'Nd4 Hf1 V3 F28'
_cell_volume   572.41442663
_cell_formula_units_Z   1
loop_
 _symmetry_equiv_pos_site_id
 _symmetry_equiv_pos_as_xyz
  1  'x, y, z'
loop_
 _atom_site_type_symbol
 _atom_site_label
 _atom_site_symmetry_multiplicity
 _atom_site_fract_x
 _atom_site_fract_y
 _atom_site_fract_z
 _atom_site_occupancy
  Nd  Nd0  1  0.757746  0.806876  0.767039  1
  Nd  Nd1  1  0.256825  0.190247  0.738241  1
  Nd  Nd2  1  0.242112  0.192374  0.225900  1
  Nd  Nd3  1  0.742624  0.806864  0.267967  1
  Hf  Hf4  1  0.746187  0.271248  0.458042  1
  V  V5  1  0.753242  0.275944  0.956035  1
  V  V6  1  0.255667  0.724379  0.544744  1
  V  V7  1  0.245643  0.727012  0.042819  1
  F  F8  1  0.451620  0.711904  0.926748  1
  F  F9  1  0.954353  0.292843  0.580765  1
  F  F10  1  0.548526  0.292798  0.071924  1
  F  F11  1  0.049400  0.709560  0.428268  1
  F  F12  1  0.455684  0.284624  0.546845  1
  F  F13  1  0.978962  0.713528  0.953203  1
  F  F14  1  0.523510  0.714933  0.453267  1
  F  F15  1  0.022546  0.291558  0.043514  1
  F  F16  1  0.758334  0.500266  0.865291  1
  F  F17  1  0.266560  0.498594  0.634846  1
  F  F18  1  0.240125  0.502086  0.133846  1
  F  F19  1  0.734727  0.515599  0.358199  1
  F  F20  1  0.761036  0.052950  0.046800  1
  F  F21  1  0.258734  0.947898  0.454292  1
  F  F22  1  0.238869  0.951546  0.953095  1
  F  F23  1  0.739650  0.028033  0.555828  1
  F  F24  1  0.997025  0.728154  0.641603  1
  F  F25  1  0.490751  0.265536  0.864661  1
  F  F26  1  0.024974  0.264534  0.359796  1
  F  F27  1  0.506067  0.739092  0.135123  1
  F  F28  1  0.040815  0.747436  0.159400  1
  F  F29  1  0.541754  0.250702  0.331481  1
  F  F30  1  0.956331  0.257068  0.838967  1
  F  F31  1  0.459029  0.739968  0.663409  1
  F  F32  1  0.419575  0.972615  0.228837  1
  F  F33  1  0.920276  0.027767  0.268489  1
  F  F34  1  0.581638  0.028685  0.768863  1
  F  F35  1  0.079081  0.974777  0.731854  1
