# generated using pymatgen
data_TbZn3InRu
_symmetry_space_group_name_H-M   'P 1'
_cell_length_a   5.29352000
_cell_length_b   5.29352066
_cell_length_c   5.32784200
_cell_angle_alpha   60.21287059
_cell_angle_beta   60.21287893
_cell_angle_gamma   60.00000521
_symmetry_Int_Tables_number   1
_chemical_formula_structural   TbZn3InRu
_chemical_formula_sum   'Tb1 Zn3 In1 Ru1'
_cell_volume   105.90475142
_cell_formula_units_Z   1
loop_
 _symmetry_equiv_pos_site_id
 _symmetry_equiv_pos_as_xyz
  1  'x, y, z'
loop_
 _atom_site_type_symbol
 _atom_site_label
 _atom_site_symmetry_multiplicity
 _atom_site_fract_x
 _atom_site_fract_y
 _atom_site_fract_z
 _atom_site_occupancy
  Tb  Tb0  1  0.997612  0.997612  0.007166  1
  Zn  Zn1  1  0.625177  0.124376  0.625269  1
  Zn  Zn2  1  0.124376  0.625177  0.625269  1
  Zn  Zn3  1  0.625177  0.625177  0.625269  1
  In  In4  1  0.253067  0.253067  0.240799  1
  Ru  Ru5  1  0.624590  0.624590  0.126228  1
