# generated using pymatgen
data_Ho4Zr3SnIr4
_symmetry_space_group_name_H-M   'P 1'
_cell_length_a   4.45543500
_cell_length_b   7.16587532
_cell_length_c   8.32813760
_cell_angle_alpha   93.65372244
_cell_angle_beta   90.00000000
_cell_angle_gamma   90.00000000
_symmetry_Int_Tables_number   1
_chemical_formula_structural   Ho4Zr3SnIr4
_chemical_formula_sum   'Ho4 Zr3 Sn1 Ir4'
_cell_volume   265.35276221
_cell_formula_units_Z   1
loop_
 _symmetry_equiv_pos_site_id
 _symmetry_equiv_pos_as_xyz
  1  'x, y, z'
loop_
 _atom_site_type_symbol
 _atom_site_label
 _atom_site_symmetry_multiplicity
 _atom_site_fract_x
 _atom_site_fract_y
 _atom_site_fract_z
 _atom_site_occupancy
  Ho  Ho0  1  0.250000  0.033128  0.335242  1
  Ho  Ho1  1  0.250000  0.518590  0.177904  1
  Ho  Ho2  1  0.750000  0.993864  0.667164  1
  Ho  Ho3  1  0.750000  0.462753  0.817216  1
  Zr  Zr4  1  0.250000  0.134177  0.926436  1
  Zr  Zr5  1  0.250000  0.643236  0.564892  1
  Zr  Zr6  1  0.750000  0.856435  0.072701  1
  Sn  Sn7  1  0.750000  0.356531  0.426032  1
  Ir  Ir8  1  0.250000  0.268932  0.627443  1
  Ir  Ir9  1  0.250000  0.759353  0.895300  1
  Ir  Ir10  1  0.750000  0.743338  0.389967  1
  Ir  Ir11  1  0.750000  0.229662  0.099704  1
