# generated using pymatgen
data_Ce3Ho(Al3Rh)6
_symmetry_space_group_name_H-M   'P 1'
_cell_length_a   7.60843127
_cell_length_b   7.60678776
_cell_length_c   9.44936500
_cell_angle_alpha   90.00000000
_cell_angle_beta   90.00000000
_cell_angle_gamma   119.47535635
_symmetry_Int_Tables_number   1
_chemical_formula_structural   Ce3Ho(Al3Rh)6
_chemical_formula_sum   'Ce3 Ho1 Al18 Rh6'
_cell_volume   476.10358571
_cell_formula_units_Z   1
loop_
 _symmetry_equiv_pos_site_id
 _symmetry_equiv_pos_as_xyz
  1  'x, y, z'
loop_
 _atom_site_type_symbol
 _atom_site_label
 _atom_site_symmetry_multiplicity
 _atom_site_fract_x
 _atom_site_fract_y
 _atom_site_fract_z
 _atom_site_occupancy
  Ce  Ce0  1  0.003538  0.328052  0.750000  1
  Ce  Ce1  1  0.671905  0.996605  0.250000  1
  Ce  Ce2  1  0.328701  0.004101  0.750000  1
  Ho  Ho3  1  0.994693  0.672322  0.250000  1
  Al  Al4  1  0.002368  0.337982  0.077715  1
  Al  Al5  1  0.998070  0.664147  0.926042  1
  Al  Al6  1  0.998070  0.664147  0.573958  1
  Al  Al7  1  0.333760  0.000010  0.421950  1
  Al  Al8  1  0.002368  0.337982  0.422285  1
  Al  Al9  1  0.664211  0.997126  0.575580  1
  Al  Al10  1  0.664211  0.997126  0.924420  1
  Al  Al11  1  0.333760  0.000010  0.078050  1
  Al  Al12  1  0.334199  0.334273  0.547334  1
  Al  Al13  1  0.667534  0.666086  0.448551  1
  Al  Al14  1  0.667534  0.666086  0.051449  1
  Al  Al15  1  0.334199  0.334273  0.952666  1
  Al  Al16  1  0.128141  0.128205  0.250000  1
  Al  Al17  1  0.869309  0.868437  0.750000  1
  Al  Al18  1  0.341876  0.551091  0.250000  1
  Al  Al19  1  0.658742  0.452243  0.750000  1
  Al  Al20  1  0.551482  0.343125  0.250000  1
  Al  Al21  1  0.450797  0.656882  0.750000  1
  Rh  Rh22  1  0.672184  0.327670  0.000041  1
  Rh  Rh23  1  0.327974  0.672159  0.999884  1
  Rh  Rh24  1  0.327974  0.672159  0.500116  1
  Rh  Rh25  1  0.672184  0.327670  0.499959  1
  Rh  Rh26  1  0.000109  0.000016  0.999809  1
  Rh  Rh27  1  0.000109  0.000016  0.500191  1
