# generated using pymatgen
data_Nd2TmZr(Al3Ir)6
_symmetry_space_group_name_H-M   'P 1'
_cell_length_a   7.56326172
_cell_length_b   7.55660079
_cell_length_c   9.46847400
_cell_angle_alpha   90.00000000
_cell_angle_beta   90.00000000
_cell_angle_gamma   119.53429221
_symmetry_Int_Tables_number   1
_chemical_formula_structural   Nd2TmZr(Al3Ir)6
_chemical_formula_sum   'Nd2 Tm1 Zr1 Al18 Ir6'
_cell_volume   470.83117510
_cell_formula_units_Z   1
loop_
 _symmetry_equiv_pos_site_id
 _symmetry_equiv_pos_as_xyz
  1  'x, y, z'
loop_
 _atom_site_type_symbol
 _atom_site_label
 _atom_site_symmetry_multiplicity
 _atom_site_fract_x
 _atom_site_fract_y
 _atom_site_fract_z
 _atom_site_occupancy
  Nd  Nd0  1  0.005284  0.327806  0.750000  1
  Nd  Nd1  1  0.329465  0.006290  0.750000  1
  Tm  Tm2  1  0.671610  0.995789  0.250000  1
  Zr  Zr3  1  0.997007  0.672859  0.250000  1
  Al  Al4  1  0.124346  0.122430  0.250000  1
  Al  Al5  1  0.867616  0.866438  0.750000  1
  Al  Al6  1  0.999879  0.337933  0.081698  1
  Al  Al7  1  0.997703  0.664963  0.934320  1
  Al  Al8  1  0.997703  0.664963  0.565680  1
  Al  Al9  1  0.333103  0.998095  0.418206  1
  Al  Al10  1  0.999879  0.337933  0.418302  1
  Al  Al11  1  0.664492  0.996380  0.569132  1
  Al  Al12  1  0.664492  0.996380  0.930868  1
  Al  Al13  1  0.333103  0.998095  0.081794  1
  Al  Al14  1  0.334806  0.334956  0.543463  1
  Al  Al15  1  0.669033  0.667463  0.441391  1
  Al  Al16  1  0.669033  0.667463  0.058609  1
  Al  Al17  1  0.334806  0.334956  0.956537  1
  Al  Al18  1  0.337279  0.551251  0.250000  1
  Al  Al19  1  0.661001  0.454574  0.750000  1
  Al  Al20  1  0.556129  0.344104  0.250000  1
  Al  Al21  1  0.453523  0.659925  0.750000  1
  Ir  Ir22  1  0.672586  0.328797  0.002901  1
  Ir  Ir23  1  0.328901  0.672632  0.003679  1
  Ir  Ir24  1  0.328901  0.672632  0.496321  1
  Ir  Ir25  1  0.672586  0.328797  0.497099  1
  Ir  Ir26  1  0.997869  0.998048  0.003287  1
  Ir  Ir27  1  0.997869  0.998048  0.496713  1
