# generated using pymatgen
data_Th3Pa(Ge2Ir)4
_symmetry_space_group_name_H-M   'P 1'
_cell_length_a   9.58131750
_cell_length_b   9.58131691
_cell_length_c   9.58131678
_cell_angle_alpha   153.36050661
_cell_angle_beta   125.12615505
_cell_angle_gamma   62.01606098
_symmetry_Int_Tables_number   1
_chemical_formula_structural   Th3Pa(Ge2Ir)4
_chemical_formula_sum   'Th3 Pa1 Ge8 Ir4'
_cell_volume   320.11423082
_cell_formula_units_Z   1
loop_
 _symmetry_equiv_pos_site_id
 _symmetry_equiv_pos_as_xyz
  1  'x, y, z'
loop_
 _atom_site_type_symbol
 _atom_site_label
 _atom_site_symmetry_multiplicity
 _atom_site_fract_x
 _atom_site_fract_y
 _atom_site_fract_z
 _atom_site_occupancy
  Th  Th0  1  0.293208  0.793208  0.500000  1
  Th  Th1  1  0.263946  0.000137  0.263809  1
  Th  Th2  1  0.736329  0.000137  0.736191  1
  Pa  Pa3  1  0.708647  0.208647  0.500000  1
  Ge  Ge4  1  0.576501  0.576501  0.000000  1
  Ge  Ge5  1  0.953754  0.801516  0.152238  1
  Ge  Ge6  1  0.649279  0.801516  0.847762  1
  Ge  Ge7  1  0.040856  0.196644  0.844212  1
  Ge  Ge8  1  0.926323  0.426323  0.500000  1
  Ge  Ge9  1  0.425017  0.425017  0.000000  1
  Ge  Ge10  1  0.076142  0.576142  0.500000  1
  Ge  Ge11  1  0.352432  0.196644  0.155788  1
  Ir  Ir12  1  0.896447  0.647902  0.248544  1
  Ir  Ir13  1  0.097334  0.350881  0.746453  1
  Ir  Ir14  1  0.604426  0.350881  0.253547  1
  Ir  Ir15  1  0.399359  0.647902  0.751456  1
