# generated using pymatgen
data_DyMg(Si7Ir3)2
_symmetry_space_group_name_H-M   'P 1'
_cell_length_a   8.00302787
_cell_length_b   8.00302732
_cell_length_c   8.00302722
_cell_angle_alpha   56.68229396
_cell_angle_beta   56.68229767
_cell_angle_gamma   56.68229412
_symmetry_Int_Tables_number   1
_chemical_formula_structural   DyMg(Si7Ir3)2
_chemical_formula_sum   'Dy1 Mg1 Si14 Ir6'
_cell_volume   334.67991114
_cell_formula_units_Z   1
loop_
 _symmetry_equiv_pos_site_id
 _symmetry_equiv_pos_as_xyz
  1  'x, y, z'
loop_
 _atom_site_type_symbol
 _atom_site_label
 _atom_site_symmetry_multiplicity
 _atom_site_fract_x
 _atom_site_fract_y
 _atom_site_fract_z
 _atom_site_occupancy
  Dy  Dy0  1  0.000000  0.000000  0.000000  1
  Mg  Mg1  1  0.500000  0.500000  0.500000  1
  Si  Si2  1  0.848731  0.066173  0.671512  1
  Si  Si3  1  0.671512  0.848731  0.066173  1
  Si  Si4  1  0.066173  0.671512  0.848731  1
  Si  Si5  1  0.647977  0.825325  0.436673  1
  Si  Si6  1  0.249761  0.249761  0.249761  1
  Si  Si7  1  0.750239  0.750239  0.750239  1
  Si  Si8  1  0.174675  0.563327  0.352023  1
  Si  Si9  1  0.563327  0.352023  0.174675  1
  Si  Si10  1  0.352023  0.174675  0.563327  1
  Si  Si11  1  0.933827  0.328488  0.151269  1
  Si  Si12  1  0.328488  0.151269  0.933827  1
  Si  Si13  1  0.151269  0.933827  0.328488  1
  Si  Si14  1  0.825325  0.436673  0.647977  1
  Si  Si15  1  0.436673  0.647977  0.825325  1
  Ir  Ir16  1  0.749559  0.072644  0.427731  1
  Ir  Ir17  1  0.427731  0.749559  0.072644  1
  Ir  Ir18  1  0.072644  0.427731  0.749559  1
  Ir  Ir19  1  0.250441  0.927356  0.572269  1
  Ir  Ir20  1  0.572269  0.250441  0.927356  1
  Ir  Ir21  1  0.927356  0.572269  0.250441  1
