# generated using pymatgen
data_Hf9Ta2TcNiOs
_symmetry_space_group_name_H-M   'P 1'
_cell_length_a   8.73097548
_cell_length_b   8.68924044
_cell_length_c   8.48994400
_cell_angle_alpha   90.00000000
_cell_angle_beta   90.00000000
_cell_angle_gamma   120.16129979
_symmetry_Int_Tables_number   1
_chemical_formula_structural   Hf9Ta2TcNiOs
_chemical_formula_sum   'Hf18 Ta4 Tc2 Ni2 Os2'
_cell_volume   556.89312541
_cell_formula_units_Z   2
loop_
 _symmetry_equiv_pos_site_id
 _symmetry_equiv_pos_as_xyz
  1  'x, y, z'
loop_
 _atom_site_type_symbol
 _atom_site_label
 _atom_site_symmetry_multiplicity
 _atom_site_fract_x
 _atom_site_fract_y
 _atom_site_fract_z
 _atom_site_occupancy
  Hf  Hf0  1  0.202026  0.799021  0.442885  1
  Hf  Hf1  1  0.201012  0.400729  0.443117  1
  Hf  Hf2  1  0.598473  0.799370  0.442122  1
  Hf  Hf3  1  0.799920  0.200211  0.558970  1
  Hf  Hf4  1  0.800240  0.598917  0.556293  1
  Hf  Hf5  1  0.402485  0.200683  0.557756  1
  Hf  Hf6  1  0.799920  0.200211  0.941030  1
  Hf  Hf7  1  0.800240  0.598917  0.943707  1
  Hf  Hf8  1  0.402485  0.200683  0.942244  1
  Hf  Hf9  1  0.202026  0.799021  0.057115  1
  Hf  Hf10  1  0.201012  0.400729  0.056883  1
  Hf  Hf11  1  0.598473  0.799370  0.057878  1
  Hf  Hf12  1  0.543611  0.459721  0.250000  1
  Hf  Hf13  1  0.544605  0.085410  0.250000  1
  Hf  Hf14  1  0.915856  0.456721  0.250000  1
  Hf  Hf15  1  0.457828  0.542845  0.750000  1
  Hf  Hf16  1  0.457967  0.914948  0.750000  1
  Hf  Hf17  1  0.083814  0.541001  0.750000  1
  Ta  Ta18  1  0.229237  0.115496  0.250000  1
  Ta  Ta19  1  0.112285  0.885993  0.750000  1
  Ta  Ta20  1  0.993690  0.000051  0.499191  1
  Ta  Ta21  1  0.993690  0.000051  0.000809  1
  Tc  Tc22  1  0.886530  0.114548  0.250000  1
  Tc  Tc23  1  0.884649  0.771561  0.250000  1
  Ni  Ni24  1  0.336078  0.666900  0.250000  1
  Ni  Ni25  1  0.668733  0.333116  0.750000  1
  Os  Os26  1  0.112718  0.228663  0.750000  1
  Os  Os27  1  0.770402  0.885114  0.750000  1
