# generated using pymatgen
data_UCd(P2O7)2
_symmetry_space_group_name_H-M   'P 1'
_cell_length_a   8.73377462
_cell_length_b   5.26077155
_cell_length_c   7.33226595
_cell_angle_alpha   70.86167929
_cell_angle_beta   91.42205278
_cell_angle_gamma   90.28894244
_symmetry_Int_Tables_number   1
_chemical_formula_structural   UCd(P2O7)2
_chemical_formula_sum   'U1 Cd1 P4 O14'
_cell_volume   318.17141744
_cell_formula_units_Z   1
loop_
 _symmetry_equiv_pos_site_id
 _symmetry_equiv_pos_as_xyz
  1  'x, y, z'
loop_
 _atom_site_type_symbol
 _atom_site_label
 _atom_site_symmetry_multiplicity
 _atom_site_fract_x
 _atom_site_fract_y
 _atom_site_fract_z
 _atom_site_occupancy
  U  U0  1  0.050915  0.198126  0.286629  1
  Cd  Cd1  1  0.546313  0.795494  0.727941  1
  P  P2  1  0.274455  0.770963  0.087962  1
  P  P3  1  0.771629  0.225760  0.905704  1
  P  P4  1  0.385364  0.414922  0.470993  1
  P  P5  1  0.861405  0.597127  0.532474  1
  O  O6  1  0.362631  0.589946  0.592332  1
  O  O7  1  0.638650  0.390585  0.926298  1
  O  O8  1  0.137006  0.568924  0.099188  1
  O  O9  1  0.220841  0.266165  0.459112  1
  O  O10  1  0.883784  0.163760  0.096534  1
  O  O11  1  0.207187  0.994107  0.162743  1
  O  O12  1  0.342650  0.880038  0.895013  1
  O  O13  1  0.992003  0.815786  0.488063  1
  O  O14  1  0.398210  0.605752  0.243469  1
  O  O15  1  0.899117  0.410954  0.409320  1
  O  O16  1  0.509456  0.209968  0.506540  1
  O  O17  1  0.749418  0.968725  0.862962  1
  O  O18  1  0.705407  0.716543  0.495779  1
  O  O19  1  0.895283  0.416356  0.750944  1
