# generated using pymatgen
data_EuCrCu(Sb6Os)2
_symmetry_space_group_name_H-M   'P 1'
_cell_length_a   8.22018745
_cell_length_b   8.21319623
_cell_length_c   8.18828681
_cell_angle_alpha   109.44389378
_cell_angle_beta   109.50117547
_cell_angle_gamma   109.37137044
_symmetry_Int_Tables_number   1
_chemical_formula_structural   EuCrCu(Sb6Os)2
_chemical_formula_sum   'Eu1 Cr1 Cu1 Sb12 Os2'
_cell_volume   426.07362675
_cell_formula_units_Z   1
loop_
 _symmetry_equiv_pos_site_id
 _symmetry_equiv_pos_as_xyz
  1  'x, y, z'
loop_
 _atom_site_type_symbol
 _atom_site_label
 _atom_site_symmetry_multiplicity
 _atom_site_fract_x
 _atom_site_fract_y
 _atom_site_fract_z
 _atom_site_occupancy
  Eu  Eu0  1  0.000000  0.000000  0.000000  1
  Cr  Cr1  1  0.000000  0.000000  0.500000  1
  Cu  Cu2  1  0.500000  0.000000  0.000000  1
  Sb  Sb3  1  0.338225  0.158328  0.496302  1
  Sb  Sb4  1  0.337927  0.840522  0.185988  1
  Sb  Sb5  1  0.662073  0.159478  0.814012  1
  Sb  Sb6  1  0.819921  0.661545  0.158150  1
  Sb  Sb7  1  0.157864  0.494506  0.338098  1
  Sb  Sb8  1  0.502100  0.655077  0.841791  1
  Sb  Sb9  1  0.848203  0.188400  0.346314  1
  Sb  Sb10  1  0.661775  0.841672  0.503698  1
  Sb  Sb11  1  0.180079  0.338455  0.841850  1
  Sb  Sb12  1  0.151797  0.811600  0.653686  1
  Sb  Sb13  1  0.497900  0.344923  0.158209  1
  Sb  Sb14  1  0.842136  0.505494  0.661902  1
  Os  Os15  1  0.500000  0.500000  0.500000  1
  Os  Os16  1  0.000000  0.500000  0.000000  1
