# generated using pymatgen
data_Li2TbThSi2Sn
_symmetry_space_group_name_H-M   'P 1'
_cell_length_a   9.65995747
_cell_length_b   9.65995931
_cell_length_c   6.84442600
_cell_angle_alpha   90.00000000
_cell_angle_beta   90.00000000
_cell_angle_gamma   153.28224601
_symmetry_Int_Tables_number   1
_chemical_formula_structural   Li2TbThSi2Sn
_chemical_formula_sum   'Li4 Tb2 Th2 Si4 Sn2'
_cell_volume   287.15064175
_cell_formula_units_Z   2
loop_
 _symmetry_equiv_pos_site_id
 _symmetry_equiv_pos_as_xyz
  1  'x, y, z'
loop_
 _atom_site_type_symbol
 _atom_site_label
 _atom_site_symmetry_multiplicity
 _atom_site_fract_x
 _atom_site_fract_y
 _atom_site_fract_z
 _atom_site_occupancy
  Li  Li0  1  0.184069  0.815931  0.056923  1
  Li  Li1  1  0.184069  0.815931  0.443077  1
  Li  Li2  1  0.815931  0.184069  0.943077  1
  Li  Li3  1  0.815931  0.184069  0.556923  1
  Tb  Tb4  1  0.352663  0.647337  0.250000  1
  Tb  Tb5  1  0.647337  0.352663  0.750000  1
  Th  Th6  1  0.548372  0.451628  0.250000  1
  Th  Th7  1  0.451628  0.548372  0.750000  1
  Si  Si8  1  0.058132  0.941868  0.930622  1
  Si  Si9  1  0.941868  0.058132  0.069378  1
  Si  Si10  1  0.941868  0.058132  0.430622  1
  Si  Si11  1  0.058132  0.941868  0.569378  1
  Sn  Sn12  1  0.722232  0.277768  0.250000  1
  Sn  Sn13  1  0.277768  0.722232  0.750000  1
