# generated using pymatgen
data_ZrSc7(Si4Mo3)4
_symmetry_space_group_name_H-M   'P 1'
_cell_length_a   6.57413632
_cell_length_b   6.78725532
_cell_length_c   12.70700994
_cell_angle_alpha   90.02866332
_cell_angle_beta   90.03341894
_cell_angle_gamma   90.09021812
_symmetry_Int_Tables_number   1
_chemical_formula_structural   ZrSc7(Si4Mo3)4
_chemical_formula_sum   'Zr1 Sc7 Si16 Mo12'
_cell_volume   566.99025452
_cell_formula_units_Z   1
loop_
 _symmetry_equiv_pos_site_id
 _symmetry_equiv_pos_as_xyz
  1  'x, y, z'
loop_
 _atom_site_type_symbol
 _atom_site_label
 _atom_site_symmetry_multiplicity
 _atom_site_fract_x
 _atom_site_fract_y
 _atom_site_fract_z
 _atom_site_occupancy
  Zr  Zr0  1  0.496472  0.330497  0.093987  1
  Sc  Sc1  1  0.995475  0.169639  0.407999  1
  Sc  Sc2  1  0.504404  0.669524  0.592804  1
  Sc  Sc3  1  0.004708  0.830587  0.907039  1
  Sc  Sc4  1  0.504111  0.669018  0.906993  1
  Sc  Sc5  1  0.003973  0.830395  0.592862  1
  Sc  Sc6  1  0.495137  0.330505  0.407517  1
  Sc  Sc7  1  0.994351  0.169467  0.092041  1
  Si  Si8  1  0.664493  0.036627  0.545217  1
  Si  Si9  1  0.166306  0.462808  0.955133  1
  Si  Si10  1  0.334053  0.960616  0.043856  1
  Si  Si11  1  0.835299  0.537311  0.455288  1
  Si  Si12  1  0.335610  0.963183  0.454856  1
  Si  Si13  1  0.835470  0.539221  0.043506  1
  Si  Si14  1  0.665209  0.036472  0.955155  1
  Si  Si15  1  0.164845  0.462920  0.545216  1
  Si  Si16  1  0.532493  0.377133  0.749260  1
  Si  Si17  1  0.032512  0.123256  0.749552  1
  Si  Si18  1  0.466905  0.624958  0.250555  1
  Si  Si19  1  0.968018  0.876774  0.249836  1
  Si  Si20  1  0.799895  0.640686  0.750113  1
  Si  Si21  1  0.300006  0.859368  0.749677  1
  Si  Si22  1  0.198205  0.359415  0.251456  1
  Si  Si23  1  0.701577  0.139228  0.251485  1
  Mo  Mo24  1  0.829518  0.335868  0.623883  1
  Mo  Mo25  1  0.330407  0.165851  0.876147  1
  Mo  Mo26  1  0.170235  0.662571  0.124471  1
  Mo  Mo27  1  0.670991  0.833926  0.375917  1
  Mo  Mo28  1  0.170566  0.665053  0.376218  1
  Mo  Mo29  1  0.669634  0.835683  0.123956  1
  Mo  Mo30  1  0.829411  0.334383  0.876063  1
  Mo  Mo31  1  0.329908  0.164873  0.624103  1
  Mo  Mo32  1  0.664946  0.994556  0.749701  1
  Mo  Mo33  1  0.164983  0.505522  0.750288  1
  Mo  Mo34  1  0.335089  0.007659  0.249014  1
  Mo  Mo35  1  0.834783  0.494447  0.248832  1
