# generated using pymatgen
data_Er2Tm2Os7W
_symmetry_space_group_name_H-M   'P 1'
_cell_length_a   5.44322591
_cell_length_b   5.24575836
_cell_length_c   8.90957201
_cell_angle_alpha   90.00599525
_cell_angle_beta   89.99846007
_cell_angle_gamma   121.15005521
_symmetry_Int_Tables_number   1
_chemical_formula_structural   Er2Tm2Os7W
_chemical_formula_sum   'Er2 Tm2 Os7 W1'
_cell_volume   217.72165569
_cell_formula_units_Z   1
loop_
 _symmetry_equiv_pos_site_id
 _symmetry_equiv_pos_as_xyz
  1  'x, y, z'
loop_
 _atom_site_type_symbol
 _atom_site_label
 _atom_site_symmetry_multiplicity
 _atom_site_fract_x
 _atom_site_fract_y
 _atom_site_fract_z
 _atom_site_occupancy
  Er  Er0  1  0.670972  0.341951  0.562855  1
  Er  Er1  1  0.334029  0.668702  0.433882  1
  Tm  Tm2  1  0.334071  0.668682  0.065914  1
  Tm  Tm3  1  0.671166  0.342259  0.937345  1
  Os  Os4  1  0.006723  0.013910  0.497309  1
  Os  Os5  1  0.006591  0.013755  0.002700  1
  Os  Os6  1  0.173013  0.823362  0.750598  1
  Os  Os7  1  0.650123  0.823752  0.750645  1
  Os  Os8  1  0.823409  0.647102  0.249380  1
  Os  Os9  1  0.828145  0.165255  0.249502  1
  Os  Os10  1  0.338842  0.166145  0.249412  1
  W  W11  1  0.162914  0.325124  0.750457  1
