# generated using pymatgen
data_Y18Lu2CdIn5Ru2
_symmetry_space_group_name_H-M   'P 1'
_cell_length_a   9.75873125
_cell_length_b   9.83102694
_cell_length_c   9.67901600
_cell_angle_alpha   90.00000000
_cell_angle_beta   90.00000000
_cell_angle_gamma   120.24537154
_symmetry_Int_Tables_number   1
_chemical_formula_structural   Y18Lu2CdIn5Ru2
_chemical_formula_sum   'Y18 Lu2 Cd1 In5 Ru2'
_cell_volume   802.18578221
_cell_formula_units_Z   1
loop_
 _symmetry_equiv_pos_site_id
 _symmetry_equiv_pos_as_xyz
  1  'x, y, z'
loop_
 _atom_site_type_symbol
 _atom_site_label
 _atom_site_symmetry_multiplicity
 _atom_site_fract_x
 _atom_site_fract_y
 _atom_site_fract_z
 _atom_site_occupancy
  Y  Y0  1  0.209831  0.791183  0.439859  1
  Y  Y1  1  0.209831  0.418649  0.439859  1
  Y  Y2  1  0.580601  0.790301  0.437567  1
  Y  Y3  1  0.790919  0.210440  0.560235  1
  Y  Y4  1  0.790919  0.580478  0.560235  1
  Y  Y5  1  0.418164  0.209082  0.562058  1
  Y  Y6  1  0.790919  0.210440  0.939765  1
  Y  Y7  1  0.790919  0.580478  0.939765  1
  Y  Y8  1  0.418164  0.209082  0.937942  1
  Y  Y9  1  0.209831  0.791183  0.060141  1
  Y  Y10  1  0.209831  0.418649  0.060141  1
  Y  Y11  1  0.580601  0.790301  0.062433  1
  Y  Y12  1  0.540936  0.459717  0.250000  1
  Y  Y13  1  0.540936  0.081220  0.250000  1
  Y  Y14  1  0.922409  0.461205  0.250000  1
  Y  Y15  1  0.461905  0.542575  0.750000  1
  Y  Y16  1  0.461905  0.919329  0.750000  1
  Y  Y17  1  0.082384  0.541192  0.750000  1
  Lu  Lu18  1  0.996177  0.998089  0.502508  1
  Lu  Lu19  1  0.996177  0.998089  0.997492  1
  Cd  Cd20  1  0.770117  0.885058  0.750000  1
  In  In21  1  0.885650  0.115979  0.250000  1
  In  In22  1  0.885650  0.769671  0.250000  1
  In  In23  1  0.227911  0.113956  0.250000  1
  In  In24  1  0.114535  0.883315  0.750000  1
  In  In25  1  0.114535  0.231220  0.750000  1
  Ru  Ru26  1  0.330861  0.665431  0.250000  1
  Ru  Ru27  1  0.667380  0.333690  0.750000  1
