# generated using pymatgen
data_Hf5SnBSb2
_symmetry_space_group_name_H-M   'P 1'
_cell_length_a   8.44758902
_cell_length_b   8.44758987
_cell_length_c   5.74008100
_cell_angle_alpha   90.00000000
_cell_angle_beta   90.00000000
_cell_angle_gamma   120.00208121
_symmetry_Int_Tables_number   1
_chemical_formula_structural   Hf5SnBSb2
_chemical_formula_sum   'Hf10 Sn2 B2 Sb4'
_cell_volume   354.73589968
_cell_formula_units_Z   2
loop_
 _symmetry_equiv_pos_site_id
 _symmetry_equiv_pos_as_xyz
  1  'x, y, z'
loop_
 _atom_site_type_symbol
 _atom_site_label
 _atom_site_symmetry_multiplicity
 _atom_site_fract_x
 _atom_site_fract_y
 _atom_site_fract_z
 _atom_site_occupancy
  Hf  Hf0  1  0.666515  0.334486  0.001017  1
  Hf  Hf1  1  0.334486  0.666515  0.001017  1
  Hf  Hf2  1  0.334486  0.666515  0.498983  1
  Hf  Hf3  1  0.666515  0.334486  0.498983  1
  Hf  Hf4  1  0.769352  0.769352  0.750000  1
  Hf  Hf5  1  0.228731  0.998983  0.750000  1
  Hf  Hf6  1  0.998983  0.228731  0.750000  1
  Hf  Hf7  1  0.231285  0.231285  0.250000  1
  Hf  Hf8  1  0.769159  0.001157  0.250000  1
  Hf  Hf9  1  0.001157  0.769159  0.250000  1
  Sn  Sn10  1  0.399916  0.000380  0.250000  1
  Sn  Sn11  1  0.000380  0.399916  0.250000  1
  B  B12  1  0.999763  0.999763  0.000808  1
  B  B13  1  0.999763  0.999763  0.499192  1
  Sb  Sb14  1  0.398640  0.398640  0.750000  1
  Sb  Sb15  1  0.598498  0.000800  0.750000  1
  Sb  Sb16  1  0.000800  0.598498  0.750000  1
  Sb  Sb17  1  0.601568  0.601568  0.250000  1
