# generated using pymatgen
data_PdRh(SeO3)4
_symmetry_space_group_name_H-M   'P 1'
_cell_length_a   6.97628611
_cell_length_b   5.26681409
_cell_length_c   9.16345993
_cell_angle_alpha   55.31992374
_cell_angle_beta   89.50700182
_cell_angle_gamma   89.51269461
_symmetry_Int_Tables_number   1
_chemical_formula_structural   PdRh(SeO3)4
_chemical_formula_sum   'Pd1 Rh1 Se4 O12'
_cell_volume   276.86237689
_cell_formula_units_Z   1
loop_
 _symmetry_equiv_pos_site_id
 _symmetry_equiv_pos_as_xyz
  1  'x, y, z'
loop_
 _atom_site_type_symbol
 _atom_site_label
 _atom_site_symmetry_multiplicity
 _atom_site_fract_x
 _atom_site_fract_y
 _atom_site_fract_z
 _atom_site_occupancy
  Pd  Pd0  1  0.000000  0.000000  0.000000  1
  Rh  Rh1  1  0.500000  0.000000  0.500000  1
  Se  Se2  1  0.826086  0.318773  0.192425  1
  Se  Se3  1  0.676780  0.310725  0.695379  1
  Se  Se4  1  0.173914  0.681227  0.807575  1
  Se  Se5  1  0.323220  0.689275  0.304621  1
  O  O6  1  0.835461  0.320458  0.999368  1
  O  O7  1  0.667259  0.311677  0.504388  1
  O  O8  1  0.164539  0.679542  0.000632  1
  O  O9  1  0.332741  0.688323  0.495612  1
  O  O10  1  0.588988  0.187311  0.249629  1
  O  O11  1  0.916243  0.192759  0.745293  1
  O  O12  1  0.411012  0.812689  0.750371  1
  O  O13  1  0.083757  0.807241  0.254707  1
  O  O14  1  0.771056  0.709855  0.087393  1
  O  O15  1  0.721267  0.709039  0.587921  1
  O  O16  1  0.228944  0.290145  0.912607  1
  O  O17  1  0.278733  0.290961  0.412079  1
