# generated using pymatgen
data_MgNb2SiRu4
_symmetry_space_group_name_H-M   'P 1'
_cell_length_a   4.40981900
_cell_length_b   6.19704800
_cell_length_c   13.14067900
_cell_angle_alpha   90.00000436
_cell_angle_beta   90.00059097
_cell_angle_gamma   90.00005372
_symmetry_Int_Tables_number   1
_chemical_formula_structural   MgNb2SiRu4
_chemical_formula_sum   'Mg3 Nb6 Si3 Ru12'
_cell_volume   359.10663620
_cell_formula_units_Z   3
loop_
 _symmetry_equiv_pos_site_id
 _symmetry_equiv_pos_as_xyz
  1  'x, y, z'
loop_
 _atom_site_type_symbol
 _atom_site_label
 _atom_site_symmetry_multiplicity
 _atom_site_fract_x
 _atom_site_fract_y
 _atom_site_fract_z
 _atom_site_occupancy
  Mg  Mg0  1  0.499983  0.500000  0.498968  1
  Mg  Mg1  1  0.000093  0.000004  0.666712  1
  Mg  Mg2  1  0.500101  0.499992  0.834361  1
  Nb  Nb3  1  0.000012  0.500005  0.999814  1
  Nb  Nb4  1  0.499892  0.999992  0.166621  1
  Nb  Nb5  1  0.999918  0.500007  0.333495  1
  Nb  Nb6  1  0.500003  0.000001  0.501153  1
  Nb  Nb7  1  0.000103  0.499989  0.666676  1
  Nb  Nb8  1  0.500118  0.000006  0.832166  1
  Si  Si9  1  0.999990  0.000007  0.999587  1
  Si  Si10  1  0.499879  0.499987  0.166652  1
  Si  Si11  1  0.999884  0.000011  0.333699  1
  Ru  Ru12  1  0.500003  0.249025  0.006982  1
  Ru  Ru13  1  0.500002  0.750976  0.006979  1
  Ru  Ru14  1  0.999902  0.247098  0.166654  1
  Ru  Ru15  1  0.999903  0.752909  0.166655  1
  Ru  Ru16  1  0.499912  0.249120  0.326366  1
  Ru  Ru17  1  0.499910  0.750886  0.326367  1
  Ru  Ru18  1  0.999992  0.245860  0.492353  1
  Ru  Ru19  1  0.999988  0.754133  0.492355  1
  Ru  Ru20  1  0.500110  0.249465  0.666636  1
  Ru  Ru21  1  0.500109  0.750523  0.666635  1
  Ru  Ru22  1  0.000097  0.245679  0.841060  1
  Ru  Ru23  1  0.000096  0.754326  0.841059  1
