# generated using pymatgen
data_Zn21Pd5
_symmetry_space_group_name_H-M   'P 1'
_cell_length_a   7.90826970
_cell_length_b   7.97981503
_cell_length_c   7.91188476
_cell_angle_alpha   70.46537366
_cell_angle_beta   70.96027608
_cell_angle_gamma   109.54061281
_symmetry_Int_Tables_number   1
_chemical_formula_structural   Zn21Pd5
_chemical_formula_sum   'Zn21 Pd5'
_cell_volume   385.75792033
_cell_formula_units_Z   1
loop_
 _symmetry_equiv_pos_site_id
 _symmetry_equiv_pos_as_xyz
  1  'x, y, z'
loop_
 _atom_site_type_symbol
 _atom_site_label
 _atom_site_symmetry_multiplicity
 _atom_site_fract_x
 _atom_site_fract_y
 _atom_site_fract_z
 _atom_site_occupancy
  Zn  Zn0  1  0.004602  0.000742  0.786107  1
  Zn  Zn1  1  0.773785  0.773317  0.226525  1
  Zn  Zn2  1  0.214024  0.999658  0.996147  1
  Zn  Zn3  1  0.000301  0.225585  0.999190  1
  Zn  Zn4  1  0.273041  0.260445  0.387314  1
  Zn  Zn5  1  0.012876  0.738778  0.647895  1
  Zn  Zn6  1  0.726499  0.000307  0.647353  1
  Zn  Zn7  1  0.655834  0.645604  0.628264  1
  Zn  Zn8  1  0.371907  0.646012  0.343704  1
  Zn  Zn9  1  0.645284  0.373828  0.354460  1
  Zn  Zn10  1  0.352450  0.739229  0.987051  1
  Zn  Zn11  1  0.613120  0.260953  0.726240  1
  Zn  Zn12  1  0.352719  0.000245  0.273610  1
  Zn  Zn13  1  0.725993  0.354092  0.989693  1
  Zn  Zn14  1  0.010268  0.353961  0.274226  1
  Zn  Zn15  1  0.271138  0.625743  0.728809  1
  Zn  Zn16  1  0.642290  0.646405  0.996024  1
  Zn  Zn17  1  0.003725  0.645677  0.358351  1
  Zn  Zn18  1  0.646450  0.000009  0.353494  1
  Zn  Zn19  1  0.357316  0.354295  0.004330  1
  Zn  Zn20  1  0.995780  0.354916  0.641975  1
  Pd  Pd21  1  0.364031  0.999861  0.636273  1
  Pd  Pd22  1  0.998833  0.999764  0.343594  1
  Pd  Pd23  1  0.344997  0.359448  0.654672  1
  Pd  Pd24  1  0.656893  0.000351  0.000603  1
  Pd  Pd25  1  0.985846  0.640774  0.014101  1
