# generated using pymatgen
data_Y3U5(TcB6)4
_symmetry_space_group_name_H-M   'P 1'
_cell_length_a   3.63897300
_cell_length_b   9.30428627
_cell_length_c   11.40951211
_cell_angle_alpha   89.99418774
_cell_angle_beta   90.00000000
_cell_angle_gamma   90.00000000
_symmetry_Int_Tables_number   1
_chemical_formula_structural   Y3U5(TcB6)4
_chemical_formula_sum   'Y3 U5 Tc4 B24'
_cell_volume   386.30378993
_cell_formula_units_Z   1
loop_
 _symmetry_equiv_pos_site_id
 _symmetry_equiv_pos_as_xyz
  1  'x, y, z'
loop_
 _atom_site_type_symbol
 _atom_site_label
 _atom_site_symmetry_multiplicity
 _atom_site_fract_x
 _atom_site_fract_y
 _atom_site_fract_z
 _atom_site_occupancy
  Y  Y0  1  0.000000  0.337230  0.407631  1
  Y  Y1  1  0.000000  0.663017  0.591999  1
  Y  Y2  1  0.000000  0.835840  0.093026  1
  U  U3  1  0.000000  0.162996  0.907065  1
  U  U4  1  0.000000  0.956203  0.396918  1
  U  U5  1  0.000000  0.042961  0.603530  1
  U  U6  1  0.000000  0.457429  0.103775  1
  U  U7  1  0.000000  0.543497  0.896943  1
  Tc  Tc8  1  0.000000  0.645605  0.318885  1
  Tc  Tc9  1  0.000000  0.352438  0.683834  1
  Tc  Tc10  1  0.000000  0.146136  0.178069  1
  Tc  Tc11  1  0.000000  0.857622  0.819483  1
  B  B12  1  0.500000  0.551691  0.431167  1
  B  B13  1  0.500000  0.447586  0.569862  1
  B  B14  1  0.500000  0.052641  0.067624  1
  B  B15  1  0.500000  0.950212  0.930352  1
  B  B16  1  0.500000  0.742959  0.422993  1
  B  B17  1  0.500000  0.257017  0.577127  1
  B  B18  1  0.500000  0.242535  0.075875  1
  B  B19  1  0.500000  0.756719  0.922533  1
  B  B20  1  0.500000  0.802031  0.275038  1
  B  B21  1  0.500000  0.196775  0.726460  1
  B  B22  1  0.500000  0.302145  0.224843  1
  B  B23  1  0.500000  0.698169  0.774879  1
  B  B24  1  0.500000  0.643545  0.188783  1
  B  B25  1  0.500000  0.354826  0.812066  1
  B  B26  1  0.500000  0.143977  0.310778  1
  B  B27  1  0.500000  0.855694  0.688565  1
  B  B28  1  0.500000  0.989263  0.219378  1
  B  B29  1  0.500000  0.013248  0.781089  1
  B  B30  1  0.500000  0.488618  0.280720  1
  B  B31  1  0.500000  0.511190  0.719723  1
  B  B32  1  0.500000  0.640984  0.038823  1
  B  B33  1  0.500000  0.357009  0.960411  1
  B  B34  1  0.500000  0.140438  0.460780  1
  B  B35  1  0.500000  0.859755  0.538969  1
