# generated using pymatgen
data_PrNd11(IrCl3)4
_symmetry_space_group_name_H-M   'P 1'
_cell_length_a   10.24079698
_cell_length_b   10.24079716
_cell_length_c   10.25256909
_cell_angle_alpha   109.49893636
_cell_angle_beta   109.49892924
_cell_angle_gamma   109.42528191
_symmetry_Int_Tables_number   1
_chemical_formula_structural   PrNd11(IrCl3)4
_chemical_formula_sum   'Pr1 Nd11 Ir4 Cl12'
_cell_volume   827.61300013
_cell_formula_units_Z   1
loop_
 _symmetry_equiv_pos_site_id
 _symmetry_equiv_pos_as_xyz
  1  'x, y, z'
loop_
 _atom_site_type_symbol
 _atom_site_label
 _atom_site_symmetry_multiplicity
 _atom_site_fract_x
 _atom_site_fract_y
 _atom_site_fract_z
 _atom_site_occupancy
  Pr  Pr0  1  0.239578  0.260422  0.750000  1
  Nd  Nd1  1  0.477953  0.489132  0.239449  1
  Nd  Nd2  1  0.750235  0.239070  0.261323  1
  Nd  Nd3  1  0.749591  0.010885  0.488648  1
  Nd  Nd4  1  0.238871  0.477984  0.488673  1
  Nd  Nd5  1  0.260930  0.749765  0.238677  1
  Nd  Nd6  1  0.022016  0.261129  0.011327  1
  Nd  Nd7  1  0.010868  0.022047  0.260551  1
  Nd  Nd8  1  0.489115  0.750409  0.011352  1
  Nd  Nd9  1  0.488906  0.238874  0.477600  1
  Nd  Nd10  1  0.011066  0.488934  0.750000  1
  Nd  Nd11  1  0.261126  0.011094  0.022400  1
  Ir  Ir12  1  0.249947  0.250053  0.250000  1
  Ir  Ir13  1  0.499989  0.000011  0.250000  1
  Ir  Ir14  1  0.999560  0.249934  0.499526  1
  Ir  Ir15  1  0.250066  0.500440  0.000474  1
  Cl  Cl16  1  0.250018  0.751190  0.749124  1
  Cl  Cl17  1  0.503408  0.503004  0.750857  1
  Cl  Cl18  1  0.997780  0.748985  0.998888  1
  Cl  Cl19  1  0.748810  0.249982  0.750876  1
  Cl  Cl20  1  0.996996  0.996592  0.749143  1
  Cl  Cl21  1  0.249750  0.997409  0.499440  1
  Cl  Cl22  1  0.751015  0.502220  0.501112  1
  Cl  Cl23  1  0.502591  0.250250  0.000560  1
  Cl  Cl24  1  0.751026  0.748974  0.250000  1
  Cl  Cl25  1  0.748958  0.998984  0.997841  1
  Cl  Cl26  1  0.998818  0.501182  0.250000  1
  Cl  Cl27  1  0.501016  0.751042  0.502159  1
