# generated using pymatgen
data_Er(VCo)6
_symmetry_space_group_name_H-M   'P 1'
_cell_length_a   4.85097161
_cell_length_b   6.36369509
_cell_length_c   6.36369570
_cell_angle_alpha   83.95634273
_cell_angle_beta   67.59543258
_cell_angle_gamma   67.59543152
_symmetry_Int_Tables_number   1
_chemical_formula_structural   Er(VCo)6
_chemical_formula_sum   'Er1 V6 Co6'
_cell_volume   167.72596790
_cell_formula_units_Z   1
loop_
 _symmetry_equiv_pos_site_id
 _symmetry_equiv_pos_as_xyz
  1  'x, y, z'
loop_
 _atom_site_type_symbol
 _atom_site_label
 _atom_site_symmetry_multiplicity
 _atom_site_fract_x
 _atom_site_fract_y
 _atom_site_fract_z
 _atom_site_occupancy
  Er  Er0  1  0.000000  0.000000  0.000000  1
  V  V1  1  0.000000  0.357909  0.642091  1
  V  V2  1  0.000000  0.642091  0.357909  1
  V  V3  1  0.500000  0.208556  0.791444  1
  V  V4  1  0.500000  0.791444  0.208556  1
  V  V5  1  0.358853  0.641147  0.641147  1
  V  V6  1  0.641147  0.358853  0.358853  1
  Co  Co7  1  0.272183  0.227817  0.227817  1
  Co  Co8  1  0.727817  0.772183  0.772183  1
  Co  Co9  1  0.500000  0.000000  0.500000  1
  Co  Co10  1  0.500000  0.500000  0.000000  1
  Co  Co11  1  0.000000  0.500000  0.000000  1
  Co  Co12  1  0.000000  0.000000  0.500000  1
