# generated using pymatgen
data_Sr2Al20PdRu3
_symmetry_space_group_name_H-M   'P 1'
_cell_length_a   6.94142733
_cell_length_b   6.94418406
_cell_length_c   9.25828712
_cell_angle_alpha   90.01103276
_cell_angle_beta   90.16220271
_cell_angle_gamma   96.82998238
_symmetry_Int_Tables_number   1
_chemical_formula_structural   Sr2Al20PdRu3
_chemical_formula_sum   'Sr2 Al20 Pd1 Ru3'
_cell_volume   443.10418424
_cell_formula_units_Z   1
loop_
 _symmetry_equiv_pos_site_id
 _symmetry_equiv_pos_as_xyz
  1  'x, y, z'
loop_
 _atom_site_type_symbol
 _atom_site_label
 _atom_site_symmetry_multiplicity
 _atom_site_fract_x
 _atom_site_fract_y
 _atom_site_fract_z
 _atom_site_occupancy
  Sr  Sr0  1  0.878336  0.122904  0.750405  1
  Sr  Sr1  1  0.121664  0.877096  0.249595  1
  Al  Al2  1  0.591010  0.858598  0.253160  1
  Al  Al3  1  0.778846  0.519152  0.250086  1
  Al  Al4  1  0.159173  0.835156  0.896646  1
  Al  Al5  1  0.408990  0.141402  0.746840  1
  Al  Al6  1  0.623836  0.384464  0.949026  1
  Al  Al7  1  0.838089  0.160995  0.400861  1
  Al  Al8  1  0.776162  0.770321  0.002791  1
  Al  Al9  1  0.861674  0.590502  0.748561  1
  Al  Al10  1  0.840827  0.164844  0.103354  1
  Al  Al11  1  0.221154  0.480848  0.749914  1
  Al  Al12  1  0.161911  0.839005  0.599139  1
  Al  Al13  1  0.775557  0.773950  0.499541  1
  Al  Al14  1  0.480601  0.226235  0.257129  1
  Al  Al15  1  0.622868  0.378912  0.547239  1
  Al  Al16  1  0.224443  0.226050  0.500459  1
  Al  Al17  1  0.377132  0.621088  0.452761  1
  Al  Al18  1  0.138326  0.409498  0.251439  1
  Al  Al19  1  0.519399  0.773765  0.742871  1
  Al  Al20  1  0.376164  0.615536  0.050974  1
  Al  Al21  1  0.223838  0.229679  0.997209  1
  Pd  Pd22  1  0.500000  0.000000  0.000000  1
  Ru  Ru23  1  0.500000  0.000000  0.500000  1
  Ru  Ru24  1  0.000000  0.500000  0.000000  1
  Ru  Ru25  1  0.000000  0.500000  0.500000  1
