# generated using pymatgen
data_DyHoEr18(CoBi2)4
_symmetry_space_group_name_H-M   'P 1'
_cell_length_a   7.92345800
_cell_length_b   8.84252300
_cell_length_c   12.34927831
_cell_angle_alpha   90.00000000
_cell_angle_beta   90.06906590
_cell_angle_gamma   90.00000000
_symmetry_Int_Tables_number   1
_chemical_formula_structural   DyHoEr18(CoBi2)4
_chemical_formula_sum   'Dy1 Ho1 Er18 Co4 Bi8'
_cell_volume   865.23129791
_cell_formula_units_Z   1
loop_
 _symmetry_equiv_pos_site_id
 _symmetry_equiv_pos_as_xyz
  1  'x, y, z'
loop_
 _atom_site_type_symbol
 _atom_site_label
 _atom_site_symmetry_multiplicity
 _atom_site_fract_x
 _atom_site_fract_y
 _atom_site_fract_z
 _atom_site_occupancy
  Dy  Dy0  1  0.345450  0.250000  0.300086  1
  Ho  Ho1  1  0.654514  0.750000  0.699690  1
  Er  Er2  1  0.153509  0.250000  0.801568  1
  Er  Er3  1  0.846440  0.750000  0.198607  1
  Er  Er4  1  0.119176  0.750000  0.813585  1
  Er  Er5  1  0.880818  0.250000  0.186350  1
  Er  Er6  1  0.618470  0.250000  0.686232  1
  Er  Er7  1  0.381449  0.750000  0.313715  1
  Er  Er8  1  0.552943  0.750000  0.997149  1
  Er  Er9  1  0.446978  0.250000  0.002747  1
  Er  Er10  1  0.052605  0.250000  0.502530  1
  Er  Er11  1  0.947112  0.750000  0.497579  1
  Er  Er12  1  0.826210  0.463185  0.936016  1
  Er  Er13  1  0.173758  0.536536  0.063927  1
  Er  Er14  1  0.326430  0.536486  0.563845  1
  Er  Er15  1  0.173758  0.963464  0.063927  1
  Er  Er16  1  0.673755  0.463819  0.436322  1
  Er  Er17  1  0.826210  0.036815  0.936016  1
  Er  Er18  1  0.673755  0.036181  0.436322  1
  Er  Er19  1  0.326430  0.963514  0.563845  1
  Co  Co20  1  0.936706  0.750000  0.992444  1
  Co  Co21  1  0.063372  0.250000  0.007543  1
  Co  Co22  1  0.436852  0.250000  0.507174  1
  Co  Co23  1  0.563300  0.750000  0.493064  1
  Bi  Bi24  1  0.932634  0.008166  0.673366  1
  Bi  Bi25  1  0.067080  0.991563  0.326670  1
  Bi  Bi26  1  0.431618  0.992359  0.826659  1
  Bi  Bi27  1  0.067080  0.508437  0.326670  1
  Bi  Bi28  1  0.568669  0.007323  0.173164  1
  Bi  Bi29  1  0.932634  0.491834  0.673366  1
  Bi  Bi30  1  0.568669  0.492677  0.173164  1
  Bi  Bi31  1  0.431618  0.507641  0.826659  1
