# generated using pymatgen
data_Pr16In4Ir4O
_symmetry_space_group_name_H-M   'P 1'
_cell_length_a   10.04395020
_cell_length_b   10.04396038
_cell_length_c   10.04394800
_cell_angle_alpha   59.99987441
_cell_angle_beta   59.99981146
_cell_angle_gamma   59.99991795
_symmetry_Int_Tables_number   1
_chemical_formula_structural   Pr16In4Ir4O
_chemical_formula_sum   'Pr16 In4 Ir4 O1'
_cell_volume   716.46948610
_cell_formula_units_Z   1
loop_
 _symmetry_equiv_pos_site_id
 _symmetry_equiv_pos_as_xyz
  1  'x, y, z'
loop_
 _atom_site_type_symbol
 _atom_site_label
 _atom_site_symmetry_multiplicity
 _atom_site_fract_x
 _atom_site_fract_y
 _atom_site_fract_z
 _atom_site_occupancy
  Pr  Pr0  1  0.065828  0.434171  0.434173  1
  Pr  Pr1  1  0.434173  0.065827  0.065828  1
  Pr  Pr2  1  0.434171  0.065829  0.434172  1
  Pr  Pr3  1  0.434173  0.434172  0.065828  1
  Pr  Pr4  1  0.065827  0.434173  0.065827  1
  Pr  Pr5  1  0.065828  0.065828  0.434173  1
  Pr  Pr6  1  0.192324  0.807677  0.807675  1
  Pr  Pr7  1  0.807675  0.192323  0.192324  1
  Pr  Pr8  1  0.807676  0.192324  0.807675  1
  Pr  Pr9  1  0.807676  0.807676  0.192324  1
  Pr  Pr10  1  0.192324  0.807675  0.192324  1
  Pr  Pr11  1  0.192324  0.192324  0.807675  1
  Pr  Pr12  1  0.651567  0.651568  0.651566  1
  Pr  Pr13  1  0.651566  0.651567  0.045299  1
  Pr  Pr14  1  0.045300  0.651567  0.651565  1
  Pr  Pr15  1  0.651567  0.045299  0.651566  1
  In  In16  1  0.418995  0.418995  0.418995  1
  In  In17  1  0.418995  0.418995  0.743016  1
  In  In18  1  0.743016  0.418994  0.418995  1
  In  In19  1  0.418995  0.743016  0.418995  1
  Ir  Ir20  1  0.858487  0.858487  0.858487  1
  Ir  Ir21  1  0.858487  0.858487  0.424540  1
  Ir  Ir22  1  0.424539  0.858487  0.858487  1
  Ir  Ir23  1  0.858487  0.424539  0.858487  1
  O  O24  1  0.250000  0.250000  0.250000  1
