# generated using pymatgen
data_Mg5Al3Pd4
_symmetry_space_group_name_H-M   'P 1'
_cell_length_a   8.39626841
_cell_length_b   8.41003129
_cell_length_c   8.41003027
_cell_angle_alpha   59.66677732
_cell_angle_beta   59.23642235
_cell_angle_gamma   59.23642218
_symmetry_Int_Tables_number   1
_chemical_formula_structural   Mg5Al3Pd4
_chemical_formula_sum   'Mg10 Al6 Pd8'
_cell_volume   413.97744758
_cell_formula_units_Z   2
loop_
 _symmetry_equiv_pos_site_id
 _symmetry_equiv_pos_as_xyz
  1  'x, y, z'
loop_
 _atom_site_type_symbol
 _atom_site_label
 _atom_site_symmetry_multiplicity
 _atom_site_fract_x
 _atom_site_fract_y
 _atom_site_fract_z
 _atom_site_occupancy
  Mg  Mg0  1  0.189871  0.808691  0.808691  1
  Mg  Mg1  1  0.057194  0.441036  0.055056  1
  Mg  Mg2  1  0.811822  0.191357  0.191357  1
  Mg  Mg3  1  0.058317  0.443113  0.443113  1
  Mg  Mg4  1  0.440588  0.057571  0.446366  1
  Mg  Mg5  1  0.440588  0.446366  0.057571  1
  Mg  Mg6  1  0.807535  0.804571  0.193167  1
  Mg  Mg7  1  0.438288  0.056540  0.056540  1
  Mg  Mg8  1  0.807535  0.193167  0.804571  1
  Mg  Mg9  1  0.057194  0.055056  0.441036  1
  Al  Al10  1  0.198552  0.799692  0.202644  1
  Al  Al11  1  0.198552  0.202644  0.799692  1
  Al  Al12  1  0.622699  0.627821  0.627821  1
  Al  Al13  1  0.126234  0.625301  0.625301  1
  Al  Al14  1  0.624377  0.623120  0.123678  1
  Al  Al15  1  0.624377  0.123678  0.623120  1
  Pd  Pd16  1  0.847303  0.476553  0.836768  1
  Pd  Pd17  1  0.836446  0.839542  0.839542  1
  Pd  Pd18  1  0.466176  0.848329  0.848329  1
  Pd  Pd19  1  0.410964  0.766477  0.410250  1
  Pd  Pd20  1  0.847303  0.836768  0.476553  1
  Pd  Pd21  1  0.767009  0.411001  0.411001  1
  Pd  Pd22  1  0.410112  0.411357  0.411357  1
  Pd  Pd23  1  0.410964  0.410250  0.766477  1
