# generated using pymatgen
data_Cs3K(MnN2)4
_symmetry_space_group_name_H-M   'P 1'
_cell_length_a   7.26927123
_cell_length_b   7.26927106
_cell_length_c   8.02583714
_cell_angle_alpha   91.44424946
_cell_angle_beta   88.55574807
_cell_angle_gamma   133.30722439
_symmetry_Int_Tables_number   1
_chemical_formula_structural   Cs3K(MnN2)4
_chemical_formula_sum   'Cs3 K1 Mn4 N8'
_cell_volume   308.49814735
_cell_formula_units_Z   1
loop_
 _symmetry_equiv_pos_site_id
 _symmetry_equiv_pos_as_xyz
  1  'x, y, z'
loop_
 _atom_site_type_symbol
 _atom_site_label
 _atom_site_symmetry_multiplicity
 _atom_site_fract_x
 _atom_site_fract_y
 _atom_site_fract_z
 _atom_site_occupancy
  Cs  Cs0  1  0.833623  0.166377  0.561712  1
  Cs  Cs1  1  0.161605  0.838395  0.439836  1
  Cs  Cs2  1  0.668255  0.331745  0.046086  1
  K  K3  1  0.372432  0.627568  0.952373  1
  Mn  Mn4  1  0.530693  0.469307  0.633886  1
  Mn  Mn5  1  0.463716  0.536284  0.365881  1
  Mn  Mn6  1  0.963766  0.036234  0.137509  1
  Mn  Mn7  1  0.030246  0.969754  0.862705  1
  N  N8  1  0.904559  0.095441  0.935037  1
  N  N9  1  0.089280  0.910720  0.064119  1
  N  N10  1  0.589222  0.410778  0.426336  1
  N  N11  1  0.405105  0.594895  0.575169  1
  N  N12  1  0.308188  0.192352  0.747546  1
  N  N13  1  0.186517  0.314856  0.252130  1
  N  N14  1  0.685144  0.813483  0.252130  1
  N  N15  1  0.807648  0.691812  0.747546  1
