# generated using pymatgen
data_La4CeSn3
_symmetry_space_group_name_H-M   'P 1'
_cell_length_a   9.48864122
_cell_length_b   9.48864127
_cell_length_c   9.48864200
_cell_angle_alpha   96.23433590
_cell_angle_beta   96.23433593
_cell_angle_gamma   141.51856759
_symmetry_Int_Tables_number   1
_chemical_formula_structural   La4CeSn3
_chemical_formula_sum   'La8 Ce2 Sn6'
_cell_volume   501.90576924
_cell_formula_units_Z   2
loop_
 _symmetry_equiv_pos_site_id
 _symmetry_equiv_pos_as_xyz
  1  'x, y, z'
loop_
 _atom_site_type_symbol
 _atom_site_label
 _atom_site_symmetry_multiplicity
 _atom_site_fract_x
 _atom_site_fract_y
 _atom_site_fract_z
 _atom_site_occupancy
  La  La0  1  0.911811  0.221114  0.132925  1
  La  La1  1  0.221114  0.088189  0.309303  1
  La  La2  1  0.778886  0.911811  0.690697  1
  La  La3  1  0.088189  0.778886  0.867075  1
  La  La4  1  0.721114  0.411811  0.132925  1
  La  La5  1  0.278886  0.588189  0.867075  1
  La  La6  1  0.588189  0.721114  0.309303  1
  La  La7  1  0.411811  0.278886  0.690697  1
  Ce  Ce8  1  0.750000  0.250000  0.500000  1
  Ce  Ce9  1  0.250000  0.750000  0.500000  1
  Sn  Sn10  1  0.750000  0.750000  0.000000  1
  Sn  Sn11  1  0.250000  0.250000  0.000000  1
  Sn  Sn12  1  0.842721  0.657279  0.500000  1
  Sn  Sn13  1  0.657279  0.157279  0.814557  1
  Sn  Sn14  1  0.342721  0.842721  0.185443  1
  Sn  Sn15  1  0.157279  0.342721  0.500000  1
