# generated using pymatgen
data_YbGaAuCl8
_symmetry_space_group_name_H-M   'P 1'
_cell_length_a   7.80220800
_cell_length_b   7.05125372
_cell_length_c   14.51104460
_cell_angle_alpha   92.10625141
_cell_angle_beta   90.00000000
_cell_angle_gamma   90.00000000
_symmetry_Int_Tables_number   1
_chemical_formula_structural   YbGaAuCl8
_chemical_formula_sum   'Yb2 Ga2 Au2 Cl16'
_cell_volume   797.79081161
_cell_formula_units_Z   2
loop_
 _symmetry_equiv_pos_site_id
 _symmetry_equiv_pos_as_xyz
  1  'x, y, z'
loop_
 _atom_site_type_symbol
 _atom_site_label
 _atom_site_symmetry_multiplicity
 _atom_site_fract_x
 _atom_site_fract_y
 _atom_site_fract_z
 _atom_site_occupancy
  Yb  Yb0  1  0.794051  0.124158  0.828285  1
  Yb  Yb1  1  0.205949  0.124158  0.328285  1
  Ga  Ga2  1  0.558753  0.672499  0.777091  1
  Ga  Ga3  1  0.441247  0.672499  0.277091  1
  Au  Au4  1  0.002846  0.167383  0.582615  1
  Au  Au5  1  0.997154  0.167383  0.082615  1
  Cl  Cl6  1  0.404703  0.612467  0.657099  1
  Cl  Cl7  1  0.595297  0.612467  0.157099  1
  Cl  Cl8  1  0.829800  0.756172  0.751091  1
  Cl  Cl9  1  0.170200  0.756172  0.251091  1
  Cl  Cl10  1  0.919838  0.258160  0.436844  1
  Cl  Cl11  1  0.080162  0.258160  0.936844  1
  Cl  Cl12  1  0.752476  0.039255  0.014402  1
  Cl  Cl13  1  0.247524  0.039255  0.514402  1
  Cl  Cl14  1  0.743876  0.264005  0.650079  1
  Cl  Cl15  1  0.256124  0.264005  0.150079  1
  Cl  Cl16  1  0.572602  0.431719  0.872591  1
  Cl  Cl17  1  0.427398  0.431719  0.372591  1
  Cl  Cl18  1  0.471806  0.934874  0.853999  1
  Cl  Cl19  1  0.528194  0.934874  0.353999  1
  Cl  Cl20  1  0.894196  0.106709  0.228106  1
  Cl  Cl21  1  0.105804  0.106709  0.728106  1
