# generated using pymatgen
data_CrBF5
_symmetry_space_group_name_H-M   'P 1'
_cell_length_a   6.68921400
_cell_length_b   6.68921400
_cell_length_c   3.99058700
_cell_angle_alpha   90.00000000
_cell_angle_beta   90.00000000
_cell_angle_gamma   90.00000000
_symmetry_Int_Tables_number   1
_chemical_formula_structural   CrBF5
_chemical_formula_sum   'Cr2 B2 F10'
_cell_volume   178.56114557
_cell_formula_units_Z   2
loop_
 _symmetry_equiv_pos_site_id
 _symmetry_equiv_pos_as_xyz
  1  'x, y, z'
loop_
 _atom_site_type_symbol
 _atom_site_label
 _atom_site_symmetry_multiplicity
 _atom_site_fract_x
 _atom_site_fract_y
 _atom_site_fract_z
 _atom_site_occupancy
  Cr  Cr0  1  0.500000  0.000000  0.809599  1
  Cr  Cr1  1  0.000000  0.500000  0.190401  1
  B  B2  1  0.000000  0.000000  0.000000  1
  B  B3  1  0.500000  0.500000  0.000000  1
  F  F4  1  0.000000  0.500000  0.691541  1
  F  F5  1  0.500000  0.000000  0.308459  1
  F  F6  1  0.557366  0.665130  0.798591  1
  F  F7  1  0.834870  0.057366  0.798591  1
  F  F8  1  0.334870  0.557366  0.201409  1
  F  F9  1  0.057366  0.165130  0.201409  1
  F  F10  1  0.942634  0.834870  0.201409  1
  F  F11  1  0.665130  0.442634  0.201409  1
  F  F12  1  0.165130  0.942634  0.798591  1
  F  F13  1  0.442634  0.334870  0.798591  1
