# generated using pymatgen
data_Sm7Ho(Sc3Ga4)4
_symmetry_space_group_name_H-M   'P 1'
_cell_length_a   7.35702417
_cell_length_b   7.63333741
_cell_length_c   14.54771794
_cell_angle_alpha   89.96463420
_cell_angle_beta   90.02105125
_cell_angle_gamma   90.01234812
_symmetry_Int_Tables_number   1
_chemical_formula_structural   Sm7Ho(Sc3Ga4)4
_chemical_formula_sum   'Sm7 Ho1 Sc12 Ga16'
_cell_volume   816.97993802
_cell_formula_units_Z   1
loop_
 _symmetry_equiv_pos_site_id
 _symmetry_equiv_pos_as_xyz
  1  'x, y, z'
loop_
 _atom_site_type_symbol
 _atom_site_label
 _atom_site_symmetry_multiplicity
 _atom_site_fract_x
 _atom_site_fract_y
 _atom_site_fract_z
 _atom_site_occupancy
  Sm  Sm0  1  0.011270  0.179219  0.094172  1
  Sm  Sm1  1  0.988692  0.820827  0.905677  1
  Sm  Sm2  1  0.488567  0.679225  0.905900  1
  Sm  Sm3  1  0.988792  0.820288  0.594254  1
  Sm  Sm4  1  0.511298  0.320755  0.094144  1
  Sm  Sm5  1  0.011431  0.179103  0.405878  1
  Sm  Sm6  1  0.511307  0.321223  0.406345  1
  Ho  Ho7  1  0.488730  0.680669  0.594724  1
  Sc  Sc8  1  0.162188  0.501876  0.749625  1
  Sc  Sc9  1  0.838140  0.498626  0.249974  1
  Sc  Sc10  1  0.338424  0.001200  0.250003  1
  Sc  Sc11  1  0.661391  0.997882  0.749602  1
  Sc  Sc12  1  0.330094  0.171952  0.625155  1
  Sc  Sc13  1  0.669679  0.827822  0.375276  1
  Sc  Sc14  1  0.170423  0.672008  0.375045  1
  Sc  Sc15  1  0.670238  0.828168  0.125117  1
  Sc  Sc16  1  0.828836  0.328394  0.625010  1
  Sc  Sc17  1  0.330011  0.171899  0.874534  1
  Sc  Sc18  1  0.829749  0.327986  0.874698  1
  Sc  Sc19  1  0.170031  0.672039  0.125122  1
  Ga  Ga20  1  0.030484  0.117785  0.749928  1
  Ga  Ga21  1  0.969535  0.882047  0.249993  1
  Ga  Ga22  1  0.469558  0.618028  0.249987  1
  Ga  Ga23  1  0.530345  0.382907  0.749543  1
  Ga  Ga24  1  0.284862  0.872759  0.749399  1
  Ga  Ga25  1  0.716077  0.126317  0.249986  1
  Ga  Ga26  1  0.216000  0.373724  0.250150  1
  Ga  Ga27  1  0.782832  0.626702  0.749278  1
  Ga  Ga28  1  0.162991  0.465340  0.541021  1
  Ga  Ga29  1  0.838215  0.535912  0.459624  1
  Ga  Ga30  1  0.339587  0.962975  0.459931  1
  Ga  Ga31  1  0.838948  0.535861  0.040589  1
  Ga  Ga32  1  0.660340  0.034011  0.541011  1
  Ga  Ga33  1  0.160950  0.464330  0.959398  1
  Ga  Ga34  1  0.660941  0.035960  0.959326  1
  Ga  Ga35  1  0.339042  0.964183  0.040583  1
