# generated using pymatgen
data_Hf4Zn2ReHg
_symmetry_space_group_name_H-M   'P 1'
_cell_length_a   6.73913400
_cell_length_b   6.66867100
_cell_length_c   6.75523600
_cell_angle_alpha   90.00000000
_cell_angle_beta   90.00000000
_cell_angle_gamma   90.00000000
_symmetry_Int_Tables_number   1
_chemical_formula_structural   Hf4Zn2ReHg
_chemical_formula_sum   'Hf8 Zn4 Re2 Hg2'
_cell_volume   303.58751686
_cell_formula_units_Z   2
loop_
 _symmetry_equiv_pos_site_id
 _symmetry_equiv_pos_as_xyz
  1  'x, y, z'
loop_
 _atom_site_type_symbol
 _atom_site_label
 _atom_site_symmetry_multiplicity
 _atom_site_fract_x
 _atom_site_fract_y
 _atom_site_fract_z
 _atom_site_occupancy
  Hf  Hf0  1  0.764228  0.500072  0.264335  1
  Hf  Hf1  1  0.764228  0.999927  0.264335  1
  Hf  Hf2  1  0.235773  0.000072  0.264337  1
  Hf  Hf3  1  0.235773  0.499927  0.264337  1
  Hf  Hf4  1  0.764228  0.500072  0.735662  1
  Hf  Hf5  1  0.764228  0.999927  0.735662  1
  Hf  Hf6  1  0.235771  0.000072  0.735665  1
  Hf  Hf7  1  0.235771  0.499927  0.735665  1
  Zn  Zn8  1  0.999845  0.250000  0.000000  1
  Zn  Zn9  1  0.000156  0.749999  0.000000  1
  Zn  Zn10  1  0.499831  0.749999  0.500000  1
  Zn  Zn11  1  0.500170  0.250000  0.500001  1
  Re  Re12  1  0.999965  0.250000  0.500000  1
  Re  Re13  1  0.000035  0.749999  0.500000  1
  Hg  Hg14  1  0.500122  0.250000  0.000000  1
  Hg  Hg15  1  0.499877  0.749999  0.000000  1
