# generated using pymatgen
data_Li3Nd8Mg3Ag20
_symmetry_space_group_name_H-M   'P 1'
_cell_length_a   8.72600628
_cell_length_b   8.72598238
_cell_length_c   10.42674745
_cell_angle_alpha   89.81104298
_cell_angle_beta   90.18906191
_cell_angle_gamma   108.35136582
_symmetry_Int_Tables_number   1
_chemical_formula_structural   Li3Nd8Mg3Ag20
_chemical_formula_sum   'Li3 Nd8 Mg3 Ag20'
_cell_volume   753.54125920
_cell_formula_units_Z   1
loop_
 _symmetry_equiv_pos_site_id
 _symmetry_equiv_pos_as_xyz
  1  'x, y, z'
loop_
 _atom_site_type_symbol
 _atom_site_label
 _atom_site_symmetry_multiplicity
 _atom_site_fract_x
 _atom_site_fract_y
 _atom_site_fract_z
 _atom_site_occupancy
  Li  Li0  1  0.017574  0.517568  0.250001  1
  Li  Li1  1  0.999836  0.999855  0.001139  1
  Li  Li2  1  0.499845  0.499826  0.498878  1
  Nd  Nd3  1  0.699937  0.300828  0.999620  1
  Nd  Nd4  1  0.300621  0.698804  0.998976  1
  Nd  Nd5  1  0.800827  0.199938  0.500377  1
  Nd  Nd6  1  0.198806  0.800620  0.501022  1
  Nd  Nd7  1  0.303417  0.303833  0.200766  1
  Nd  Nd8  1  0.697902  0.696799  0.800271  1
  Nd  Nd9  1  0.196803  0.197907  0.699728  1
  Nd  Nd10  1  0.803831  0.803414  0.299234  1
  Mg  Mg11  1  0.981326  0.481326  0.750000  1
  Mg  Mg12  1  0.480139  0.980138  0.750001  1
  Mg  Mg13  1  0.520314  0.020314  0.250000  1
  Ag  Ag14  1  0.097420  0.097994  0.404017  1
  Ag  Ag15  1  0.902023  0.901430  0.595106  1
  Ag  Ag16  1  0.401429  0.402022  0.904891  1
  Ag  Ag17  1  0.597994  0.597425  0.095981  1
  Ag  Ag18  1  0.893879  0.172511  0.203525  1
  Ag  Ag19  1  0.106096  0.831034  0.798685  1
  Ag  Ag20  1  0.605207  0.329783  0.703070  1
  Ag  Ag21  1  0.672512  0.393880  0.296473  1
  Ag  Ag22  1  0.393215  0.672648  0.296838  1
  Ag  Ag23  1  0.331033  0.606099  0.701315  1
  Ag  Ag24  1  0.829784  0.105207  0.796929  1
  Ag  Ag25  1  0.172650  0.893216  0.203161  1
  Ag  Ag26  1  0.934938  0.662323  0.027227  1
  Ag  Ag27  1  0.065012  0.334435  0.975282  1
  Ag  Ag28  1  0.566076  0.836322  0.524732  1
  Ag  Ag29  1  0.162322  0.434936  0.472770  1
  Ag  Ag30  1  0.433869  0.162608  0.475549  1
  Ag  Ag31  1  0.834433  0.565012  0.524719  1
  Ag  Ag32  1  0.336323  0.066076  0.975267  1
  Ag  Ag33  1  0.662607  0.933869  0.024450  1
