# generated using pymatgen
data_KRb3Sr8Si16(O10F)4
_symmetry_space_group_name_H-M   'P 1'
_cell_length_a   8.60988100
_cell_length_b   11.62004568
_cell_length_c   13.02413500
_cell_angle_alpha   56.55858388
_cell_angle_beta   90.00000000
_cell_angle_gamma   90.00000000
_symmetry_Int_Tables_number   1
_chemical_formula_structural   KRb3Sr8Si16(O10F)4
_chemical_formula_sum   'K1 Rb3 Sr8 Si16 O40 F4'
_cell_volume   1087.31167890
_cell_formula_units_Z   1
loop_
 _symmetry_equiv_pos_site_id
 _symmetry_equiv_pos_as_xyz
  1  'x, y, z'
loop_
 _atom_site_type_symbol
 _atom_site_label
 _atom_site_symmetry_multiplicity
 _atom_site_fract_x
 _atom_site_fract_y
 _atom_site_fract_z
 _atom_site_occupancy
  K  K0  1  0.282675  0.891108  0.574200  1
  Rb  Rb1  1  0.215049  0.897761  0.070135  1
  Rb  Rb2  1  0.785013  0.102416  0.929823  1
  Rb  Rb3  1  0.714696  0.102313  0.429779  1
  Sr  Sr4  1  0.784552  0.418204  0.040007  1
  Sr  Sr5  1  0.215710  0.582016  0.959695  1
  Sr  Sr6  1  0.284449  0.582360  0.459802  1
  Sr  Sr7  1  0.715463  0.418063  0.540123  1
  Sr  Sr8  1  0.979153  0.434363  0.279247  1
  Sr  Sr9  1  0.021229  0.565906  0.720512  1
  Sr  Sr10  1  0.478903  0.565294  0.220961  1
  Sr  Sr11  1  0.521111  0.434431  0.779236  1
  Si  Si12  1  0.534328  0.875073  0.243913  1
  Si  Si13  1  0.465797  0.124989  0.756028  1
  Si  Si14  1  0.034398  0.124987  0.256309  1
  Si  Si15  1  0.966964  0.875194  0.742874  1
  Si  Si16  1  0.974937  0.808125  0.414816  1
  Si  Si17  1  0.025167  0.192461  0.585463  1
  Si  Si18  1  0.475088  0.192432  0.085774  1
  Si  Si19  1  0.524832  0.807715  0.914246  1
  Si  Si20  1  0.840045  0.751180  0.232782  1
  Si  Si21  1  0.160057  0.248700  0.767338  1
  Si  Si22  1  0.339481  0.247570  0.268246  1
  Si  Si23  1  0.659149  0.752034  0.731876  1
  Si  Si24  1  0.875311  0.743640  0.004040  1
  Si  Si25  1  0.125057  0.256651  0.995562  1
  Si  Si26  1  0.375034  0.256110  0.495789  1
  Si  Si27  1  0.624261  0.744188  0.504554  1
  O  O28  1  0.959283  0.973499  0.359603  1
  O  O29  1  0.040417  0.027315  0.638807  1
  O  O30  1  0.460897  0.027143  0.139673  1
  O  O31  1  0.539217  0.972962  0.860324  1
  O  O32  1  0.379649  0.730439  0.002726  1
  O  O33  1  0.620528  0.269493  0.997523  1
  O  O34  1  0.879491  0.269306  0.497466  1
  O  O35  1  0.121353  0.732950  0.502749  1
  O  O36  1  0.815728  0.734794  0.498425  1
  O  O37  1  0.184109  0.266648  0.502386  1
  O  O38  1  0.316100  0.266179  0.002430  1
  O  O39  1  0.684286  0.734278  0.996978  1
  O  O40  1  0.914037  0.793414  0.098331  1
  O  O41  1  0.086033  0.206678  0.901563  1
  O  O42  1  0.413833  0.205439  0.402335  1
  O  O43  1  0.582392  0.794857  0.597939  1
  O  O44  1  0.781047  0.594931  0.312870  1
  O  O45  1  0.218687  0.405128  0.686895  1
  O  O46  1  0.280532  0.403971  0.187704  1
  O  O47  1  0.718161  0.595668  0.811914  1
  O  O48  1  0.956268  0.599531  0.046983  1
  O  O49  1  0.043954  0.400751  0.952481  1
  O  O50  1  0.456243  0.400229  0.452706  1
  O  O51  1  0.544040  0.599833  0.547383  1
  O  O52  1  0.706738  0.871743  0.190336  1
  O  O53  1  0.293617  0.128362  0.809824  1
  O  O54  1  0.206471  0.126430  0.311488  1
  O  O55  1  0.794213  0.871265  0.689759  1
  O  O56  1  0.978481  0.786430  0.299639  1
  O  O57  1  0.021416  0.212213  0.701680  1
  O  O58  1  0.478337  0.212298  0.201843  1
  O  O59  1  0.520846  0.788066  0.798032  1
  O  O60  1  0.561329  0.874301  0.370499  1
  O  O61  1  0.438504  0.125644  0.629516  1
  O  O62  1  0.061803  0.126205  0.129412  1
  O  O63  1  0.939560  0.873398  0.870113  1
  O  O64  1  0.427310  0.751799  0.265392  1
  O  O65  1  0.572871  0.248247  0.734507  1
  O  O66  1  0.927841  0.248691  0.234382  1
  O  O67  1  0.075884  0.753535  0.762887  1
  F  F68  1  0.683339  0.429768  0.208946  1
  F  F69  1  0.316869  0.570627  0.790519  1
  F  F70  1  0.183324  0.570511  0.290889  1
  F  F71  1  0.817051  0.429750  0.709015  1
