# generated using pymatgen
data_Si(HgTe2)2
_symmetry_space_group_name_H-M   'P 1'
_cell_length_a   7.58670604
_cell_length_b   7.58670587
_cell_length_c   7.58670624
_cell_angle_alpha   131.90642390
_cell_angle_beta   131.90641485
_cell_angle_gamma   70.37686946
_symmetry_Int_Tables_number   1
_chemical_formula_structural   Si(HgTe2)2
_chemical_formula_sum   'Si1 Hg2 Te4'
_cell_volume   237.02747691
_cell_formula_units_Z   1
loop_
 _symmetry_equiv_pos_site_id
 _symmetry_equiv_pos_as_xyz
  1  'x, y, z'
loop_
 _atom_site_type_symbol
 _atom_site_label
 _atom_site_symmetry_multiplicity
 _atom_site_fract_x
 _atom_site_fract_y
 _atom_site_fract_z
 _atom_site_occupancy
  Si  Si0  1  0.750000  0.250000  0.500000  1
  Hg  Hg1  1  0.500000  0.500000  0.000000  1
  Hg  Hg2  1  0.250000  0.750000  0.500000  1
  Te  Te3  1  0.362008  0.312906  0.435088  1
  Te  Te4  1  0.073080  0.637992  0.950898  1
  Te  Te5  1  0.877818  0.926920  0.564912  1
  Te  Te6  1  0.687094  0.122182  0.049102  1
