# generated using pymatgen
data_Ca2Si7Tc5Ni7
_symmetry_space_group_name_H-M   'P 1'
_cell_length_a   9.38148330
_cell_length_b   9.44831576
_cell_length_c   3.78983400
_cell_angle_alpha   90.00000000
_cell_angle_beta   90.00000000
_cell_angle_gamma   119.59769060
_symmetry_Int_Tables_number   1
_chemical_formula_structural   Ca2Si7Tc5Ni7
_chemical_formula_sum   'Ca2 Si7 Tc5 Ni7'
_cell_volume   292.09430786
_cell_formula_units_Z   1
loop_
 _symmetry_equiv_pos_site_id
 _symmetry_equiv_pos_as_xyz
  1  'x, y, z'
loop_
 _atom_site_type_symbol
 _atom_site_label
 _atom_site_symmetry_multiplicity
 _atom_site_fract_x
 _atom_site_fract_y
 _atom_site_fract_z
 _atom_site_occupancy
  Ca  Ca0  1  0.668111  0.332494  0.500000  1
  Ca  Ca1  1  0.337301  0.671652  0.000000  1
  Si  Si2  1  0.998909  0.999656  0.000000  1
  Si  Si3  1  0.405359  0.290719  0.000000  1
  Si  Si4  1  0.606102  0.716100  0.500000  1
  Si  Si5  1  0.292073  0.892581  0.500000  1
  Si  Si6  1  0.104150  0.388349  0.500000  1
  Si  Si7  1  0.705019  0.107719  0.000000  1
  Si  Si8  1  0.889375  0.599235  0.000000  1
  Tc  Tc9  1  0.383466  0.435652  0.500000  1
  Tc  Tc10  1  0.053724  0.615749  0.500000  1
  Tc  Tc11  1  0.209275  0.098808  0.500000  1
  Tc  Tc12  1  0.890389  0.791653  0.500000  1
  Tc  Tc13  1  0.891996  0.107033  0.500000  1
  Ni  Ni14  1  0.720192  0.875115  0.000000  1
  Ni  Ni15  1  0.129006  0.852789  0.000000  1
  Ni  Ni16  1  0.147072  0.271303  0.000000  1
  Ni  Ni17  1  0.939818  0.368070  0.000000  1
  Ni  Ni18  1  0.630379  0.575491  0.000000  1
  Ni  Ni19  1  0.433326  0.057266  0.000000  1
  Ni  Ni20  1  0.564955  0.952567  0.500000  1
