# generated using pymatgen
data_Al20Ni2RuRh5
_symmetry_space_group_name_H-M   'P 1'
_cell_length_a   7.89145800
_cell_length_b   7.90544018
_cell_length_c   7.79363500
_cell_angle_alpha   90.00000000
_cell_angle_beta   90.00000000
_cell_angle_gamma   119.94151818
_symmetry_Int_Tables_number   1
_chemical_formula_structural   Al20Ni2RuRh5
_chemical_formula_sum   'Al20 Ni2 Ru1 Rh5'
_cell_volume   421.31762698
_cell_formula_units_Z   1
loop_
 _symmetry_equiv_pos_site_id
 _symmetry_equiv_pos_as_xyz
  1  'x, y, z'
loop_
 _atom_site_type_symbol
 _atom_site_label
 _atom_site_symmetry_multiplicity
 _atom_site_fract_x
 _atom_site_fract_y
 _atom_site_fract_z
 _atom_site_occupancy
  Al  Al0  1  0.000582  0.001165  0.000670  1
  Al  Al1  1  0.000582  0.001165  0.499330  1
  Al  Al2  1  0.472716  0.945432  0.250000  1
  Al  Al3  1  0.527940  0.472392  0.750000  1
  Al  Al4  1  0.944451  0.472392  0.750000  1
  Al  Al5  1  0.057257  0.527474  0.250000  1
  Al  Al6  1  0.470217  0.527474  0.250000  1
  Al  Al7  1  0.527999  0.055998  0.750000  1
  Al  Al8  1  0.196277  0.392553  0.941741  1
  Al  Al9  1  0.806369  0.197681  0.438371  1
  Al  Al10  1  0.391310  0.197681  0.438371  1
  Al  Al11  1  0.607317  0.803803  0.939863  1
  Al  Al12  1  0.196487  0.803803  0.939863  1
  Al  Al13  1  0.802885  0.605771  0.059766  1
  Al  Al14  1  0.806369  0.197681  0.061629  1
  Al  Al15  1  0.802885  0.605771  0.440234  1
  Al  Al16  1  0.391310  0.197681  0.061629  1
  Al  Al17  1  0.607317  0.803803  0.560137  1
  Al  Al18  1  0.196277  0.392553  0.558259  1
  Al  Al19  1  0.196487  0.803803  0.560137  1
  Ni  Ni20  1  0.332817  0.665634  0.750000  1
  Ni  Ni21  1  0.666519  0.333037  0.250000  1
  Ru  Ru22  1  0.128605  0.257211  0.250000  1
  Rh  Rh23  1  0.869222  0.129941  0.750000  1
  Rh  Rh24  1  0.260720  0.129941  0.750000  1
  Rh  Rh25  1  0.739257  0.868312  0.250000  1
  Rh  Rh26  1  0.129054  0.868312  0.250000  1
  Rh  Rh27  1  0.870769  0.741538  0.750000  1
