# generated using pymatgen
data_LiU2As4Pd
_symmetry_space_group_name_H-M   'P 1'
_cell_length_a   3.95887700
_cell_length_b   3.95850500
_cell_length_c   9.78342300
_cell_angle_alpha   90.00000000
_cell_angle_beta   90.00000000
_cell_angle_gamma   90.00000000
_symmetry_Int_Tables_number   1
_chemical_formula_structural   LiU2As4Pd
_chemical_formula_sum   'Li1 U2 As4 Pd1'
_cell_volume   153.31831506
_cell_formula_units_Z   1
loop_
 _symmetry_equiv_pos_site_id
 _symmetry_equiv_pos_as_xyz
  1  'x, y, z'
loop_
 _atom_site_type_symbol
 _atom_site_label
 _atom_site_symmetry_multiplicity
 _atom_site_fract_x
 _atom_site_fract_y
 _atom_site_fract_z
 _atom_site_occupancy
  Li  Li0  1  0.500000  0.500000  0.500002  1
  U  U1  1  0.500000  0.000000  0.770823  1
  U  U2  1  0.000000  0.500000  0.229179  1
  As  As3  1  0.500000  0.500000  0.999996  1
  As  As4  1  0.000000  0.000000  0.999997  1
  As  As5  1  0.500000  0.000000  0.321411  1
  As  As6  1  0.000000  0.500000  0.678579  1
  Pd  Pd7  1  0.000000  0.000000  0.500012  1
