# generated using pymatgen
data_Mn2CrFe2P4W3
_symmetry_space_group_name_H-M   'P 1'
_cell_length_a   3.59416500
_cell_length_b   5.95593663
_cell_length_c   6.76903685
_cell_angle_alpha   89.78633033
_cell_angle_beta   90.00000000
_cell_angle_gamma   90.00000000
_symmetry_Int_Tables_number   1
_chemical_formula_structural   Mn2CrFe2P4W3
_chemical_formula_sum   'Mn2 Cr1 Fe2 P4 W3'
_cell_volume   144.90118511
_cell_formula_units_Z   1
loop_
 _symmetry_equiv_pos_site_id
 _symmetry_equiv_pos_as_xyz
  1  'x, y, z'
loop_
 _atom_site_type_symbol
 _atom_site_label
 _atom_site_symmetry_multiplicity
 _atom_site_fract_x
 _atom_site_fract_y
 _atom_site_fract_z
 _atom_site_occupancy
  Mn  Mn0  1  0.250000  0.645005  0.058620  1
  Mn  Mn1  1  0.750000  0.353902  0.937546  1
  Cr  Cr2  1  0.250000  0.522144  0.676987  1
  Fe  Fe3  1  0.250000  0.142552  0.437039  1
  Fe  Fe4  1  0.750000  0.858215  0.561935  1
  P  P5  1  0.250000  0.276381  0.127637  1
  P  P6  1  0.750000  0.718361  0.865427  1
  P  P7  1  0.250000  0.770689  0.385979  1
  P  P8  1  0.750000  0.235772  0.620075  1
  W  W9  1  0.750000  0.967730  0.168325  1
  W  W10  1  0.250000  0.028421  0.831214  1
  W  W11  1  0.750000  0.480830  0.329216  1
