# generated using pymatgen
data_Tb2YEr2(In2Pt)2
_symmetry_space_group_name_H-M   'P 1'
_cell_length_a   3.63457600
_cell_length_b   8.17359600
_cell_length_c   18.22301300
_cell_angle_alpha   90.00000000
_cell_angle_beta   90.00000000
_cell_angle_gamma   90.00000000
_symmetry_Int_Tables_number   1
_chemical_formula_structural   Tb2YEr2(In2Pt)2
_chemical_formula_sum   'Tb4 Y2 Er4 In8 Pt4'
_cell_volume   541.36117655
_cell_formula_units_Z   2
loop_
 _symmetry_equiv_pos_site_id
 _symmetry_equiv_pos_as_xyz
  1  'x, y, z'
loop_
 _atom_site_type_symbol
 _atom_site_label
 _atom_site_symmetry_multiplicity
 _atom_site_fract_x
 _atom_site_fract_y
 _atom_site_fract_z
 _atom_site_occupancy
  Tb  Tb0  1  0.000000  0.242476  0.219878  1
  Tb  Tb1  1  0.000000  0.757524  0.780122  1
  Tb  Tb2  1  0.000000  0.257524  0.719878  1
  Tb  Tb3  1  0.000000  0.742476  0.280122  1
  Y  Y4  1  0.000000  0.000000  0.000000  1
  Y  Y5  1  0.000000  0.500000  0.500000  1
  Er  Er6  1  0.000000  0.116406  0.414382  1
  Er  Er7  1  0.000000  0.883594  0.585618  1
  Er  Er8  1  0.000000  0.383594  0.914382  1
  Er  Er9  1  0.000000  0.616406  0.085618  1
  In  In10  1  0.500000  0.421830  0.351491  1
  In  In11  1  0.500000  0.578170  0.648509  1
  In  In12  1  0.500000  0.078170  0.851491  1
  In  In13  1  0.500000  0.921830  0.148509  1
  In  In14  1  0.500000  0.294329  0.065698  1
  In  In15  1  0.500000  0.705671  0.934302  1
  In  In16  1  0.500000  0.205671  0.565698  1
  In  In17  1  0.500000  0.794329  0.434302  1
  Pt  Pt18  1  0.500000  0.025385  0.304661  1
  Pt  Pt19  1  0.500000  0.974615  0.695339  1
  Pt  Pt20  1  0.500000  0.474615  0.804661  1
  Pt  Pt21  1  0.500000  0.525385  0.195339  1
