# generated using pymatgen
data_ScFe(BrO3)6
_symmetry_space_group_name_H-M   'P 1'
_cell_length_a   9.29027600
_cell_length_b   9.29027461
_cell_length_c   5.68100600
_cell_angle_alpha   90.00000000
_cell_angle_beta   90.00000000
_cell_angle_gamma   119.99999165
_symmetry_Int_Tables_number   1
_chemical_formula_structural   ScFe(BrO3)6
_chemical_formula_sum   'Sc1 Fe1 Br6 O18'
_cell_volume   424.63235685
_cell_formula_units_Z   1
loop_
 _symmetry_equiv_pos_site_id
 _symmetry_equiv_pos_as_xyz
  1  'x, y, z'
loop_
 _atom_site_type_symbol
 _atom_site_label
 _atom_site_symmetry_multiplicity
 _atom_site_fract_x
 _atom_site_fract_y
 _atom_site_fract_z
 _atom_site_occupancy
  Sc  Sc0  1  0.666667  0.333333  0.690800  1
  Fe  Fe1  1  0.333333  0.666667  0.195186  1
  Br  Br2  1  0.673074  0.014725  0.357048  1
  Br  Br3  1  0.318768  0.973621  0.866590  1
  Br  Br4  1  0.026379  0.345147  0.866590  1
  Br  Br5  1  0.341652  0.326926  0.357048  1
  Br  Br6  1  0.985275  0.658348  0.357048  1
  Br  Br7  1  0.654853  0.681232  0.866590  1
  O  O8  1  0.775018  0.833773  0.042544  1
  O  O9  1  0.951896  0.775990  0.536724  1
  O  O10  1  0.824093  0.048104  0.536724  1
  O  O11  1  0.166227  0.941244  0.042544  1
  O  O12  1  0.058756  0.224982  0.042544  1
  O  O13  1  0.224010  0.175907  0.536724  1
  O  O14  1  0.709340  0.532321  0.920376  1
  O  O15  1  0.189976  0.715273  0.415571  1
  O  O16  1  0.539205  0.421118  0.476820  1
  O  O17  1  0.126858  0.543415  0.988129  1
  O  O18  1  0.416557  0.873142  0.988129  1
  O  O19  1  0.578882  0.118086  0.476820  1
  O  O20  1  0.881914  0.460795  0.476820  1
  O  O21  1  0.456585  0.583443  0.988129  1
  O  O22  1  0.284727  0.474702  0.415571  1
  O  O23  1  0.822980  0.290660  0.920376  1
  O  O24  1  0.467679  0.177020  0.920376  1
  O  O25  1  0.525298  0.810024  0.415571  1
