# generated using pymatgen
data_Yb12BeAg11Ge12
_symmetry_space_group_name_H-M   'P 1'
_cell_length_a   4.54746500
_cell_length_b   7.81211067
_cell_length_c   21.25801800
_cell_angle_alpha   89.77984068
_cell_angle_beta   90.00000000
_cell_angle_gamma   90.00000000
_symmetry_Int_Tables_number   1
_chemical_formula_structural   Yb12BeAg11Ge12
_chemical_formula_sum   'Yb12 Be1 Ag11 Ge12'
_cell_volume   755.19188866
_cell_formula_units_Z   1
loop_
 _symmetry_equiv_pos_site_id
 _symmetry_equiv_pos_as_xyz
  1  'x, y, z'
loop_
 _atom_site_type_symbol
 _atom_site_label
 _atom_site_symmetry_multiplicity
 _atom_site_fract_x
 _atom_site_fract_y
 _atom_site_fract_z
 _atom_site_occupancy
  Yb  Yb0  1  0.250000  0.788880  0.165731  1
  Yb  Yb1  1  0.250000  0.777565  0.500395  1
  Yb  Yb2  1  0.250000  0.709912  0.333049  1
  Yb  Yb3  1  0.750000  0.221031  0.500624  1
  Yb  Yb4  1  0.750000  0.282444  0.667287  1
  Yb  Yb5  1  0.750000  0.281695  0.998378  1
  Yb  Yb6  1  0.250000  0.790589  0.833778  1
  Yb  Yb7  1  0.250000  0.722694  0.999382  1
  Yb  Yb8  1  0.750000  0.211279  0.166477  1
  Yb  Yb9  1  0.750000  0.287688  0.333862  1
  Yb  Yb10  1  0.250000  0.710867  0.665849  1
  Yb  Yb11  1  0.750000  0.216904  0.832893  1
  Be  Be12  1  0.750000  0.593369  0.767840  1
  Ag  Ag13  1  0.750000  0.586017  0.898085  1
  Ag  Ag14  1  0.250000  0.415581  0.434504  1
  Ag  Ag15  1  0.750000  0.582945  0.566779  1
  Ag  Ag16  1  0.750000  0.917651  0.406200  1
  Ag  Ag17  1  0.250000  0.418433  0.093018  1
  Ag  Ag18  1  0.250000  0.411540  0.237772  1
  Ag  Ag19  1  0.750000  0.911771  0.262115  1
  Ag  Ag20  1  0.250000  0.086956  0.739092  1
  Ag  Ag21  1  0.250000  0.085031  0.933732  1
  Ag  Ag22  1  0.750000  0.917412  0.065360  1
  Ag  Ag23  1  0.250000  0.080419  0.594461  1
  Ge  Ge24  1  0.250000  0.414041  0.896828  1
  Ge  Ge25  1  0.750000  0.896933  0.733871  1
  Ge  Ge26  1  0.750000  0.581233  0.228733  1
  Ge  Ge27  1  0.250000  0.090092  0.070889  1
  Ge  Ge28  1  0.750000  0.910574  0.926033  1
  Ge  Ge29  1  0.750000  0.911151  0.603920  1
  Ge  Ge30  1  0.250000  0.409475  0.573377  1
  Ge  Ge31  1  0.250000  0.085422  0.397619  1
  Ge  Ge32  1  0.250000  0.081120  0.271999  1
  Ge  Ge33  1  0.750000  0.587374  0.428733  1
  Ge  Ge34  1  0.250000  0.436234  0.769067  1
  Ge  Ge35  1  0.750000  0.587676  0.102274  1
