# generated using pymatgen
data_Ba3Lu2TeO9
_symmetry_space_group_name_H-M   'P 1'
_cell_length_a   6.00908900
_cell_length_b   6.00908899
_cell_length_c   14.71774600
_cell_angle_alpha   90.00000000
_cell_angle_beta   90.00000000
_cell_angle_gamma   119.99999457
_symmetry_Int_Tables_number   1
_chemical_formula_structural   Ba3Lu2TeO9
_chemical_formula_sum   'Ba6 Lu4 Te2 O18'
_cell_volume   460.24516063
_cell_formula_units_Z   2
loop_
 _symmetry_equiv_pos_site_id
 _symmetry_equiv_pos_as_xyz
  1  'x, y, z'
loop_
 _atom_site_type_symbol
 _atom_site_label
 _atom_site_symmetry_multiplicity
 _atom_site_fract_x
 _atom_site_fract_y
 _atom_site_fract_z
 _atom_site_occupancy
  Ba  Ba0  1  0.333333  0.666667  0.090744  1
  Ba  Ba1  1  0.666667  0.333333  0.909256  1
  Ba  Ba2  1  0.333333  0.666667  0.590744  1
  Ba  Ba3  1  0.666667  0.333333  0.409256  1
  Ba  Ba4  1  0.000000  0.000000  0.250000  1
  Ba  Ba5  1  0.000000  0.000000  0.750000  1
  Lu  Lu6  1  0.333333  0.666667  0.831901  1
  Lu  Lu7  1  0.666667  0.333333  0.168099  1
  Lu  Lu8  1  0.333333  0.666667  0.331901  1
  Lu  Lu9  1  0.666667  0.333333  0.668099  1
  Te  Te10  1  0.000000  0.000000  0.000000  1
  Te  Te11  1  0.000000  0.000000  0.500000  1
  O  O12  1  0.861825  0.690826  0.576534  1
  O  O13  1  0.000000  0.529837  0.250000  1
  O  O14  1  0.170999  0.309174  0.923466  1
  O  O15  1  0.861825  0.170999  0.076534  1
  O  O16  1  0.829001  0.138175  0.576534  1
  O  O17  1  0.829001  0.690826  0.076534  1
  O  O18  1  0.690826  0.829001  0.423466  1
  O  O19  1  0.470163  0.000000  0.750000  1
  O  O20  1  0.529837  0.529837  0.750000  1
  O  O21  1  0.309174  0.170999  0.576534  1
  O  O22  1  0.138175  0.309174  0.423466  1
  O  O23  1  0.170999  0.861825  0.423466  1
  O  O24  1  0.309174  0.138175  0.076534  1
  O  O25  1  0.529837  0.000000  0.250000  1
  O  O26  1  0.470163  0.470163  0.250000  1
  O  O27  1  0.000000  0.470163  0.750000  1
  O  O28  1  0.138175  0.829001  0.923466  1
  O  O29  1  0.690826  0.861825  0.923466  1
