# generated using pymatgen
data_HoCoSi3Ir4
_symmetry_space_group_name_H-M   'P 1'
_cell_length_a   3.88168500
_cell_length_b   10.89059700
_cell_length_c   12.56037800
_cell_angle_alpha   90.00000000
_cell_angle_beta   90.00000000
_cell_angle_gamma   90.00000000
_symmetry_Int_Tables_number   1
_chemical_formula_structural   HoCoSi3Ir4
_chemical_formula_sum   'Ho4 Co4 Si12 Ir16'
_cell_volume   530.97574924
_cell_formula_units_Z   4
loop_
 _symmetry_equiv_pos_site_id
 _symmetry_equiv_pos_as_xyz
  1  'x, y, z'
loop_
 _atom_site_type_symbol
 _atom_site_label
 _atom_site_symmetry_multiplicity
 _atom_site_fract_x
 _atom_site_fract_y
 _atom_site_fract_z
 _atom_site_occupancy
  Ho  Ho0  1  0.250000  0.585428  0.708071  1
  Ho  Ho1  1  0.250000  0.914572  0.208071  1
  Ho  Ho2  1  0.750000  0.414572  0.291929  1
  Ho  Ho3  1  0.750000  0.085428  0.791929  1
  Co  Co4  1  0.250000  0.467921  0.934590  1
  Co  Co5  1  0.250000  0.032079  0.434590  1
  Co  Co6  1  0.750000  0.532079  0.065410  1
  Co  Co7  1  0.750000  0.967921  0.565410  1
  Si  Si8  1  0.250000  0.420619  0.106179  1
  Si  Si9  1  0.250000  0.079381  0.606179  1
  Si  Si10  1  0.750000  0.579381  0.893821  1
  Si  Si11  1  0.750000  0.920619  0.393821  1
  Si  Si12  1  0.250000  0.274028  0.873383  1
  Si  Si13  1  0.250000  0.225972  0.373383  1
  Si  Si14  1  0.750000  0.725972  0.126617  1
  Si  Si15  1  0.750000  0.774028  0.626617  1
  Si  Si16  1  0.250000  0.599817  0.390778  1
  Si  Si17  1  0.250000  0.900183  0.890778  1
  Si  Si18  1  0.750000  0.400183  0.609222  1
  Si  Si19  1  0.750000  0.099817  0.109222  1
  Ir  Ir20  1  0.250000  0.705760  0.986510  1
  Ir  Ir21  1  0.250000  0.794240  0.486510  1
  Ir  Ir22  1  0.750000  0.294240  0.013490  1
  Ir  Ir23  1  0.750000  0.205760  0.513490  1
  Ir  Ir24  1  0.250000  0.404809  0.485701  1
  Ir  Ir25  1  0.250000  0.095191  0.985701  1
  Ir  Ir26  1  0.750000  0.595191  0.514299  1
  Ir  Ir27  1  0.750000  0.904809  0.014299  1
  Ir  Ir28  1  0.250000  0.225496  0.179775  1
  Ir  Ir29  1  0.250000  0.274504  0.679775  1
  Ir  Ir30  1  0.750000  0.774504  0.820225  1
  Ir  Ir31  1  0.750000  0.725496  0.320225  1
  Ir  Ir32  1  0.250000  0.889616  0.699012  1
  Ir  Ir33  1  0.250000  0.610384  0.199012  1
  Ir  Ir34  1  0.750000  0.110384  0.300988  1
  Ir  Ir35  1  0.750000  0.389616  0.800988  1
