# generated using pymatgen
data_Yb7LuSi16(Mo3W)3
_symmetry_space_group_name_H-M   'P 1'
_cell_length_a   6.71494408
_cell_length_b   6.90770466
_cell_length_c   13.02324913
_cell_angle_alpha   89.88056127
_cell_angle_beta   90.01733899
_cell_angle_gamma   89.87794654
_symmetry_Int_Tables_number   1
_chemical_formula_structural   Yb7LuSi16(Mo3W)3
_chemical_formula_sum   'Yb7 Lu1 Si16 Mo9 W3'
_cell_volume   604.07875182
_cell_formula_units_Z   1
loop_
 _symmetry_equiv_pos_site_id
 _symmetry_equiv_pos_as_xyz
  1  'x, y, z'
loop_
 _atom_site_type_symbol
 _atom_site_label
 _atom_site_symmetry_multiplicity
 _atom_site_fract_x
 _atom_site_fract_y
 _atom_site_fract_z
 _atom_site_occupancy
  Yb  Yb0  1  0.498605  0.333589  0.089938  1
  Yb  Yb1  1  0.998231  0.166570  0.409652  1
  Yb  Yb2  1  0.501367  0.666613  0.590579  1
  Yb  Yb3  1  0.001211  0.830962  0.908218  1
  Yb  Yb4  1  0.501027  0.667556  0.909477  1
  Yb  Yb5  1  0.001675  0.832986  0.590592  1
  Yb  Yb6  1  0.498631  0.333748  0.409657  1
  Lu  Lu7  1  0.999092  0.170817  0.093811  1
  Si  Si8  1  0.658569  0.042706  0.545854  1
  Si  Si9  1  0.159207  0.457212  0.954999  1
  Si  Si10  1  0.338646  0.958931  0.045447  1
  Si  Si11  1  0.841653  0.543429  0.454365  1
  Si  Si12  1  0.341609  0.957380  0.454189  1
  Si  Si13  1  0.841330  0.542342  0.045226  1
  Si  Si14  1  0.661074  0.041726  0.954954  1
  Si  Si15  1  0.158734  0.457492  0.545822  1
  Si  Si16  1  0.534970  0.376028  0.750522  1
  Si  Si17  1  0.034674  0.122586  0.749759  1
  Si  Si18  1  0.465659  0.626258  0.249038  1
  Si  Si19  1  0.964365  0.873739  0.249604  1
  Si  Si20  1  0.800175  0.634439  0.749923  1
  Si  Si21  1  0.300672  0.864394  0.750011  1
  Si  Si22  1  0.199965  0.366266  0.250564  1
  Si  Si23  1  0.697836  0.134582  0.250206  1
  Mo  Mo24  1  0.835082  0.331734  0.628457  1
  Mo  Mo25  1  0.334008  0.167345  0.872637  1
  Mo  Mo26  1  0.165650  0.668095  0.126792  1
  Mo  Mo27  1  0.665315  0.832236  0.371420  1
  Mo  Mo28  1  0.165762  0.668888  0.371155  1
  Mo  Mo29  1  0.667122  0.834474  0.126677  1
  Mo  Mo30  1  0.836494  0.329960  0.873286  1
  Mo  Mo31  1  0.334962  0.167783  0.628389  1
  Mo  Mo32  1  0.838515  0.506316  0.248689  1
  W  W33  1  0.659957  0.009625  0.750540  1
  W  W34  1  0.160258  0.489103  0.750514  1
  W  W35  1  0.337901  0.992091  0.249037  1
