# generated using pymatgen
data_HfMn(PS3)4
_symmetry_space_group_name_H-M   'P 1'
_cell_length_a   11.31283910
_cell_length_b   12.06267742
_cell_length_c   7.16238007
_cell_angle_alpha   66.52685774
_cell_angle_beta   77.97144663
_cell_angle_gamma   34.47071603
_symmetry_Int_Tables_number   1
_chemical_formula_structural   HfMn(PS3)4
_chemical_formula_sum   'Hf1 Mn1 P4 S12'
_cell_volume   493.67840410
_cell_formula_units_Z   1
loop_
 _symmetry_equiv_pos_site_id
 _symmetry_equiv_pos_as_xyz
  1  'x, y, z'
loop_
 _atom_site_type_symbol
 _atom_site_label
 _atom_site_symmetry_multiplicity
 _atom_site_fract_x
 _atom_site_fract_y
 _atom_site_fract_z
 _atom_site_occupancy
  Hf  Hf0  1  0.852743  0.852741  0.147259  1
  Mn  Mn1  1  0.099588  0.099588  0.400413  1
  P  P2  1  0.511729  0.857358  0.268991  1
  P  P3  1  0.857358  0.511729  0.361922  1
  P  P4  1  0.893107  0.987056  0.392948  1
  P  P5  1  0.987056  0.893107  0.726888  1
  S  S6  1  0.920580  0.297973  0.606789  1
  S  S7  1  0.297973  0.920580  0.174657  1
  S  S8  1  0.110504  0.627661  0.935154  1
  S  S9  1  0.627661  0.110504  0.326682  1
  S  S10  1  0.521127  0.014851  0.030780  1
  S  S11  1  0.014852  0.521126  0.433243  1
  S  S12  1  0.823341  0.225895  0.247949  1
  S  S13  1  0.225896  0.823340  0.702816  1
  S  S14  1  0.417417  0.930838  0.522721  1
  S  S15  1  0.930838  0.417418  0.129022  1
  S  S16  1  0.143759  0.718274  0.334774  1
  S  S17  1  0.718273  0.143760  0.803193  1
