# generated using pymatgen
data_Y2Ho(MgIr)3
_symmetry_space_group_name_H-M   'P 1'
_cell_length_a   7.24740832
_cell_length_b   7.24740908
_cell_length_c   4.09510300
_cell_angle_alpha   90.00000000
_cell_angle_beta   90.00000000
_cell_angle_gamma   119.96571452
_symmetry_Int_Tables_number   1
_chemical_formula_structural   Y2Ho(MgIr)3
_chemical_formula_sum   'Y2 Ho1 Mg3 Ir3'
_cell_volume   186.34206565
_cell_formula_units_Z   1
loop_
 _symmetry_equiv_pos_site_id
 _symmetry_equiv_pos_as_xyz
  1  'x, y, z'
loop_
 _atom_site_type_symbol
 _atom_site_label
 _atom_site_symmetry_multiplicity
 _atom_site_fract_x
 _atom_site_fract_y
 _atom_site_fract_z
 _atom_site_occupancy
  Y  Y0  1  0.408187  0.999980  0.500001  1
  Y  Y1  1  0.999980  0.408187  0.500001  1
  Ho  Ho2  1  0.592102  0.592102  0.500001  1
  Mg  Mg3  1  0.755050  0.999798  0.000000  1
  Mg  Mg4  1  0.245047  0.245048  0.000000  1
  Mg  Mg5  1  0.999798  0.755050  0.000000  1
  Ir  Ir6  1  0.666460  0.334413  0.000000  1
  Ir  Ir7  1  0.334413  0.666460  0.000000  1
  Ir  Ir8  1  0.998964  0.998964  0.500001  1
