# generated using pymatgen
data_TmU(MoN2)2
_symmetry_space_group_name_H-M   'P 1'
_cell_length_a   3.16376300
_cell_length_b   5.61150000
_cell_length_c   10.81001800
_cell_angle_alpha   90.00000000
_cell_angle_beta   90.00000000
_cell_angle_gamma   90.00000000
_symmetry_Int_Tables_number   1
_chemical_formula_structural   TmU(MoN2)2
_chemical_formula_sum   'Tm2 U2 Mo4 N8'
_cell_volume   191.91517973
_cell_formula_units_Z   2
loop_
 _symmetry_equiv_pos_site_id
 _symmetry_equiv_pos_as_xyz
  1  'x, y, z'
loop_
 _atom_site_type_symbol
 _atom_site_label
 _atom_site_symmetry_multiplicity
 _atom_site_fract_x
 _atom_site_fract_y
 _atom_site_fract_z
 _atom_site_occupancy
  Tm  Tm0  1  0.750000  0.922322  0.151105  1
  Tm  Tm1  1  0.750000  0.422322  0.348895  1
  U  U2  1  0.250000  0.070645  0.858759  1
  U  U3  1  0.250000  0.570645  0.641241  1
  Mo  Mo4  1  0.250000  0.434052  0.098663  1
  Mo  Mo5  1  0.250000  0.934052  0.401337  1
  Mo  Mo6  1  0.750000  0.568843  0.901897  1
  Mo  Mo7  1  0.750000  0.068843  0.598103  1
  N  N8  1  0.250000  0.166400  0.244317  1
  N  N9  1  0.250000  0.666400  0.255683  1
  N  N10  1  0.750000  0.833289  0.754215  1
  N  N11  1  0.750000  0.333289  0.745785  1
  N  N12  1  0.250000  0.762866  0.999238  1
  N  N13  1  0.250000  0.262866  0.500762  1
  N  N14  1  0.750000  0.241583  0.005224  1
  N  N15  1  0.750000  0.741583  0.494776  1
