# generated using pymatgen
data_Er4LuRuRh
_symmetry_space_group_name_H-M   'P 1'
_cell_length_a   6.33270809
_cell_length_b   7.22150938
_cell_length_c   8.38566900
_cell_angle_alpha   96.97505570
_cell_angle_beta   112.67850103
_cell_angle_gamma   89.84727925
_symmetry_Int_Tables_number   1
_chemical_formula_structural   Er4LuRuRh
_chemical_formula_sum   'Er8 Lu2 Ru2 Rh2'
_cell_volume   350.81337786
_cell_formula_units_Z   2
loop_
 _symmetry_equiv_pos_site_id
 _symmetry_equiv_pos_as_xyz
  1  'x, y, z'
loop_
 _atom_site_type_symbol
 _atom_site_label
 _atom_site_symmetry_multiplicity
 _atom_site_fract_x
 _atom_site_fract_y
 _atom_site_fract_z
 _atom_site_occupancy
  Er  Er0  1  0.524067  0.080713  0.816574  1
  Er  Er1  1  0.475933  0.919287  0.183426  1
  Er  Er2  1  0.710014  0.415461  0.185550  1
  Er  Er3  1  0.289986  0.584539  0.814450  1
  Er  Er4  1  0.288905  0.313247  0.435628  1
  Er  Er5  1  0.711095  0.686753  0.564372  1
  Er  Er6  1  0.857993  0.184185  0.563594  1
  Er  Er7  1  0.142007  0.815815  0.436406  1
  Lu  Lu8  1  0.075602  0.248510  0.999596  1
  Lu  Lu9  1  0.924398  0.751490  0.000404  1
  Ru  Ru10  1  0.105601  0.924456  0.784236  1
  Ru  Ru11  1  0.894399  0.075544  0.215764  1
  Rh  Rh12  1  0.323156  0.573702  0.220431  1
  Rh  Rh13  1  0.676844  0.426298  0.779569  1
