# generated using pymatgen
data_Pr4Ga4Pd5Pt3
_symmetry_space_group_name_H-M   'P 1'
_cell_length_a   5.82848288
_cell_length_b   7.13599262
_cell_length_c   7.64522407
_cell_angle_alpha   90.01494418
_cell_angle_beta   89.99552532
_cell_angle_gamma   89.88578958
_symmetry_Int_Tables_number   1
_chemical_formula_structural   Pr4Ga4Pd5Pt3
_chemical_formula_sum   'Pr4 Ga4 Pd5 Pt3'
_cell_volume   317.97959911
_cell_formula_units_Z   1
loop_
 _symmetry_equiv_pos_site_id
 _symmetry_equiv_pos_as_xyz
  1  'x, y, z'
loop_
 _atom_site_type_symbol
 _atom_site_label
 _atom_site_symmetry_multiplicity
 _atom_site_fract_x
 _atom_site_fract_y
 _atom_site_fract_z
 _atom_site_occupancy
  Pr  Pr0  1  0.350319  0.751073  0.030870  1
  Pr  Pr1  1  0.148677  0.751668  0.533590  1
  Pr  Pr2  1  0.650062  0.248060  0.966256  1
  Pr  Pr3  1  0.851402  0.249413  0.468108  1
  Ga  Ga4  1  0.651190  0.750121  0.380691  1
  Ga  Ga5  1  0.849674  0.751066  0.880640  1
  Ga  Ga6  1  0.350001  0.248840  0.619232  1
  Ga  Ga7  1  0.149954  0.249836  0.119581  1
  Pd  Pd8  1  0.411192  0.446764  0.323357  1
  Pd  Pd9  1  0.088521  0.447882  0.822241  1
  Pd  Pd10  1  0.411444  0.053256  0.321901  1
  Pd  Pd11  1  0.912189  0.947865  0.178099  1
  Pd  Pd12  1  0.587247  0.551644  0.677546  1
  Pt  Pt13  1  0.912456  0.553087  0.177934  1
  Pt  Pt14  1  0.587484  0.945734  0.677375  1
  Pt  Pt15  1  0.088186  0.053690  0.822578  1
