# generated using pymatgen
data_Na3Eu(CdAu)4
_symmetry_space_group_name_H-M   'P 1'
_cell_length_a   4.56293600
_cell_length_b   7.47776284
_cell_length_c   8.70051459
_cell_angle_alpha   89.80115527
_cell_angle_beta   90.00000000
_cell_angle_gamma   90.00000000
_symmetry_Int_Tables_number   1
_chemical_formula_structural   Na3Eu(CdAu)4
_chemical_formula_sum   'Na3 Eu1 Cd4 Au4'
_cell_volume   296.86458386
_cell_formula_units_Z   1
loop_
 _symmetry_equiv_pos_site_id
 _symmetry_equiv_pos_as_xyz
  1  'x, y, z'
loop_
 _atom_site_type_symbol
 _atom_site_label
 _atom_site_symmetry_multiplicity
 _atom_site_fract_x
 _atom_site_fract_y
 _atom_site_fract_z
 _atom_site_occupancy
  Na  Na0  1  0.750000  0.464993  0.816536  1
  Na  Na1  1  0.250000  0.031948  0.323893  1
  Na  Na2  1  0.750000  0.968600  0.678225  1
  Eu  Eu3  1  0.250000  0.534419  0.181604  1
  Cd  Cd4  1  0.250000  0.649910  0.566087  1
  Cd  Cd5  1  0.250000  0.145898  0.935752  1
  Cd  Cd6  1  0.750000  0.343961  0.443757  1
  Cd  Cd7  1  0.750000  0.861317  0.058344  1
  Au  Au8  1  0.250000  0.758947  0.876765  1
  Au  Au9  1  0.250000  0.260346  0.626183  1
  Au  Au10  1  0.750000  0.731539  0.368522  1
  Au  Au11  1  0.750000  0.248122  0.124331  1
