# generated using pymatgen
data_Dy2Mg2IrPt
_symmetry_space_group_name_H-M   'P 1'
_cell_length_a   4.13067700
_cell_length_b   7.09025195
_cell_length_c   8.66171962
_cell_angle_alpha   88.70976367
_cell_angle_beta   90.00000000
_cell_angle_gamma   90.00000000
_symmetry_Int_Tables_number   1
_chemical_formula_structural   Dy2Mg2IrPt
_chemical_formula_sum   'Dy4 Mg4 Ir2 Pt2'
_cell_volume   253.61614768
_cell_formula_units_Z   2
loop_
 _symmetry_equiv_pos_site_id
 _symmetry_equiv_pos_as_xyz
  1  'x, y, z'
loop_
 _atom_site_type_symbol
 _atom_site_label
 _atom_site_symmetry_multiplicity
 _atom_site_fract_x
 _atom_site_fract_y
 _atom_site_fract_z
 _atom_site_occupancy
  Dy  Dy0  1  0.250000  0.455537  0.181909  1
  Dy  Dy1  1  0.750000  0.544463  0.818091  1
  Dy  Dy2  1  0.750000  0.034519  0.670192  1
  Dy  Dy3  1  0.250000  0.965481  0.329808  1
  Mg  Mg4  1  0.250000  0.864354  0.937001  1
  Mg  Mg5  1  0.750000  0.135646  0.062999  1
  Mg  Mg6  1  0.750000  0.635260  0.439705  1
  Mg  Mg7  1  0.250000  0.364740  0.560295  1
  Ir  Ir8  1  0.250000  0.750740  0.628059  1
  Ir  Ir9  1  0.750000  0.249260  0.371941  1
  Pt  Pt10  1  0.750000  0.749018  0.123478  1
  Pt  Pt11  1  0.250000  0.250982  0.876522  1
