# generated using pymatgen
data_Cs2Si2Pb2O7
_symmetry_space_group_name_H-M   'P 1'
_cell_length_a   5.86396504
_cell_length_b   5.86301642
_cell_length_c   8.61742300
_cell_angle_alpha   90.00043901
_cell_angle_beta   90.00504745
_cell_angle_gamma   119.99619232
_symmetry_Int_Tables_number   1
_chemical_formula_structural   Cs2Si2Pb2O7
_chemical_formula_sum   'Cs2 Si2 Pb2 O7'
_cell_volume   256.58849852
_cell_formula_units_Z   1
loop_
 _symmetry_equiv_pos_site_id
 _symmetry_equiv_pos_as_xyz
  1  'x, y, z'
loop_
 _atom_site_type_symbol
 _atom_site_label
 _atom_site_symmetry_multiplicity
 _atom_site_fract_x
 _atom_site_fract_y
 _atom_site_fract_z
 _atom_site_occupancy
  Cs  Cs0  1  0.666531  0.333259  0.098654  1
  Cs  Cs1  1  0.333469  0.666740  0.901345  1
  Si  Si2  1  0.999968  0.999985  0.305925  1
  Si  Si3  1  0.000032  0.000015  0.694075  1
  Pb  Pb4  1  0.333192  0.666584  0.392253  1
  Pb  Pb5  1  0.666808  0.333416  0.607747  1
  O  O6  1  0.693388  0.836819  0.243835  1
  O  O7  1  0.143169  0.306258  0.243822  1
  O  O8  1  0.162873  0.856543  0.243816  1
  O  O9  1  0.000000  0.000000  0.500000  1
  O  O10  1  0.837127  0.143457  0.756184  1
  O  O11  1  0.856831  0.693742  0.756178  1
  O  O12  1  0.306612  0.163181  0.756165  1
