# generated using pymatgen
data_La2InHg3O2
_symmetry_space_group_name_H-M   'P 1'
_cell_length_a   5.88508636
_cell_length_b   5.86808848
_cell_length_c   11.18416519
_cell_angle_alpha   89.86402197
_cell_angle_beta   95.45161815
_cell_angle_gamma   89.96679289
_symmetry_Int_Tables_number   1
_chemical_formula_structural   La2InHg3O2
_chemical_formula_sum   'La4 In2 Hg6 O4'
_cell_volume   384.48804047
_cell_formula_units_Z   2
loop_
 _symmetry_equiv_pos_site_id
 _symmetry_equiv_pos_as_xyz
  1  'x, y, z'
loop_
 _atom_site_type_symbol
 _atom_site_label
 _atom_site_symmetry_multiplicity
 _atom_site_fract_x
 _atom_site_fract_y
 _atom_site_fract_z
 _atom_site_occupancy
  La  La0  1  0.517772  0.183051  0.103585  1
  La  La1  1  0.017767  0.683177  0.103546  1
  La  La2  1  0.981466  0.183959  0.892571  1
  La  La3  1  0.481466  0.683790  0.892520  1
  In  In4  1  0.534360  0.165707  0.421350  1
  In  In5  1  0.030169  0.655092  0.421191  1
  Hg  Hg6  1  0.974272  0.156709  0.584954  1
  Hg  Hg7  1  0.470329  0.666217  0.584869  1
  Hg  Hg8  1  0.538686  0.674730  0.295674  1
  Hg  Hg9  1  0.042019  0.167455  0.295370  1
  Hg  Hg10  1  0.955041  0.669475  0.704420  1
  Hg  Hg11  1  0.458254  0.175817  0.704355  1
  O  O12  1  0.749584  0.933355  0.998811  1
  O  O13  1  0.249574  0.934024  0.998685  1
  O  O14  1  0.749570  0.434029  0.999107  1
  O  O15  1  0.249684  0.433372  0.998993  1
