# generated using pymatgen
data_SrTbLu2(NiP)4
_symmetry_space_group_name_H-M   'P 1'
_cell_length_a   3.88647100
_cell_length_b   3.88647022
_cell_length_c   15.91971200
_cell_angle_alpha   90.00000000
_cell_angle_beta   90.00000000
_cell_angle_gamma   119.99999816
_symmetry_Int_Tables_number   1
_chemical_formula_structural   SrTbLu2(NiP)4
_chemical_formula_sum   'Sr1 Tb1 Lu2 Ni4 P4'
_cell_volume   208.24597770
_cell_formula_units_Z   1
loop_
 _symmetry_equiv_pos_site_id
 _symmetry_equiv_pos_as_xyz
  1  'x, y, z'
loop_
 _atom_site_type_symbol
 _atom_site_label
 _atom_site_symmetry_multiplicity
 _atom_site_fract_x
 _atom_site_fract_y
 _atom_site_fract_z
 _atom_site_occupancy
  Sr  Sr0  1  0.000000  0.000000  0.000000  1
  Tb  Tb1  1  0.000000  0.000000  0.500000  1
  Lu  Lu2  1  0.000000  0.000000  0.256830  1
  Lu  Lu3  1  0.000000  0.000000  0.743170  1
  Ni  Ni4  1  0.333333  0.666667  0.147862  1
  Ni  Ni5  1  0.666667  0.333333  0.852138  1
  Ni  Ni6  1  0.666667  0.333333  0.627177  1
  Ni  Ni7  1  0.333333  0.666667  0.372823  1
  P  P8  1  0.333333  0.666667  0.620242  1
  P  P9  1  0.666667  0.333333  0.379758  1
  P  P10  1  0.666667  0.333333  0.139454  1
  P  P11  1  0.333333  0.666667  0.860546  1
