# generated using pymatgen
data_EuHf3As4
_symmetry_space_group_name_H-M   'P 1'
_cell_length_a   3.88683000
_cell_length_b   3.88682918
_cell_length_c   13.30303100
_cell_angle_alpha   90.00000000
_cell_angle_beta   90.00000000
_cell_angle_gamma   120.00002397
_symmetry_Int_Tables_number   1
_chemical_formula_structural   EuHf3As4
_chemical_formula_sum   'Eu1 Hf3 As4'
_cell_volume   174.04923987
_cell_formula_units_Z   1
loop_
 _symmetry_equiv_pos_site_id
 _symmetry_equiv_pos_as_xyz
  1  'x, y, z'
loop_
 _atom_site_type_symbol
 _atom_site_label
 _atom_site_symmetry_multiplicity
 _atom_site_fract_x
 _atom_site_fract_y
 _atom_site_fract_z
 _atom_site_occupancy
  Eu  Eu0  1  0.333333  0.666667  0.379666  1
  Hf  Hf1  1  0.666667  0.333333  0.879660  1
  Hf  Hf2  1  0.666667  0.333333  0.634927  1
  Hf  Hf3  1  0.333333  0.666667  0.106184  1
  As  As4  1  0.666667  0.333333  0.225164  1
  As  As5  1  0.333333  0.666667  0.758146  1
  As  As6  1  0.000000  0.000000  0.523822  1
  As  As7  1  0.000000  0.000000  0.992433  1
