# generated using pymatgen
data_Rb6HfMoSe8
_symmetry_space_group_name_H-M   'P 1'
_cell_length_a   10.15990100
_cell_length_b   10.24968400
_cell_length_c   12.04353800
_cell_angle_alpha   90.00000000
_cell_angle_beta   90.00000000
_cell_angle_gamma   90.00000000
_symmetry_Int_Tables_number   1
_chemical_formula_structural   Rb6HfMoSe8
_chemical_formula_sum   'Rb12 Hf2 Mo2 Se16'
_cell_volume   1254.16316002
_cell_formula_units_Z   2
loop_
 _symmetry_equiv_pos_site_id
 _symmetry_equiv_pos_as_xyz
  1  'x, y, z'
loop_
 _atom_site_type_symbol
 _atom_site_label
 _atom_site_symmetry_multiplicity
 _atom_site_fract_x
 _atom_site_fract_y
 _atom_site_fract_z
 _atom_site_occupancy
  Rb  Rb0  1  0.038716  0.792979  0.445239  1
  Rb  Rb1  1  0.461284  0.292979  0.554761  1
  Rb  Rb2  1  0.571437  0.707636  0.039687  1
  Rb  Rb3  1  0.928563  0.207636  0.960313  1
  Rb  Rb4  1  0.928563  0.207636  0.539687  1
  Rb  Rb5  1  0.571437  0.707636  0.460313  1
  Rb  Rb6  1  0.461284  0.292979  0.945239  1
  Rb  Rb7  1  0.038716  0.792979  0.054761  1
  Rb  Rb8  1  0.137534  0.586919  0.750000  1
  Rb  Rb9  1  0.362466  0.086919  0.250000  1
  Rb  Rb10  1  0.633945  0.918177  0.750000  1
  Rb  Rb11  1  0.866055  0.418177  0.250000  1
  Hf  Hf12  1  0.771329  0.987303  0.250000  1
  Hf  Hf13  1  0.728671  0.487303  0.750000  1
  Mo  Mo14  1  0.289623  0.515109  0.250000  1
  Mo  Mo15  1  0.210377  0.015109  0.750000  1
  Se  Se16  1  0.797774  0.743097  0.250000  1
  Se  Se17  1  0.702226  0.243097  0.750000  1
  Se  Se18  1  0.305082  0.744187  0.250000  1
  Se  Se19  1  0.194918  0.244187  0.750000  1
  Se  Se20  1  0.999631  0.923315  0.750000  1
  Se  Se21  1  0.500369  0.423315  0.250000  1
  Se  Se22  1  0.499591  0.586318  0.750000  1
  Se  Se23  1  0.000409  0.086318  0.250000  1
  Se  Se24  1  0.322595  0.947246  0.591166  1
  Se  Se25  1  0.177405  0.447246  0.408834  1
  Se  Se26  1  0.852004  0.549926  0.924147  1
  Se  Se27  1  0.647996  0.049926  0.075853  1
  Se  Se28  1  0.647996  0.049926  0.424147  1
  Se  Se29  1  0.852004  0.549926  0.575853  1
  Se  Se30  1  0.177405  0.447246  0.091166  1
  Se  Se31  1  0.322595  0.947246  0.908834  1
