# generated using pymatgen
data_Ac2Gd3Sn4
_symmetry_space_group_name_H-M   'P 1'
_cell_length_a   8.31335100
_cell_length_b   8.49517400
_cell_length_c   16.06871000
_cell_angle_alpha   90.00000000
_cell_angle_beta   90.00000000
_cell_angle_gamma   90.00000000
_symmetry_Int_Tables_number   1
_chemical_formula_structural   Ac2Gd3Sn4
_chemical_formula_sum   'Ac8 Gd12 Sn16'
_cell_volume   1134.82634358
_cell_formula_units_Z   4
loop_
 _symmetry_equiv_pos_site_id
 _symmetry_equiv_pos_as_xyz
  1  'x, y, z'
loop_
 _atom_site_type_symbol
 _atom_site_label
 _atom_site_symmetry_multiplicity
 _atom_site_fract_x
 _atom_site_fract_y
 _atom_site_fract_z
 _atom_site_occupancy
  Ac  Ac0  1  0.501073  0.174535  0.595562  1
  Ac  Ac1  1  0.001073  0.325465  0.904438  1
  Ac  Ac2  1  0.498927  0.825465  0.095562  1
  Ac  Ac3  1  0.998927  0.674535  0.404438  1
  Ac  Ac4  1  0.498927  0.825465  0.404438  1
  Ac  Ac5  1  0.998927  0.674535  0.095562  1
  Ac  Ac6  1  0.501073  0.174535  0.904438  1
  Ac  Ac7  1  0.001073  0.325465  0.595562  1
  Gd  Gd8  1  0.335538  0.663439  0.624623  1
  Gd  Gd9  1  0.835538  0.836561  0.875377  1
  Gd  Gd10  1  0.664462  0.336561  0.124623  1
  Gd  Gd11  1  0.164462  0.163439  0.375377  1
  Gd  Gd12  1  0.664462  0.336561  0.375377  1
  Gd  Gd13  1  0.164462  0.163439  0.124623  1
  Gd  Gd14  1  0.335538  0.663439  0.875377  1
  Gd  Gd15  1  0.835538  0.836561  0.624623  1
  Gd  Gd16  1  0.669996  0.501564  0.750000  1
  Gd  Gd17  1  0.169996  0.998436  0.750000  1
  Gd  Gd18  1  0.330004  0.498436  0.250000  1
  Gd  Gd19  1  0.830004  0.001564  0.250000  1
  Sn  Sn20  1  0.828244  0.041704  0.457233  1
  Sn  Sn21  1  0.328244  0.458296  0.042767  1
  Sn  Sn22  1  0.171756  0.958296  0.957233  1
  Sn  Sn23  1  0.671756  0.541704  0.542767  1
  Sn  Sn24  1  0.171756  0.958296  0.542767  1
  Sn  Sn25  1  0.671756  0.541704  0.957233  1
  Sn  Sn26  1  0.828244  0.041704  0.042767  1
  Sn  Sn27  1  0.328244  0.458296  0.457233  1
  Sn  Sn28  1  0.303447  0.363033  0.750000  1
  Sn  Sn29  1  0.803447  0.136967  0.750000  1
  Sn  Sn30  1  0.696553  0.636967  0.250000  1
  Sn  Sn31  1  0.196553  0.863033  0.250000  1
  Sn  Sn32  1  0.533613  0.870722  0.750000  1
  Sn  Sn33  1  0.033613  0.629278  0.750000  1
  Sn  Sn34  1  0.466387  0.129278  0.250000  1
  Sn  Sn35  1  0.966387  0.370722  0.250000  1
