# generated using pymatgen
data_Ba4Sb4PtAu3
_symmetry_space_group_name_H-M   'P 1'
_cell_length_a   9.68145000
_cell_length_b   4.75253500
_cell_length_c   8.25420100
_cell_angle_alpha   90.00000000
_cell_angle_beta   89.99861527
_cell_angle_gamma   90.00000000
_symmetry_Int_Tables_number   1
_chemical_formula_structural   Ba4Sb4PtAu3
_chemical_formula_sum   'Ba4 Sb4 Pt1 Au3'
_cell_volume   379.78759126
_cell_formula_units_Z   1
loop_
 _symmetry_equiv_pos_site_id
 _symmetry_equiv_pos_as_xyz
  1  'x, y, z'
loop_
 _atom_site_type_symbol
 _atom_site_label
 _atom_site_symmetry_multiplicity
 _atom_site_fract_x
 _atom_site_fract_y
 _atom_site_fract_z
 _atom_site_occupancy
  Ba  Ba0  1  0.503847  0.749999  0.245852  1
  Ba  Ba1  1  0.995852  0.749999  0.246981  1
  Ba  Ba2  1  0.996270  0.250000  0.753807  1
  Ba  Ba3  1  0.504132  0.250000  0.755037  1
  Sb  Sb4  1  0.249260  0.250000  0.083320  1
  Sb  Sb5  1  0.749329  0.250000  0.408112  1
  Sb  Sb6  1  0.250786  0.749999  0.582484  1
  Sb  Sb7  1  0.750754  0.749999  0.925916  1
  Pt  Pt8  1  0.750088  0.250000  0.081092  1
  Au  Au9  1  0.250370  0.250000  0.415901  1
  Au  Au10  1  0.749663  0.749999  0.586055  1
  Au  Au11  1  0.249646  0.749999  0.915447  1
