# generated using pymatgen
data_YEr4Lu3Au4
_symmetry_space_group_name_H-M   'P 1'
_cell_length_a   4.85220200
_cell_length_b   7.05373962
_cell_length_c   8.83510900
_cell_angle_alpha   90.15740289
_cell_angle_beta   90.00000000
_cell_angle_gamma   90.00000000
_symmetry_Int_Tables_number   1
_chemical_formula_structural   YEr4Lu3Au4
_chemical_formula_sum   'Y1 Er4 Lu3 Au4'
_cell_volume   302.39079692
_cell_formula_units_Z   1
loop_
 _symmetry_equiv_pos_site_id
 _symmetry_equiv_pos_as_xyz
  1  'x, y, z'
loop_
 _atom_site_type_symbol
 _atom_site_label
 _atom_site_symmetry_multiplicity
 _atom_site_fract_x
 _atom_site_fract_y
 _atom_site_fract_z
 _atom_site_occupancy
  Y  Y0  1  0.750000  0.017011  0.678564  1
  Er  Er1  1  0.750000  0.648712  0.421522  1
  Er  Er2  1  0.250000  0.482749  0.177847  1
  Er  Er3  1  0.250000  0.984662  0.322422  1
  Er  Er4  1  0.750000  0.516698  0.822662  1
  Lu  Lu5  1  0.250000  0.850820  0.923427  1
  Lu  Lu6  1  0.250000  0.351604  0.578075  1
  Lu  Lu7  1  0.750000  0.149426  0.077375  1
  Au  Au8  1  0.250000  0.254195  0.898601  1
  Au  Au9  1  0.250000  0.753087  0.602970  1
  Au  Au10  1  0.750000  0.746835  0.099304  1
  Au  Au11  1  0.750000  0.244201  0.397232  1
