# generated using pymatgen
data_Sr6NdTmSb6
_symmetry_space_group_name_H-M   'P 1'
_cell_length_a   8.50137198
_cell_length_b   8.47411309
_cell_length_c   9.81954380
_cell_angle_alpha   55.42805242
_cell_angle_beta   55.21659738
_cell_angle_gamma   71.02747647
_symmetry_Int_Tables_number   1
_chemical_formula_structural   Sr6NdTmSb6
_chemical_formula_sum   'Sr6 Nd1 Tm1 Sb6'
_cell_volume   478.41142248
_cell_formula_units_Z   1
loop_
 _symmetry_equiv_pos_site_id
 _symmetry_equiv_pos_as_xyz
  1  'x, y, z'
loop_
 _atom_site_type_symbol
 _atom_site_label
 _atom_site_symmetry_multiplicity
 _atom_site_fract_x
 _atom_site_fract_y
 _atom_site_fract_z
 _atom_site_occupancy
  Sr  Sr0  1  0.002310  0.135718  0.111745  1
  Sr  Sr1  1  0.863705  0.000117  0.887250  1
  Sr  Sr2  1  0.499314  0.854659  0.751408  1
  Sr  Sr3  1  0.145056  0.500740  0.248168  1
  Sr  Sr4  1  0.997526  0.645802  0.604914  1
  Sr  Sr5  1  0.354486  0.001762  0.395506  1
  Nd  Nd6  1  0.636185  0.498741  0.249892  1
  Tm  Tm7  1  0.501725  0.367562  0.747661  1
  Sb  Sb8  1  0.855234  0.143431  0.503397  1
  Sb  Sb9  1  0.623636  0.373829  0.995015  1
  Sb  Sb10  1  0.267904  0.260967  0.621981  1
  Sb  Sb11  1  0.734844  0.727939  0.387863  1
  Sb  Sb12  1  0.132542  0.610078  0.876109  1
  Sb  Sb13  1  0.385531  0.878656  0.119090  1
