# generated using pymatgen
data_Dy10LuTh5(MgRu)4
_symmetry_space_group_name_H-M   'P 1'
_cell_length_a   9.71844899
_cell_length_b   9.77835527
_cell_length_c   9.77835409
_cell_angle_alpha   59.79900567
_cell_angle_beta   60.20244449
_cell_angle_gamma   60.20244968
_symmetry_Int_Tables_number   1
_chemical_formula_structural   Dy10LuTh5(MgRu)4
_chemical_formula_sum   'Dy10 Lu1 Th5 Mg4 Ru4'
_cell_volume   658.06331398
_cell_formula_units_Z   1
loop_
 _symmetry_equiv_pos_site_id
 _symmetry_equiv_pos_as_xyz
  1  'x, y, z'
loop_
 _atom_site_type_symbol
 _atom_site_label
 _atom_site_symmetry_multiplicity
 _atom_site_fract_x
 _atom_site_fract_y
 _atom_site_fract_z
 _atom_site_occupancy
  Dy  Dy0  1  0.191137  0.809853  0.184704  1
  Dy  Dy1  1  0.814308  0.184704  0.809853  1
  Dy  Dy2  1  0.191137  0.184704  0.809853  1
  Dy  Dy3  1  0.814308  0.809853  0.184704  1
  Dy  Dy4  1  0.932703  0.567297  0.567297  1
  Dy  Dy5  1  0.564860  0.935140  0.935140  1
  Dy  Dy6  1  0.562766  0.935914  0.564367  1
  Dy  Dy7  1  0.936954  0.564367  0.935914  1
  Dy  Dy8  1  0.562766  0.564367  0.935914  1
  Dy  Dy9  1  0.936954  0.935914  0.564367  1
  Lu  Lu10  1  0.186528  0.813472  0.813472  1
  Th  Th11  1  0.342120  0.348632  0.348632  1
  Th  Th12  1  0.345849  0.347921  0.960380  1
  Th  Th13  1  0.345849  0.960380  0.347921  1
  Th  Th14  1  0.960616  0.348632  0.348632  1
  Th  Th15  1  0.816084  0.183916  0.183916  1
  Mg  Mg16  1  0.580839  0.579672  0.579672  1
  Mg  Mg17  1  0.579555  0.581939  0.258948  1
  Mg  Mg18  1  0.579555  0.258948  0.581939  1
  Mg  Mg19  1  0.259816  0.579672  0.579672  1
  Ru  Ru20  1  0.128133  0.147741  0.147741  1
  Ru  Ru21  1  0.145391  0.140864  0.568355  1
  Ru  Ru22  1  0.145391  0.568355  0.140864  1
  Ru  Ru23  1  0.576386  0.147741  0.147741  1
