# generated using pymatgen
data_Sc2SeO2
_symmetry_space_group_name_H-M   'P 1'
_cell_length_a   3.99759061
_cell_length_b   3.57698325
_cell_length_c   6.48524564
_cell_angle_alpha   73.99575817
_cell_angle_beta   72.46148135
_cell_angle_gamma   89.99518574
_symmetry_Int_Tables_number   1
_chemical_formula_structural   Sc2SeO2
_chemical_formula_sum   'Sc2 Se1 O2'
_cell_volume   84.64735050
_cell_formula_units_Z   1
loop_
 _symmetry_equiv_pos_site_id
 _symmetry_equiv_pos_as_xyz
  1  'x, y, z'
loop_
 _atom_site_type_symbol
 _atom_site_label
 _atom_site_symmetry_multiplicity
 _atom_site_fract_x
 _atom_site_fract_y
 _atom_site_fract_z
 _atom_site_occupancy
  Sc  Sc0  1  0.445940  0.892514  0.612025  1
  Sc  Sc1  1  0.098359  0.548302  0.300733  1
  Se  Se2  1  0.271093  0.219515  0.956320  1
  O  O3  1  0.544720  0.493350  0.410579  1
  O  O4  1  0.999686  0.947632  0.502125  1
