# generated using pymatgen
data_Al8TcNi4Ru3
_symmetry_space_group_name_H-M   'P 1'
_cell_length_a   5.81210000
_cell_length_b   5.81229500
_cell_length_c   6.10904600
_cell_angle_alpha   90.00046120
_cell_angle_beta   90.00009618
_cell_angle_gamma   90.00000000
_symmetry_Int_Tables_number   1
_chemical_formula_structural   Al8TcNi4Ru3
_chemical_formula_sum   'Al8 Tc1 Ni4 Ru3'
_cell_volume   206.37359130
_cell_formula_units_Z   1
loop_
 _symmetry_equiv_pos_site_id
 _symmetry_equiv_pos_as_xyz
  1  'x, y, z'
loop_
 _atom_site_type_symbol
 _atom_site_label
 _atom_site_symmetry_multiplicity
 _atom_site_fract_x
 _atom_site_fract_y
 _atom_site_fract_z
 _atom_site_occupancy
  Al  Al0  1  0.499538  0.000536  0.249975  1
  Al  Al1  1  0.499543  0.499408  0.249971  1
  Al  Al2  1  0.000604  0.000526  0.250206  1
  Al  Al3  1  0.000613  0.499524  0.250203  1
  Al  Al4  1  0.000468  0.000539  0.749800  1
  Al  Al5  1  0.000459  0.499412  0.749798  1
  Al  Al6  1  0.499392  0.000535  0.750028  1
  Al  Al7  1  0.499382  0.499515  0.750025  1
  Tc  Tc8  1  0.249886  0.250000  0.999994  1
  Ni  Ni9  1  0.249910  0.750000  0.000131  1
  Ni  Ni10  1  0.749910  0.249999  0.499869  1
  Ni  Ni11  1  0.250094  0.750000  0.500130  1
  Ni  Ni12  1  0.750088  0.249999  0.999867  1
  Ru  Ru13  1  0.750104  0.750000  0.000006  1
  Ru  Ru14  1  0.250106  0.250000  0.499987  1
  Ru  Ru15  1  0.749909  0.749999  0.500011  1
