# generated using pymatgen
data_Tl2Te3RuO12
_symmetry_space_group_name_H-M   'P 1'
_cell_length_a   7.23085504
_cell_length_b   7.27516263
_cell_length_c   7.23088300
_cell_angle_alpha   90.00000000
_cell_angle_beta   60.40598747
_cell_angle_gamma   120.20289934
_symmetry_Int_Tables_number   1
_chemical_formula_structural   Tl2Te3RuO12
_chemical_formula_sum   'Tl2 Te3 Ru1 O12'
_cell_volume   269.78894218
_cell_formula_units_Z   1
loop_
 _symmetry_equiv_pos_site_id
 _symmetry_equiv_pos_as_xyz
  1  'x, y, z'
loop_
 _atom_site_type_symbol
 _atom_site_label
 _atom_site_symmetry_multiplicity
 _atom_site_fract_x
 _atom_site_fract_y
 _atom_site_fract_z
 _atom_site_occupancy
  Tl  Tl0  1  0.264765  0.129702  0.632390  1
  Tl  Tl1  1  0.735235  0.864937  0.367610  1
  Te  Te2  1  0.499994  0.497236  0.999955  1
  Te  Te3  1  0.500006  0.997242  0.000045  1
  Te  Te4  1  0.000000  0.497367  0.500000  1
  Ru  Ru5  1  0.000000  0.497418  0.000000  1
  O  O6  1  0.647521  0.821051  0.927208  1
  O  O7  1  0.850096  0.422449  0.327904  1
  O  O8  1  0.252958  0.422425  0.925038  1
  O  O9  1  0.250958  0.821065  0.323730  1
  O  O10  1  0.252930  0.825262  0.925077  1
  O  O11  1  0.250973  0.424518  0.323787  1
  O  O12  1  0.352479  0.173529  0.072792  1
  O  O13  1  0.149904  0.572353  0.672096  1
  O  O14  1  0.747070  0.572331  0.074923  1
  O  O15  1  0.749027  0.173544  0.676213  1
  O  O16  1  0.747042  0.169467  0.074962  1
  O  O17  1  0.749042  0.570107  0.676270  1
