# generated using pymatgen
data_Yb12CrAg11Ge12
_symmetry_space_group_name_H-M   'P 1'
_cell_length_a   4.57456800
_cell_length_b   7.83996315
_cell_length_c   21.30555100
_cell_angle_alpha   90.03100126
_cell_angle_beta   90.00000000
_cell_angle_gamma   90.00000000
_symmetry_Int_Tables_number   1
_chemical_formula_structural   Yb12CrAg11Ge12
_chemical_formula_sum   'Yb12 Cr1 Ag11 Ge12'
_cell_volume   764.11164030
_cell_formula_units_Z   1
loop_
 _symmetry_equiv_pos_site_id
 _symmetry_equiv_pos_as_xyz
  1  'x, y, z'
loop_
 _atom_site_type_symbol
 _atom_site_label
 _atom_site_symmetry_multiplicity
 _atom_site_fract_x
 _atom_site_fract_y
 _atom_site_fract_z
 _atom_site_occupancy
  Yb  Yb0  1  0.250000  0.788082  0.166074  1
  Yb  Yb1  1  0.250000  0.777033  0.499898  1
  Yb  Yb2  1  0.250000  0.712621  0.332966  1
  Yb  Yb3  1  0.750000  0.223316  0.499989  1
  Yb  Yb4  1  0.750000  0.284473  0.667327  1
  Yb  Yb5  1  0.750000  0.276757  0.999951  1
  Yb  Yb6  1  0.250000  0.791703  0.833785  1
  Yb  Yb7  1  0.250000  0.723501  0.000056  1
  Yb  Yb8  1  0.750000  0.212342  0.166973  1
  Yb  Yb9  1  0.750000  0.288153  0.333775  1
  Yb  Yb10  1  0.250000  0.711860  0.665310  1
  Yb  Yb11  1  0.750000  0.209704  0.833713  1
  Cr  Cr12  1  0.750000  0.587778  0.764352  1
  Ag  Ag13  1  0.750000  0.583235  0.904836  1
  Ag  Ag14  1  0.250000  0.416551  0.433830  1
  Ag  Ag15  1  0.750000  0.583476  0.566655  1
  Ag  Ag16  1  0.750000  0.918003  0.406388  1
  Ag  Ag17  1  0.250000  0.418246  0.093498  1
  Ag  Ag18  1  0.250000  0.412753  0.238524  1
  Ag  Ag19  1  0.750000  0.912885  0.261725  1
  Ag  Ag20  1  0.250000  0.087224  0.738011  1
  Ag  Ag21  1  0.250000  0.084044  0.933989  1
  Ag  Ag22  1  0.750000  0.916366  0.066564  1
  Ag  Ag23  1  0.250000  0.082098  0.593691  1
  Ge  Ge24  1  0.250000  0.413541  0.897102  1
  Ge  Ge25  1  0.750000  0.909647  0.730162  1
  Ge  Ge26  1  0.750000  0.581385  0.229116  1
  Ge  Ge27  1  0.250000  0.088952  0.071764  1
  Ge  Ge28  1  0.750000  0.910303  0.927604  1
  Ge  Ge29  1  0.750000  0.913997  0.602481  1
  Ge  Ge30  1  0.250000  0.411200  0.571342  1
  Ge  Ge31  1  0.250000  0.085959  0.397494  1
  Ge  Ge32  1  0.250000  0.082141  0.271079  1
  Ge  Ge33  1  0.750000  0.588415  0.428206  1
  Ge  Ge34  1  0.250000  0.425482  0.768768  1
  Ge  Ge35  1  0.750000  0.586770  0.103000  1
