# generated using pymatgen
data_Tb5Yb3(ReC2)4
_symmetry_space_group_name_H-M   'P 1'
_cell_length_a   5.15361500
_cell_length_b   6.55474018
_cell_length_c   10.07334970
_cell_angle_alpha   89.41578365
_cell_angle_beta   90.00000000
_cell_angle_gamma   90.00000000
_symmetry_Int_Tables_number   1
_chemical_formula_structural   Tb5Yb3(ReC2)4
_chemical_formula_sum   'Tb5 Yb3 Re4 C8'
_cell_volume   340.26618131
_cell_formula_units_Z   1
loop_
 _symmetry_equiv_pos_site_id
 _symmetry_equiv_pos_as_xyz
  1  'x, y, z'
loop_
 _atom_site_type_symbol
 _atom_site_label
 _atom_site_symmetry_multiplicity
 _atom_site_fract_x
 _atom_site_fract_y
 _atom_site_fract_z
 _atom_site_occupancy
  Tb  Tb0  1  0.250000  0.689067  0.553899  1
  Tb  Tb1  1  0.750000  0.313046  0.447369  1
  Tb  Tb2  1  0.750000  0.817327  0.052989  1
  Tb  Tb3  1  0.250000  0.184137  0.945529  1
  Tb  Tb4  1  0.250000  0.536465  0.221856  1
  Yb  Yb5  1  0.750000  0.461543  0.776955  1
  Yb  Yb6  1  0.750000  0.961247  0.723591  1
  Yb  Yb7  1  0.250000  0.037576  0.277915  1
  Re  Re8  1  0.250000  0.720532  0.860887  1
  Re  Re9  1  0.750000  0.278131  0.139768  1
  Re  Re10  1  0.750000  0.776856  0.360388  1
  Re  Re11  1  0.250000  0.224708  0.637726  1
  C  C12  1  0.250000  0.455275  0.758356  1
  C  C13  1  0.750000  0.544622  0.240075  1
  C  C14  1  0.750000  0.044670  0.260385  1
  C  C15  1  0.250000  0.956057  0.740766  1
  C  C16  1  0.250000  0.808967  0.041454  1
  C  C17  1  0.750000  0.180606  0.962053  1
  C  C18  1  0.750000  0.686115  0.539899  1
  C  C19  1  0.250000  0.323048  0.458142  1
