# generated using pymatgen
data_Li6CuSi5Pt12
_symmetry_space_group_name_H-M   'P 1'
_cell_length_a   3.91749000
_cell_length_b   6.98650700
_cell_length_c   11.73677500
_cell_angle_alpha   89.99996720
_cell_angle_beta   90.00002925
_cell_angle_gamma   90.00003280
_symmetry_Int_Tables_number   1
_chemical_formula_structural   Li6CuSi5Pt12
_chemical_formula_sum   'Li6 Cu1 Si5 Pt12'
_cell_volume   321.23050028
_cell_formula_units_Z   1
loop_
 _symmetry_equiv_pos_site_id
 _symmetry_equiv_pos_as_xyz
  1  'x, y, z'
loop_
 _atom_site_type_symbol
 _atom_site_label
 _atom_site_symmetry_multiplicity
 _atom_site_fract_x
 _atom_site_fract_y
 _atom_site_fract_z
 _atom_site_occupancy
  Li  Li0  1  0.000000  0.500010  0.984734  1
  Li  Li1  1  0.500000  0.000005  0.170606  1
  Li  Li2  1  0.000000  0.500005  0.333355  1
  Li  Li3  1  0.500000  0.000008  0.496074  1
  Li  Li4  1  0.000000  0.499998  0.681974  1
  Li  Li5  1  0.500001  0.000001  0.833339  1
  Cu  Cu6  1  0.499999  0.499903  0.833158  1
  Si  Si7  1  0.000000  0.000000  0.002583  1
  Si  Si8  1  0.500000  0.500003  0.158406  1
  Si  Si9  1  0.000000  0.000005  0.333337  1
  Si  Si10  1  0.500000  0.500006  0.508287  1
  Si  Si11  1  0.000000  0.000006  0.664087  1
  Pt  Pt12  1  0.500000  0.235952  0.002015  1
  Pt  Pt13  1  0.500000  0.764047  0.002011  1
  Pt  Pt14  1  0.000000  0.260518  0.167581  1
  Pt  Pt15  1  0.000000  0.739500  0.167583  1
  Pt  Pt16  1  0.500000  0.253382  0.333338  1
  Pt  Pt17  1  0.500000  0.746642  0.333341  1
  Pt  Pt18  1  0.000000  0.260469  0.499098  1
  Pt  Pt19  1  0.000000  0.739531  0.499101  1
  Pt  Pt20  1  0.500001  0.235949  0.664658  1
  Pt  Pt21  1  0.500001  0.764059  0.664656  1
  Pt  Pt22  1  0.000000  0.223913  0.833343  1
  Pt  Pt23  1  0.000000  0.776085  0.833337  1
