# generated using pymatgen
data_K3Sm(IO3)6
_symmetry_space_group_name_H-M   'P 1'
_cell_length_a   7.21452462
_cell_length_b   7.26649173
_cell_length_c   11.01333893
_cell_angle_alpha   98.71056035
_cell_angle_beta   108.20063914
_cell_angle_gamma   103.18662448
_symmetry_Int_Tables_number   1
_chemical_formula_structural   K3Sm(IO3)6
_chemical_formula_sum   'K3 Sm1 I6 O18'
_cell_volume   518.30760148
_cell_formula_units_Z   1
loop_
 _symmetry_equiv_pos_site_id
 _symmetry_equiv_pos_as_xyz
  1  'x, y, z'
loop_
 _atom_site_type_symbol
 _atom_site_label
 _atom_site_symmetry_multiplicity
 _atom_site_fract_x
 _atom_site_fract_y
 _atom_site_fract_z
 _atom_site_occupancy
  K  K0  1  0.378247  0.540061  0.293047  1
  K  K1  1  0.621753  0.459939  0.706953  1
  K  K2  1  0.000000  0.500000  0.500000  1
  Sm  Sm3  1  0.000000  0.000000  0.000000  1
  I  I4  1  0.561330  0.033649  0.196325  1
  I  I5  1  0.438670  0.966351  0.803675  1
  I  I6  1  0.776880  0.531095  0.105248  1
  I  I7  1  0.223120  0.468905  0.894752  1
  I  I8  1  0.134097  0.063262  0.385099  1
  I  I9  1  0.865903  0.936738  0.614901  1
  O  O10  1  0.591083  0.654841  0.127315  1
  O  O11  1  0.408917  0.345159  0.872685  1
  O  O12  1  0.010257  0.359394  0.738173  1
  O  O13  1  0.989743  0.640606  0.261827  1
  O  O14  1  0.610977  0.299263  0.236623  1
  O  O15  1  0.389023  0.700737  0.763377  1
  O  O16  1  0.057856  0.110290  0.218289  1
  O  O17  1  0.942144  0.889710  0.781711  1
  O  O18  1  0.323953  0.962714  0.046045  1
  O  O19  1  0.676047  0.037286  0.953955  1
  O  O20  1  0.293167  0.308548  0.473986  1
  O  O21  1  0.706833  0.691452  0.526014  1
  O  O22  1  0.891997  0.081003  0.405422  1
  O  O23  1  0.108003  0.918997  0.594578  1
  O  O24  1  0.558389  0.037406  0.687956  1
  O  O25  1  0.441611  0.962594  0.312044  1
  O  O26  1  0.125265  0.329495  0.001720  1
  O  O27  1  0.874735  0.670505  0.998280  1
