# generated using pymatgen
data_Ba2InAuI
_symmetry_space_group_name_H-M   'P 1'
_cell_length_a   4.89562900
_cell_length_b   4.89562868
_cell_length_c   19.05411900
_cell_angle_alpha   90.00000000
_cell_angle_beta   90.00000000
_cell_angle_gamma   119.99999541
_symmetry_Int_Tables_number   1
_chemical_formula_structural   Ba2InAuI
_chemical_formula_sum   'Ba4 In2 Au2 I2'
_cell_volume   395.49089902
_cell_formula_units_Z   2
loop_
 _symmetry_equiv_pos_site_id
 _symmetry_equiv_pos_as_xyz
  1  'x, y, z'
loop_
 _atom_site_type_symbol
 _atom_site_label
 _atom_site_symmetry_multiplicity
 _atom_site_fract_x
 _atom_site_fract_y
 _atom_site_fract_z
 _atom_site_occupancy
  Ba  Ba0  1  0.000000  0.000000  0.114510  1
  Ba  Ba1  1  0.000000  0.000000  0.385490  1
  Ba  Ba2  1  0.000000  0.000000  0.614934  1
  Ba  Ba3  1  0.000000  0.000000  0.885066  1
  In  In4  1  0.666666  0.333334  0.501853  1
  In  In5  1  0.666666  0.333334  0.998147  1
  Au  Au6  1  0.333334  0.666667  0.001893  1
  Au  Au7  1  0.333334  0.666667  0.498107  1
  I  I8  1  0.666666  0.333334  0.250000  1
  I  I9  1  0.333334  0.666667  0.750000  1
