# generated using pymatgen
data_CaYb5(SmBi3)2
_symmetry_space_group_name_H-M   'P 1'
_cell_length_a   8.26655281
_cell_length_b   8.40800055
_cell_length_c   8.41009045
_cell_angle_alpha   109.82670925
_cell_angle_beta   109.13297749
_cell_angle_gamma   109.13038730
_symmetry_Int_Tables_number   1
_chemical_formula_structural   CaYb5(SmBi3)2
_chemical_formula_sum   'Ca1 Yb5 Sm2 Bi6'
_cell_volume   451.75424026
_cell_formula_units_Z   1
loop_
 _symmetry_equiv_pos_site_id
 _symmetry_equiv_pos_as_xyz
  1  'x, y, z'
loop_
 _atom_site_type_symbol
 _atom_site_label
 _atom_site_symmetry_multiplicity
 _atom_site_fract_x
 _atom_site_fract_y
 _atom_site_fract_z
 _atom_site_occupancy
  Ca  Ca0  1  0.501157  0.998495  0.645294  1
  Yb  Yb1  1  0.355708  0.352928  0.354519  1
  Yb  Yb2  1  0.502633  0.001487  0.147037  1
  Yb  Yb3  1  0.002203  0.646757  0.501386  1
  Yb  Yb4  1  0.855823  0.854248  0.853065  1
  Yb  Yb5  1  0.001043  0.145437  0.498441  1
  Sm  Sm6  1  0.139136  0.500108  0.000063  1
  Sm  Sm7  1  0.639416  0.500462  0.000340  1
  Bi  Bi8  1  0.375889  0.623919  0.752532  1
  Bi  Bi9  1  0.876575  0.252805  0.124979  1
  Bi  Bi10  1  0.623797  0.747213  0.371609  1
  Bi  Bi11  1  0.123114  0.871777  0.246855  1
  Bi  Bi12  1  0.251529  0.128252  0.875797  1
  Bi  Bi13  1  0.751977  0.376112  0.628084  1
