# generated using pymatgen
data_HoTi4Bi3F28
_symmetry_space_group_name_H-M   'P 1'
_cell_length_a   5.58269087
_cell_length_b   8.96378185
_cell_length_c   11.87159000
_cell_angle_alpha   62.51959058
_cell_angle_beta   89.96797909
_cell_angle_gamma   89.92623945
_symmetry_Int_Tables_number   1
_chemical_formula_structural   HoTi4Bi3F28
_chemical_formula_sum   'Ho1 Ti4 Bi3 F28'
_cell_volume   527.04728562
_cell_formula_units_Z   1
loop_
 _symmetry_equiv_pos_site_id
 _symmetry_equiv_pos_as_xyz
  1  'x, y, z'
loop_
 _atom_site_type_symbol
 _atom_site_label
 _atom_site_symmetry_multiplicity
 _atom_site_fract_x
 _atom_site_fract_y
 _atom_site_fract_z
 _atom_site_occupancy
  Ho  Ho0  1  0.740095  0.809584  0.263235  1
  Ti  Ti1  1  0.756029  0.271774  0.959255  1
  Ti  Ti2  1  0.256628  0.722961  0.538871  1
  Ti  Ti3  1  0.241023  0.724804  0.046878  1
  Ti  Ti4  1  0.743780  0.280231  0.455275  1
  Bi  Bi5  1  0.763233  0.813477  0.761266  1
  Bi  Bi6  1  0.261724  0.183480  0.739072  1
  Bi  Bi7  1  0.238764  0.179081  0.238265  1
  F  F8  1  0.434406  0.708687  0.924990  1
  F  F9  1  0.932155  0.294386  0.580138  1
  F  F10  1  0.569588  0.292135  0.082094  1
  F  F11  1  0.057583  0.710234  0.416107  1
  F  F12  1  0.455368  0.283815  0.539282  1
  F  F13  1  0.955474  0.722430  0.959754  1
  F  F14  1  0.541468  0.721201  0.450074  1
  F  F15  1  0.048359  0.278046  0.040019  1
  F  F16  1  0.774815  0.506816  0.864308  1
  F  F17  1  0.275803  0.490979  0.634015  1
  F  F18  1  0.221662  0.493617  0.140904  1
  F  F19  1  0.732064  0.517316  0.360495  1
  F  F20  1  0.757434  0.034802  0.053583  1
  F  F21  1  0.260500  0.962552  0.449051  1
  F  F22  1  0.239384  0.964311  0.951243  1
  F  F23  1  0.740198  0.040941  0.549629  1
  F  F24  1  0.981169  0.727838  0.628895  1
  F  F25  1  0.476966  0.271480  0.869852  1
  F  F26  1  0.020203  0.271691  0.368618  1
  F  F27  1  0.511393  0.731645  0.140756  1
  F  F28  1  0.041789  0.750361  0.168745  1
  F  F29  1  0.558493  0.260022  0.329567  1
  F  F30  1  0.939112  0.253088  0.831027  1
  F  F31  1  0.445649  0.743572  0.664134  1
  F  F32  1  0.410121  0.963566  0.226722  1
  F  F33  1  0.902715  0.023211  0.273450  1
  F  F34  1  0.606992  0.033093  0.776846  1
  F  F35  1  0.107864  0.962775  0.723587  1
