# generated using pymatgen
data_AcTb3(Sn5Rh3)2
_symmetry_space_group_name_H-M   'P 1'
_cell_length_a   13.58727370
_cell_length_b   13.58727383
_cell_length_c   7.26083791
_cell_angle_alpha   90.24272370
_cell_angle_beta   89.75727517
_cell_angle_gamma   160.78786897
_symmetry_Int_Tables_number   1
_chemical_formula_structural   AcTb3(Sn5Rh3)2
_chemical_formula_sum   'Ac1 Tb3 Sn10 Rh6'
_cell_volume   441.09402426
_cell_formula_units_Z   1
loop_
 _symmetry_equiv_pos_site_id
 _symmetry_equiv_pos_as_xyz
  1  'x, y, z'
loop_
 _atom_site_type_symbol
 _atom_site_label
 _atom_site_symmetry_multiplicity
 _atom_site_fract_x
 _atom_site_fract_y
 _atom_site_fract_z
 _atom_site_occupancy
  Ac  Ac0  1  0.172002  0.827998  0.757263  1
  Tb  Tb1  1  0.829760  0.170240  0.255824  1
  Tb  Tb2  1  0.475327  0.524673  0.738608  1
  Tb  Tb3  1  0.522457  0.477543  0.235865  1
  Sn  Sn4  1  0.879900  0.120100  0.732010  1
  Sn  Sn5  1  0.120684  0.879316  0.235107  1
  Sn  Sn6  1  0.705679  0.294321  0.057310  1
  Sn  Sn7  1  0.296871  0.703129  0.546437  1
  Sn  Sn8  1  0.592809  0.407191  0.605670  1
  Sn  Sn9  1  0.403246  0.596754  0.109661  1
  Sn  Sn10  1  0.952173  0.047827  0.401543  1
  Sn  Sn11  1  0.045650  0.954350  0.899685  1
  Sn  Sn12  1  0.292281  0.707719  0.979634  1
  Sn  Sn13  1  0.712116  0.287884  0.470519  1
  Rh  Rh14  1  0.049095  0.950905  0.512939  1
  Rh  Rh15  1  0.948454  0.051546  0.018037  1
  Rh  Rh16  1  0.778935  0.221065  0.765481  1
  Rh  Rh17  1  0.224722  0.775278  0.265334  1
  Rh  Rh18  1  0.395300  0.604700  0.481881  1
  Rh  Rh19  1  0.602539  0.397461  0.987190  1
