# generated using pymatgen
data_Pr7Sm(WO6)4
_symmetry_space_group_name_H-M   'P 1'
_cell_length_a   5.46983003
_cell_length_b   9.46120653
_cell_length_c   10.34052559
_cell_angle_alpha   90.15886430
_cell_angle_beta   89.94449249
_cell_angle_gamma   90.07218850
_symmetry_Int_Tables_number   1
_chemical_formula_structural   Pr7Sm(WO6)4
_chemical_formula_sum   'Pr7 Sm1 W4 O24'
_cell_volume   535.13179046
_cell_formula_units_Z   1
loop_
 _symmetry_equiv_pos_site_id
 _symmetry_equiv_pos_as_xyz
  1  'x, y, z'
loop_
 _atom_site_type_symbol
 _atom_site_label
 _atom_site_symmetry_multiplicity
 _atom_site_fract_x
 _atom_site_fract_y
 _atom_site_fract_z
 _atom_site_occupancy
  Pr  Pr0  1  0.477210  0.603007  0.537357  1
  Pr  Pr1  1  0.976614  0.896242  0.462074  1
  Pr  Pr2  1  0.523724  0.104158  0.962615  1
  Pr  Pr3  1  0.022041  0.396047  0.038135  1
  Pr  Pr4  1  0.967028  0.782264  0.868038  1
  Pr  Pr5  1  0.466765  0.718870  0.132920  1
  Pr  Pr6  1  0.034702  0.281188  0.630979  1
  Sm  Sm7  1  0.535940  0.218442  0.369498  1
  W  W8  1  0.459563  0.997421  0.646597  1
  W  W9  1  0.958536  0.501291  0.352220  1
  W  W10  1  0.541215  0.496496  0.852251  1
  W  W11  1  0.041437  0.005466  0.149573  1
  O  O12  1  0.255114  0.089483  0.507070  1
  O  O13  1  0.749904  0.408710  0.489973  1
  O  O14  1  0.748867  0.588703  0.990545  1
  O  O15  1  0.249521  0.912981  0.010719  1
  O  O16  1  0.721637  0.112671  0.562759  1
  O  O17  1  0.224979  0.385947  0.431865  1
  O  O18  1  0.278304  0.612121  0.934720  1
  O  O19  1  0.778201  0.889036  0.066233  1
  O  O20  1  0.573280  0.848822  0.527138  1
  O  O21  1  0.071559  0.648461  0.473592  1
  O  O22  1  0.426571  0.349402  0.972828  1
  O  O23  1  0.929888  0.150642  0.027244  1
  O  O24  1  0.179901  0.862464  0.259425  1
  O  O25  1  0.683143  0.637482  0.741064  1
  O  O26  1  0.811914  0.360172  0.242018  1
  O  O27  1  0.316726  0.137675  0.758568  1
  O  O28  1  0.827344  0.052342  0.288055  1
  O  O29  1  0.330732  0.450227  0.712264  1
  O  O30  1  0.166839  0.548748  0.212144  1
  O  O31  1  0.670427  0.951856  0.786244  1
  O  O32  1  0.309315  0.135253  0.183476  1
  O  O33  1  0.808165  0.365372  0.821059  1
  O  O34  1  0.692146  0.633278  0.321337  1
  O  O35  1  0.190747  0.867263  0.677401  1
