# generated using pymatgen
data_Ca8AcPt6
_symmetry_space_group_name_H-M   'P 1'
_cell_length_a   7.67131041
_cell_length_b   7.66913363
_cell_length_c   7.72788539
_cell_angle_alpha   70.73048823
_cell_angle_beta   70.81161217
_cell_angle_gamma   70.94697163
_symmetry_Int_Tables_number   1
_chemical_formula_structural   Ca8AcPt6
_chemical_formula_sum   'Ca8 Ac1 Pt6'
_cell_volume   393.03268136
_cell_formula_units_Z   1
loop_
 _symmetry_equiv_pos_site_id
 _symmetry_equiv_pos_as_xyz
  1  'x, y, z'
loop_
 _atom_site_type_symbol
 _atom_site_label
 _atom_site_symmetry_multiplicity
 _atom_site_fract_x
 _atom_site_fract_y
 _atom_site_fract_z
 _atom_site_occupancy
  Ca  Ca0  1  0.993936  0.005467  0.996969  1
  Ca  Ca1  1  0.198654  0.199567  0.199909  1
  Ca  Ca2  1  0.848900  0.601368  0.333234  1
  Ca  Ca3  1  0.670678  0.150404  0.399331  1
  Ca  Ca4  1  0.330748  0.851211  0.603992  1
  Ca  Ca5  1  0.150323  0.395267  0.671050  1
  Ca  Ca6  1  0.805085  0.802676  0.796535  1
  Ca  Ca7  1  0.605391  0.328307  0.841184  1
  Ac  Ac8  1  0.399015  0.666481  0.152882  1
  Pt  Pt9  1  0.834746  0.416710  0.046578  1
  Pt  Pt10  1  0.588716  0.953928  0.163581  1
  Pt  Pt11  1  0.047579  0.839631  0.412856  1
  Pt  Pt12  1  0.953122  0.160707  0.586500  1
  Pt  Pt13  1  0.411577  0.043464  0.840971  1
  Pt  Pt14  1  0.161528  0.584812  0.954429  1
