# generated using pymatgen
data_Ce3Mn(Co4P3)2
_symmetry_space_group_name_H-M   'P 1'
_cell_length_a   3.74662100
_cell_length_b   10.58164200
_cell_length_c   12.30744400
_cell_angle_alpha   90.00000000
_cell_angle_beta   90.00000000
_cell_angle_gamma   90.00000000
_symmetry_Int_Tables_number   1
_chemical_formula_structural   Ce3Mn(Co4P3)2
_chemical_formula_sum   'Ce6 Mn2 Co16 P12'
_cell_volume   487.93356659
_cell_formula_units_Z   2
loop_
 _symmetry_equiv_pos_site_id
 _symmetry_equiv_pos_as_xyz
  1  'x, y, z'
loop_
 _atom_site_type_symbol
 _atom_site_label
 _atom_site_symmetry_multiplicity
 _atom_site_fract_x
 _atom_site_fract_y
 _atom_site_fract_z
 _atom_site_occupancy
  Ce  Ce0  1  0.000000  0.500000  0.523515  1
  Ce  Ce1  1  0.500000  0.000000  0.476485  1
  Ce  Ce2  1  0.500000  0.819234  0.206430  1
  Ce  Ce3  1  0.500000  0.180766  0.206430  1
  Ce  Ce4  1  0.000000  0.680766  0.793570  1
  Ce  Ce5  1  0.000000  0.319234  0.793570  1
  Mn  Mn6  1  0.500000  0.500000  0.155668  1
  Mn  Mn7  1  0.000000  0.000000  0.844332  1
  Co  Co8  1  0.500000  0.500000  0.703036  1
  Co  Co9  1  0.000000  0.000000  0.296964  1
  Co  Co10  1  0.000000  0.500000  0.986577  1
  Co  Co11  1  0.500000  0.000000  0.013423  1
  Co  Co12  1  0.500000  0.332842  0.995735  1
  Co  Co13  1  0.500000  0.667158  0.995735  1
  Co  Co14  1  0.000000  0.167158  0.004265  1
  Co  Co15  1  0.000000  0.832842  0.004265  1
  Co  Co16  1  0.500000  0.299530  0.430034  1
  Co  Co17  1  0.500000  0.700470  0.430034  1
  Co  Co18  1  0.000000  0.200470  0.569966  1
  Co  Co19  1  0.000000  0.799530  0.569966  1
  Co  Co20  1  0.500000  0.878488  0.711738  1
  Co  Co21  1  0.500000  0.121512  0.711738  1
  Co  Co22  1  0.000000  0.621512  0.288262  1
  Co  Co23  1  0.000000  0.378488  0.288262  1
  P  P24  1  0.500000  0.500000  0.886755  1
  P  P25  1  0.000000  0.000000  0.113245  1
  P  P26  1  0.500000  0.500000  0.340909  1
  P  P27  1  0.000000  0.000000  0.659091  1
  P  P28  1  0.500000  0.306717  0.613447  1
  P  P29  1  0.500000  0.693283  0.613447  1
  P  P30  1  0.000000  0.193283  0.386553  1
  P  P31  1  0.000000  0.806717  0.386553  1
  P  P32  1  0.500000  0.847482  0.894620  1
  P  P33  1  0.500000  0.152518  0.894620  1
  P  P34  1  0.000000  0.652518  0.105380  1
  P  P35  1  0.000000  0.347482  0.105380  1
