# generated using pymatgen
data_NdDyPa2(Zn5Sn)2
_symmetry_space_group_name_H-M   'P 1'
_cell_length_a   8.40777447
_cell_length_b   8.40777403
_cell_length_c   8.93249279
_cell_angle_alpha   90.89169772
_cell_angle_beta   89.10830400
_cell_angle_gamma   149.30727357
_symmetry_Int_Tables_number   1
_chemical_formula_structural   NdDyPa2(Zn5Sn)2
_chemical_formula_sum   'Nd1 Dy1 Pa2 Zn10 Sn2'
_cell_volume   322.26830020
_cell_formula_units_Z   1
loop_
 _symmetry_equiv_pos_site_id
 _symmetry_equiv_pos_as_xyz
  1  'x, y, z'
loop_
 _atom_site_type_symbol
 _atom_site_label
 _atom_site_symmetry_multiplicity
 _atom_site_fract_x
 _atom_site_fract_y
 _atom_site_fract_z
 _atom_site_occupancy
  Nd  Nd0  1  0.000000  0.000000  0.000000  1
  Dy  Dy1  1  0.000000  0.000000  0.500000  1
  Pa  Pa2  1  0.205600  0.794400  0.250999  1
  Pa  Pa3  1  0.794400  0.205600  0.749001  1
  Zn  Zn4  1  0.815022  0.184978  0.391536  1
  Zn  Zn5  1  0.184978  0.815022  0.608464  1
  Zn  Zn6  1  0.812222  0.187778  0.105760  1
  Zn  Zn7  1  0.187778  0.812222  0.894240  1
  Zn  Zn8  1  0.659137  0.340863  0.481726  1
  Zn  Zn9  1  0.340863  0.659137  0.518274  1
  Zn  Zn10  1  0.658528  0.341472  0.021127  1
  Zn  Zn11  1  0.341472  0.658528  0.978873  1
  Zn  Zn12  1  0.393145  0.606855  0.247686  1
  Zn  Zn13  1  0.606855  0.393145  0.752314  1
  Sn  Sn14  1  0.555466  0.444534  0.255313  1
  Sn  Sn15  1  0.444534  0.555466  0.744687  1
