# generated using pymatgen
data_Sr3Ac(InPt)4
_symmetry_space_group_name_H-M   'P 1'
_cell_length_a   4.51625800
_cell_length_b   7.57436582
_cell_length_c   8.66608400
_cell_angle_alpha   89.83653995
_cell_angle_beta   90.00000000
_cell_angle_gamma   90.00000000
_symmetry_Int_Tables_number   1
_chemical_formula_structural   Sr3Ac(InPt)4
_chemical_formula_sum   'Sr3 Ac1 In4 Pt4'
_cell_volume   296.44637734
_cell_formula_units_Z   1
loop_
 _symmetry_equiv_pos_site_id
 _symmetry_equiv_pos_as_xyz
  1  'x, y, z'
loop_
 _atom_site_type_symbol
 _atom_site_label
 _atom_site_symmetry_multiplicity
 _atom_site_fract_x
 _atom_site_fract_y
 _atom_site_fract_z
 _atom_site_occupancy
  Sr  Sr0  1  0.250000  0.033979  0.322060  1
  Sr  Sr1  1  0.750000  0.967808  0.677104  1
  Sr  Sr2  1  0.250000  0.533623  0.183329  1
  Ac  Ac3  1  0.750000  0.466470  0.823337  1
  In  In4  1  0.250000  0.648975  0.559662  1
  In  In5  1  0.250000  0.135438  0.937984  1
  In  In6  1  0.750000  0.355198  0.432743  1
  In  In7  1  0.750000  0.857407  0.066209  1
  Pt  Pt8  1  0.250000  0.762225  0.873067  1
  Pt  Pt9  1  0.250000  0.275909  0.628494  1
  Pt  Pt10  1  0.750000  0.730305  0.375849  1
  Pt  Pt11  1  0.750000  0.232662  0.120164  1
