# generated using pymatgen
data_K10As4PdPt
_symmetry_space_group_name_H-M   'P 1'
_cell_length_a   5.75201800
_cell_length_b   5.75201912
_cell_length_c   19.42497600
_cell_angle_alpha   90.00000000
_cell_angle_beta   90.00000000
_cell_angle_gamma   119.99999358
_symmetry_Int_Tables_number   1
_chemical_formula_structural   K10As4PdPt
_chemical_formula_sum   'K10 As4 Pd1 Pt1'
_cell_volume   556.58526905
_cell_formula_units_Z   1
loop_
 _symmetry_equiv_pos_site_id
 _symmetry_equiv_pos_as_xyz
  1  'x, y, z'
loop_
 _atom_site_type_symbol
 _atom_site_label
 _atom_site_symmetry_multiplicity
 _atom_site_fract_x
 _atom_site_fract_y
 _atom_site_fract_z
 _atom_site_occupancy
  K  K0  1  0.333333  0.666667  0.548477  1
  K  K1  1  0.666667  0.333333  0.050496  1
  K  K2  1  0.666667  0.333333  0.449504  1
  K  K3  1  0.333333  0.666667  0.951523  1
  K  K4  1  0.000000  0.000000  0.151188  1
  K  K5  1  0.000000  0.000000  0.654747  1
  K  K6  1  0.000000  0.000000  0.845253  1
  K  K7  1  0.000000  0.000000  0.348812  1
  K  K8  1  0.333333  0.666667  0.750000  1
  K  K9  1  0.666667  0.333333  0.250000  1
  As  As10  1  0.333333  0.666667  0.376429  1
  As  As11  1  0.666667  0.333333  0.874926  1
  As  As12  1  0.666667  0.333333  0.625074  1
  As  As13  1  0.333333  0.666667  0.123571  1
  Pd  Pd14  1  0.333333  0.666667  0.250000  1
  Pt  Pt15  1  0.666667  0.333333  0.750000  1
