# generated using pymatgen
data_KMg2In7Rh2
_symmetry_space_group_name_H-M   'P 1'
_cell_length_a   9.15191453
_cell_length_b   9.18547192
_cell_length_c   4.04771000
_cell_angle_alpha   90.00000000
_cell_angle_beta   90.00000000
_cell_angle_gamma   120.12136691
_symmetry_Int_Tables_number   1
_chemical_formula_structural   KMg2In7Rh2
_chemical_formula_sum   'K1 Mg2 In7 Rh2'
_cell_volume   294.32084381
_cell_formula_units_Z   1
loop_
 _symmetry_equiv_pos_site_id
 _symmetry_equiv_pos_as_xyz
  1  'x, y, z'
loop_
 _atom_site_type_symbol
 _atom_site_label
 _atom_site_symmetry_multiplicity
 _atom_site_fract_x
 _atom_site_fract_y
 _atom_site_fract_z
 _atom_site_occupancy
  K  K0  1  0.000000  0.000000  0.000000  1
  Mg  Mg1  1  0.500000  0.000000  0.000000  1
  Mg  Mg2  1  0.500000  0.499999  0.000000  1
  In  In3  1  0.000000  0.499999  0.000000  1
  In  In4  1  0.416683  0.208341  0.499999  1
  In  In5  1  0.786402  0.198924  0.499999  1
  In  In6  1  0.213598  0.412522  0.499999  1
  In  In7  1  0.786402  0.587478  0.499999  1
  In  In8  1  0.213598  0.801076  0.499999  1
  In  In9  1  0.583317  0.791659  0.499999  1
  Rh  Rh10  1  0.667224  0.333612  0.000000  1
  Rh  Rh11  1  0.332775  0.666388  0.000000  1
