# generated using pymatgen
data_Nd7Er13(Si7Ge)2
_symmetry_space_group_name_H-M   'P 1'
_cell_length_a   7.71332502
_cell_length_b   7.72870923
_cell_length_c   14.25187100
_cell_angle_alpha   90.00760349
_cell_angle_beta   89.86784505
_cell_angle_gamma   90.14821326
_symmetry_Int_Tables_number   1
_chemical_formula_structural   Nd7Er13(Si7Ge)2
_chemical_formula_sum   'Nd7 Er13 Si14 Ge2'
_cell_volume   849.60658739
_cell_formula_units_Z   1
loop_
 _symmetry_equiv_pos_site_id
 _symmetry_equiv_pos_as_xyz
  1  'x, y, z'
loop_
 _atom_site_type_symbol
 _atom_site_label
 _atom_site_symmetry_multiplicity
 _atom_site_fract_x
 _atom_site_fract_y
 _atom_site_fract_z
 _atom_site_occupancy
  Nd  Nd0  1  0.357419  0.006977  0.958232  1
  Nd  Nd1  1  0.992319  0.643193  0.540239  1
  Nd  Nd2  1  0.489093  0.854410  0.211280  1
  Nd  Nd3  1  0.510844  0.143942  0.709135  1
  Nd  Nd4  1  0.859240  0.491972  0.790839  1
  Nd  Nd5  1  0.139853  0.507369  0.292524  1
  Nd  Nd6  1  0.007801  0.357953  0.042055  1
  Er  Er7  1  0.491518  0.359606  0.124308  1
  Er  Er8  1  0.989958  0.139714  0.625300  1
  Er  Er9  1  0.860933  0.008515  0.874258  1
  Er  Er10  1  0.138308  0.992878  0.374923  1
  Er  Er11  1  0.510563  0.640549  0.622440  1
  Er  Er12  1  0.359434  0.492823  0.875213  1
  Er  Er13  1  0.641772  0.508752  0.376097  1
  Er  Er14  1  0.008488  0.858070  0.127629  1
  Er  Er15  1  0.638366  0.996138  0.456166  1
  Er  Er16  1  0.318237  0.320515  0.498998  1
  Er  Er17  1  0.183011  0.817282  0.750251  1
  Er  Er18  1  0.816070  0.181785  0.251623  1
  Er  Er19  1  0.682558  0.678496  0.999551  1
  Si  Si20  1  0.935089  0.288398  0.438470  1
  Si  Si21  1  0.439600  0.207346  0.312879  1
  Si  Si22  1  0.562929  0.790460  0.811434  1
  Si  Si23  1  0.211544  0.438281  0.687316  1
  Si  Si24  1  0.788536  0.562453  0.188394  1
  Si  Si25  1  0.063000  0.710093  0.938902  1
  Si  Si26  1  0.797741  0.846731  0.689808  1
  Si  Si27  1  0.203748  0.151375  0.189181  1
  Si  Si28  1  0.844279  0.800897  0.314852  1
  Si  Si29  1  0.352384  0.704263  0.434917  1
  Si  Si30  1  0.651144  0.298808  0.936146  1
  Si  Si31  1  0.701506  0.343830  0.559138  1
  Si  Si32  1  0.296514  0.651907  0.061059  1
  Si  Si33  1  0.153005  0.203091  0.810213  1
  Ge  Ge34  1  0.293614  0.944128  0.562426  1
  Ge  Ge35  1  0.709580  0.057002  0.063800  1
