# generated using pymatgen
data_Tb2Th2MgCdNi4
_symmetry_space_group_name_H-M   'P 1'
_cell_length_a   7.57139216
_cell_length_b   7.55640626
_cell_length_c   3.68273000
_cell_angle_alpha   90.00000000
_cell_angle_beta   90.00000000
_cell_angle_gamma   92.72796102
_symmetry_Int_Tables_number   1
_chemical_formula_structural   Tb2Th2MgCdNi4
_chemical_formula_sum   'Tb2 Th2 Mg1 Cd1 Ni4'
_cell_volume   210.45947558
_cell_formula_units_Z   1
loop_
 _symmetry_equiv_pos_site_id
 _symmetry_equiv_pos_as_xyz
  1  'x, y, z'
loop_
 _atom_site_type_symbol
 _atom_site_label
 _atom_site_symmetry_multiplicity
 _atom_site_fract_x
 _atom_site_fract_y
 _atom_site_fract_z
 _atom_site_occupancy
  Tb  Tb0  1  0.168576  0.328423  0.500000  1
  Tb  Tb1  1  0.831424  0.671577  0.500000  1
  Th  Th2  1  0.674018  0.173083  0.500000  1
  Th  Th3  1  0.325982  0.826917  0.500000  1
  Mg  Mg4  1  0.500000  0.500000  0.000000  1
  Cd  Cd5  1  0.000000  0.000000  0.000000  1
  Ni  Ni6  1  0.125355  0.623562  0.000000  1
  Ni  Ni7  1  0.874645  0.376438  0.000000  1
  Ni  Ni8  1  0.618360  0.879222  0.000000  1
  Ni  Ni9  1  0.381640  0.120778  0.000000  1
