# generated using pymatgen
data_Ce2Rh5Pb
_symmetry_space_group_name_H-M   'P 1'
_cell_length_a   4.23685300
_cell_length_b   5.93358900
_cell_length_c   11.60292200
_cell_angle_alpha   90.00000000
_cell_angle_beta   90.00000000
_cell_angle_gamma   90.00000000
_symmetry_Int_Tables_number   1
_chemical_formula_structural   Ce2Rh5Pb
_chemical_formula_sum   'Ce4 Rh10 Pb2'
_cell_volume   291.69449286
_cell_formula_units_Z   2
loop_
 _symmetry_equiv_pos_site_id
 _symmetry_equiv_pos_as_xyz
  1  'x, y, z'
loop_
 _atom_site_type_symbol
 _atom_site_label
 _atom_site_symmetry_multiplicity
 _atom_site_fract_x
 _atom_site_fract_y
 _atom_site_fract_z
 _atom_site_occupancy
  Ce  Ce0  1  0.500000  0.183159  0.642037  1
  Ce  Ce1  1  0.500000  0.816841  0.357963  1
  Ce  Ce2  1  0.500000  0.683159  0.857963  1
  Ce  Ce3  1  0.500000  0.316841  0.142037  1
  Rh  Rh4  1  0.500000  0.215296  0.882009  1
  Rh  Rh5  1  0.500000  0.784704  0.117991  1
  Rh  Rh6  1  0.500000  0.715296  0.617991  1
  Rh  Rh7  1  0.500000  0.284704  0.382009  1
  Rh  Rh8  1  0.000000  0.445003  0.749018  1
  Rh  Rh9  1  0.000000  0.554997  0.250982  1
  Rh  Rh10  1  0.000000  0.000000  0.500000  1
  Rh  Rh11  1  0.000000  0.500000  0.000000  1
  Rh  Rh12  1  0.000000  0.054997  0.249018  1
  Rh  Rh13  1  0.000000  0.945003  0.750982  1
  Pb  Pb14  1  0.000000  0.500000  0.500000  1
  Pb  Pb15  1  0.000000  0.000000  0.000000  1
