# generated using pymatgen
data_Th6ReCl15
_symmetry_space_group_name_H-M   'P 1'
_cell_length_a   9.88084594
_cell_length_b   9.88084521
_cell_length_c   9.88084500
_cell_angle_alpha   109.47122020
_cell_angle_beta   109.47121871
_cell_angle_gamma   109.47121535
_symmetry_Int_Tables_number   1
_chemical_formula_structural   Th6ReCl15
_chemical_formula_sum   'Th6 Re1 Cl15'
_cell_volume   742.60943161
_cell_formula_units_Z   1
loop_
 _symmetry_equiv_pos_site_id
 _symmetry_equiv_pos_as_xyz
  1  'x, y, z'
loop_
 _atom_site_type_symbol
 _atom_site_label
 _atom_site_symmetry_multiplicity
 _atom_site_fract_x
 _atom_site_fract_y
 _atom_site_fract_z
 _atom_site_occupancy
  Th  Th0  1  0.000000  0.247229  0.247229  1
  Th  Th1  1  0.000000  0.752771  0.752771  1
  Th  Th2  1  0.247229  0.000000  0.247229  1
  Th  Th3  1  0.752771  0.000000  0.752771  1
  Th  Th4  1  0.247229  0.247229  0.000000  1
  Th  Th5  1  0.752771  0.752771  0.000000  1
  Re  Re6  1  0.000000  0.000000  0.000000  1
  Cl  Cl7  1  0.489604  0.244802  0.244802  1
  Cl  Cl8  1  0.510396  0.755198  0.755198  1
  Cl  Cl9  1  0.000000  0.244802  0.755198  1
  Cl  Cl10  1  0.000000  0.755198  0.244802  1
  Cl  Cl11  1  0.244802  0.489604  0.244802  1
  Cl  Cl12  1  0.755198  0.000000  0.244802  1
  Cl  Cl13  1  0.755198  0.510396  0.755198  1
  Cl  Cl14  1  0.244802  0.000000  0.755198  1
  Cl  Cl15  1  0.244802  0.244802  0.489604  1
  Cl  Cl16  1  0.755198  0.755198  0.510396  1
  Cl  Cl17  1  0.755198  0.244802  0.000000  1
  Cl  Cl18  1  0.244802  0.755198  0.000000  1
  Cl  Cl19  1  0.000000  0.500000  0.500000  1
  Cl  Cl20  1  0.500000  0.000000  0.500000  1
  Cl  Cl21  1  0.500000  0.500000  0.000000  1
