# generated using pymatgen
data_LaPr7(Ho3Sn4)4
_symmetry_space_group_name_H-M   'P 1'
_cell_length_a   8.14504778
_cell_length_b   8.34789840
_cell_length_c   15.70119900
_cell_angle_alpha   89.97191457
_cell_angle_beta   90.12942661
_cell_angle_gamma   90.27966900
_symmetry_Int_Tables_number   1
_chemical_formula_structural   LaPr7(Ho3Sn4)4
_chemical_formula_sum   'La1 Pr7 Ho12 Sn16'
_cell_volume   1067.57225323
_cell_formula_units_Z   1
loop_
 _symmetry_equiv_pos_site_id
 _symmetry_equiv_pos_as_xyz
  1  'x, y, z'
loop_
 _atom_site_type_symbol
 _atom_site_label
 _atom_site_symmetry_multiplicity
 _atom_site_fract_x
 _atom_site_fract_y
 _atom_site_fract_z
 _atom_site_occupancy
  La  La0  1  0.007268  0.176498  0.904019  1
  Pr  Pr1  1  0.507507  0.322654  0.903551  1
  Pr  Pr2  1  0.006631  0.176563  0.596507  1
  Pr  Pr3  1  0.493277  0.677184  0.403477  1
  Pr  Pr4  1  0.992543  0.823127  0.096887  1
  Pr  Pr5  1  0.492751  0.677855  0.096504  1
  Pr  Pr6  1  0.993302  0.823282  0.403425  1
  Pr  Pr7  1  0.506777  0.322863  0.596241  1
  Ho  Ho8  1  0.349119  0.835372  0.875941  1
  Ho  Ho9  1  0.847925  0.665138  0.624613  1
  Ho  Ho10  1  0.651890  0.165322  0.375452  1
  Ho  Ho11  1  0.151119  0.335286  0.124916  1
  Ho  Ho12  1  0.651157  0.164465  0.124206  1
  Ho  Ho13  1  0.152164  0.334733  0.375026  1
  Ho  Ho14  1  0.347616  0.834758  0.624332  1
  Ho  Ho15  1  0.848716  0.664843  0.875345  1
  Ho  Ho16  1  0.181342  0.501485  0.749968  1
  Ho  Ho17  1  0.681563  0.998482  0.750020  1
  Ho  Ho18  1  0.818686  0.498719  0.249809  1
  Ho  Ho19  1  0.318370  0.001429  0.249627  1
  Sn  Sn20  1  0.313790  0.041495  0.042315  1
  Sn  Sn21  1  0.815471  0.459542  0.458050  1
  Sn  Sn22  1  0.685286  0.958349  0.541745  1
  Sn  Sn23  1  0.186342  0.541584  0.958335  1
  Sn  Sn24  1  0.686367  0.957135  0.958372  1
  Sn  Sn25  1  0.184550  0.540155  0.541793  1
  Sn  Sn26  1  0.314780  0.041511  0.458065  1
  Sn  Sn27  1  0.814011  0.459935  0.042213  1
  Sn  Sn28  1  0.545483  0.624860  0.750280  1
  Sn  Sn29  1  0.046573  0.875516  0.749854  1
  Sn  Sn30  1  0.454147  0.375273  0.249740  1
  Sn  Sn31  1  0.953271  0.124145  0.250149  1
  Sn  Sn32  1  0.314989  0.143344  0.749600  1
  Sn  Sn33  1  0.813562  0.356730  0.749332  1
  Sn  Sn34  1  0.685836  0.856617  0.250149  1
  Sn  Sn35  1  0.185819  0.643753  0.250137  1
