# generated using pymatgen
data_SrLi4Nd3(Si2Sn)2
_symmetry_space_group_name_H-M   'P 1'
_cell_length_a   9.90947660
_cell_length_b   9.90947638
_cell_length_c   6.95538300
_cell_angle_alpha   90.00000000
_cell_angle_beta   90.00000000
_cell_angle_gamma   153.48399349
_symmetry_Int_Tables_number   1
_chemical_formula_structural   SrLi4Nd3(Si2Sn)2
_chemical_formula_sum   'Sr1 Li4 Nd3 Si4 Sn2'
_cell_volume   304.92509657
_cell_formula_units_Z   1
loop_
 _symmetry_equiv_pos_site_id
 _symmetry_equiv_pos_as_xyz
  1  'x, y, z'
loop_
 _atom_site_type_symbol
 _atom_site_label
 _atom_site_symmetry_multiplicity
 _atom_site_fract_x
 _atom_site_fract_y
 _atom_site_fract_z
 _atom_site_occupancy
  Sr  Sr0  1  0.346062  0.653938  0.250000  1
  Li  Li1  1  0.182107  0.817893  0.055906  1
  Li  Li2  1  0.182107  0.817893  0.444094  1
  Li  Li3  1  0.816406  0.183594  0.943789  1
  Li  Li4  1  0.816406  0.183594  0.556211  1
  Nd  Nd5  1  0.652478  0.347522  0.750000  1
  Nd  Nd6  1  0.547298  0.452702  0.250000  1
  Nd  Nd7  1  0.453290  0.546710  0.750000  1
  Si  Si8  1  0.057774  0.942226  0.923274  1
  Si  Si9  1  0.947044  0.052956  0.074867  1
  Si  Si10  1  0.947044  0.052956  0.425133  1
  Si  Si11  1  0.057774  0.942226  0.576726  1
  Sn  Sn12  1  0.715071  0.284929  0.250000  1
  Sn  Sn13  1  0.279137  0.720863  0.750000  1
