# generated using pymatgen
data_Tb15Tm(LuSn4)4
_symmetry_space_group_name_H-M   'P 1'
_cell_length_a   8.00892107
_cell_length_b   8.16523952
_cell_length_c   15.46986202
_cell_angle_alpha   90.02602429
_cell_angle_beta   89.95714641
_cell_angle_gamma   90.05778739
_symmetry_Int_Tables_number   1
_chemical_formula_structural   Tb15Tm(LuSn4)4
_chemical_formula_sum   'Tb15 Tm1 Lu4 Sn16'
_cell_volume   1011.64699429
_cell_formula_units_Z   1
loop_
 _symmetry_equiv_pos_site_id
 _symmetry_equiv_pos_as_xyz
  1  'x, y, z'
loop_
 _atom_site_type_symbol
 _atom_site_label
 _atom_site_symmetry_multiplicity
 _atom_site_fract_x
 _atom_site_fract_y
 _atom_site_fract_z
 _atom_site_occupancy
  Tb  Tb0  1  0.865262  0.662448  0.623193  1
  Tb  Tb1  1  0.634455  0.162138  0.377605  1
  Tb  Tb2  1  0.135552  0.337532  0.120937  1
  Tb  Tb3  1  0.634405  0.162939  0.122713  1
  Tb  Tb4  1  0.134107  0.337308  0.377636  1
  Tb  Tb5  1  0.365955  0.837588  0.622904  1
  Tb  Tb6  1  0.866107  0.662190  0.878087  1
  Tb  Tb7  1  0.518869  0.320177  0.903476  1
  Tb  Tb8  1  0.019891  0.178946  0.597444  1
  Tb  Tb9  1  0.480917  0.679682  0.403652  1
  Tb  Tb10  1  0.980090  0.820391  0.096536  1
  Tb  Tb11  1  0.481363  0.680378  0.095129  1
  Tb  Tb12  1  0.980943  0.820652  0.403284  1
  Tb  Tb13  1  0.519215  0.320835  0.597435  1
  Tb  Tb14  1  0.018905  0.178463  0.903006  1
  Tm  Tm15  1  0.364520  0.838515  0.876049  1
  Lu  Lu16  1  0.197421  0.503500  0.750778  1
  Lu  Lu17  1  0.696396  0.996389  0.750517  1
  Lu  Lu18  1  0.803624  0.496723  0.250067  1
  Lu  Lu19  1  0.303294  0.002877  0.249486  1
  Sn  Sn20  1  0.295232  0.035075  0.040570  1
  Sn  Sn21  1  0.794071  0.463600  0.457640  1
  Sn  Sn22  1  0.706385  0.963712  0.542853  1
  Sn  Sn23  1  0.207956  0.539872  0.956456  1
  Sn  Sn24  1  0.701098  0.962592  0.957114  1
  Sn  Sn25  1  0.205708  0.536227  0.543182  1
  Sn  Sn26  1  0.293904  0.036213  0.457238  1
  Sn  Sn27  1  0.794036  0.463482  0.042900  1
  Sn  Sn28  1  0.561405  0.618644  0.751015  1
  Sn  Sn29  1  0.062826  0.882080  0.750978  1
  Sn  Sn30  1  0.437769  0.383329  0.250121  1
  Sn  Sn31  1  0.938308  0.117181  0.249330  1
  Sn  Sn32  1  0.328733  0.149112  0.750619  1
  Sn  Sn33  1  0.828254  0.350009  0.750513  1
  Sn  Sn34  1  0.671527  0.849810  0.249874  1
  Sn  Sn35  1  0.171497  0.649393  0.249665  1
