# generated using pymatgen
data_HoBi3Ir3RhO14
_symmetry_space_group_name_H-M   'P 1'
_cell_length_a   7.32502234
_cell_length_b   7.34570164
_cell_length_c   7.34570100
_cell_angle_alpha   59.99999837
_cell_angle_beta   59.90656681
_cell_angle_gamma   59.90657088
_symmetry_Int_Tables_number   1
_chemical_formula_structural   HoBi3Ir3RhO14
_chemical_formula_sum   'Ho1 Bi3 Ir3 Rh1 O14'
_cell_volume   279.09092834
_cell_formula_units_Z   1
loop_
 _symmetry_equiv_pos_site_id
 _symmetry_equiv_pos_as_xyz
  1  'x, y, z'
loop_
 _atom_site_type_symbol
 _atom_site_label
 _atom_site_symmetry_multiplicity
 _atom_site_fract_x
 _atom_site_fract_y
 _atom_site_fract_z
 _atom_site_occupancy
  Ho  Ho0  1  0.625000  0.125000  0.125000  1
  Bi  Bi1  1  0.125000  0.125000  0.125000  1
  Bi  Bi2  1  0.125000  0.625000  0.125000  1
  Bi  Bi3  1  0.125000  0.125000  0.625000  1
  Ir  Ir4  1  0.625000  0.625000  0.625000  1
  Ir  Ir5  1  0.625000  0.625000  0.125000  1
  Ir  Ir6  1  0.625000  0.125000  0.625000  1
  Rh  Rh7  1  0.125000  0.625000  0.625000  1
  O  O8  1  0.260420  0.246527  0.246527  1
  O  O9  1  0.295734  0.707368  0.289531  1
  O  O10  1  0.954266  0.960469  0.542632  1
  O  O11  1  0.548148  0.959648  0.532556  1
  O  O12  1  0.701852  0.717444  0.290352  1
  O  O13  1  0.954266  0.542632  0.542632  1
  O  O14  1  0.701852  0.290352  0.717444  1
  O  O15  1  0.295734  0.289531  0.707368  1
  O  O16  1  0.701852  0.290352  0.290352  1
  O  O17  1  0.295734  0.707368  0.707368  1
  O  O18  1  0.954266  0.542632  0.960469  1
  O  O19  1  0.548148  0.532556  0.959648  1
  O  O20  1  0.989580  0.003473  0.003473  1
  O  O21  1  0.548148  0.959648  0.959648  1
