# generated using pymatgen
data_Ba4Ta(IrO4)3
_symmetry_space_group_name_H-M   'P 1'
_cell_length_a   10.24093713
_cell_length_b   10.24093711
_cell_length_c   10.24093795
_cell_angle_alpha   33.20421752
_cell_angle_beta   33.20421805
_cell_angle_gamma   33.20421421
_symmetry_Int_Tables_number   1
_chemical_formula_structural   Ba4Ta(IrO4)3
_chemical_formula_sum   'Ba4 Ta1 Ir3 O12'
_cell_volume   286.73276418
_cell_formula_units_Z   1
loop_
 _symmetry_equiv_pos_site_id
 _symmetry_equiv_pos_as_xyz
  1  'x, y, z'
loop_
 _atom_site_type_symbol
 _atom_site_label
 _atom_site_symmetry_multiplicity
 _atom_site_fract_x
 _atom_site_fract_y
 _atom_site_fract_z
 _atom_site_occupancy
  Ba  Ba0  1  0.713948  0.713948  0.713948  1
  Ba  Ba1  1  0.286052  0.286052  0.286052  1
  Ba  Ba2  1  0.871257  0.871257  0.871257  1
  Ba  Ba3  1  0.128743  0.128743  0.128743  1
  Ta  Ta4  1  0.000000  0.000000  0.000000  1
  Ir  Ir5  1  0.412013  0.412013  0.412013  1
  Ir  Ir6  1  0.500000  0.500000  0.500000  1
  Ir  Ir7  1  0.587987  0.587987  0.587987  1
  O  O8  1  0.202360  0.202360  0.712957  1
  O  O9  1  0.712957  0.202360  0.202360  1
  O  O10  1  0.202360  0.712957  0.202360  1
  O  O11  1  0.797640  0.287043  0.797640  1
  O  O12  1  0.797640  0.797640  0.287043  1
  O  O13  1  0.287043  0.797640  0.797640  1
  O  O14  1  0.384620  0.384620  0.862848  1
  O  O15  1  0.862848  0.384620  0.384620  1
  O  O16  1  0.137152  0.615380  0.615380  1
  O  O17  1  0.615380  0.615380  0.137152  1
  O  O18  1  0.615380  0.137152  0.615380  1
  O  O19  1  0.384620  0.862848  0.384620  1
