# generated using pymatgen
data_Tm12Co4BiRu
_symmetry_space_group_name_H-M   'P 1'
_cell_length_a   8.21439204
_cell_length_b   8.21439169
_cell_length_c   8.21439158
_cell_angle_alpha   110.65475950
_cell_angle_beta   111.41165480
_cell_angle_gamma   106.39141263
_symmetry_Int_Tables_number   1
_chemical_formula_structural   Tm12Co4BiRu
_chemical_formula_sum   'Tm12 Co4 Bi1 Ru1'
_cell_volume   425.74405067
_cell_formula_units_Z   1
loop_
 _symmetry_equiv_pos_site_id
 _symmetry_equiv_pos_as_xyz
  1  'x, y, z'
loop_
 _atom_site_type_symbol
 _atom_site_label
 _atom_site_symmetry_multiplicity
 _atom_site_fract_x
 _atom_site_fract_y
 _atom_site_fract_z
 _atom_site_occupancy
  Tm  Tm0  1  0.284438  0.182659  0.467098  1
  Tm  Tm1  1  0.715562  0.817341  0.532902  1
  Tm  Tm2  1  0.284438  0.817341  0.101778  1
  Tm  Tm3  1  0.715562  0.182659  0.898222  1
  Tm  Tm4  1  0.619647  0.311237  0.308410  1
  Tm  Tm5  1  0.380353  0.688763  0.691590  1
  Tm  Tm6  1  0.002827  0.311237  0.691590  1
  Tm  Tm7  1  0.997173  0.688763  0.308410  1
  Tm  Tm8  1  0.212290  0.408799  0.196510  1
  Tm  Tm9  1  0.787710  0.591201  0.803490  1
  Tm  Tm10  1  0.212290  0.015781  0.803490  1
  Tm  Tm11  1  0.787710  0.984219  0.196510  1
  Co  Co12  1  0.000000  0.375627  0.375627  1
  Co  Co13  1  0.000000  0.624373  0.624373  1
  Co  Co14  1  0.388348  0.888348  0.500000  1
  Co  Co15  1  0.611652  0.111652  0.500000  1
  Bi  Bi16  1  0.500000  0.500000  0.000000  1
  Ru  Ru17  1  0.000000  0.000000  0.000000  1
