# generated using pymatgen
data_SmNb8VSe16
_symmetry_space_group_name_H-M   'P 1'
_cell_length_a   7.00445900
_cell_length_b   7.00446024
_cell_length_c   13.82854900
_cell_angle_alpha   90.00000000
_cell_angle_beta   90.00000000
_cell_angle_gamma   120.00000831
_symmetry_Int_Tables_number   1
_chemical_formula_structural   SmNb8VSe16
_chemical_formula_sum   'Sm1 Nb8 V1 Se16'
_cell_volume   587.56576076
_cell_formula_units_Z   1
loop_
 _symmetry_equiv_pos_site_id
 _symmetry_equiv_pos_as_xyz
  1  'x, y, z'
loop_
 _atom_site_type_symbol
 _atom_site_label
 _atom_site_symmetry_multiplicity
 _atom_site_fract_x
 _atom_site_fract_y
 _atom_site_fract_z
 _atom_site_occupancy
  Sm  Sm0  1  0.000000  0.000000  0.000000  1
  Nb  Nb1  1  0.000000  0.000000  0.266884  1
  Nb  Nb2  1  0.000000  0.000000  0.733116  1
  Nb  Nb3  1  0.506426  0.012852  0.268831  1
  Nb  Nb4  1  0.493574  0.987148  0.731169  1
  Nb  Nb5  1  0.987148  0.493574  0.268831  1
  Nb  Nb6  1  0.012852  0.506426  0.731169  1
  Nb  Nb7  1  0.506426  0.493574  0.268831  1
  Nb  Nb8  1  0.493574  0.506426  0.731169  1
  V  V9  1  0.000000  0.000000  0.500000  1
  Se  Se10  1  0.333333  0.666667  0.607605  1
  Se  Se11  1  0.666667  0.333333  0.392395  1
  Se  Se12  1  0.666667  0.333333  0.143584  1
  Se  Se13  1  0.333333  0.666667  0.856416  1
  Se  Se14  1  0.169966  0.339931  0.147298  1
  Se  Se15  1  0.830034  0.660069  0.852702  1
  Se  Se16  1  0.660069  0.830034  0.147298  1
  Se  Se17  1  0.833116  0.666233  0.612173  1
  Se  Se18  1  0.339931  0.169966  0.852702  1
  Se  Se19  1  0.166884  0.333767  0.387827  1
  Se  Se20  1  0.169966  0.830034  0.147298  1
  Se  Se21  1  0.333767  0.166884  0.612173  1
  Se  Se22  1  0.830034  0.169966  0.852702  1
  Se  Se23  1  0.666233  0.833116  0.387827  1
  Se  Se24  1  0.833116  0.166884  0.612173  1
  Se  Se25  1  0.166884  0.833116  0.387827  1
