# generated using pymatgen
data_Ta9Al4Ga
_symmetry_space_group_name_H-M   'P 1'
_cell_length_a   9.93958306
_cell_length_b   9.93964758
_cell_length_c   9.94012271
_cell_angle_alpha   93.86911175
_cell_angle_beta   93.87291694
_cell_angle_gamma   149.87956958
_symmetry_Int_Tables_number   1
_chemical_formula_structural   Ta9Al4Ga
_chemical_formula_sum   'Ta18 Al8 Ga2'
_cell_volume   475.88374733
_cell_formula_units_Z   2
loop_
 _symmetry_equiv_pos_site_id
 _symmetry_equiv_pos_as_xyz
  1  'x, y, z'
loop_
 _atom_site_type_symbol
 _atom_site_label
 _atom_site_symmetry_multiplicity
 _atom_site_fract_x
 _atom_site_fract_y
 _atom_site_fract_z
 _atom_site_occupancy
  Ta  Ta0  1  0.564214  0.790835  0.355043  1
  Ta  Ta1  1  0.084237  0.156862  0.241111  1
  Ta  Ta2  1  0.584219  0.343140  0.927381  1
  Ta  Ta3  1  0.656879  0.584252  0.241119  1
  Ta  Ta4  1  0.343121  0.415739  0.758872  1
  Ta  Ta5  1  0.790875  0.435801  0.226664  1
  Ta  Ta6  1  0.415781  0.656863  0.072621  1
  Ta  Ta7  1  0.156855  0.915762  0.072616  1
  Ta  Ta8  1  0.709185  0.935803  0.644955  1
  Ta  Ta9  1  0.435785  0.209165  0.644954  1
  Ta  Ta10  1  0.915766  0.843144  0.758897  1
  Ta  Ta11  1  0.064191  0.709143  0.773326  1
  Ta  Ta12  1  0.209142  0.564191  0.773342  1
  Ta  Ta13  1  0.249997  0.750019  0.500008  1
  Ta  Ta14  1  0.290821  0.064196  0.355054  1
  Ta  Ta15  1  0.749990  0.249980  0.499980  1
  Ta  Ta16  1  0.843144  0.084244  0.927386  1
  Ta  Ta17  1  0.935783  0.290851  0.226646  1
  Al  Al18  1  0.372302  0.872298  0.244600  1
  Al  Al19  1  0.872305  0.627720  0.500024  1
  Al  Al20  1  0.499986  0.999982  0.999985  1
  Al  Al21  1  0.127720  0.372301  0.500021  1
  Al  Al22  1  0.627700  0.127697  0.755397  1
  Al  Al23  1  0.000003  0.499999  0.999985  1
  Al  Al24  1  0.500017  0.500015  0.500030  1
  Al  Al25  1  0.000015  0.000013  0.500030  1
  Ga  Ga26  1  0.749984  0.749994  0.999975  1
  Ga  Ga27  1  0.249983  0.249993  0.999978  1
