# generated using pymatgen
data_TbHo2In3CoPt2
_symmetry_space_group_name_H-M   'P 1'
_cell_length_a   7.65842400
_cell_length_b   7.67005009
_cell_length_c   3.76686900
_cell_angle_alpha   90.00000000
_cell_angle_beta   90.00000000
_cell_angle_gamma   119.94987113
_symmetry_Int_Tables_number   1
_chemical_formula_structural   TbHo2In3CoPt2
_chemical_formula_sum   'Tb1 Ho2 In3 Co1 Pt2'
_cell_volume   191.72021625
_cell_formula_units_Z   1
loop_
 _symmetry_equiv_pos_site_id
 _symmetry_equiv_pos_as_xyz
  1  'x, y, z'
loop_
 _atom_site_type_symbol
 _atom_site_label
 _atom_site_symmetry_multiplicity
 _atom_site_fract_x
 _atom_site_fract_y
 _atom_site_fract_z
 _atom_site_occupancy
  Tb  Tb0  1  0.593653  0.000000  0.500000  1
  Ho  Ho1  1  0.406224  0.406164  0.500000  1
  Ho  Ho2  1  0.000060  0.593836  0.500000  1
  In  In3  1  0.752048  0.751221  0.000000  1
  In  In4  1  0.000827  0.248779  0.000000  1
  In  In5  1  0.247600  0.000000  0.000000  1
  Co  Co6  1  0.000606  0.000000  0.500000  1
  Pt  Pt7  1  0.331941  0.664901  0.000000  1
  Pt  Pt8  1  0.667041  0.335099  0.000000  1
