# generated using pymatgen
data_SmTh7IrS17
_symmetry_space_group_name_H-M   'P 1'
_cell_length_a   8.04874041
_cell_length_b   8.02355684
_cell_length_c   10.64987300
_cell_angle_alpha   80.61245040
_cell_angle_beta   80.59389039
_cell_angle_gamma   64.84094600
_symmetry_Int_Tables_number   1
_chemical_formula_structural   SmTh7IrS17
_chemical_formula_sum   'Sm1 Th7 Ir1 S17'
_cell_volume   610.76098377
_cell_formula_units_Z   1
loop_
 _symmetry_equiv_pos_site_id
 _symmetry_equiv_pos_as_xyz
  1  'x, y, z'
loop_
 _atom_site_type_symbol
 _atom_site_label
 _atom_site_symmetry_multiplicity
 _atom_site_fract_x
 _atom_site_fract_y
 _atom_site_fract_z
 _atom_site_occupancy
  Sm  Sm0  1  0.812947  0.303930  0.298159  1
  Th  Th1  1  0.299975  0.814308  0.293308  1
  Th  Th2  1  0.185337  0.698897  0.704482  1
  Th  Th3  1  0.698898  0.187286  0.703319  1
  Th  Th4  1  0.205969  0.205336  0.544346  1
  Th  Th5  1  0.793747  0.796013  0.451221  1
  Th  Th6  1  0.681713  0.675401  0.978844  1
  Th  Th7  1  0.319582  0.319835  0.025441  1
  Ir  Ir8  1  0.001581  0.999213  0.999262  1
  S  S9  1  0.824517  0.431196  0.533162  1
  S  S10  1  0.431218  0.820850  0.531215  1
  S  S11  1  0.176835  0.569085  0.468340  1
  S  S12  1  0.569833  0.176058  0.470863  1
  S  S13  1  0.948594  0.314100  0.025185  1
  S  S14  1  0.316495  0.948491  0.022759  1
  S  S15  1  0.051677  0.683281  0.975331  1
  S  S16  1  0.684912  0.052447  0.974776  1
  S  S17  1  0.211759  0.205892  0.279375  1
  S  S18  1  0.791450  0.790700  0.721530  1
  S  S19  1  0.055989  0.056449  0.775806  1
  S  S20  1  0.943436  0.947129  0.223735  1
  S  S21  1  0.304025  0.303709  0.757002  1
  S  S22  1  0.692071  0.700100  0.242251  1
  S  S23  1  0.519263  0.521666  0.832147  1
  S  S24  1  0.476725  0.482023  0.165075  1
  S  S25  1  0.001453  0.996606  0.503066  1
