# generated using pymatgen
data_La4Pr4Cd2OsPt
_symmetry_space_group_name_H-M   'P 1'
_cell_length_a   10.09255063
_cell_length_b   10.09255133
_cell_length_c   10.21980400
_cell_angle_alpha   59.58202786
_cell_angle_beta   59.58202552
_cell_angle_gamma   60.01416999
_symmetry_Int_Tables_number   1
_chemical_formula_structural   La4Pr4Cd2OsPt
_chemical_formula_sum   'La8 Pr8 Cd4 Os2 Pt2'
_cell_volume   731.48015446
_cell_formula_units_Z   2
loop_
 _symmetry_equiv_pos_site_id
 _symmetry_equiv_pos_as_xyz
  1  'x, y, z'
loop_
 _atom_site_type_symbol
 _atom_site_label
 _atom_site_symmetry_multiplicity
 _atom_site_fract_x
 _atom_site_fract_y
 _atom_site_fract_z
 _atom_site_occupancy
  La  La0  1  0.345525  0.345525  0.355010  1
  La  La1  1  0.345525  0.345525  0.953940  1
  La  La2  1  0.344170  0.959202  0.348314  1
  La  La3  1  0.959202  0.344170  0.348314  1
  La  La4  1  0.816844  0.188876  0.190521  1
  La  La5  1  0.188876  0.816844  0.803759  1
  La  La6  1  0.188876  0.816844  0.190521  1
  La  La7  1  0.816844  0.188876  0.803759  1
  Pr  Pr8  1  0.191421  0.191421  0.808579  1
  Pr  Pr9  1  0.803755  0.803755  0.196245  1
  Pr  Pr10  1  0.936477  0.559379  0.566321  1
  Pr  Pr11  1  0.559379  0.936477  0.937822  1
  Pr  Pr12  1  0.559379  0.936477  0.566321  1
  Pr  Pr13  1  0.936477  0.559379  0.937822  1
  Pr  Pr14  1  0.562862  0.562862  0.937138  1
  Pr  Pr15  1  0.938272  0.938272  0.561728  1
  Cd  Cd16  1  0.580313  0.580313  0.579113  1
  Cd  Cd17  1  0.580313  0.580313  0.260262  1
  Cd  Cd18  1  0.579106  0.258827  0.581032  1
  Cd  Cd19  1  0.258827  0.579106  0.581032  1
  Os  Os20  1  0.140779  0.140779  0.141494  1
  Os  Os21  1  0.140779  0.140779  0.576950  1
  Pt  Pt22  1  0.149328  0.576670  0.137001  1
  Pt  Pt23  1  0.576670  0.149328  0.137001  1
