# generated using pymatgen
data_Pr3Pa(HgPt2)2
_symmetry_space_group_name_H-M   'P 1'
_cell_length_a   7.99087341
_cell_length_b   7.99087341
_cell_length_c   3.77093800
_cell_angle_alpha   90.00000000
_cell_angle_beta   90.00000000
_cell_angle_gamma   87.33715297
_symmetry_Int_Tables_number   1
_chemical_formula_structural   Pr3Pa(HgPt2)2
_chemical_formula_sum   'Pr3 Pa1 Hg2 Pt4'
_cell_volume   240.52969086
_cell_formula_units_Z   1
loop_
 _symmetry_equiv_pos_site_id
 _symmetry_equiv_pos_as_xyz
  1  'x, y, z'
loop_
 _atom_site_type_symbol
 _atom_site_label
 _atom_site_symmetry_multiplicity
 _atom_site_fract_x
 _atom_site_fract_y
 _atom_site_fract_z
 _atom_site_occupancy
  Pr  Pr0  1  0.826791  0.326896  0.500001  1
  Pr  Pr1  1  0.173105  0.673210  0.500001  1
  Pr  Pr2  1  0.674522  0.825479  0.500001  1
  Pa  Pa3  1  0.331322  0.168679  0.500001  1
  Hg  Hg4  1  0.996143  0.001695  0.000000  1
  Hg  Hg5  1  0.498305  0.503857  0.000000  1
  Pt  Pt6  1  0.607121  0.136976  0.000000  1
  Pt  Pt7  1  0.146302  0.353698  0.000000  1
  Pt  Pt8  1  0.883369  0.616631  0.000000  1
  Pt  Pt9  1  0.363024  0.892879  0.000000  1
