# generated using pymatgen
data_Zr12Ga10Ir7
_symmetry_space_group_name_H-M   'P 1'
_cell_length_a   9.13466788
_cell_length_b   9.07087547
_cell_length_c   9.07087571
_cell_angle_alpha   59.47243605
_cell_angle_beta   59.76708512
_cell_angle_gamma   59.76708143
_symmetry_Int_Tables_number   1
_chemical_formula_structural   Zr12Ga10Ir7
_chemical_formula_sum   'Zr12 Ga10 Ir7'
_cell_volume   527.45921260
_cell_formula_units_Z   1
loop_
 _symmetry_equiv_pos_site_id
 _symmetry_equiv_pos_as_xyz
  1  'x, y, z'
loop_
 _atom_site_type_symbol
 _atom_site_label
 _atom_site_symmetry_multiplicity
 _atom_site_fract_x
 _atom_site_fract_y
 _atom_site_fract_z
 _atom_site_occupancy
  Zr  Zr0  1  0.682507  0.693510  0.313915  1
  Zr  Zr1  1  0.310068  0.693510  0.313915  1
  Zr  Zr2  1  0.692644  0.307356  0.307356  1
  Zr  Zr3  1  0.310068  0.313915  0.693510  1
  Zr  Zr4  1  0.682507  0.313915  0.693510  1
  Zr  Zr5  1  0.314369  0.685631  0.685631  1
  Zr  Zr6  1  0.874734  0.884095  0.366437  1
  Zr  Zr7  1  0.874734  0.366437  0.884095  1
  Zr  Zr8  1  0.374706  0.878411  0.878411  1
  Zr  Zr9  1  0.868473  0.878411  0.878411  1
  Zr  Zr10  1  0.126695  0.127072  0.619537  1
  Zr  Zr11  1  0.126695  0.619537  0.127072  1
  Ga  Ga12  1  0.641588  0.119597  0.119597  1
  Ga  Ga13  1  0.119217  0.119597  0.119597  1
  Ga  Ga14  1  0.653776  0.650962  0.041485  1
  Ga  Ga15  1  0.653776  0.041485  0.650962  1
  Ga  Ga16  1  0.034621  0.654651  0.654651  1
  Ga  Ga17  1  0.656076  0.654651  0.654651  1
  Ga  Ga18  1  0.343696  0.336584  0.976025  1
  Ga  Ga19  1  0.343696  0.976025  0.336584  1
  Ga  Ga20  1  0.957677  0.345204  0.345204  1
  Ga  Ga21  1  0.351916  0.345204  0.345204  1
  Ir  Ir22  1  0.009166  0.990834  0.990834  1
  Ir  Ir23  1  0.000623  0.999805  0.501101  1
  Ir  Ir24  1  0.498470  0.999805  0.501101  1
  Ir  Ir25  1  0.998753  0.501247  0.501247  1
  Ir  Ir26  1  0.498470  0.501101  0.999805  1
  Ir  Ir27  1  0.000623  0.501101  0.999805  1
  Ir  Ir28  1  0.499651  0.000349  0.000349  1
