# generated using pymatgen
data_PrScPa2(Al3Ir)6
_symmetry_space_group_name_H-M   'P 1'
_cell_length_a   7.59737302
_cell_length_b   7.60631178
_cell_length_c   9.36951900
_cell_angle_alpha   90.00000000
_cell_angle_beta   90.00000000
_cell_angle_gamma   119.67970494
_symmetry_Int_Tables_number   1
_chemical_formula_structural   PrScPa2(Al3Ir)6
_chemical_formula_sum   'Pr1 Sc1 Pa2 Al18 Ir6'
_cell_volume   470.41174950
_cell_formula_units_Z   1
loop_
 _symmetry_equiv_pos_site_id
 _symmetry_equiv_pos_as_xyz
  1  'x, y, z'
loop_
 _atom_site_type_symbol
 _atom_site_label
 _atom_site_symmetry_multiplicity
 _atom_site_fract_x
 _atom_site_fract_y
 _atom_site_fract_z
 _atom_site_occupancy
  Pr  Pr0  1  0.331197  0.006904  0.750000  1
  Sc  Sc1  1  0.671126  0.992963  0.250000  1
  Pa  Pa2  1  0.998681  0.671642  0.250000  1
  Pa  Pa3  1  0.001813  0.328990  0.750000  1
  Al  Al4  1  0.128169  0.126249  0.250000  1
  Al  Al5  1  0.865267  0.872644  0.750000  1
  Al  Al6  1  0.996828  0.328122  0.080897  1
  Al  Al7  1  0.996619  0.666233  0.924522  1
  Al  Al8  1  0.996619  0.666233  0.575478  1
  Al  Al9  1  0.342316  0.003269  0.419973  1
  Al  Al10  1  0.996828  0.328122  0.419103  1
  Al  Al11  1  0.664244  0.996947  0.567766  1
  Al  Al12  1  0.664244  0.996947  0.932234  1
  Al  Al13  1  0.342316  0.003269  0.080027  1
  Al  Al14  1  0.334914  0.335246  0.548819  1
  Al  Al15  1  0.665066  0.668999  0.442486  1
  Al  Al16  1  0.665066  0.668999  0.057514  1
  Al  Al17  1  0.334914  0.335246  0.951181  1
  Al  Al18  1  0.343539  0.551463  0.250000  1
  Al  Al19  1  0.660808  0.455882  0.750000  1
  Al  Al20  1  0.551107  0.340508  0.250000  1
  Al  Al21  1  0.451312  0.657738  0.750000  1
  Ir  Ir22  1  0.676676  0.330706  0.001078  1
  Ir  Ir23  1  0.323224  0.669294  0.002007  1
  Ir  Ir24  1  0.323224  0.669294  0.497993  1
  Ir  Ir25  1  0.676676  0.330706  0.498922  1
  Ir  Ir26  1  0.998603  0.998690  0.002230  1
  Ir  Ir27  1  0.998603  0.998690  0.497770  1
