# generated using pymatgen
data_NdSmTh2(Fe2I)2
_symmetry_space_group_name_H-M   'P 1'
_cell_length_a   4.01369500
_cell_length_b   4.01369676
_cell_length_c   17.83370500
_cell_angle_alpha   90.00000000
_cell_angle_beta   90.00000000
_cell_angle_gamma   120.00001021
_symmetry_Int_Tables_number   1
_chemical_formula_structural   NdSmTh2(Fe2I)2
_chemical_formula_sum   'Nd1 Sm1 Th2 Fe4 I2'
_cell_volume   248.80613838
_cell_formula_units_Z   1
loop_
 _symmetry_equiv_pos_site_id
 _symmetry_equiv_pos_as_xyz
  1  'x, y, z'
loop_
 _atom_site_type_symbol
 _atom_site_label
 _atom_site_symmetry_multiplicity
 _atom_site_fract_x
 _atom_site_fract_y
 _atom_site_fract_z
 _atom_site_occupancy
  Nd  Nd0  1  0.000000  0.000000  0.390692  1
  Sm  Sm1  1  0.000000  0.000000  0.107774  1
  Th  Th2  1  0.000000  0.000000  0.599995  1
  Th  Th3  1  0.000000  0.000000  0.900733  1
  Fe  Fe4  1  0.666667  0.333333  0.000286  1
  Fe  Fe5  1  0.333333  0.666667  0.500416  1
  Fe  Fe6  1  0.666667  0.333333  0.500653  1
  Fe  Fe7  1  0.333333  0.666667  0.001155  1
  I  I8  1  0.666667  0.333333  0.248108  1
  I  I9  1  0.333333  0.666667  0.750190  1
