# generated using pymatgen
data_Er6Fe2Si5Ge
_symmetry_space_group_name_H-M   'P 1'
_cell_length_a   5.60737483
_cell_length_b   5.60737500
_cell_length_c   13.44502046
_cell_angle_alpha   70.49612938
_cell_angle_beta   70.49612977
_cell_angle_gamma   43.23330035
_symmetry_Int_Tables_number   1
_chemical_formula_structural   Er6Fe2Si5Ge
_chemical_formula_sum   'Er6 Fe2 Si5 Ge1'
_cell_volume   270.25169169
_cell_formula_units_Z   1
loop_
 _symmetry_equiv_pos_site_id
 _symmetry_equiv_pos_as_xyz
  1  'x, y, z'
loop_
 _atom_site_type_symbol
 _atom_site_label
 _atom_site_symmetry_multiplicity
 _atom_site_fract_x
 _atom_site_fract_y
 _atom_site_fract_z
 _atom_site_occupancy
  Er  Er0  1  0.746324  0.746324  0.770299  1
  Er  Er1  1  0.397498  0.397498  0.922069  1
  Er  Er2  1  0.601161  0.601161  0.081871  1
  Er  Er3  1  0.476557  0.476557  0.378710  1
  Er  Er4  1  0.251728  0.251728  0.229725  1
  Er  Er5  1  0.524412  0.524412  0.617728  1
  Fe  Fe6  1  0.754132  0.754132  0.415088  1
  Fe  Fe7  1  0.250467  0.250467  0.580967  1
  Si  Si8  1  0.145294  0.145294  0.455345  1
  Si  Si9  1  0.857275  0.857275  0.542915  1
  Si  Si10  1  0.944523  0.944523  0.242497  1
  Si  Si11  1  0.885805  0.885805  0.076712  1
  Si  Si12  1  0.116243  0.116243  0.927415  1
  Ge  Ge13  1  0.048583  0.048583  0.758661  1
