# generated using pymatgen
data_Hf8TiNb11Si16
_symmetry_space_group_name_H-M   'P 1'
_cell_length_a   6.86079027
_cell_length_b   6.86078962
_cell_length_c   12.69280226
_cell_angle_alpha   89.94429750
_cell_angle_beta   90.05569843
_cell_angle_gamma   90.03730095
_symmetry_Int_Tables_number   1
_chemical_formula_structural   Hf8TiNb11Si16
_chemical_formula_sum   'Hf8 Ti1 Nb11 Si16'
_cell_volume   597.45507966
_cell_formula_units_Z   1
loop_
 _symmetry_equiv_pos_site_id
 _symmetry_equiv_pos_as_xyz
  1  'x, y, z'
loop_
 _atom_site_type_symbol
 _atom_site_label
 _atom_site_symmetry_multiplicity
 _atom_site_fract_x
 _atom_site_fract_y
 _atom_site_fract_z
 _atom_site_occupancy
  Hf  Hf0  1  0.341804  0.999591  0.468726  1
  Hf  Hf1  1  0.498912  0.842288  0.718492  1
  Hf  Hf2  1  0.499891  0.157171  0.219036  1
  Hf  Hf3  1  0.842288  0.498912  0.281508  1
  Hf  Hf4  1  0.157171  0.499891  0.780964  1
  Hf  Hf5  1  0.658498  0.999914  0.968748  1
  Hf  Hf6  1  0.999591  0.341804  0.531274  1
  Hf  Hf7  1  0.999914  0.658498  0.031252  1
  Ti  Ti8  1  0.670188  0.670188  0.500000  1
  Nb  Nb9  1  0.329518  0.329518  0.000000  1
  Nb  Nb10  1  0.170933  0.829600  0.250516  1
  Nb  Nb11  1  0.829600  0.170933  0.749484  1
  Nb  Nb12  1  0.151703  0.002797  0.873704  1
  Nb  Nb13  1  0.496881  0.651468  0.124107  1
  Nb  Nb14  1  0.503584  0.349676  0.623492  1
  Nb  Nb15  1  0.651468  0.496881  0.875893  1
  Nb  Nb16  1  0.349676  0.503584  0.376508  1
  Nb  Nb17  1  0.848759  0.996874  0.374346  1
  Nb  Nb18  1  0.002797  0.151703  0.126296  1
  Nb  Nb19  1  0.996874  0.848759  0.625654  1
  Si  Si20  1  0.207129  0.137941  0.676550  1
  Si  Si21  1  0.362747  0.707092  0.926763  1
  Si  Si22  1  0.638440  0.294927  0.428492  1
  Si  Si23  1  0.707092  0.362747  0.073237  1
  Si  Si24  1  0.294927  0.638440  0.571508  1
  Si  Si25  1  0.792342  0.862620  0.177600  1
  Si  Si26  1  0.137941  0.207129  0.323450  1
  Si  Si27  1  0.862620  0.792342  0.822400  1
  Si  Si28  1  0.299098  0.954785  0.063663  1
  Si  Si29  1  0.546830  0.798107  0.315391  1
  Si  Si30  1  0.455111  0.200988  0.813092  1
  Si  Si31  1  0.798107  0.546830  0.684609  1
  Si  Si32  1  0.200988  0.455111  0.186908  1
  Si  Si33  1  0.699369  0.042424  0.562810  1
  Si  Si34  1  0.954785  0.299098  0.936337  1
  Si  Si35  1  0.042424  0.699369  0.437190  1
