# generated using pymatgen
data_U2Al(Co10B3)2
_symmetry_space_group_name_H-M   'P 1'
_cell_length_a   7.51413989
_cell_length_b   7.51413968
_cell_length_c   7.51414000
_cell_angle_alpha   59.99999857
_cell_angle_beta   59.99999951
_cell_angle_gamma   59.99999365
_symmetry_Int_Tables_number   1
_chemical_formula_structural   U2Al(Co10B3)2
_chemical_formula_sum   'U2 Al1 Co20 B6'
_cell_volume   300.00106537
_cell_formula_units_Z   1
loop_
 _symmetry_equiv_pos_site_id
 _symmetry_equiv_pos_as_xyz
  1  'x, y, z'
loop_
 _atom_site_type_symbol
 _atom_site_label
 _atom_site_symmetry_multiplicity
 _atom_site_fract_x
 _atom_site_fract_y
 _atom_site_fract_z
 _atom_site_occupancy
  U  U0  1  0.250000  0.250000  0.250000  1
  U  U1  1  0.750000  0.750000  0.750000  1
  Al  Al2  1  0.000000  0.000000  0.000000  1
  Co  Co3  1  0.383358  0.383358  0.383358  1
  Co  Co4  1  0.150072  0.616642  0.616642  1
  Co  Co5  1  0.616642  0.150072  0.616642  1
  Co  Co6  1  0.616642  0.616642  0.150072  1
  Co  Co7  1  0.383358  0.849928  0.383358  1
  Co  Co8  1  0.383358  0.383358  0.849928  1
  Co  Co9  1  0.849928  0.383358  0.383358  1
  Co  Co10  1  0.616642  0.616642  0.616642  1
  Co  Co11  1  0.000000  0.340195  0.000000  1
  Co  Co12  1  0.340195  0.000000  0.000000  1
  Co  Co13  1  0.000000  0.340195  0.659805  1
  Co  Co14  1  0.659805  0.000000  0.340195  1
  Co  Co15  1  0.340195  0.000000  0.659805  1
  Co  Co16  1  0.000000  0.000000  0.340195  1
  Co  Co17  1  0.659805  0.340195  0.000000  1
  Co  Co18  1  0.000000  0.659805  0.340195  1
  Co  Co19  1  0.000000  0.000000  0.659805  1
  Co  Co20  1  0.340195  0.659805  0.000000  1
  Co  Co21  1  0.659805  0.000000  0.000000  1
  Co  Co22  1  0.000000  0.659805  0.000000  1
  B  B23  1  0.274705  0.725295  0.274705  1
  B  B24  1  0.274705  0.725295  0.725295  1
  B  B25  1  0.725295  0.274705  0.274705  1
  B  B26  1  0.725295  0.725295  0.274705  1
  B  B27  1  0.274705  0.274705  0.725295  1
  B  B28  1  0.725295  0.274705  0.725295  1
