# generated using pymatgen
data_Zr10ZnBi6Au
_symmetry_space_group_name_H-M   'P 1'
_cell_length_a   8.89845700
_cell_length_b   8.89845741
_cell_length_c   5.97915400
_cell_angle_alpha   90.00000000
_cell_angle_beta   90.00000000
_cell_angle_gamma   120.00000220
_symmetry_Int_Tables_number   1
_chemical_formula_structural   Zr10ZnBi6Au
_chemical_formula_sum   'Zr10 Zn1 Bi6 Au1'
_cell_volume   410.01504568
_cell_formula_units_Z   1
loop_
 _symmetry_equiv_pos_site_id
 _symmetry_equiv_pos_as_xyz
  1  'x, y, z'
loop_
 _atom_site_type_symbol
 _atom_site_label
 _atom_site_symmetry_multiplicity
 _atom_site_fract_x
 _atom_site_fract_y
 _atom_site_fract_z
 _atom_site_occupancy
  Zr  Zr0  1  0.333333  0.666667  0.000000  1
  Zr  Zr1  1  0.666667  0.333333  0.500000  1
  Zr  Zr2  1  0.666667  0.333333  0.000000  1
  Zr  Zr3  1  0.333333  0.666667  0.500000  1
  Zr  Zr4  1  0.268478  0.000000  0.257244  1
  Zr  Zr5  1  0.268478  0.268478  0.742756  1
  Zr  Zr6  1  0.000000  0.731522  0.742756  1
  Zr  Zr7  1  0.000000  0.268478  0.257244  1
  Zr  Zr8  1  0.731522  0.731522  0.257244  1
  Zr  Zr9  1  0.731522  0.000000  0.742756  1
  Zn  Zn10  1  0.000000  0.000000  0.500000  1
  Bi  Bi11  1  0.615262  0.000000  0.248582  1
  Bi  Bi12  1  0.615262  0.615262  0.751418  1
  Bi  Bi13  1  0.000000  0.384738  0.751418  1
  Bi  Bi14  1  0.000000  0.615262  0.248582  1
  Bi  Bi15  1  0.384738  0.384738  0.248582  1
  Bi  Bi16  1  0.384738  0.000000  0.751418  1
  Au  Au17  1  0.000000  0.000000  0.000000  1
