# generated using pymatgen
data_PrHoAs2Cl2O5
_symmetry_space_group_name_H-M   'P 1'
_cell_length_a   6.80208263
_cell_length_b   7.14059691
_cell_length_c   9.61621345
_cell_angle_alpha   111.38462015
_cell_angle_beta   96.53622443
_cell_angle_gamma   99.12729094
_symmetry_Int_Tables_number   1
_chemical_formula_structural   PrHoAs2Cl2O5
_chemical_formula_sum   'Pr2 Ho2 As4 Cl4 O10'
_cell_volume   421.85321730
_cell_formula_units_Z   2
loop_
 _symmetry_equiv_pos_site_id
 _symmetry_equiv_pos_as_xyz
  1  'x, y, z'
loop_
 _atom_site_type_symbol
 _atom_site_label
 _atom_site_symmetry_multiplicity
 _atom_site_fract_x
 _atom_site_fract_y
 _atom_site_fract_z
 _atom_site_occupancy
  Pr  Pr0  1  0.382462  0.756695  0.553884  1
  Pr  Pr1  1  0.617538  0.243305  0.446116  1
  Ho  Ho2  1  0.849533  0.746242  0.346080  1
  Ho  Ho3  1  0.150467  0.253758  0.653920  1
  As  As4  1  0.892532  0.808404  0.712311  1
  As  As5  1  0.107468  0.191596  0.287689  1
  As  As6  1  0.682150  0.246899  0.798970  1
  As  As7  1  0.317850  0.753101  0.201030  1
  Cl  Cl8  1  0.313365  0.659171  0.806157  1
  Cl  Cl9  1  0.686635  0.340829  0.193843  1
  Cl  Cl10  1  0.831932  0.766388  0.075640  1
  Cl  Cl11  1  0.168068  0.233612  0.924360  1
  O  O12  1  0.841133  0.317706  0.681987  1
  O  O13  1  0.158867  0.682294  0.318013  1
  O  O14  1  0.546289  0.839109  0.354605  1
  O  O15  1  0.453711  0.160891  0.645395  1
  O  O16  1  0.698635  0.969589  0.732587  1
  O  O17  1  0.301365  0.030411  0.267413  1
  O  O18  1  0.717278  0.620002  0.536189  1
  O  O19  1  0.282722  0.379998  0.463811  1
  O  O20  1  0.048277  0.896041  0.593588  1
  O  O21  1  0.951723  0.103959  0.406412  1
