# generated using pymatgen
data_Pr2Si4IrRh5
_symmetry_space_group_name_H-M   'P 1'
_cell_length_a   6.70920965
_cell_length_b   6.70609110
_cell_length_c   6.70920969
_cell_angle_alpha   130.32188831
_cell_angle_beta   114.73781424
_cell_angle_gamma   86.25722613
_symmetry_Int_Tables_number   1
_chemical_formula_structural   Pr2Si4IrRh5
_chemical_formula_sum   'Pr2 Si4 Ir1 Rh5'
_cell_volume   199.61044996
_cell_formula_units_Z   1
loop_
 _symmetry_equiv_pos_site_id
 _symmetry_equiv_pos_as_xyz
  1  'x, y, z'
loop_
 _atom_site_type_symbol
 _atom_site_label
 _atom_site_symmetry_multiplicity
 _atom_site_fract_x
 _atom_site_fract_y
 _atom_site_fract_z
 _atom_site_occupancy
  Pr  Pr0  1  0.250276  0.969215  0.719466  1
  Pr  Pr1  1  0.750251  0.030785  0.281061  1
  Si  Si2  1  0.079470  0.280508  0.201566  1
  Si  Si3  1  0.921058  0.719492  0.798962  1
  Si  Si4  1  0.420555  0.622592  0.200586  1
  Si  Si5  1  0.577993  0.377408  0.797963  1
  Ir  Ir6  1  0.781468  0.500000  0.281468  1
  Rh  Rh7  1  0.500123  0.499631  0.500315  1
  Rh  Rh8  1  0.000684  0.500369  0.000492  1
  Rh  Rh9  1  0.281505  0.000000  0.281505  1
  Rh  Rh10  1  0.718094  0.000000  0.718094  1
  Rh  Rh11  1  0.218522  0.500000  0.718522  1
