# generated using pymatgen
data_Li4NdY3(Si2Pb)2
_symmetry_space_group_name_H-M   'P 1'
_cell_length_a   9.70501368
_cell_length_b   9.70501368
_cell_length_c   6.87550200
_cell_angle_alpha   90.00000000
_cell_angle_beta   90.00000000
_cell_angle_gamma   153.65389620
_symmetry_Int_Tables_number   1
_chemical_formula_structural   Li4NdY3(Si2Pb)2
_chemical_formula_sum   'Li4 Nd1 Y3 Si4 Pb2'
_cell_volume   287.39326988
_cell_formula_units_Z   1
loop_
 _symmetry_equiv_pos_site_id
 _symmetry_equiv_pos_as_xyz
  1  'x, y, z'
loop_
 _atom_site_type_symbol
 _atom_site_label
 _atom_site_symmetry_multiplicity
 _atom_site_fract_x
 _atom_site_fract_y
 _atom_site_fract_z
 _atom_site_occupancy
  Li  Li0  1  0.182582  0.817418  0.054041  1
  Li  Li1  1  0.182582  0.817418  0.445959  1
  Li  Li2  1  0.817092  0.182908  0.947154  1
  Li  Li3  1  0.817092  0.182908  0.552846  1
  Nd  Nd4  1  0.451845  0.548155  0.750000  1
  Y  Y5  1  0.353702  0.646298  0.250000  1
  Y  Y6  1  0.646414  0.353586  0.750000  1
  Y  Y7  1  0.547843  0.452157  0.250000  1
  Si  Si8  1  0.057728  0.942272  0.926618  1
  Si  Si9  1  0.943465  0.056535  0.076241  1
  Si  Si10  1  0.943465  0.056535  0.423759  1
  Si  Si11  1  0.057728  0.942272  0.573382  1
  Pb  Pb12  1  0.719608  0.280392  0.250000  1
  Pb  Pb13  1  0.278851  0.721149  0.750000  1
