# generated using pymatgen
data_Tb2Nd2Lu2CoBr10
_symmetry_space_group_name_H-M   'P 1'
_cell_length_a   7.39225902
_cell_length_b   9.16498444
_cell_length_c   9.28163907
_cell_angle_alpha   106.93561199
_cell_angle_beta   95.94817613
_cell_angle_gamma   106.35152483
_symmetry_Int_Tables_number   1
_chemical_formula_structural   Tb2Nd2Lu2CoBr10
_chemical_formula_sum   'Tb2 Nd2 Lu2 Co1 Br10'
_cell_volume   565.30120992
_cell_formula_units_Z   1
loop_
 _symmetry_equiv_pos_site_id
 _symmetry_equiv_pos_as_xyz
  1  'x, y, z'
loop_
 _atom_site_type_symbol
 _atom_site_label
 _atom_site_symmetry_multiplicity
 _atom_site_fract_x
 _atom_site_fract_y
 _atom_site_fract_z
 _atom_site_occupancy
  Tb  Tb0  1  0.355197  0.133147  0.672801  1
  Tb  Tb1  1  0.644803  0.866853  0.327199  1
  Nd  Nd2  1  0.874485  0.949654  0.736164  1
  Nd  Nd3  1  0.125515  0.050346  0.263836  1
  Lu  Lu4  1  0.026467  0.708839  0.409126  1
  Lu  Lu5  1  0.973533  0.291161  0.590874  1
  Co  Co6  1  0.000000  0.000000  0.500000  1
  Br  Br7  1  0.442067  0.817763  0.582257  1
  Br  Br8  1  0.557933  0.182237  0.417743  1
  Br  Br9  1  0.918732  0.617686  0.662786  1
  Br  Br10  1  0.081268  0.382314  0.337214  1
  Br  Br11  1  0.258062  0.084539  0.952202  1
  Br  Br12  1  0.741938  0.915461  0.047798  1
  Br  Br13  1  0.341453  0.451755  0.766737  1
  Br  Br14  1  0.658547  0.548245  0.233263  1
  Br  Br15  1  0.784727  0.263167  0.837426  1
  Br  Br16  1  0.215273  0.736833  0.162574  1
