# generated using pymatgen
data_Ti7AlV5Sn9
_symmetry_space_group_name_H-M   'P 1'
_cell_length_a   9.14320900
_cell_length_b   9.14169300
_cell_length_c   5.51457502
_cell_angle_alpha   89.94355516
_cell_angle_beta   90.00000000
_cell_angle_gamma   120.00548951
_symmetry_Int_Tables_number   1
_chemical_formula_structural   Ti7AlV5Sn9
_chemical_formula_sum   'Ti7 Al1 V5 Sn9'
_cell_volume   399.15691132
_cell_formula_units_Z   1
loop_
 _symmetry_equiv_pos_site_id
 _symmetry_equiv_pos_as_xyz
  1  'x, y, z'
loop_
 _atom_site_type_symbol
 _atom_site_label
 _atom_site_symmetry_multiplicity
 _atom_site_fract_x
 _atom_site_fract_y
 _atom_site_fract_z
 _atom_site_occupancy
  Ti  Ti0  1  0.844812  0.689625  0.743578  1
  Ti  Ti1  1  0.151601  0.842293  0.253711  1
  Ti  Ti2  1  0.690692  0.842293  0.253711  1
  Ti  Ti3  1  0.309308  0.157707  0.746289  1
  Ti  Ti4  1  0.848399  0.157707  0.746289  1
  Ti  Ti5  1  0.155188  0.310375  0.256422  1
  Ti  Ti6  1  0.500000  0.000000  0.000000  1
  Al  Al7  1  0.000000  0.000000  0.500000  1
  V  V8  1  0.500000  0.000000  0.500000  1
  V  V9  1  0.500000  0.500000  0.000000  1
  V  V10  1  0.000000  0.500000  0.000000  1
  V  V11  1  0.000000  0.500000  0.500000  1
  V  V12  1  0.500000  0.500000  0.500000  1
  Sn  Sn13  1  0.206896  0.413794  0.751688  1
  Sn  Sn14  1  0.796311  0.206264  0.252902  1
  Sn  Sn15  1  0.409952  0.206264  0.252902  1
  Sn  Sn16  1  0.590048  0.793736  0.747098  1
  Sn  Sn17  1  0.203689  0.793736  0.747098  1
  Sn  Sn18  1  0.793104  0.586206  0.248312  1
  Sn  Sn19  1  0.667097  0.334194  0.745510  1
  Sn  Sn20  1  0.332903  0.665806  0.254490  1
  Sn  Sn21  1  0.000000  0.000000  0.000000  1
