# generated using pymatgen
data_Dy3Ho5SnHg3Au8
_symmetry_space_group_name_H-M   'P 1'
_cell_length_a   8.01397478
_cell_length_b   8.01702390
_cell_length_c   7.31585912
_cell_angle_alpha   89.97963235
_cell_angle_beta   89.99786627
_cell_angle_gamma   90.05040838
_symmetry_Int_Tables_number   1
_chemical_formula_structural   Dy3Ho5SnHg3Au8
_chemical_formula_sum   'Dy3 Ho5 Sn1 Hg3 Au8'
_cell_volume   470.03076777
_cell_formula_units_Z   1
loop_
 _symmetry_equiv_pos_site_id
 _symmetry_equiv_pos_as_xyz
  1  'x, y, z'
loop_
 _atom_site_type_symbol
 _atom_site_label
 _atom_site_symmetry_multiplicity
 _atom_site_fract_x
 _atom_site_fract_y
 _atom_site_fract_z
 _atom_site_occupancy
  Dy  Dy0  1  0.840606  0.159371  0.500134  1
  Dy  Dy1  1  0.159315  0.840572  0.500134  1
  Dy  Dy2  1  0.340748  0.340752  0.999820  1
  Ho  Ho3  1  0.659351  0.659417  0.999864  1
  Ho  Ho4  1  0.684277  0.685160  0.499606  1
  Ho  Ho5  1  0.315764  0.314858  0.499671  1
  Ho  Ho6  1  0.185180  0.815627  0.000362  1
  Ho  Ho7  1  0.814787  0.184346  0.000310  1
  Sn  Sn8  1  0.000062  0.499946  0.250007  1
  Hg  Hg9  1  0.500005  0.999999  0.249978  1
  Hg  Hg10  1  0.999988  0.500007  0.750022  1
  Hg  Hg11  1  0.499997  0.999993  0.750010  1
  Au  Au12  1  0.626618  0.372550  0.275899  1
  Au  Au13  1  0.373679  0.627734  0.275898  1
  Au  Au14  1  0.127648  0.126741  0.775603  1
  Au  Au15  1  0.872023  0.872949  0.776038  1
  Au  Au16  1  0.373457  0.627729  0.724677  1
  Au  Au17  1  0.626801  0.372588  0.724649  1
  Au  Au18  1  0.872051  0.873152  0.223416  1
  Au  Au19  1  0.127645  0.126510  0.223901  1
