# generated using pymatgen
data_Er2Ni12GeP6
_symmetry_space_group_name_H-M   'P 1'
_cell_length_a   9.08858717
_cell_length_b   9.08823430
_cell_length_c   3.67199600
_cell_angle_alpha   90.00000000
_cell_angle_beta   90.00000000
_cell_angle_gamma   120.00177442
_symmetry_Int_Tables_number   1
_chemical_formula_structural   Er2Ni12GeP6
_chemical_formula_sum   'Er2 Ni12 Ge1 P6'
_cell_volume   262.66424404
_cell_formula_units_Z   1
loop_
 _symmetry_equiv_pos_site_id
 _symmetry_equiv_pos_as_xyz
  1  'x, y, z'
loop_
 _atom_site_type_symbol
 _atom_site_label
 _atom_site_symmetry_multiplicity
 _atom_site_fract_x
 _atom_site_fract_y
 _atom_site_fract_z
 _atom_site_occupancy
  Er  Er0  1  0.333326  0.666721  0.000000  1
  Er  Er1  1  0.666727  0.333359  0.499999  1
  Ni  Ni2  1  0.436591  0.063120  0.000000  1
  Ni  Ni3  1  0.160782  0.289358  0.000000  1
  Ni  Ni4  1  0.936958  0.373424  0.000000  1
  Ni  Ni5  1  0.626495  0.563439  0.000000  1
  Ni  Ni6  1  0.128670  0.839167  0.000000  1
  Ni  Ni7  1  0.710506  0.871400  0.000000  1
  Ni  Ni8  1  0.230516  0.100526  0.499999  1
  Ni  Ni9  1  0.899447  0.129999  0.499999  1
  Ni  Ni10  1  0.383542  0.433191  0.499999  1
  Ni  Ni11  1  0.049647  0.616404  0.499999  1
  Ni  Ni12  1  0.869997  0.769474  0.499999  1
  Ni  Ni13  1  0.566765  0.950396  0.499999  1
  Ge  Ge14  1  0.999936  0.999959  0.000000  1
  P  P15  1  0.706657  0.113998  0.000000  1
  P  P16  1  0.407329  0.293378  0.000000  1
  P  P17  1  0.886099  0.592674  0.000000  1
  P  P18  1  0.111779  0.406623  0.499999  1
  P  P19  1  0.593336  0.705112  0.499999  1
  P  P20  1  0.294895  0.888275  0.499999  1
