# generated using pymatgen
data_Ho4Re4OsRu3
_symmetry_space_group_name_H-M   'P 1'
_cell_length_a   5.34705561
_cell_length_b   5.14376004
_cell_length_c   9.12554100
_cell_angle_alpha   90.00000000
_cell_angle_beta   90.00000000
_cell_angle_gamma   118.71759928
_symmetry_Int_Tables_number   1
_chemical_formula_structural   Ho4Re4OsRu3
_chemical_formula_sum   'Ho4 Re4 Os1 Ru3'
_cell_volume   220.11666740
_cell_formula_units_Z   1
loop_
 _symmetry_equiv_pos_site_id
 _symmetry_equiv_pos_as_xyz
  1  'x, y, z'
loop_
 _atom_site_type_symbol
 _atom_site_label
 _atom_site_symmetry_multiplicity
 _atom_site_fract_x
 _atom_site_fract_y
 _atom_site_fract_z
 _atom_site_occupancy
  Ho  Ho0  1  0.671625  0.336383  0.564739  1
  Ho  Ho1  1  0.328120  0.663495  0.435490  1
  Ho  Ho2  1  0.328120  0.663495  0.064510  1
  Ho  Ho3  1  0.671625  0.336383  0.935261  1
  Re  Re4  1  0.168008  0.336900  0.750000  1
  Re  Re5  1  0.169003  0.830710  0.750000  1
  Re  Re6  1  0.836891  0.663948  0.250000  1
  Re  Re7  1  0.835659  0.172299  0.250000  1
  Os  Os8  1  0.653974  0.826753  0.750000  1
  Ru  Ru9  1  0.993268  0.997109  0.498930  1
  Ru  Ru10  1  0.993268  0.997109  0.001070  1
  Ru  Ru11  1  0.350439  0.175417  0.250000  1
