# generated using pymatgen
data_Th4ZrInRh10
_symmetry_space_group_name_H-M   'P 1'
_cell_length_a   5.93027208
_cell_length_b   5.93027358
_cell_length_c   8.80392000
_cell_angle_alpha   90.00000000
_cell_angle_beta   90.00000000
_cell_angle_gamma   101.91444776
_symmetry_Int_Tables_number   1
_chemical_formula_structural   Th4ZrInRh10
_chemical_formula_sum   'Th4 Zr1 In1 Rh10'
_cell_volume   302.94735255
_cell_formula_units_Z   1
loop_
 _symmetry_equiv_pos_site_id
 _symmetry_equiv_pos_as_xyz
  1  'x, y, z'
loop_
 _atom_site_type_symbol
 _atom_site_label
 _atom_site_symmetry_multiplicity
 _atom_site_fract_x
 _atom_site_fract_y
 _atom_site_fract_z
 _atom_site_occupancy
  Th  Th0  1  0.790107  0.212306  0.503054  1
  Th  Th1  1  0.212306  0.790107  0.996946  1
  Th  Th2  1  0.212306  0.790107  0.503054  1
  Th  Th3  1  0.790107  0.212306  0.996946  1
  Zr  Zr4  1  0.416836  0.416836  0.250000  1
  In  In5  1  0.575202  0.575202  0.750000  1
  Rh  Rh6  1  0.701310  0.701310  0.040398  1
  Rh  Rh7  1  0.701310  0.701310  0.459602  1
  Rh  Rh8  1  0.291683  0.291683  0.967336  1
  Rh  Rh9  1  0.291683  0.291683  0.532664  1
  Rh  Rh10  1  0.493558  0.024342  0.750000  1
  Rh  Rh11  1  0.511029  0.983585  0.250000  1
  Rh  Rh12  1  0.016826  0.016826  0.250000  1
  Rh  Rh13  1  0.987810  0.987810  0.750000  1
  Rh  Rh14  1  0.024342  0.493558  0.750000  1
  Rh  Rh15  1  0.983585  0.511029  0.250000  1
