# generated using pymatgen
data_Gd2PdPtF14
_symmetry_space_group_name_H-M   'P 1'
_cell_length_a   5.67085700
_cell_length_b   9.14256331
_cell_length_c   12.24324300
_cell_angle_alpha   62.04600823
_cell_angle_beta   89.99989896
_cell_angle_gamma   90.06294780
_symmetry_Int_Tables_number   1
_chemical_formula_structural   Gd2PdPtF14
_chemical_formula_sum   'Gd4 Pd2 Pt2 F28'
_cell_volume   560.70312796
_cell_formula_units_Z   2
loop_
 _symmetry_equiv_pos_site_id
 _symmetry_equiv_pos_as_xyz
  1  'x, y, z'
loop_
 _atom_site_type_symbol
 _atom_site_label
 _atom_site_symmetry_multiplicity
 _atom_site_fract_x
 _atom_site_fract_y
 _atom_site_fract_z
 _atom_site_occupancy
  Gd  Gd0  1  0.260870  0.813994  0.262429  1
  Gd  Gd1  1  0.739130  0.186006  0.737571  1
  Gd  Gd2  1  0.761912  0.187426  0.235007  1
  Gd  Gd3  1  0.238088  0.812574  0.764993  1
  Pd  Pd4  1  0.759126  0.727191  0.042883  1
  Pd  Pd5  1  0.240874  0.272809  0.957117  1
  Pt  Pt6  1  0.259686  0.272731  0.457078  1
  Pt  Pt7  1  0.740314  0.727269  0.542922  1
  F  F8  1  0.935888  0.706180  0.417906  1
  F  F9  1  0.064112  0.293820  0.582094  1
  F  F10  1  0.434120  0.293644  0.080976  1
  F  F11  1  0.565880  0.706356  0.919024  1
  F  F12  1  0.476214  0.729938  0.133421  1
  F  F13  1  0.523786  0.270062  0.866579  1
  F  F14  1  0.975462  0.270521  0.364639  1
  F  F15  1  0.024538  0.729479  0.635361  1
  F  F16  1  0.949381  0.744893  0.170499  1
  F  F17  1  0.050619  0.255107  0.829501  1
  F  F18  1  0.451591  0.254502  0.328599  1
  F  F19  1  0.548409  0.745498  0.671401  1
  F  F20  1  0.769402  0.484693  0.138972  1
  F  F21  1  0.230598  0.515307  0.861028  1
  F  F22  1  0.270583  0.517347  0.359538  1
  F  F23  1  0.729417  0.482653  0.640462  1
  F  F24  1  0.951634  0.280046  0.042344  1
  F  F25  1  0.048366  0.719954  0.957656  1
  F  F26  1  0.449627  0.720728  0.455834  1
  F  F27  1  0.550373  0.279272  0.544166  1
  F  F28  1  0.743796  0.970891  0.449270  1
  F  F29  1  0.256204  0.029109  0.550730  1
  F  F30  1  0.243460  0.031567  0.049039  1
  F  F31  1  0.756540  0.968433  0.950961  1
  F  F32  1  0.579790  0.973784  0.232638  1
  F  F33  1  0.420210  0.026216  0.767362  1
  F  F34  1  0.079664  0.026687  0.266407  1
  F  F35  1  0.920336  0.973313  0.733593  1
