# generated using pymatgen
data_V12Si5Pt3N4
_symmetry_space_group_name_H-M   'P 1'
_cell_length_a   6.55715858
_cell_length_b   6.55715784
_cell_length_c   6.55715810
_cell_angle_alpha   90.29108617
_cell_angle_beta   90.29107711
_cell_angle_gamma   90.29107393
_symmetry_Int_Tables_number   1
_chemical_formula_structural   V12Si5Pt3N4
_chemical_formula_sum   'V12 Si5 Pt3 N4'
_cell_volume   281.92274100
_cell_formula_units_Z   1
loop_
 _symmetry_equiv_pos_site_id
 _symmetry_equiv_pos_as_xyz
  1  'x, y, z'
loop_
 _atom_site_type_symbol
 _atom_site_label
 _atom_site_symmetry_multiplicity
 _atom_site_fract_x
 _atom_site_fract_y
 _atom_site_fract_z
 _atom_site_occupancy
  V  V0  1  0.774981  0.951455  0.398948  1
  V  V1  1  0.712108  0.030900  0.865589  1
  V  V2  1  0.215468  0.452032  0.126794  1
  V  V3  1  0.298196  0.549075  0.624713  1
  V  V4  1  0.951455  0.398948  0.774981  1
  V  V5  1  0.030900  0.865589  0.712108  1
  V  V6  1  0.452032  0.126794  0.215468  1
  V  V7  1  0.549075  0.624713  0.298196  1
  V  V8  1  0.398948  0.774981  0.951455  1
  V  V9  1  0.865589  0.712108  0.030900  1
  V  V10  1  0.126794  0.215468  0.452032  1
  V  V11  1  0.624713  0.298196  0.549075  1
  Si  Si12  1  0.675186  0.675186  0.675186  1
  Si  Si13  1  0.571336  0.423069  0.930698  1
  Si  Si14  1  0.423069  0.930698  0.571336  1
  Si  Si15  1  0.930698  0.571336  0.423069  1
  Si  Si16  1  0.067480  0.067480  0.067480  1
  Pt  Pt17  1  0.174629  0.823235  0.315369  1
  Pt  Pt18  1  0.315369  0.174629  0.823235  1
  Pt  Pt19  1  0.823235  0.315369  0.174629  1
  N  N20  1  0.880263  0.132369  0.628028  1
  N  N21  1  0.628028  0.880263  0.132369  1
  N  N22  1  0.132369  0.628028  0.880263  1
  N  N23  1  0.378080  0.378080  0.378080  1
