# generated using pymatgen
data_Ho5Al(GaRh2)6
_symmetry_space_group_name_H-M   'P 1'
_cell_length_a   4.51207700
_cell_length_b   6.35655700
_cell_length_c   13.54718600
_cell_angle_alpha   89.99994592
_cell_angle_beta   89.99939048
_cell_angle_gamma   89.99965748
_symmetry_Int_Tables_number   1
_chemical_formula_structural   Ho5Al(GaRh2)6
_chemical_formula_sum   'Ho5 Al1 Ga6 Rh12'
_cell_volume   388.55056225
_cell_formula_units_Z   1
loop_
 _symmetry_equiv_pos_site_id
 _symmetry_equiv_pos_as_xyz
  1  'x, y, z'
loop_
 _atom_site_type_symbol
 _atom_site_label
 _atom_site_symmetry_multiplicity
 _atom_site_fract_x
 _atom_site_fract_y
 _atom_site_fract_z
 _atom_site_occupancy
  Ho  Ho0  1  0.499904  0.000002  0.160174  1
  Ho  Ho1  1  0.999886  0.499998  0.329959  1
  Ho  Ho2  1  0.500008  0.000001  0.500000  1
  Ho  Ho3  1  0.000115  0.499998  0.670039  1
  Ho  Ho4  1  0.500088  0.000001  0.839826  1
  Al  Al5  1  0.000001  0.500004  0.000001  1
  Ga  Ga6  1  0.000000  0.999992  0.999998  1
  Ga  Ga7  1  0.499879  0.500001  0.167369  1
  Ga  Ga8  1  0.999904  0.999997  0.329652  1
  Ga  Ga9  1  0.499995  0.499998  0.500001  1
  Ga  Ga10  1  0.000102  0.999999  0.670345  1
  Ga  Ga11  1  0.500121  0.500000  0.832631  1
  Rh  Rh12  1  0.500000  0.275038  0.000000  1
  Rh  Rh13  1  0.499992  0.724964  0.000001  1
  Rh  Rh14  1  0.999897  0.264934  0.152599  1
  Rh  Rh15  1  0.999899  0.735066  0.152603  1
  Rh  Rh16  1  0.499890  0.247855  0.330638  1
  Rh  Rh17  1  0.499894  0.752144  0.330638  1
  Rh  Rh18  1  0.000004  0.252374  0.499999  1
  Rh  Rh19  1  0.000010  0.747632  0.499999  1
  Rh  Rh20  1  0.500110  0.247856  0.669363  1
  Rh  Rh21  1  0.500110  0.752147  0.669363  1
  Rh  Rh22  1  0.000095  0.264937  0.847401  1
  Rh  Rh23  1  0.000093  0.735061  0.847397  1
