# generated using pymatgen
data_La11(Cu2Si3)2
_symmetry_space_group_name_H-M   'P 1'
_cell_length_a   4.34751453
_cell_length_b   9.50335863
_cell_length_c   14.15359323
_cell_angle_alpha   105.01401665
_cell_angle_beta   90.01312451
_cell_angle_gamma   103.26260657
_symmetry_Int_Tables_number   1
_chemical_formula_structural   La11(Cu2Si3)2
_chemical_formula_sum   'La11 Cu4 Si6'
_cell_volume   548.63492514
_cell_formula_units_Z   1
loop_
 _symmetry_equiv_pos_site_id
 _symmetry_equiv_pos_as_xyz
  1  'x, y, z'
loop_
 _atom_site_type_symbol
 _atom_site_label
 _atom_site_symmetry_multiplicity
 _atom_site_fract_x
 _atom_site_fract_y
 _atom_site_fract_z
 _atom_site_occupancy
  La  La0  1  0.902033  0.801124  0.218729  1
  La  La1  1  0.862887  0.724242  0.653968  1
  La  La2  1  0.224575  0.442783  0.102761  1
  La  La3  1  0.550469  0.101282  0.132526  1
  La  La4  1  0.341521  0.679348  0.395733  1
  La  La5  1  0.447859  0.898227  0.868578  1
  La  La6  1  0.000464  0.999817  0.500728  1
  La  La7  1  0.138147  0.275402  0.347022  1
  La  La8  1  0.775512  0.556785  0.898410  1
  La  La9  1  0.660344  0.320640  0.605222  1
  La  La10  1  0.097987  0.198773  0.782476  1
  Cu  Cu11  1  0.752707  0.502525  0.452643  1
  Cu  Cu12  1  0.934928  0.875413  0.023060  1
  Cu  Cu13  1  0.062785  0.124072  0.977905  1
  Cu  Cu14  1  0.249874  0.497258  0.548094  1
  Si  Si15  1  0.629004  0.252396  0.952855  1
  Si  Si16  1  0.264317  0.530692  0.734759  1
  Si  Si17  1  0.736760  0.469155  0.266285  1
  Si  Si18  1  0.369680  0.747219  0.048379  1
  Si  Si19  1  0.513704  0.024929  0.347189  1
  Si  Si20  1  0.487038  0.974967  0.654205  1
