# generated using pymatgen
data_Dy5TmAl24IrRu7
_symmetry_space_group_name_H-M   'P 1'
_cell_length_a   8.78772575
_cell_length_b   8.79032741
_cell_length_c   9.60423575
_cell_angle_alpha   89.93698220
_cell_angle_beta   90.06378336
_cell_angle_gamma   119.99940211
_symmetry_Int_Tables_number   1
_chemical_formula_structural   Dy5TmAl24IrRu7
_chemical_formula_sum   'Dy5 Tm1 Al24 Ir1 Ru7'
_cell_volume   642.50609433
_cell_formula_units_Z   1
loop_
 _symmetry_equiv_pos_site_id
 _symmetry_equiv_pos_as_xyz
  1  'x, y, z'
loop_
 _atom_site_type_symbol
 _atom_site_label
 _atom_site_symmetry_multiplicity
 _atom_site_fract_x
 _atom_site_fract_y
 _atom_site_fract_z
 _atom_site_occupancy
  Dy  Dy0  1  0.806657  0.193265  0.749847  1
  Dy  Dy1  1  0.193218  0.806583  0.250161  1
  Dy  Dy2  1  0.385882  0.192673  0.749461  1
  Dy  Dy3  1  0.614286  0.807420  0.250517  1
  Dy  Dy4  1  0.807177  0.613988  0.749455  1
  Tm  Tm5  1  0.193331  0.387510  0.250699  1
  Al  Al6  1  0.667434  0.332444  0.980591  1
  Al  Al7  1  0.332351  0.666999  0.019891  1
  Al  Al8  1  0.333214  0.666055  0.480578  1
  Al  Al9  1  0.666550  0.333437  0.518859  1
  Al  Al10  1  0.837348  0.163338  0.422535  1
  Al  Al11  1  0.163174  0.836872  0.577034  1
  Al  Al12  1  0.325516  0.163506  0.422267  1
  Al  Al13  1  0.162750  0.837346  0.922492  1
  Al  Al14  1  0.674123  0.836694  0.577239  1
  Al  Al15  1  0.837756  0.162845  0.077948  1
  Al  Al16  1  0.836661  0.674150  0.422381  1
  Al  Al17  1  0.674454  0.838212  0.923085  1
  Al  Al18  1  0.163314  0.325868  0.576812  1
  Al  Al19  1  0.325310  0.161997  0.077360  1
  Al  Al20  1  0.161842  0.325539  0.923490  1
  Al  Al21  1  0.838204  0.674483  0.077282  1
  Al  Al22  1  0.437656  0.562262  0.748794  1
  Al  Al23  1  0.561413  0.437582  0.251156  1
  Al  Al24  1  0.124165  0.561598  0.750172  1
  Al  Al25  1  0.876567  0.438212  0.249855  1
  Al  Al26  1  0.438360  0.875823  0.750193  1
  Al  Al27  1  0.561675  0.124221  0.249822  1
  Al  Al28  1  0.000116  0.999780  0.750073  1
  Al  Al29  1  0.000492  0.001173  0.249906  1
  Ir  Ir30  1  0.499420  0.499681  0.000328  1
  Ru  Ru31  1  0.000336  0.499666  0.000469  1
  Ru  Ru32  1  0.499367  0.499677  0.499632  1
  Ru  Ru33  1  0.499815  0.999672  0.000106  1
  Ru  Ru34  1  0.000298  0.499724  0.499623  1
  Ru  Ru35  1  0.499862  0.999696  0.499901  1
  Ru  Ru36  1  0.999973  0.000008  0.999894  1
  Ru  Ru37  1  0.999930  0.000000  0.500092  1
