# generated using pymatgen
data_SrCrTeO6
_symmetry_space_group_name_H-M   'P 1'
_cell_length_a   5.15292410
_cell_length_b   5.20757362
_cell_length_c   10.89557166
_cell_angle_alpha   90.23396553
_cell_angle_beta   89.32560204
_cell_angle_gamma   119.52420651
_symmetry_Int_Tables_number   1
_chemical_formula_structural   SrCrTeO6
_chemical_formula_sum   'Sr2 Cr2 Te2 O12'
_cell_volume   254.39066492
_cell_formula_units_Z   2
loop_
 _symmetry_equiv_pos_site_id
 _symmetry_equiv_pos_as_xyz
  1  'x, y, z'
loop_
 _atom_site_type_symbol
 _atom_site_label
 _atom_site_symmetry_multiplicity
 _atom_site_fract_x
 _atom_site_fract_y
 _atom_site_fract_z
 _atom_site_occupancy
  Sr  Sr0  1  0.005715  0.005146  0.000191  1
  Sr  Sr1  1  0.001149  0.994884  0.499872  1
  Cr  Cr2  1  0.344008  0.676914  0.250139  1
  Cr  Cr3  1  0.670138  0.324457  0.750225  1
  Te  Te4  1  0.667353  0.333449  0.249883  1
  Te  Te5  1  0.333687  0.667127  0.749979  1
  O  O6  1  0.608413  0.615485  0.148815  1
  O  O7  1  0.001847  0.383919  0.149394  1
  O  O8  1  0.382077  0.004222  0.150011  1
  O  O9  1  0.380592  0.378416  0.351097  1
  O  O10  1  0.000030  0.613073  0.350202  1
  O  O11  1  0.612652  0.993320  0.350054  1
  O  O12  1  0.377682  0.994484  0.649247  1
  O  O13  1  0.994327  0.383501  0.648745  1
  O  O14  1  0.618219  0.615983  0.649761  1
  O  O15  1  0.002202  0.623066  0.851096  1
  O  O16  1  0.617044  0.006823  0.851004  1
  O  O17  1  0.382861  0.385734  0.850281  1
