# generated using pymatgen
data_Lu18Sc2(GaBi3)3
_symmetry_space_group_name_H-M   'P 1'
_cell_length_a   7.95495279
_cell_length_b   9.21785600
_cell_length_c   11.65815401
_cell_angle_alpha   90.00000000
_cell_angle_beta   89.83472925
_cell_angle_gamma   90.00000000
_symmetry_Int_Tables_number   1
_chemical_formula_structural   Lu18Sc2(GaBi3)3
_chemical_formula_sum   'Lu18 Sc2 Ga3 Bi9'
_cell_volume   854.86100535
_cell_formula_units_Z   1
loop_
 _symmetry_equiv_pos_site_id
 _symmetry_equiv_pos_as_xyz
  1  'x, y, z'
loop_
 _atom_site_type_symbol
 _atom_site_label
 _atom_site_symmetry_multiplicity
 _atom_site_fract_x
 _atom_site_fract_y
 _atom_site_fract_z
 _atom_site_occupancy
  Lu  Lu0  1  0.963494  0.750000  0.491466  1
  Lu  Lu1  1  0.461713  0.750000  0.009774  1
  Lu  Lu2  1  0.346805  0.250000  0.295061  1
  Lu  Lu3  1  0.654192  0.750000  0.705018  1
  Lu  Lu4  1  0.147715  0.750000  0.792624  1
  Lu  Lu5  1  0.843616  0.250000  0.216493  1
  Lu  Lu6  1  0.198311  0.250000  0.775777  1
  Lu  Lu7  1  0.818047  0.750000  0.212494  1
  Lu  Lu8  1  0.320225  0.750000  0.288016  1
  Lu  Lu9  1  0.675893  0.250000  0.709164  1
  Lu  Lu10  1  0.193275  0.052010  0.060456  1
  Lu  Lu11  1  0.813605  0.928365  0.944352  1
  Lu  Lu12  1  0.316359  0.941658  0.555257  1
  Lu  Lu13  1  0.813605  0.571635  0.944352  1
  Lu  Lu14  1  0.683948  0.059309  0.446338  1
  Lu  Lu15  1  0.193275  0.447990  0.060456  1
  Lu  Lu16  1  0.683948  0.440691  0.446338  1
  Lu  Lu17  1  0.316359  0.558342  0.555257  1
  Sc  Sc18  1  0.034599  0.250000  0.508505  1
  Sc  Sc19  1  0.521310  0.250000  0.989683  1
  Ga  Ga20  1  0.402213  0.250000  0.538529  1
  Ga  Ga21  1  0.591792  0.750000  0.459019  1
  Ga  Ga22  1  0.091921  0.750000  0.040317  1
  Bi  Bi23  1  0.904982  0.250000  0.955023  1
  Bi  Bi24  1  0.056933  0.002432  0.323418  1
  Bi  Bi25  1  0.943534  0.002174  0.675632  1
  Bi  Bi26  1  0.444459  0.998392  0.823994  1
  Bi  Bi27  1  0.943534  0.497826  0.675632  1
  Bi  Bi28  1  0.559473  0.004067  0.177071  1
  Bi  Bi29  1  0.056933  0.497568  0.323418  1
  Bi  Bi30  1  0.559473  0.495933  0.177071  1
  Bi  Bi31  1  0.444459  0.501608  0.823994  1
