# generated using pymatgen
data_SmErU(GaRu)3
_symmetry_space_group_name_H-M   'P 1'
_cell_length_a   6.92206408
_cell_length_b   6.90700156
_cell_length_c   4.00716600
_cell_angle_alpha   90.00000000
_cell_angle_beta   90.00000000
_cell_angle_gamma   116.41889494
_symmetry_Int_Tables_number   1
_chemical_formula_structural   SmErU(GaRu)3
_chemical_formula_sum   'Sm1 Er1 U1 Ga3 Ru3'
_cell_volume   171.57723090
_cell_formula_units_Z   1
loop_
 _symmetry_equiv_pos_site_id
 _symmetry_equiv_pos_as_xyz
  1  'x, y, z'
loop_
 _atom_site_type_symbol
 _atom_site_label
 _atom_site_symmetry_multiplicity
 _atom_site_fract_x
 _atom_site_fract_y
 _atom_site_fract_z
 _atom_site_occupancy
  Sm  Sm0  1  0.415213  0.008530  0.500000  1
  Er  Er1  1  0.010595  0.414453  0.500000  1
  U  U2  1  0.618234  0.617373  0.500000  1
  Ga  Ga3  1  0.749283  0.033431  0.000000  1
  Ga  Ga4  1  0.029362  0.741293  0.000000  1
  Ga  Ga5  1  0.207643  0.211452  0.000000  1
  Ru  Ru6  1  0.380811  0.634069  0.000000  1
  Ru  Ru7  1  0.634329  0.382716  0.000000  1
  Ru  Ru8  1  0.954532  0.956683  0.500000  1
