# generated using pymatgen
data_CaTb7(Si3Pd)4
_symmetry_space_group_name_H-M   'P 1'
_cell_length_a   8.24314700
_cell_length_b   8.21820734
_cell_length_c   7.98165900
_cell_angle_alpha   90.00000000
_cell_angle_beta   90.00000000
_cell_angle_gamma   120.10044144
_symmetry_Int_Tables_number   1
_chemical_formula_structural   CaTb7(Si3Pd)4
_chemical_formula_sum   'Ca1 Tb7 Si12 Pd4'
_cell_volume   467.79275764
_cell_formula_units_Z   1
loop_
 _symmetry_equiv_pos_site_id
 _symmetry_equiv_pos_as_xyz
  1  'x, y, z'
loop_
 _atom_site_type_symbol
 _atom_site_label
 _atom_site_symmetry_multiplicity
 _atom_site_fract_x
 _atom_site_fract_y
 _atom_site_fract_z
 _atom_site_occupancy
  Ca  Ca0  1  0.510837  0.021672  0.250000  1
  Tb  Tb1  1  0.490199  0.980400  0.750000  1
  Tb  Tb2  1  0.979992  0.489790  0.250000  1
  Tb  Tb3  1  0.019661  0.509316  0.750000  1
  Tb  Tb4  1  0.509799  0.489790  0.250000  1
  Tb  Tb5  1  0.489654  0.509316  0.750000  1
  Tb  Tb6  1  0.999942  0.999885  0.250000  1
  Tb  Tb7  1  0.000085  0.000170  0.750000  1
  Si  Si8  1  0.165281  0.330562  0.001200  1
  Si  Si9  1  0.834629  0.669258  0.997813  1
  Si  Si10  1  0.669546  0.834187  0.001140  1
  Si  Si11  1  0.834629  0.669258  0.502187  1
  Si  Si12  1  0.330026  0.165634  0.996090  1
  Si  Si13  1  0.165281  0.330562  0.498800  1
  Si  Si14  1  0.164642  0.834187  0.001140  1
  Si  Si15  1  0.330026  0.165634  0.503910  1
  Si  Si16  1  0.835608  0.165634  0.996090  1
  Si  Si17  1  0.669546  0.834187  0.498860  1
  Si  Si18  1  0.835608  0.165634  0.503910  1
  Si  Si19  1  0.164642  0.834187  0.498860  1
  Pd  Pd20  1  0.333361  0.666722  0.034661  1
  Pd  Pd21  1  0.666823  0.333645  0.963228  1
  Pd  Pd22  1  0.666823  0.333645  0.536772  1
  Pd  Pd23  1  0.333361  0.666722  0.465339  1
