# generated using pymatgen
data_Y8InAg4Hg3
_symmetry_space_group_name_H-M   'P 1'
_cell_length_a   7.43930300
_cell_length_b   7.34728300
_cell_length_c   7.41797900
_cell_angle_alpha   90.00000000
_cell_angle_beta   90.00001543
_cell_angle_gamma   90.00000000
_symmetry_Int_Tables_number   1
_chemical_formula_structural   Y8InAg4Hg3
_chemical_formula_sum   'Y8 In1 Ag4 Hg3'
_cell_volume   405.45682516
_cell_formula_units_Z   1
loop_
 _symmetry_equiv_pos_site_id
 _symmetry_equiv_pos_as_xyz
  1  'x, y, z'
loop_
 _atom_site_type_symbol
 _atom_site_label
 _atom_site_symmetry_multiplicity
 _atom_site_fract_x
 _atom_site_fract_y
 _atom_site_fract_z
 _atom_site_occupancy
  Y  Y0  1  0.752323  0.497334  0.247329  1
  Y  Y1  1  0.752323  0.002665  0.247329  1
  Y  Y2  1  0.247664  0.002908  0.247319  1
  Y  Y3  1  0.247664  0.497091  0.247319  1
  Y  Y4  1  0.752323  0.497334  0.752667  1
  Y  Y5  1  0.752323  0.002665  0.752667  1
  Y  Y6  1  0.247664  0.002907  0.752682  1
  Y  Y7  1  0.247664  0.497092  0.752682  1
  In  In8  1  0.499839  0.749999  0.500000  1
  Ag  Ag9  1  0.500354  0.250000  0.999999  1
  Ag  Ag10  1  0.499631  0.749999  0.999999  1
  Ag  Ag11  1  0.000366  0.749999  0.499996  1
  Ag  Ag12  1  0.999633  0.250000  0.500002  1
  Hg  Hg13  1  0.999778  0.250000  0.000000  1
  Hg  Hg14  1  0.000220  0.749999  0.000000  1
  Hg  Hg15  1  0.500230  0.250000  0.500000  1
