# generated using pymatgen
data_NdCdSbPdO7
_symmetry_space_group_name_H-M   'P 1'
_cell_length_a   7.36414200
_cell_length_b   7.36414200
_cell_length_c   10.46723700
_cell_angle_alpha   90.00000000
_cell_angle_beta   90.00000000
_cell_angle_gamma   90.00000000
_symmetry_Int_Tables_number   1
_chemical_formula_structural   NdCdSbPdO7
_chemical_formula_sum   'Nd4 Cd4 Sb4 Pd4 O28'
_cell_volume   567.64441092
_cell_formula_units_Z   4
loop_
 _symmetry_equiv_pos_site_id
 _symmetry_equiv_pos_as_xyz
  1  'x, y, z'
loop_
 _atom_site_type_symbol
 _atom_site_label
 _atom_site_symmetry_multiplicity
 _atom_site_fract_x
 _atom_site_fract_y
 _atom_site_fract_z
 _atom_site_occupancy
  Nd  Nd0  1  0.000000  0.739494  0.000000  1
  Nd  Nd1  1  0.260506  0.000000  0.250000  1
  Nd  Nd2  1  0.000000  0.260506  0.500000  1
  Nd  Nd3  1  0.739494  0.000000  0.750000  1
  Cd  Cd4  1  0.500000  0.742457  0.000000  1
  Cd  Cd5  1  0.500000  0.257543  0.500000  1
  Cd  Cd6  1  0.742457  0.500000  0.750000  1
  Cd  Cd7  1  0.257543  0.500000  0.250000  1
  Sb  Sb8  1  0.244928  0.500000  0.750000  1
  Sb  Sb9  1  0.500000  0.755072  0.500000  1
  Sb  Sb10  1  0.500000  0.244928  0.000000  1
  Sb  Sb11  1  0.755072  0.500000  0.250000  1
  Pd  Pd12  1  0.758405  0.000000  0.250000  1
  Pd  Pd13  1  0.000000  0.758405  0.500000  1
  Pd  Pd14  1  0.241595  0.000000  0.750000  1
  Pd  Pd15  1  0.000000  0.241595  0.000000  1
  O  O16  1  0.261560  0.738440  0.125000  1
  O  O17  1  0.548196  0.955532  0.373944  1
  O  O18  1  0.738440  0.261560  0.625000  1
  O  O19  1  0.965425  0.965425  0.375000  1
  O  O20  1  0.044468  0.451804  0.876056  1
  O  O21  1  0.034575  0.034575  0.875000  1
  O  O22  1  0.034575  0.965425  0.625000  1
  O  O23  1  0.251758  0.239677  0.078893  1
  O  O24  1  0.239677  0.251758  0.671107  1
  O  O25  1  0.251758  0.760323  0.421107  1
  O  O26  1  0.444538  0.444538  0.875000  1
  O  O27  1  0.451804  0.044468  0.873944  1
  O  O28  1  0.451804  0.955532  0.626056  1
  O  O29  1  0.555462  0.555462  0.375000  1
  O  O30  1  0.548196  0.044468  0.126056  1
  O  O31  1  0.555462  0.444538  0.125000  1
  O  O32  1  0.748242  0.760323  0.578893  1
  O  O33  1  0.738440  0.738440  0.875000  1
  O  O34  1  0.760323  0.251758  0.328893  1
  O  O35  1  0.760323  0.748242  0.171107  1
  O  O36  1  0.748242  0.239677  0.921107  1
  O  O37  1  0.955532  0.548196  0.376056  1
  O  O38  1  0.955532  0.451804  0.123944  1
  O  O39  1  0.965425  0.034575  0.125000  1
  O  O40  1  0.044468  0.548196  0.623944  1
  O  O41  1  0.261560  0.261560  0.375000  1
  O  O42  1  0.239677  0.748242  0.828893  1
  O  O43  1  0.444538  0.555462  0.625000  1
