# generated using pymatgen
data_Y2(GaPt3)3
_symmetry_space_group_name_H-M   'P 1'
_cell_length_a   7.79082082
_cell_length_b   7.79082125
_cell_length_c   10.16518029
_cell_angle_alpha   67.69010030
_cell_angle_beta   67.69009741
_cell_angle_gamma   60.02603019
_symmetry_Int_Tables_number   1
_chemical_formula_structural   Y2(GaPt3)3
_chemical_formula_sum   'Y4 Ga6 Pt18'
_cell_volume   480.37382243
_cell_formula_units_Z   2
loop_
 _symmetry_equiv_pos_site_id
 _symmetry_equiv_pos_as_xyz
  1  'x, y, z'
loop_
 _atom_site_type_symbol
 _atom_site_label
 _atom_site_symmetry_multiplicity
 _atom_site_fract_x
 _atom_site_fract_y
 _atom_site_fract_z
 _atom_site_occupancy
  Y  Y0  1  0.414603  0.245927  0.250439  1
  Y  Y1  1  0.585397  0.754073  0.749561  1
  Y  Y2  1  0.754073  0.585397  0.249561  1
  Y  Y3  1  0.245927  0.414603  0.750439  1
  Ga  Ga4  1  0.500000  0.000000  0.000000  1
  Ga  Ga5  1  0.000000  0.500000  0.500000  1
  Ga  Ga6  1  0.639567  0.181267  0.498488  1
  Ga  Ga7  1  0.360433  0.818733  0.501512  1
  Ga  Ga8  1  0.818733  0.360433  0.001512  1
  Ga  Ga9  1  0.181267  0.639567  0.998488  1
  Pt  Pt10  1  0.292908  0.917792  0.254246  1
  Pt  Pt11  1  0.707092  0.082208  0.745754  1
  Pt  Pt12  1  0.082208  0.707092  0.245754  1
  Pt  Pt13  1  0.917792  0.292908  0.754246  1
  Pt  Pt14  1  0.470697  0.644272  0.079341  1
  Pt  Pt15  1  0.529303  0.355728  0.920659  1
  Pt  Pt16  1  0.355728  0.529303  0.420659  1
  Pt  Pt17  1  0.644272  0.470697  0.579341  1
  Pt  Pt18  1  0.867487  0.132513  0.250000  1
  Pt  Pt19  1  0.132513  0.867487  0.750000  1
  Pt  Pt20  1  0.807025  0.978112  0.073390  1
  Pt  Pt21  1  0.192975  0.021888  0.926610  1
  Pt  Pt22  1  0.021888  0.192975  0.426610  1
  Pt  Pt23  1  0.978112  0.807025  0.573390  1
  Pt  Pt24  1  0.696661  0.859678  0.421569  1
  Pt  Pt25  1  0.303339  0.140322  0.578431  1
  Pt  Pt26  1  0.140322  0.303339  0.078431  1
  Pt  Pt27  1  0.859678  0.696661  0.921569  1
