# generated using pymatgen
data_Ca(NbSe2)3
_symmetry_space_group_name_H-M   'P 1'
_cell_length_a   6.08497300
_cell_length_b   6.08497308
_cell_length_c   15.02471000
_cell_angle_alpha   90.00000000
_cell_angle_beta   90.00000000
_cell_angle_gamma   120.00000502
_symmetry_Int_Tables_number   1
_chemical_formula_structural   Ca(NbSe2)3
_chemical_formula_sum   'Ca2 Nb6 Se12'
_cell_volume   481.78583212
_cell_formula_units_Z   2
loop_
 _symmetry_equiv_pos_site_id
 _symmetry_equiv_pos_as_xyz
  1  'x, y, z'
loop_
 _atom_site_type_symbol
 _atom_site_label
 _atom_site_symmetry_multiplicity
 _atom_site_fract_x
 _atom_site_fract_y
 _atom_site_fract_z
 _atom_site_occupancy
  Ca  Ca0  1  0.333333  0.666667  0.250000  1
  Ca  Ca1  1  0.666667  0.333333  0.750000  1
  Nb  Nb2  1  0.333333  0.666667  0.000682  1
  Nb  Nb3  1  0.000000  0.000000  0.000000  1
  Nb  Nb4  1  0.666667  0.333333  0.999318  1
  Nb  Nb5  1  0.333333  0.666667  0.499318  1
  Nb  Nb6  1  0.000000  0.000000  0.500000  1
  Nb  Nb7  1  0.666667  0.333333  0.500682  1
  Se  Se8  1  0.671418  0.666427  0.388580  1
  Se  Se9  1  0.666427  0.671418  0.611420  1
  Se  Se10  1  0.004991  0.671418  0.888580  1
  Se  Se11  1  0.666427  0.995009  0.888580  1
  Se  Se12  1  0.671418  0.004991  0.111420  1
  Se  Se13  1  0.333573  0.004991  0.388580  1
  Se  Se14  1  0.004991  0.333573  0.611420  1
  Se  Se15  1  0.328582  0.995009  0.611420  1
  Se  Se16  1  0.995009  0.666427  0.111420  1
  Se  Se17  1  0.328582  0.333573  0.888580  1
  Se  Se18  1  0.995009  0.328582  0.388580  1
  Se  Se19  1  0.333573  0.328582  0.111420  1
