# generated using pymatgen
data_Tb3Cd3In2Ag
_symmetry_space_group_name_H-M   'P 1'
_cell_length_a   7.59134600
_cell_length_b   7.59134558
_cell_length_c   4.49494600
_cell_angle_alpha   90.00000000
_cell_angle_beta   90.00000000
_cell_angle_gamma   120.00000183
_symmetry_Int_Tables_number   1
_chemical_formula_structural   Tb3Cd3In2Ag
_chemical_formula_sum   'Tb3 Cd3 In2 Ag1'
_cell_volume   224.33273484
_cell_formula_units_Z   1
loop_
 _symmetry_equiv_pos_site_id
 _symmetry_equiv_pos_as_xyz
  1  'x, y, z'
loop_
 _atom_site_type_symbol
 _atom_site_label
 _atom_site_symmetry_multiplicity
 _atom_site_fract_x
 _atom_site_fract_y
 _atom_site_fract_z
 _atom_site_occupancy
  Tb  Tb0  1  0.584686  0.000000  0.000000  1
  Tb  Tb1  1  0.000000  0.584686  0.000000  1
  Tb  Tb2  1  0.415314  0.415314  0.000000  1
  Cd  Cd3  1  0.241333  0.000000  0.500000  1
  Cd  Cd4  1  0.000000  0.241333  0.500000  1
  Cd  Cd5  1  0.758667  0.758667  0.500000  1
  In  In6  1  0.333333  0.666667  0.500000  1
  In  In7  1  0.666667  0.333333  0.500000  1
  Ag  Ag8  1  0.000000  0.000000  0.000000  1
