# generated using pymatgen
data_Er2Sn2PdPt3
_symmetry_space_group_name_H-M   'P 1'
_cell_length_a   4.55154300
_cell_length_b   4.55154300
_cell_length_c   9.05884100
_cell_angle_alpha   90.00000000
_cell_angle_beta   90.00000000
_cell_angle_gamma   120.00002179
_symmetry_Int_Tables_number   1
_chemical_formula_structural   Er2Sn2PdPt3
_chemical_formula_sum   'Er2 Sn2 Pd1 Pt3'
_cell_volume   162.52511182
_cell_formula_units_Z   1
loop_
 _symmetry_equiv_pos_site_id
 _symmetry_equiv_pos_as_xyz
  1  'x, y, z'
loop_
 _atom_site_type_symbol
 _atom_site_label
 _atom_site_symmetry_multiplicity
 _atom_site_fract_x
 _atom_site_fract_y
 _atom_site_fract_z
 _atom_site_occupancy
  Er  Er0  1  0.666667  0.333333  0.749651  1
  Er  Er1  1  0.333333  0.666667  0.252280  1
  Sn  Sn2  1  0.000000  0.000000  0.499085  1
  Sn  Sn3  1  0.000000  0.000000  0.998873  1
  Pd  Pd4  1  0.666667  0.333333  0.089465  1
  Pt  Pt5  1  0.333333  0.666667  0.911011  1
  Pt  Pt6  1  0.333333  0.666667  0.590851  1
  Pt  Pt7  1  0.666667  0.333333  0.408783  1
