# generated using pymatgen
data_Zr6Co16Si6Tc
_symmetry_space_group_name_H-M   'P 1'
_cell_length_a   8.14588223
_cell_length_b   8.10650778
_cell_length_c   8.14588121
_cell_angle_alpha   60.15976896
_cell_angle_beta   59.31115724
_cell_angle_gamma   60.15977000
_symmetry_Int_Tables_number   1
_chemical_formula_structural   Zr6Co16Si6Tc
_chemical_formula_sum   'Zr6 Co16 Si6 Tc1'
_cell_volume   379.24237449
_cell_formula_units_Z   1
loop_
 _symmetry_equiv_pos_site_id
 _symmetry_equiv_pos_as_xyz
  1  'x, y, z'
loop_
 _atom_site_type_symbol
 _atom_site_label
 _atom_site_symmetry_multiplicity
 _atom_site_fract_x
 _atom_site_fract_y
 _atom_site_fract_z
 _atom_site_occupancy
  Zr  Zr0  1  0.708124  0.289274  0.291876  1
  Zr  Zr1  1  0.291876  0.289274  0.708124  1
  Zr  Zr2  1  0.291876  0.710726  0.708124  1
  Zr  Zr3  1  0.708124  0.710726  0.291876  1
  Zr  Zr4  1  0.294305  0.705695  0.294305  1
  Zr  Zr5  1  0.705695  0.294305  0.705695  1
  Co  Co6  1  0.118398  0.118537  0.644529  1
  Co  Co7  1  0.672049  0.982601  0.672049  1
  Co  Co8  1  0.355471  0.881463  0.881602  1
  Co  Co9  1  0.022742  0.322500  0.332261  1
  Co  Co10  1  0.977258  0.677500  0.667739  1
  Co  Co11  1  0.332261  0.322500  0.022742  1
  Co  Co12  1  0.667739  0.677500  0.977258  1
  Co  Co13  1  0.644529  0.118537  0.118398  1
  Co  Co14  1  0.672049  0.673300  0.672049  1
  Co  Co15  1  0.881602  0.881463  0.355471  1
  Co  Co16  1  0.121539  0.118310  0.121539  1
  Co  Co17  1  0.878461  0.361386  0.878461  1
  Co  Co18  1  0.878461  0.881690  0.878461  1
  Co  Co19  1  0.327951  0.326700  0.327951  1
  Co  Co20  1  0.121539  0.638614  0.121539  1
  Co  Co21  1  0.327951  0.017399  0.327951  1
  Si  Si22  1  0.000000  0.000000  0.500000  1
  Si  Si23  1  0.000000  0.000000  0.000000  1
  Si  Si24  1  0.500000  0.500000  0.000000  1
  Si  Si25  1  0.500000  0.000000  0.500000  1
  Si  Si26  1  0.500000  0.000000  0.000000  1
  Si  Si27  1  0.000000  0.500000  0.500000  1
  Tc  Tc28  1  0.000000  0.500000  0.000000  1
