# generated using pymatgen
data_Cs2CeF5
_symmetry_space_group_name_H-M   'P 1'
_cell_length_a   7.35953200
_cell_length_b   7.96523400
_cell_length_c   12.23996800
_cell_angle_alpha   90.00000000
_cell_angle_beta   90.00000000
_cell_angle_gamma   90.00000000
_symmetry_Int_Tables_number   1
_chemical_formula_structural   Cs2CeF5
_chemical_formula_sum   'Cs8 Ce4 F20'
_cell_volume   717.51175296
_cell_formula_units_Z   4
loop_
 _symmetry_equiv_pos_site_id
 _symmetry_equiv_pos_as_xyz
  1  'x, y, z'
loop_
 _atom_site_type_symbol
 _atom_site_label
 _atom_site_symmetry_multiplicity
 _atom_site_fract_x
 _atom_site_fract_y
 _atom_site_fract_z
 _atom_site_occupancy
  Cs  Cs0  1  0.532055  0.021430  0.170306  1
  Cs  Cs1  1  0.467945  0.521430  0.829694  1
  Cs  Cs2  1  0.967945  0.021430  0.670306  1
  Cs  Cs3  1  0.032055  0.521430  0.329694  1
  Cs  Cs4  1  0.031870  0.017281  0.329786  1
  Cs  Cs5  1  0.968130  0.517281  0.670214  1
  Cs  Cs6  1  0.468130  0.017281  0.829786  1
  Cs  Cs7  1  0.531870  0.517281  0.170214  1
  Ce  Ce8  1  0.446662  0.268490  0.500351  1
  Ce  Ce9  1  0.553338  0.768490  0.499649  1
  Ce  Ce10  1  0.053338  0.268490  0.000351  1
  Ce  Ce11  1  0.946662  0.768490  0.999649  1
  F  F12  1  0.140798  0.984662  0.069793  1
  F  F13  1  0.859202  0.484662  0.930207  1
  F  F14  1  0.359202  0.984662  0.569793  1
  F  F15  1  0.640798  0.484662  0.430207  1
  F  F16  1  0.369837  0.269237  0.015501  1
  F  F17  1  0.630163  0.769237  0.984499  1
  F  F18  1  0.130163  0.269237  0.515501  1
  F  F19  1  0.869837  0.769237  0.484499  1
  F  F20  1  0.138362  0.551151  0.071095  1
  F  F21  1  0.861638  0.051151  0.928905  1
  F  F22  1  0.361638  0.551151  0.571095  1
  F  F23  1  0.638362  0.051151  0.428905  1
  F  F24  1  0.350142  0.268556  0.319666  1
  F  F25  1  0.649858  0.768556  0.680334  1
  F  F26  1  0.149858  0.268556  0.819666  1
  F  F27  1  0.850142  0.768556  0.180334  1
  F  F28  1  0.380055  0.766192  0.342416  1
  F  F29  1  0.619945  0.266192  0.657584  1
  F  F30  1  0.119945  0.766192  0.842416  1
  F  F31  1  0.880055  0.266192  0.157584  1
