# generated using pymatgen
data_Tm20IrRu7Pt4
_symmetry_space_group_name_H-M   'P 1'
_cell_length_a   10.71916778
_cell_length_b   10.71916741
_cell_length_c   6.36082109
_cell_angle_alpha   89.90022426
_cell_angle_beta   89.90021954
_cell_angle_gamma   90.74733054
_symmetry_Int_Tables_number   1
_chemical_formula_structural   Tm20IrRu7Pt4
_chemical_formula_sum   'Tm20 Ir1 Ru7 Pt4'
_cell_volume   730.79745057
_cell_formula_units_Z   1
loop_
 _symmetry_equiv_pos_site_id
 _symmetry_equiv_pos_as_xyz
  1  'x, y, z'
loop_
 _atom_site_type_symbol
 _atom_site_label
 _atom_site_symmetry_multiplicity
 _atom_site_fract_x
 _atom_site_fract_y
 _atom_site_fract_z
 _atom_site_occupancy
  Tm  Tm0  1  0.295049  0.081092  0.371250  1
  Tm  Tm1  1  0.292763  0.911361  0.878386  1
  Tm  Tm2  1  0.707354  0.089575  0.878143  1
  Tm  Tm3  1  0.705210  0.918626  0.370447  1
  Tm  Tm4  1  0.581320  0.795631  0.872114  1
  Tm  Tm5  1  0.589504  0.206786  0.377872  1
  Tm  Tm6  1  0.410727  0.793428  0.378547  1
  Tm  Tm7  1  0.418735  0.205457  0.870630  1
  Tm  Tm8  1  0.204369  0.418680  0.627886  1
  Tm  Tm9  1  0.206572  0.589273  0.121453  1
  Tm  Tm10  1  0.793214  0.410496  0.122128  1
  Tm  Tm11  1  0.794543  0.581265  0.629370  1
  Tm  Tm12  1  0.918908  0.704951  0.128750  1
  Tm  Tm13  1  0.910425  0.292646  0.621857  1
  Tm  Tm14  1  0.088639  0.707237  0.621614  1
  Tm  Tm15  1  0.081374  0.294790  0.129553  1
  Tm  Tm16  1  0.000416  0.000027  0.496371  1
  Tm  Tm17  1  0.999973  0.999584  0.003629  1
  Tm  Tm18  1  0.501340  0.499918  0.997523  1
  Tm  Tm19  1  0.500082  0.498660  0.502477  1
  Ir  Ir20  1  0.348946  0.651054  0.750000  1
  Ru  Ru21  1  0.849368  0.150632  0.250000  1
  Ru  Ru22  1  0.151344  0.848656  0.250000  1
  Ru  Ru23  1  0.650258  0.349742  0.750000  1
  Ru  Ru24  1  0.500205  0.999767  0.123998  1
  Ru  Ru25  1  0.500173  0.000283  0.624290  1
  Ru  Ru26  1  0.999717  0.499827  0.875710  1
  Ru  Ru27  1  0.000233  0.499795  0.376002  1
  Pt  Pt28  1  0.844964  0.844818  0.749979  1
  Pt  Pt29  1  0.155182  0.155036  0.750021  1
  Pt  Pt30  1  0.654184  0.655089  0.250706  1
  Pt  Pt31  1  0.344911  0.345816  0.249294  1
