# generated using pymatgen
data_Er19Mg(IrPd)6
_symmetry_space_group_name_H-M   'P 1'
_cell_length_a   10.95053533
_cell_length_b   10.94742108
_cell_length_c   6.26899525
_cell_angle_alpha   89.98578220
_cell_angle_beta   89.97160100
_cell_angle_gamma   89.99947499
_symmetry_Int_Tables_number   1
_chemical_formula_structural   Er19Mg(IrPd)6
_chemical_formula_sum   'Er19 Mg1 Ir6 Pd6'
_cell_volume   751.52779521
_cell_formula_units_Z   1
loop_
 _symmetry_equiv_pos_site_id
 _symmetry_equiv_pos_as_xyz
  1  'x, y, z'
loop_
 _atom_site_type_symbol
 _atom_site_label
 _atom_site_symmetry_multiplicity
 _atom_site_fract_x
 _atom_site_fract_y
 _atom_site_fract_z
 _atom_site_occupancy
  Er  Er0  1  0.291280  0.087527  0.374064  1
  Er  Er1  1  0.296412  0.908308  0.874224  1
  Er  Er2  1  0.703497  0.086316  0.874059  1
  Er  Er3  1  0.709031  0.917688  0.373851  1
  Er  Er4  1  0.582646  0.793037  0.873321  1
  Er  Er5  1  0.579433  0.207118  0.372397  1
  Er  Er6  1  0.413449  0.793569  0.379406  1
  Er  Er7  1  0.410071  0.206617  0.880922  1
  Er  Er8  1  0.209087  0.418206  0.622320  1
  Er  Er9  1  0.209208  0.585407  0.120961  1
  Er  Er10  1  0.796261  0.412318  0.124689  1
  Er  Er11  1  0.796024  0.584702  0.625853  1
  Er  Er12  1  0.914362  0.703921  0.125582  1
  Er  Er13  1  0.918431  0.290621  0.625817  1
  Er  Er14  1  0.088365  0.708545  0.626413  1
  Er  Er15  1  0.092529  0.296667  0.126315  1
  Er  Er16  1  0.000061  0.999966  0.000008  1
  Er  Er17  1  0.495714  0.499240  0.000044  1
  Er  Er18  1  0.495718  0.500561  0.500099  1
  Mg  Mg19  1  0.999984  0.999890  0.500011  1
  Ir  Ir20  1  0.346210  0.344839  0.251846  1
  Ir  Ir21  1  0.345903  0.654805  0.747881  1
  Ir  Ir22  1  0.500839  0.999673  0.123595  1
  Ir  Ir23  1  0.500860  0.000258  0.621205  1
  Ir  Ir24  1  0.998016  0.500179  0.876318  1
  Ir  Ir25  1  0.998006  0.499832  0.378779  1
  Pd  Pd26  1  0.847549  0.153978  0.249161  1
  Pd  Pd27  1  0.845910  0.847742  0.751214  1
  Pd  Pd28  1  0.153243  0.151457  0.750513  1
  Pd  Pd29  1  0.151336  0.846630  0.248978  1
  Pd  Pd30  1  0.655523  0.345574  0.748203  1
  Pd  Pd31  1  0.655043  0.654809  0.251950  1
