# generated using pymatgen
data_Hf4P4IrRh3
_symmetry_space_group_name_H-M   'P 1'
_cell_length_a   3.80256100
_cell_length_b   6.48002487
_cell_length_c   7.42649524
_cell_angle_alpha   90.07474162
_cell_angle_beta   90.00000000
_cell_angle_gamma   90.00000000
_symmetry_Int_Tables_number   1
_chemical_formula_structural   Hf4P4IrRh3
_chemical_formula_sum   'Hf4 P4 Ir1 Rh3'
_cell_volume   182.99381005
_cell_formula_units_Z   1
loop_
 _symmetry_equiv_pos_site_id
 _symmetry_equiv_pos_as_xyz
  1  'x, y, z'
loop_
 _atom_site_type_symbol
 _atom_site_label
 _atom_site_symmetry_multiplicity
 _atom_site_fract_x
 _atom_site_fract_y
 _atom_site_fract_z
 _atom_site_occupancy
  Hf  Hf0  1  0.250000  0.026654  0.820300  1
  Hf  Hf1  1  0.250000  0.528514  0.678451  1
  Hf  Hf2  1  0.750000  0.972485  0.179571  1
  Hf  Hf3  1  0.750000  0.472277  0.321641  1
  P  P4  1  0.250000  0.758627  0.375536  1
  P  P5  1  0.250000  0.258121  0.122945  1
  P  P6  1  0.750000  0.243025  0.624383  1
  P  P7  1  0.750000  0.741696  0.876475  1
  Ir  Ir8  1  0.250000  0.147346  0.437061  1
  Rh  Rh9  1  0.250000  0.644569  0.063966  1
  Rh  Rh10  1  0.750000  0.854086  0.563322  1
  Rh  Rh11  1  0.750000  0.352598  0.936349  1
