# generated using pymatgen
data_TiNb5Ir18
_symmetry_space_group_name_H-M   'P 1'
_cell_length_a   5.56798400
_cell_length_b   5.56798435
_cell_length_c   13.49820200
_cell_angle_alpha   90.00000000
_cell_angle_beta   90.00000000
_cell_angle_gamma   119.99999790
_symmetry_Int_Tables_number   1
_chemical_formula_structural   TiNb5Ir18
_chemical_formula_sum   'Ti1 Nb5 Ir18'
_cell_volume   362.41198280
_cell_formula_units_Z   1
loop_
 _symmetry_equiv_pos_site_id
 _symmetry_equiv_pos_as_xyz
  1  'x, y, z'
loop_
 _atom_site_type_symbol
 _atom_site_label
 _atom_site_symmetry_multiplicity
 _atom_site_fract_x
 _atom_site_fract_y
 _atom_site_fract_z
 _atom_site_occupancy
  Ti  Ti0  1  0.000000  0.000000  0.250000  1
  Nb  Nb1  1  0.000000  0.000000  0.750000  1
  Nb  Nb2  1  0.333333  0.666667  0.409804  1
  Nb  Nb3  1  0.666667  0.333333  0.587250  1
  Nb  Nb4  1  0.666667  0.333333  0.912750  1
  Nb  Nb5  1  0.333333  0.666667  0.090196  1
  Ir  Ir6  1  0.503424  0.496576  0.250000  1
  Ir  Ir7  1  0.503424  0.006849  0.250000  1
  Ir  Ir8  1  0.993151  0.496576  0.250000  1
  Ir  Ir9  1  0.496376  0.503624  0.750000  1
  Ir  Ir10  1  0.496376  0.992752  0.750000  1
  Ir  Ir11  1  0.007248  0.503624  0.750000  1
  Ir  Ir12  1  0.165599  0.331195  0.917374  1
  Ir  Ir13  1  0.668805  0.834401  0.917374  1
  Ir  Ir14  1  0.165599  0.834401  0.917374  1
  Ir  Ir15  1  0.834875  0.669751  0.083622  1
  Ir  Ir16  1  0.330249  0.165125  0.083622  1
  Ir  Ir17  1  0.834875  0.165125  0.083622  1
  Ir  Ir18  1  0.834875  0.669751  0.416378  1
  Ir  Ir19  1  0.330249  0.165125  0.416378  1
  Ir  Ir20  1  0.834875  0.165125  0.416378  1
  Ir  Ir21  1  0.165599  0.331195  0.582626  1
  Ir  Ir22  1  0.668805  0.834401  0.582626  1
  Ir  Ir23  1  0.165599  0.834401  0.582626  1
