# generated using pymatgen
data_ErLuOs4
_symmetry_space_group_name_H-M   'P 1'
_cell_length_a   5.31042400
_cell_length_b   5.31042566
_cell_length_c   8.75099500
_cell_angle_alpha   90.00000000
_cell_angle_beta   90.00000000
_cell_angle_gamma   119.99998969
_symmetry_Int_Tables_number   1
_chemical_formula_structural   ErLuOs4
_chemical_formula_sum   'Er2 Lu2 Os8'
_cell_volume   213.72072734
_cell_formula_units_Z   2
loop_
 _symmetry_equiv_pos_site_id
 _symmetry_equiv_pos_as_xyz
  1  'x, y, z'
loop_
 _atom_site_type_symbol
 _atom_site_label
 _atom_site_symmetry_multiplicity
 _atom_site_fract_x
 _atom_site_fract_y
 _atom_site_fract_z
 _atom_site_occupancy
  Er  Er0  1  0.333333  0.666667  0.434326  1
  Er  Er1  1  0.666667  0.333333  0.565674  1
  Lu  Lu2  1  0.666667  0.333333  0.934997  1
  Lu  Lu3  1  0.333333  0.666667  0.065003  1
  Os  Os4  1  0.173010  0.346020  0.751460  1
  Os  Os5  1  0.173010  0.826990  0.751460  1
  Os  Os6  1  0.346020  0.173010  0.248540  1
  Os  Os7  1  0.826990  0.653980  0.248540  1
  Os  Os8  1  0.653980  0.826990  0.751460  1
  Os  Os9  1  0.000000  0.000000  0.000000  1
  Os  Os10  1  0.826990  0.173010  0.248540  1
  Os  Os11  1  0.000000  0.000000  0.500000  1
