# generated using pymatgen
data_DyEr3(As4O9)2
_symmetry_space_group_name_H-M   'P 1'
_cell_length_a   6.71189505
_cell_length_b   7.51321128
_cell_length_c   9.78622553
_cell_angle_alpha   94.82221394
_cell_angle_beta   104.10077268
_cell_angle_gamma   104.76434788
_symmetry_Int_Tables_number   1
_chemical_formula_structural   DyEr3(As4O9)2
_chemical_formula_sum   'Dy1 Er3 As8 O18'
_cell_volume   457.17115964
_cell_formula_units_Z   1
loop_
 _symmetry_equiv_pos_site_id
 _symmetry_equiv_pos_as_xyz
  1  'x, y, z'
loop_
 _atom_site_type_symbol
 _atom_site_label
 _atom_site_symmetry_multiplicity
 _atom_site_fract_x
 _atom_site_fract_y
 _atom_site_fract_z
 _atom_site_occupancy
  Dy  Dy0  1  0.242912  0.939493  0.614884  1
  Er  Er1  1  0.756819  0.061269  0.384844  1
  Er  Er2  1  0.720862  0.528865  0.409532  1
  Er  Er3  1  0.278690  0.470707  0.590081  1
  As  As4  1  0.683014  0.774319  0.079198  1
  As  As5  1  0.317157  0.226466  0.921606  1
  As  As6  1  0.170040  0.751952  0.912769  1
  As  As7  1  0.829683  0.247605  0.087514  1
  As  As8  1  0.743594  0.914788  0.709420  1
  As  As9  1  0.257031  0.085151  0.289996  1
  As  As10  1  0.810079  0.351573  0.701380  1
  As  As11  1  0.190430  0.648144  0.298302  1
  O  O12  1  0.722786  0.748775  0.260195  1
  O  O13  1  0.277428  0.252672  0.740669  1
  O  O14  1  0.315900  0.978823  0.869698  1
  O  O15  1  0.684733  0.021614  0.132160  1
  O  O16  1  0.608226  0.325199  0.985450  1
  O  O17  1  0.391838  0.674796  0.014659  1
  O  O18  1  0.126879  0.644801  0.737628  1
  O  O19  1  0.873057  0.355084  0.262379  1
  O  O20  1  0.845937  0.876037  0.558018  1
  O  O21  1  0.151319  0.125249  0.439670  1
  O  O22  1  0.482015  0.766704  0.666290  1
  O  O23  1  0.519493  0.232190  0.334335  1
  O  O24  1  0.373303  0.532616  0.380426  1
  O  O25  1  0.626891  0.466932  0.619284  1
  O  O26  1  0.088392  0.668314  0.453781  1
  O  O27  1  0.910776  0.329726  0.545395  1
  O  O28  1  0.378624  0.899592  0.359158  1
  O  O29  1  0.622094  0.100547  0.641279  1
