# generated using pymatgen
data_Sr2Al16TcPt8
_symmetry_space_group_name_H-M   'P 1'
_cell_length_a   11.29114758
_cell_length_b   11.29114796
_cell_length_c   11.29114843
_cell_angle_alpha   158.67149017
_cell_angle_beta   116.83430986
_cell_angle_gamma   67.48518707
_symmetry_Int_Tables_number   1
_chemical_formula_structural   Sr2Al16TcPt8
_chemical_formula_sum   'Sr2 Al16 Tc1 Pt8'
_cell_volume   464.04894167
_cell_formula_units_Z   1
loop_
 _symmetry_equiv_pos_site_id
 _symmetry_equiv_pos_as_xyz
  1  'x, y, z'
loop_
 _atom_site_type_symbol
 _atom_site_label
 _atom_site_symmetry_multiplicity
 _atom_site_fract_x
 _atom_site_fract_y
 _atom_site_fract_z
 _atom_site_occupancy
  Sr  Sr0  1  0.231270  0.231477  0.999793  1
  Sr  Sr1  1  0.768317  0.768523  0.999793  1
  Al  Al2  1  0.276139  0.393493  0.882646  1
  Al  Al3  1  0.088675  0.924119  0.164557  1
  Al  Al4  1  0.502555  0.200746  0.301810  1
  Al  Al5  1  0.240439  0.075881  0.164557  1
  Al  Al6  1  0.909333  0.416990  0.492343  1
  Al  Al7  1  0.721407  0.596075  0.125332  1
  Al  Al8  1  0.905621  0.208989  0.696631  1
  Al  Al9  1  0.487644  0.791011  0.696631  1
  Al  Al10  1  0.386673  0.000000  0.386673  1
  Al  Al11  1  0.629228  0.000000  0.629228  1
  Al  Al12  1  0.489153  0.606507  0.882646  1
  Al  Al13  1  0.101063  0.799254  0.301810  1
  Al  Al14  1  0.907142  0.085571  0.821570  1
  Al  Al15  1  0.735999  0.914429  0.821570  1
  Al  Al16  1  0.529256  0.403925  0.125332  1
  Al  Al17  1  0.075353  0.583010  0.492343  1
  Tc  Tc18  1  0.788220  0.500000  0.288220  1
  Pt  Pt19  1  0.028965  0.344492  0.684473  1
  Pt  Pt20  1  0.623163  0.120185  0.502978  1
  Pt  Pt21  1  0.251792  0.500000  0.751792  1
  Pt  Pt22  1  0.382792  0.879815  0.502978  1
  Pt  Pt23  1  0.985056  0.000000  0.985056  1
  Pt  Pt24  1  0.643920  0.336538  0.307382  1
  Pt  Pt25  1  0.339981  0.655508  0.684473  1
  Pt  Pt26  1  0.970845  0.663462  0.307382  1
