# generated using pymatgen
data_Tm2Sc2TiOs7
_symmetry_space_group_name_H-M   'P 1'
_cell_length_a   5.32329500
_cell_length_b   5.32329378
_cell_length_c   8.54602300
_cell_angle_alpha   90.00000000
_cell_angle_beta   90.00000000
_cell_angle_gamma   120.00001382
_symmetry_Int_Tables_number   1
_chemical_formula_structural   Tm2Sc2TiOs7
_chemical_formula_sum   'Tm2 Sc2 Ti1 Os7'
_cell_volume   209.72760469
_cell_formula_units_Z   1
loop_
 _symmetry_equiv_pos_site_id
 _symmetry_equiv_pos_as_xyz
  1  'x, y, z'
loop_
 _atom_site_type_symbol
 _atom_site_label
 _atom_site_symmetry_multiplicity
 _atom_site_fract_x
 _atom_site_fract_y
 _atom_site_fract_z
 _atom_site_occupancy
  Tm  Tm0  1  0.333333  0.666667  0.437517  1
  Tm  Tm1  1  0.666667  0.333333  0.562483  1
  Sc  Sc2  1  0.666667  0.333333  0.928364  1
  Sc  Sc3  1  0.333333  0.666667  0.071636  1
  Ti  Ti4  1  0.000000  0.000000  0.000000  1
  Os  Os5  1  0.172930  0.345859  0.754896  1
  Os  Os6  1  0.172930  0.827070  0.754896  1
  Os  Os7  1  0.345859  0.172930  0.245104  1
  Os  Os8  1  0.827070  0.654141  0.245104  1
  Os  Os9  1  0.654141  0.827070  0.754896  1
  Os  Os10  1  0.827070  0.172930  0.245104  1
  Os  Os11  1  0.000000  0.000000  0.500000  1
