# generated using pymatgen
data_Zr6Zn11Cu12P
_symmetry_space_group_name_H-M   'P 1'
_cell_length_a   8.59457842
_cell_length_b   8.57787905
_cell_length_c   8.57787900
_cell_angle_alpha   60.00000405
_cell_angle_beta   60.06425757
_cell_angle_gamma   60.06426030
_symmetry_Int_Tables_number   1
_chemical_formula_structural   Zr6Zn11Cu12P
_chemical_formula_sum   'Zr6 Zn11 Cu12 P1'
_cell_volume   447.60050171
_cell_formula_units_Z   1
loop_
 _symmetry_equiv_pos_site_id
 _symmetry_equiv_pos_as_xyz
  1  'x, y, z'
loop_
 _atom_site_type_symbol
 _atom_site_label
 _atom_site_symmetry_multiplicity
 _atom_site_fract_x
 _atom_site_fract_y
 _atom_site_fract_z
 _atom_site_occupancy
  Zr  Zr0  1  0.719427  0.285805  0.285805  1
  Zr  Zr1  1  0.280573  0.714195  0.714195  1
  Zr  Zr2  1  0.280573  0.714195  0.291036  1
  Zr  Zr3  1  0.719427  0.285805  0.708964  1
  Zr  Zr4  1  0.280573  0.291036  0.714195  1
  Zr  Zr5  1  0.719427  0.708964  0.285805  1
  Zn  Zn6  1  0.633392  0.122203  0.122203  1
  Zn  Zn7  1  0.366608  0.877797  0.877797  1
  Zn  Zn8  1  0.330007  0.334469  0.334469  1
  Zn  Zn9  1  0.669993  0.665531  0.665531  1
  Zn  Zn10  1  0.330007  0.334469  0.001058  1
  Zn  Zn11  1  0.330007  0.001058  0.334469  1
  Zn  Zn12  1  0.669993  0.665531  0.998942  1
  Zn  Zn13  1  0.669993  0.998942  0.665531  1
  Zn  Zn14  1  0.011596  0.329468  0.329468  1
  Zn  Zn15  1  0.988404  0.670532  0.670532  1
  Zn  Zn16  1  0.000000  0.000000  0.000000  1
  Cu  Cu17  1  0.121163  0.121035  0.121035  1
  Cu  Cu18  1  0.878837  0.878965  0.878965  1
  Cu  Cu19  1  0.121163  0.121035  0.636768  1
  Cu  Cu20  1  0.121163  0.636768  0.121035  1
  Cu  Cu21  1  0.878837  0.878965  0.363232  1
  Cu  Cu22  1  0.878837  0.363232  0.878965  1
  Cu  Cu23  1  0.500000  0.000000  0.000000  1
  Cu  Cu24  1  0.000000  0.500000  0.500000  1
  Cu  Cu25  1  0.000000  0.500000  0.000000  1
  Cu  Cu26  1  0.500000  0.000000  0.500000  1
  Cu  Cu27  1  0.000000  0.000000  0.500000  1
  Cu  Cu28  1  0.500000  0.500000  0.000000  1
  P  P29  1  0.500000  0.500000  0.500000  1
