# generated using pymatgen
data_Ce(HoCu8)3
_symmetry_space_group_name_H-M   'P 1'
_cell_length_a   4.90818000
_cell_length_b   8.01893976
_cell_length_c   10.28258000
_cell_angle_alpha   90.13346264
_cell_angle_beta   90.00000000
_cell_angle_gamma   90.00000000
_symmetry_Int_Tables_number   1
_chemical_formula_structural   Ce(HoCu8)3
_chemical_formula_sum   'Ce1 Ho3 Cu24'
_cell_volume   404.70479591
_cell_formula_units_Z   1
loop_
 _symmetry_equiv_pos_site_id
 _symmetry_equiv_pos_as_xyz
  1  'x, y, z'
loop_
 _atom_site_type_symbol
 _atom_site_label
 _atom_site_symmetry_multiplicity
 _atom_site_fract_x
 _atom_site_fract_y
 _atom_site_fract_z
 _atom_site_occupancy
  Ce  Ce0  1  0.250000  0.758562  0.064935  1
  Ho  Ho1  1  0.750000  0.240513  0.930320  1
  Ho  Ho2  1  0.750000  0.741852  0.567486  1
  Ho  Ho3  1  0.250000  0.259705  0.432173  1
  Cu  Cu4  1  0.250000  0.817369  0.749981  1
  Cu  Cu5  1  0.750000  0.182756  0.250816  1
  Cu  Cu6  1  0.750000  0.682608  0.252986  1
  Cu  Cu7  1  0.250000  0.317958  0.746325  1
  Cu  Cu8  1  0.505333  0.567267  0.808203  1
  Cu  Cu9  1  0.495019  0.431473  0.192254  1
  Cu  Cu10  1  0.495149  0.932755  0.309798  1
  Cu  Cu11  1  0.004981  0.431473  0.192254  1
  Cu  Cu12  1  0.504860  0.067764  0.691358  1
  Cu  Cu13  1  0.994667  0.567267  0.808203  1
  Cu  Cu14  1  0.995140  0.067764  0.691358  1
  Cu  Cu15  1  0.004851  0.932755  0.309798  1
  Cu  Cu16  1  0.250000  0.906265  0.515803  1
  Cu  Cu17  1  0.750000  0.095452  0.484986  1
  Cu  Cu18  1  0.750000  0.588614  0.015787  1
  Cu  Cu19  1  0.250000  0.400206  0.983298  1
  Cu  Cu20  1  0.250000  0.556557  0.593083  1
  Cu  Cu21  1  0.750000  0.443731  0.407455  1
  Cu  Cu22  1  0.750000  0.948901  0.093283  1
  Cu  Cu23  1  0.250000  0.059372  0.906219  1
  Cu  Cu24  1  0.250000  0.641456  0.359828  1
  Cu  Cu25  1  0.750000  0.357541  0.640720  1
  Cu  Cu26  1  0.750000  0.858327  0.858554  1
  Cu  Cu27  1  0.250000  0.143734  0.142743  1
