# generated using pymatgen
data_Dy11Er(Si2Ni)4
_symmetry_space_group_name_H-M   'P 1'
_cell_length_a   4.12448600
_cell_length_b   11.23228327
_cell_length_c   11.28201929
_cell_angle_alpha   90.07290510
_cell_angle_beta   90.00000000
_cell_angle_gamma   90.00000000
_symmetry_Int_Tables_number   1
_chemical_formula_structural   Dy11Er(Si2Ni)4
_chemical_formula_sum   'Dy11 Er1 Si8 Ni4'
_cell_volume   522.66614184
_cell_formula_units_Z   1
loop_
 _symmetry_equiv_pos_site_id
 _symmetry_equiv_pos_as_xyz
  1  'x, y, z'
loop_
 _atom_site_type_symbol
 _atom_site_label
 _atom_site_symmetry_multiplicity
 _atom_site_fract_x
 _atom_site_fract_y
 _atom_site_fract_z
 _atom_site_occupancy
  Dy  Dy0  1  0.250000  0.440393  0.382220  1
  Dy  Dy1  1  0.750000  0.940462  0.117602  1
  Dy  Dy2  1  0.750000  0.559567  0.617748  1
  Dy  Dy3  1  0.250000  0.124862  0.558335  1
  Dy  Dy4  1  0.250000  0.374769  0.057463  1
  Dy  Dy5  1  0.750000  0.875322  0.442323  1
  Dy  Dy6  1  0.750000  0.624900  0.942189  1
  Dy  Dy7  1  0.250000  0.804277  0.714527  1
  Dy  Dy8  1  0.250000  0.696108  0.214284  1
  Dy  Dy9  1  0.750000  0.195915  0.285480  1
  Dy  Dy10  1  0.750000  0.303409  0.785555  1
  Er  Er11  1  0.250000  0.058882  0.882779  1
  Si  Si12  1  0.250000  0.813927  0.974828  1
  Si  Si13  1  0.250000  0.686573  0.474999  1
  Si  Si14  1  0.750000  0.185817  0.024270  1
  Si  Si15  1  0.750000  0.313398  0.524970  1
  Si  Si16  1  0.250000  0.495302  0.803550  1
  Si  Si17  1  0.250000  0.004652  0.303539  1
  Si  Si18  1  0.750000  0.504665  0.196389  1
  Si  Si19  1  0.750000  0.996094  0.697486  1
  Ni  Ni20  1  0.250000  0.366277  0.629622  1
  Ni  Ni21  1  0.250000  0.133684  0.129252  1
  Ni  Ni22  1  0.750000  0.633900  0.370235  1
  Ni  Ni23  1  0.750000  0.866843  0.870356  1
