# generated using pymatgen
data_La2Tm2P7Ir8
_symmetry_space_group_name_H-M   'P 1'
_cell_length_a   3.96016400
_cell_length_b   12.82632801
_cell_length_c   13.18940581
_cell_angle_alpha   80.99068713
_cell_angle_beta   90.00000000
_cell_angle_gamma   90.00000000
_symmetry_Int_Tables_number   1
_chemical_formula_structural   La2Tm2P7Ir8
_chemical_formula_sum   'La4 Tm4 P14 Ir16'
_cell_volume   661.68225071
_cell_formula_units_Z   2
loop_
 _symmetry_equiv_pos_site_id
 _symmetry_equiv_pos_as_xyz
  1  'x, y, z'
loop_
 _atom_site_type_symbol
 _atom_site_label
 _atom_site_symmetry_multiplicity
 _atom_site_fract_x
 _atom_site_fract_y
 _atom_site_fract_z
 _atom_site_occupancy
  La  La0  1  0.750000  0.719160  0.896573  1
  La  La1  1  0.250000  0.106293  0.786400  1
  La  La2  1  0.750000  0.893707  0.213600  1
  La  La3  1  0.250000  0.280840  0.103427  1
  Tm  Tm4  1  0.750000  0.791803  0.559163  1
  Tm  Tm5  1  0.250000  0.208197  0.440837  1
  Tm  Tm6  1  0.750000  0.479153  0.705613  1
  Tm  Tm7  1  0.250000  0.520847  0.294387  1
  P  P8  1  0.250000  0.906780  0.412699  1
  P  P9  1  0.750000  0.472828  0.130420  1
  P  P10  1  0.250000  0.527172  0.869580  1
  P  P11  1  0.750000  0.093220  0.587301  1
  P  P12  1  0.250000  0.742225  0.083020  1
  P  P13  1  0.750000  0.257775  0.916980  1
  P  P14  1  0.750000  0.159002  0.285419  1
  P  P15  1  0.250000  0.840998  0.714581  1
  P  P16  1  0.250000  0.053017  0.099721  1
  P  P17  1  0.750000  0.946983  0.900279  1
  P  P18  1  0.250000  0.318052  0.685254  1
  P  P19  1  0.750000  0.681948  0.314746  1
  P  P20  1  0.250000  0.607822  0.565838  1
  P  P21  1  0.750000  0.392178  0.434162  1
  Ir  Ir22  1  0.250000  0.989641  0.575307  1
  Ir  Ir23  1  0.750000  0.010359  0.424693  1
  Ir  Ir24  1  0.250000  0.659819  0.725999  1
  Ir  Ir25  1  0.750000  0.340181  0.274001  1
  Ir  Ir26  1  0.250000  0.549378  0.050745  1
  Ir  Ir27  1  0.750000  0.450622  0.949255  1
  Ir  Ir28  1  0.250000  0.064845  0.274686  1
  Ir  Ir29  1  0.750000  0.935155  0.725314  1
  Ir  Ir30  1  0.250000  0.423016  0.521392  1
  Ir  Ir31  1  0.750000  0.576984  0.478608  1
  Ir  Ir32  1  0.250000  0.915829  0.998151  1
  Ir  Ir33  1  0.750000  0.084171  0.001849  1
  Ir  Ir34  1  0.250000  0.727661  0.399822  1
  Ir  Ir35  1  0.750000  0.272339  0.600178  1
  Ir  Ir36  1  0.250000  0.344576  0.854654  1
  Ir  Ir37  1  0.750000  0.655424  0.145346  1
