# generated using pymatgen
data_Ti8Al15PdRh6
_symmetry_space_group_name_H-M   'P 1'
_cell_length_a   8.67374076
_cell_length_b   8.65231321
_cell_length_c   8.66707524
_cell_angle_alpha   120.03047452
_cell_angle_beta   119.84915806
_cell_angle_gamma   90.08800042
_symmetry_Int_Tables_number   1
_chemical_formula_structural   Ti8Al15PdRh6
_chemical_formula_sum   'Ti8 Al15 Pd1 Rh6'
_cell_volume   460.41663100
_cell_formula_units_Z   1
loop_
 _symmetry_equiv_pos_site_id
 _symmetry_equiv_pos_as_xyz
  1  'x, y, z'
loop_
 _atom_site_type_symbol
 _atom_site_label
 _atom_site_symmetry_multiplicity
 _atom_site_fract_x
 _atom_site_fract_y
 _atom_site_fract_z
 _atom_site_occupancy
  Ti  Ti0  1  0.789531  0.289215  0.072486  1
  Ti  Ti1  1  0.217302  0.289213  0.499394  1
  Ti  Ti2  1  0.210484  0.709799  0.500257  1
  Ti  Ti3  1  0.216375  0.717308  0.927007  1
  Ti  Ti4  1  0.788875  0.716276  0.500728  1
  Ti  Ti5  1  0.782208  0.283930  0.499336  1
  Ti  Ti6  1  0.384837  0.124981  0.747757  1
  Ti  Ti7  1  0.379231  0.635325  0.256733  1
  Al  Al8  1  0.997380  0.497251  0.499904  1
  Al  Al9  1  0.153434  0.344542  0.191529  1
  Al  Al10  1  0.154816  0.962257  0.811035  1
  Al  Al11  1  0.151858  0.348968  0.805864  1
  Al  Al12  1  0.542572  0.346780  0.196161  1
  Al  Al13  1  0.845750  0.652602  0.806867  1
  Al  Al14  1  0.844537  0.039582  0.190468  1
  Al  Al15  1  0.842483  0.651222  0.187050  1
  Al  Al16  1  0.464568  0.653991  0.809998  1
  Al  Al17  1  0.379046  0.121911  0.257573  1
  Al  Al18  1  0.863020  0.123151  0.745372  1
  Al  Al19  1  0.618062  0.876432  0.253700  1
  Al  Al20  1  0.621186  0.365443  0.743589  1
  Al  Al21  1  0.620730  0.877588  0.742548  1
  Al  Al22  1  0.136365  0.877054  0.254816  1
  Pd  Pd23  1  0.000058  0.999616  0.500538  1
  Rh  Rh24  1  0.498978  0.000089  0.999462  1
  Rh  Rh25  1  0.497571  0.497853  0.000510  1
  Rh  Rh26  1  0.498366  0.499557  0.498160  1
  Rh  Rh27  1  0.001381  0.499259  0.001163  1
  Rh  Rh28  1  0.999183  0.999341  0.999761  1
  Rh  Rh29  1  0.499811  0.999463  0.500233  1
