# generated using pymatgen
data_ErLu3B12RhW
_symmetry_space_group_name_H-M   'P 1'
_cell_length_a   3.59199600
_cell_length_b   9.11464117
_cell_length_c   11.52437400
_cell_angle_alpha   90.38736384
_cell_angle_beta   90.00000000
_cell_angle_gamma   90.00000000
_symmetry_Int_Tables_number   1
_chemical_formula_structural   ErLu3B12RhW
_chemical_formula_sum   'Er2 Lu6 B24 Rh2 W2'
_cell_volume   377.29655390
_cell_formula_units_Z   2
loop_
 _symmetry_equiv_pos_site_id
 _symmetry_equiv_pos_as_xyz
  1  'x, y, z'
loop_
 _atom_site_type_symbol
 _atom_site_label
 _atom_site_symmetry_multiplicity
 _atom_site_fract_x
 _atom_site_fract_y
 _atom_site_fract_z
 _atom_site_occupancy
  Er  Er0  1  0.500000  0.318562  0.412259  1
  Er  Er1  1  0.500000  0.681438  0.587741  1
  Lu  Lu2  1  0.500000  0.176221  0.916620  1
  Lu  Lu3  1  0.500000  0.823779  0.083380  1
  Lu  Lu4  1  0.500000  0.444808  0.126932  1
  Lu  Lu5  1  0.500000  0.555192  0.873068  1
  Lu  Lu6  1  0.500000  0.055536  0.627156  1
  Lu  Lu7  1  0.500000  0.944464  0.372844  1
  B  B8  1  0.000000  0.104923  0.472429  1
  B  B9  1  0.000000  0.895077  0.527571  1
  B  B10  1  0.000000  0.395489  0.970373  1
  B  B11  1  0.000000  0.604511  0.029627  1
  B  B12  1  0.000000  0.131491  0.318273  1
  B  B13  1  0.000000  0.868509  0.681727  1
  B  B14  1  0.000000  0.368089  0.816653  1
  B  B15  1  0.000000  0.631911  0.183347  1
  B  B16  1  0.000000  0.051120  0.065162  1
  B  B17  1  0.000000  0.948880  0.934838  1
  B  B18  1  0.000000  0.446358  0.565955  1
  B  B19  1  0.000000  0.553642  0.434045  1
  B  B20  1  0.000000  0.482907  0.287850  1
  B  B21  1  0.000000  0.517093  0.712150  1
  B  B22  1  0.000000  0.022724  0.786430  1
  B  B23  1  0.000000  0.977276  0.213570  1
  B  B24  1  0.000000  0.251694  0.077812  1
  B  B25  1  0.000000  0.748306  0.922188  1
  B  B26  1  0.000000  0.249375  0.579571  1
  B  B27  1  0.000000  0.750625  0.420429  1
  B  B28  1  0.000000  0.297153  0.236623  1
  B  B29  1  0.000000  0.702847  0.763377  1
  B  B30  1  0.000000  0.208408  0.734950  1
  B  B31  1  0.000000  0.791592  0.265050  1
  Rh  Rh32  1  0.500000  0.361109  0.678889  1
  Rh  Rh33  1  0.500000  0.638891  0.321111  1
  W  W34  1  0.500000  0.139015  0.180868  1
  W  W35  1  0.500000  0.860985  0.819132  1
