# generated using pymatgen
data_Dy18Y2Cd3Hg3Ru2
_symmetry_space_group_name_H-M   'P 1'
_cell_length_a   9.61013300
_cell_length_b   9.61013245
_cell_length_c   9.79815500
_cell_angle_alpha   90.00000000
_cell_angle_beta   90.00000000
_cell_angle_gamma   120.00025444
_symmetry_Int_Tables_number   1
_chemical_formula_structural   Dy18Y2Cd3Hg3Ru2
_chemical_formula_sum   'Dy18 Y2 Cd3 Hg3 Ru2'
_cell_volume   783.66886958
_cell_formula_units_Z   1
loop_
 _symmetry_equiv_pos_site_id
 _symmetry_equiv_pos_as_xyz
  1  'x, y, z'
loop_
 _atom_site_type_symbol
 _atom_site_label
 _atom_site_symmetry_multiplicity
 _atom_site_fract_x
 _atom_site_fract_y
 _atom_site_fract_z
 _atom_site_occupancy
  Dy  Dy0  1  0.999991  0.000009  0.491487  1
  Dy  Dy1  1  0.999991  0.000009  0.008513  1
  Dy  Dy2  1  0.209473  0.790527  0.439078  1
  Dy  Dy3  1  0.209567  0.419004  0.439151  1
  Dy  Dy4  1  0.580996  0.790433  0.439151  1
  Dy  Dy5  1  0.790252  0.209748  0.559787  1
  Dy  Dy6  1  0.790176  0.580520  0.559838  1
  Dy  Dy7  1  0.419480  0.209824  0.559838  1
  Dy  Dy8  1  0.790252  0.209748  0.940213  1
  Dy  Dy9  1  0.790176  0.580520  0.940162  1
  Dy  Dy10  1  0.419480  0.209824  0.940162  1
  Dy  Dy11  1  0.209473  0.790527  0.060922  1
  Dy  Dy12  1  0.209567  0.419004  0.060849  1
  Dy  Dy13  1  0.580996  0.790433  0.060849  1
  Dy  Dy14  1  0.541278  0.458722  0.250000  1
  Dy  Dy15  1  0.541275  0.082550  0.250000  1
  Dy  Dy16  1  0.917450  0.458725  0.250000  1
  Dy  Dy17  1  0.458904  0.541096  0.750000  1
  Y  Y18  1  0.458811  0.917599  0.750000  1
  Y  Y19  1  0.082401  0.541189  0.750000  1
  Cd  Cd20  1  0.113386  0.886614  0.750000  1
  Cd  Cd21  1  0.113474  0.226835  0.750000  1
  Cd  Cd22  1  0.773165  0.886526  0.750000  1
  Hg  Hg23  1  0.879862  0.120138  0.250000  1
  Hg  Hg24  1  0.879856  0.759705  0.250000  1
  Hg  Hg25  1  0.240295  0.120144  0.250000  1
  Ru  Ru26  1  0.333346  0.666654  0.250000  1
  Ru  Ru27  1  0.666626  0.333374  0.750000  1
