# generated using pymatgen
data_La2Pr4OsO12
_symmetry_space_group_name_H-M   'P 1'
_cell_length_a   6.82423918
_cell_length_b   6.78831603
_cell_length_c   6.78803060
_cell_angle_alpha   98.38662693
_cell_angle_beta   98.53032247
_cell_angle_gamma   98.42467618
_symmetry_Int_Tables_number   1
_chemical_formula_structural   La2Pr4OsO12
_chemical_formula_sum   'La2 Pr4 Os1 O12'
_cell_volume   303.07443640
_cell_formula_units_Z   1
loop_
 _symmetry_equiv_pos_site_id
 _symmetry_equiv_pos_as_xyz
  1  'x, y, z'
loop_
 _atom_site_type_symbol
 _atom_site_label
 _atom_site_symmetry_multiplicity
 _atom_site_fract_x
 _atom_site_fract_y
 _atom_site_fract_z
 _atom_site_occupancy
  La  La0  1  0.601975  0.142223  0.303495  1
  La  La1  1  0.855783  0.691740  0.393416  1
  Pr  Pr2  1  0.144305  0.308806  0.614229  1
  Pr  Pr3  1  0.391679  0.857180  0.697941  1
  Pr  Pr4  1  0.690148  0.385843  0.854804  1
  Pr  Pr5  1  0.308303  0.611683  0.145178  1
  Os  Os6  1  0.000380  0.999765  0.999536  1
  O  O7  1  0.066957  0.285252  0.968687  1
  O  O8  1  0.035199  0.936166  0.716532  1
  O  O9  1  0.405437  0.556784  0.823135  1
  O  O10  1  0.175497  0.592300  0.441641  1
  O  O11  1  0.711287  0.035008  0.930157  1
  O  O12  1  0.439113  0.177221  0.594933  1
  O  O13  1  0.559449  0.821857  0.407673  1
  O  O14  1  0.289880  0.960173  0.063913  1
  O  O15  1  0.822781  0.406627  0.560386  1
  O  O16  1  0.594043  0.442271  0.179010  1
  O  O17  1  0.974669  0.071928  0.280104  1
  O  O18  1  0.933116  0.717172  0.025228  1
