# generated using pymatgen
data_Yb2GaCuRu2
_symmetry_space_group_name_H-M   'P 1'
_cell_length_a   5.25164887
_cell_length_b   5.20224427
_cell_length_c   5.20224497
_cell_angle_alpha   59.90901845
_cell_angle_beta   61.87437771
_cell_angle_gamma   61.87437167
_symmetry_Int_Tables_number   1
_chemical_formula_structural   Yb2GaCuRu2
_chemical_formula_sum   'Yb2 Ga1 Cu1 Ru2'
_cell_volume   103.17794197
_cell_formula_units_Z   1
loop_
 _symmetry_equiv_pos_site_id
 _symmetry_equiv_pos_as_xyz
  1  'x, y, z'
loop_
 _atom_site_type_symbol
 _atom_site_label
 _atom_site_symmetry_multiplicity
 _atom_site_fract_x
 _atom_site_fract_y
 _atom_site_fract_z
 _atom_site_occupancy
  Yb  Yb0  1  0.128490  0.120670  0.120670  1
  Yb  Yb1  1  0.871510  0.879330  0.879330  1
  Ga  Ga2  1  0.500000  0.500000  0.500000  1
  Cu  Cu3  1  0.000000  0.500000  0.500000  1
  Ru  Ru4  1  0.500000  0.000000  0.500000  1
  Ru  Ru5  1  0.500000  0.500000  0.000000  1
