# generated using pymatgen
data_Ho2Ga2Cu3Si2Ni
_symmetry_space_group_name_H-M   'P 1'
_cell_length_a   3.99847900
_cell_length_b   3.99847900
_cell_length_c   10.00653600
_cell_angle_alpha   90.00000000
_cell_angle_beta   90.00000000
_cell_angle_gamma   90.00000000
_symmetry_Int_Tables_number   1
_chemical_formula_structural   Ho2Ga2Cu3Si2Ni
_chemical_formula_sum   'Ho2 Ga2 Cu3 Si2 Ni1'
_cell_volume   159.98283962
_cell_formula_units_Z   1
loop_
 _symmetry_equiv_pos_site_id
 _symmetry_equiv_pos_as_xyz
  1  'x, y, z'
loop_
 _atom_site_type_symbol
 _atom_site_label
 _atom_site_symmetry_multiplicity
 _atom_site_fract_x
 _atom_site_fract_y
 _atom_site_fract_z
 _atom_site_occupancy
  Ho  Ho0  1  0.000000  0.500000  0.762320  1
  Ho  Ho1  1  0.500000  0.000000  0.237680  1
  Ga  Ga2  1  0.500000  0.500000  0.500000  1
  Ga  Ga3  1  0.000000  0.000000  0.500000  1
  Cu  Cu4  1  0.500000  0.000000  0.645223  1
  Cu  Cu5  1  0.500000  0.500000  0.000000  1
  Cu  Cu6  1  0.000000  0.500000  0.354777  1
  Si  Si7  1  0.000000  0.500000  0.124884  1
  Si  Si8  1  0.500000  0.000000  0.875116  1
  Ni  Ni9  1  0.000000  0.000000  0.000000  1
