# generated using pymatgen
data_Y2TiCo9As7Ru2
_symmetry_space_group_name_H-M   'P 1'
_cell_length_a   3.80372600
_cell_length_b   9.41368950
_cell_length_c   9.41081135
_cell_angle_alpha   119.69874535
_cell_angle_beta   90.00000000
_cell_angle_gamma   90.00000000
_symmetry_Int_Tables_number   1
_chemical_formula_structural   Y2TiCo9As7Ru2
_chemical_formula_sum   'Y2 Ti1 Co9 As7 Ru2'
_cell_volume   292.70973620
_cell_formula_units_Z   1
loop_
 _symmetry_equiv_pos_site_id
 _symmetry_equiv_pos_as_xyz
  1  'x, y, z'
loop_
 _atom_site_type_symbol
 _atom_site_label
 _atom_site_symmetry_multiplicity
 _atom_site_fract_x
 _atom_site_fract_y
 _atom_site_fract_z
 _atom_site_occupancy
  Y  Y0  1  0.000000  0.667641  0.335623  1
  Y  Y1  1  0.500000  0.331339  0.664784  1
  Ti  Ti2  1  0.500000  0.783139  0.894472  1
  Co  Co3  1  0.000000  0.568953  0.940723  1
  Co  Co4  1  0.000000  0.370649  0.429902  1
  Co  Co5  1  0.000000  0.059380  0.629485  1
  Co  Co6  1  0.000000  0.876869  0.158702  1
  Co  Co7  1  0.000000  0.284033  0.125338  1
  Co  Co8  1  0.000000  0.843499  0.721537  1
  Co  Co9  1  0.500000  0.947653  0.384076  1
  Co  Co10  1  0.500000  0.433584  0.052333  1
  Co  Co11  1  0.500000  0.618192  0.565591  1
  As  As12  1  0.000000  0.006644  0.004157  1
  As  As13  1  0.500000  0.706222  0.119654  1
  As  As14  1  0.500000  0.409466  0.291692  1
  As  As15  1  0.500000  0.882088  0.590231  1
  As  As16  1  0.000000  0.583442  0.698278  1
  As  As17  1  0.000000  0.113021  0.411499  1
  As  As18  1  0.000000  0.298985  0.887116  1
  Ru  Ru19  1  0.500000  0.118409  0.217922  1
  Ru  Ru20  1  0.500000  0.096792  0.876885  1
