# generated using pymatgen
data_Lu12In2Fe2Rh
_symmetry_space_group_name_H-M   'P 1'
_cell_length_a   8.19481670
_cell_length_b   8.19481732
_cell_length_c   8.19481771
_cell_angle_alpha   108.58957729
_cell_angle_beta   108.58957971
_cell_angle_gamma   111.24926627
_symmetry_Int_Tables_number   1
_chemical_formula_structural   Lu12In2Fe2Rh
_chemical_formula_sum   'Lu12 In2 Fe2 Rh1'
_cell_volume   423.33196367
_cell_formula_units_Z   1
loop_
 _symmetry_equiv_pos_site_id
 _symmetry_equiv_pos_as_xyz
  1  'x, y, z'
loop_
 _atom_site_type_symbol
 _atom_site_label
 _atom_site_symmetry_multiplicity
 _atom_site_fract_x
 _atom_site_fract_y
 _atom_site_fract_z
 _atom_site_occupancy
  Lu  Lu0  1  0.307661  0.307661  0.615322  1
  Lu  Lu1  1  0.692339  0.692339  0.384678  1
  Lu  Lu2  1  0.692339  0.307661  0.000000  1
  Lu  Lu3  1  0.307661  0.692339  0.000000  1
  Lu  Lu4  1  0.194647  0.433399  0.238752  1
  Lu  Lu5  1  0.805353  0.566601  0.761248  1
  Lu  Lu6  1  0.194647  0.955895  0.761248  1
  Lu  Lu7  1  0.955895  0.194647  0.761248  1
  Lu  Lu8  1  0.805353  0.044105  0.238752  1
  Lu  Lu9  1  0.044105  0.805353  0.238752  1
  Lu  Lu10  1  0.433399  0.194647  0.238752  1
  Lu  Lu11  1  0.566601  0.805353  0.761248  1
  In  In12  1  0.000000  0.500000  0.500000  1
  In  In13  1  0.500000  0.000000  0.500000  1
  Fe  Fe14  1  0.384061  0.384061  0.000000  1
  Fe  Fe15  1  0.615939  0.615939  0.000000  1
  Rh  Rh16  1  0.000000  0.000000  0.000000  1
