# generated using pymatgen
data_Ce8Cu3Si12Rh
_symmetry_space_group_name_H-M   'P 1'
_cell_length_a   8.11412700
_cell_length_b   8.11412752
_cell_length_c   8.37795800
_cell_angle_alpha   90.00000000
_cell_angle_beta   90.00000000
_cell_angle_gamma   119.99999381
_symmetry_Int_Tables_number   1
_chemical_formula_structural   Ce8Cu3Si12Rh
_chemical_formula_sum   'Ce8 Cu3 Si12 Rh1'
_cell_volume   477.69694867
_cell_formula_units_Z   1
loop_
 _symmetry_equiv_pos_site_id
 _symmetry_equiv_pos_as_xyz
  1  'x, y, z'
loop_
 _atom_site_type_symbol
 _atom_site_label
 _atom_site_symmetry_multiplicity
 _atom_site_fract_x
 _atom_site_fract_y
 _atom_site_fract_z
 _atom_site_occupancy
  Ce  Ce0  1  0.000000  0.000000  0.250455  1
  Ce  Ce1  1  0.000000  0.000000  0.749507  1
  Ce  Ce2  1  0.498616  0.501384  0.247664  1
  Ce  Ce3  1  0.498616  0.997232  0.247664  1
  Ce  Ce4  1  0.002768  0.501384  0.247664  1
  Ce  Ce5  1  0.497778  0.502222  0.752297  1
  Ce  Ce6  1  0.497778  0.995555  0.752297  1
  Ce  Ce7  1  0.004445  0.502222  0.752297  1
  Cu  Cu8  1  0.333333  0.666667  0.499140  1
  Cu  Cu9  1  0.666667  0.333333  0.503553  1
  Cu  Cu10  1  0.666667  0.333333  0.997368  1
  Si  Si11  1  0.168170  0.831830  0.499491  1
  Si  Si12  1  0.168170  0.336341  0.499491  1
  Si  Si13  1  0.663659  0.831830  0.499491  1
  Si  Si14  1  0.831270  0.168730  0.500623  1
  Si  Si15  1  0.831270  0.662539  0.500623  1
  Si  Si16  1  0.337461  0.168730  0.500623  1
  Si  Si17  1  0.832036  0.167964  0.999263  1
  Si  Si18  1  0.832036  0.664071  0.999263  1
  Si  Si19  1  0.335929  0.167964  0.999263  1
  Si  Si20  1  0.165128  0.834872  0.000625  1
  Si  Si21  1  0.165128  0.330257  0.000625  1
  Si  Si22  1  0.669743  0.834872  0.000625  1
  Rh  Rh23  1  0.333333  0.666667  0.000091  1
