# generated using pymatgen
data_Ce4Si10OsPt5
_symmetry_space_group_name_H-M   'P 1'
_cell_length_a   8.23346104
_cell_length_b   8.23710600
_cell_length_c   6.04636604
_cell_angle_alpha   68.47279776
_cell_angle_beta   68.46065783
_cell_angle_gamma   89.77270546
_symmetry_Int_Tables_number   1
_chemical_formula_structural   Ce4Si10OsPt5
_chemical_formula_sum   'Ce4 Si10 Os1 Pt5'
_cell_volume   350.74589762
_cell_formula_units_Z   1
loop_
 _symmetry_equiv_pos_site_id
 _symmetry_equiv_pos_as_xyz
  1  'x, y, z'
loop_
 _atom_site_type_symbol
 _atom_site_label
 _atom_site_symmetry_multiplicity
 _atom_site_fract_x
 _atom_site_fract_y
 _atom_site_fract_z
 _atom_site_occupancy
  Ce  Ce0  1  0.861747  0.600813  0.766957  1
  Ce  Ce1  1  0.399199  0.138261  0.733044  1
  Ce  Ce2  1  0.138291  0.399265  0.229120  1
  Ce  Ce3  1  0.600751  0.861722  0.270868  1
  Si  Si4  1  0.039529  0.260771  0.853788  1
  Si  Si5  1  0.739224  0.960577  0.646115  1
  Si  Si6  1  0.960487  0.739344  0.154415  1
  Si  Si7  1  0.260633  0.039575  0.345592  1
  Si  Si8  1  0.228224  0.771794  0.750054  1
  Si  Si9  1  0.777529  0.222466  0.250053  1
  Si  Si10  1  0.499977  0.499908  0.750084  1
  Si  Si11  1  0.499923  0.499937  0.250041  1
  Si  Si12  1  0.771775  0.228218  0.749942  1
  Si  Si13  1  0.222600  0.777428  0.249929  1
  Os  Os14  1  0.999947  0.000108  0.250019  1
  Pt  Pt15  1  0.252136  0.526766  0.608185  1
  Pt  Pt16  1  0.473246  0.747862  0.891817  1
  Pt  Pt17  1  0.747979  0.473250  0.387036  1
  Pt  Pt18  1  0.526741  0.251987  0.112997  1
  Pt  Pt19  1  0.000064  0.999946  0.749943  1
