# generated using pymatgen
data_Ho4Tm3Pa(ReB6)4
_symmetry_space_group_name_H-M   'P 1'
_cell_length_a   3.67276000
_cell_length_b   9.13301720
_cell_length_c   11.50393103
_cell_angle_alpha   90.15375502
_cell_angle_beta   90.00000000
_cell_angle_gamma   90.00000000
_symmetry_Int_Tables_number   1
_chemical_formula_structural   Ho4Tm3Pa(ReB6)4
_chemical_formula_sum   'Ho4 Tm3 Pa1 Re4 B24'
_cell_volume   385.87934337
_cell_formula_units_Z   1
loop_
 _symmetry_equiv_pos_site_id
 _symmetry_equiv_pos_as_xyz
  1  'x, y, z'
loop_
 _atom_site_type_symbol
 _atom_site_label
 _atom_site_symmetry_multiplicity
 _atom_site_fract_x
 _atom_site_fract_y
 _atom_site_fract_z
 _atom_site_occupancy
  Ho  Ho0  1  0.000000  0.679376  0.586980  1
  Ho  Ho1  1  0.000000  0.823022  0.085247  1
  Ho  Ho2  1  0.000000  0.176142  0.913405  1
  Ho  Ho3  1  0.000000  0.942601  0.371824  1
  Tm  Tm4  1  0.000000  0.055418  0.629655  1
  Tm  Tm5  1  0.000000  0.443528  0.127332  1
  Tm  Tm6  1  0.000000  0.557173  0.870358  1
  Pa  Pa7  1  0.000000  0.323245  0.414143  1
  Re  Re8  1  0.000000  0.635175  0.321500  1
  Re  Re9  1  0.000000  0.361986  0.676875  1
  Re  Re10  1  0.000000  0.141662  0.181507  1
  Re  Re11  1  0.000000  0.861323  0.820896  1
  B  B12  1  0.500000  0.552594  0.432125  1
  B  B13  1  0.500000  0.445734  0.567258  1
  B  B14  1  0.500000  0.054022  0.067248  1
  B  B15  1  0.500000  0.946907  0.933550  1
  B  B16  1  0.500000  0.748681  0.418614  1
  B  B17  1  0.500000  0.250269  0.581376  1
  B  B18  1  0.500000  0.249624  0.080481  1
  B  B19  1  0.500000  0.750320  0.919048  1
  B  B20  1  0.500000  0.791314  0.265577  1
  B  B21  1  0.500000  0.207780  0.734869  1
  B  B22  1  0.500000  0.292426  0.234276  1
  B  B23  1  0.500000  0.707778  0.765730  1
  B  B24  1  0.500000  0.630539  0.184310  1
  B  B25  1  0.500000  0.369987  0.814518  1
  B  B26  1  0.500000  0.131961  0.314858  1
  B  B27  1  0.500000  0.869166  0.685817  1
  B  B28  1  0.500000  0.982598  0.212074  1
  B  B29  1  0.500000  0.017951  0.787965  1
  B  B30  1  0.500000  0.482369  0.286918  1
  B  B31  1  0.500000  0.518192  0.713131  1
  B  B32  1  0.500000  0.600616  0.027448  1
  B  B33  1  0.500000  0.399455  0.971202  1
  B  B34  1  0.500000  0.103870  0.471987  1
  B  B35  1  0.500000  0.895197  0.529897  1
