# generated using pymatgen
data_Zr6Zn12Cu11Se
_symmetry_space_group_name_H-M   'P 1'
_cell_length_a   8.60447708
_cell_length_b   8.58453506
_cell_length_c   8.57227000
_cell_angle_alpha   60.04725105
_cell_angle_beta   60.12374241
_cell_angle_gamma   60.16040490
_symmetry_Int_Tables_number   1
_chemical_formula_structural   Zr6Zn12Cu11Se
_chemical_formula_sum   'Zr6 Zn12 Cu11 Se1'
_cell_volume   448.85577499
_cell_formula_units_Z   1
loop_
 _symmetry_equiv_pos_site_id
 _symmetry_equiv_pos_as_xyz
  1  'x, y, z'
loop_
 _atom_site_type_symbol
 _atom_site_label
 _atom_site_symmetry_multiplicity
 _atom_site_fract_x
 _atom_site_fract_y
 _atom_site_fract_z
 _atom_site_occupancy
  Zr  Zr0  1  0.721397  0.278280  0.287657  1
  Zr  Zr1  1  0.274351  0.720887  0.720944  1
  Zr  Zr2  1  0.274351  0.720887  0.283817  1
  Zr  Zr3  1  0.721397  0.278280  0.712668  1
  Zr  Zr4  1  0.284134  0.283054  0.716406  1
  Zr  Zr5  1  0.725417  0.715964  0.279310  1
  Zn  Zn6  1  0.881569  0.362766  0.877832  1
  Zn  Zn7  1  0.633370  0.121173  0.122729  1
  Zn  Zn8  1  0.367905  0.878133  0.876980  1
  Zn  Zn9  1  0.329261  0.334707  0.333768  1
  Zn  Zn10  1  0.667516  0.668206  0.662888  1
  Zn  Zn11  1  0.329261  0.334707  0.002264  1
  Zn  Zn12  1  0.328895  0.002870  0.334118  1
  Zn  Zn13  1  0.667516  0.668206  0.001390  1
  Zn  Zn14  1  0.672395  0.992717  0.667444  1
  Zn  Zn15  1  0.011074  0.330036  0.329445  1
  Zn  Zn16  1  0.992266  0.673416  0.667159  1
  Zn  Zn17  1  0.002874  0.990599  0.003264  1
  Cu  Cu18  1  0.119630  0.121106  0.119945  1
  Cu  Cu19  1  0.878335  0.879394  0.878853  1
  Cu  Cu20  1  0.119630  0.121106  0.639319  1
  Cu  Cu21  1  0.122235  0.632601  0.122583  1
  Cu  Cu22  1  0.878335  0.879394  0.363416  1
  Cu  Cu23  1  0.498991  0.001557  0.999890  1
  Cu  Cu24  1  0.999250  0.500668  0.501047  1
  Cu  Cu25  1  0.999250  0.500668  0.999037  1
  Cu  Cu26  1  0.498991  0.001557  0.499564  1
  Cu  Cu27  1  0.999831  0.001871  0.499148  1
  Cu  Cu28  1  0.502342  0.499436  0.999111  1
  Se  Se29  1  0.498226  0.505757  0.498009  1
