# generated using pymatgen
data_La7(NdIr2)3
_symmetry_space_group_name_H-M   'P 1'
_cell_length_a   11.41051628
_cell_length_b   11.40182728
_cell_length_c   6.64526800
_cell_angle_alpha   90.00000000
_cell_angle_beta   90.00000000
_cell_angle_gamma   90.13807346
_symmetry_Int_Tables_number   1
_chemical_formula_structural   La7(NdIr2)3
_chemical_formula_sum   'La14 Nd6 Ir12'
_cell_volume   864.55174601
_cell_formula_units_Z   2
loop_
 _symmetry_equiv_pos_site_id
 _symmetry_equiv_pos_as_xyz
  1  'x, y, z'
loop_
 _atom_site_type_symbol
 _atom_site_label
 _atom_site_symmetry_multiplicity
 _atom_site_fract_x
 _atom_site_fract_y
 _atom_site_fract_z
 _atom_site_occupancy
  La  La0  1  0.092556  0.291527  0.111611  1
  La  La1  1  0.790611  0.410492  0.112305  1
  La  La2  1  0.209389  0.589508  0.112305  1
  La  La3  1  0.907444  0.708473  0.111611  1
  La  La4  1  0.409330  0.790870  0.388461  1
  La  La5  1  0.590670  0.209130  0.388461  1
  La  La6  1  0.290291  0.092114  0.388893  1
  La  La7  1  0.709709  0.907886  0.388893  1
  La  La8  1  0.408458  0.210196  0.887313  1
  La  La9  1  0.709541  0.090989  0.887887  1
  La  La10  1  0.290459  0.909011  0.887887  1
  La  La11  1  0.591542  0.789804  0.887313  1
  La  La12  1  0.089204  0.706848  0.611110  1
  La  La13  1  0.910796  0.293152  0.611110  1
  Nd  Nd14  1  0.209043  0.410301  0.612482  1
  Nd  Nd15  1  0.790957  0.589699  0.612482  1
  Nd  Nd16  1  0.000000  0.000000  0.001095  1
  Nd  Nd17  1  0.500000  0.500000  0.998238  1
  Nd  Nd18  1  0.500000  0.500000  0.500470  1
  Nd  Nd19  1  0.000000  0.000000  0.500732  1
  Ir  Ir20  1  0.153357  0.846256  0.249936  1
  Ir  Ir21  1  0.347672  0.346086  0.249799  1
  Ir  Ir22  1  0.652328  0.653914  0.249799  1
  Ir  Ir23  1  0.846643  0.153744  0.249936  1
  Ir  Ir24  1  0.345883  0.652879  0.748991  1
  Ir  Ir25  1  0.153698  0.153886  0.749874  1
  Ir  Ir26  1  0.846302  0.846114  0.749874  1
  Ir  Ir27  1  0.654117  0.347121  0.748991  1
  Ir  Ir28  1  0.000000  0.500000  0.379433  1
  Ir  Ir29  1  0.500000  0.000000  0.121247  1
  Ir  Ir30  1  0.500000  0.000000  0.620744  1
  Ir  Ir31  1  0.000000  0.500000  0.880716  1
