# generated using pymatgen
data_NaCd6O7
_symmetry_space_group_name_H-M   'P 1'
_cell_length_a   5.83017246
_cell_length_b   5.83017171
_cell_length_c   5.83017223
_cell_angle_alpha   99.66330744
_cell_angle_beta   99.66330299
_cell_angle_gamma   99.66332200
_symmetry_Int_Tables_number   1
_chemical_formula_structural   NaCd6O7
_chemical_formula_sum   'Na1 Cd6 O7'
_cell_volume   188.63011308
_cell_formula_units_Z   1
loop_
 _symmetry_equiv_pos_site_id
 _symmetry_equiv_pos_as_xyz
  1  'x, y, z'
loop_
 _atom_site_type_symbol
 _atom_site_label
 _atom_site_symmetry_multiplicity
 _atom_site_fract_x
 _atom_site_fract_y
 _atom_site_fract_z
 _atom_site_occupancy
  Na  Na0  1  0.000000  0.000000  0.000000  1
  Cd  Cd1  1  0.281436  0.141522  0.570495  1
  Cd  Cd2  1  0.141522  0.570495  0.281436  1
  Cd  Cd3  1  0.429505  0.718564  0.858478  1
  Cd  Cd4  1  0.570495  0.281436  0.141522  1
  Cd  Cd5  1  0.718564  0.858478  0.429505  1
  Cd  Cd6  1  0.858478  0.429505  0.718564  1
  O  O7  1  0.071401  0.779710  0.629684  1
  O  O8  1  0.500000  0.500000  0.500000  1
  O  O9  1  0.220290  0.370316  0.928599  1
  O  O10  1  0.928599  0.220290  0.370316  1
  O  O11  1  0.370316  0.928599  0.220290  1
  O  O12  1  0.629684  0.071401  0.779710  1
  O  O13  1  0.779710  0.629684  0.071401  1
