# generated using pymatgen
data_ScMnFeBO5
_symmetry_space_group_name_H-M   'P 1'
_cell_length_a   3.19904300
_cell_length_b   9.71079900
_cell_length_c   12.75072700
_cell_angle_alpha   90.00000000
_cell_angle_beta   90.00000000
_cell_angle_gamma   90.00000000
_symmetry_Int_Tables_number   1
_chemical_formula_structural   ScMnFeBO5
_chemical_formula_sum   'Sc4 Mn4 Fe4 B4 O20'
_cell_volume   396.10469490
_cell_formula_units_Z   4
loop_
 _symmetry_equiv_pos_site_id
 _symmetry_equiv_pos_as_xyz
  1  'x, y, z'
loop_
 _atom_site_type_symbol
 _atom_site_label
 _atom_site_symmetry_multiplicity
 _atom_site_fract_x
 _atom_site_fract_y
 _atom_site_fract_z
 _atom_site_occupancy
  Sc  Sc0  1  0.000000  0.743601  0.388369  1
  Sc  Sc1  1  0.000000  0.256399  0.611631  1
  Sc  Sc2  1  0.000000  0.243601  0.111631  1
  Sc  Sc3  1  0.000000  0.756399  0.888369  1
  Mn  Mn4  1  0.500000  0.503680  0.222917  1
  Mn  Mn5  1  0.500000  0.496320  0.777083  1
  Mn  Mn6  1  0.500000  0.003680  0.277083  1
  Mn  Mn7  1  0.500000  0.996320  0.722917  1
  Fe  Fe8  1  0.500000  0.500000  0.500000  1
  Fe  Fe9  1  0.500000  0.000000  0.000000  1
  Fe  Fe10  1  0.000000  0.000000  0.500000  1
  Fe  Fe11  1  0.000000  0.500000  0.000000  1
  B  B12  1  0.000000  0.771865  0.139049  1
  B  B13  1  0.000000  0.228135  0.860951  1
  B  B14  1  0.000000  0.271865  0.360951  1
  B  B15  1  0.000000  0.728135  0.639049  1
  O  O16  1  0.000000  0.844685  0.045076  1
  O  O17  1  0.000000  0.155315  0.954924  1
  O  O18  1  0.000000  0.344685  0.454924  1
  O  O19  1  0.000000  0.655315  0.545076  1
  O  O20  1  0.500000  0.610039  0.362816  1
  O  O21  1  0.500000  0.389961  0.637184  1
  O  O22  1  0.500000  0.110039  0.137184  1
  O  O23  1  0.500000  0.889961  0.862816  1
  O  O24  1  0.000000  0.628134  0.139655  1
  O  O25  1  0.000000  0.371866  0.860345  1
  O  O26  1  0.000000  0.128134  0.360345  1
  O  O27  1  0.000000  0.871866  0.639655  1
  O  O28  1  0.500000  0.885689  0.421481  1
  O  O29  1  0.500000  0.114311  0.578519  1
  O  O30  1  0.500000  0.385689  0.078519  1
  O  O31  1  0.500000  0.614311  0.921481  1
  O  O32  1  0.000000  0.842566  0.234494  1
  O  O33  1  0.000000  0.157434  0.765506  1
  O  O34  1  0.000000  0.342566  0.265506  1
  O  O35  1  0.000000  0.657434  0.734494  1
