# generated using pymatgen
data_Hf18FeCu(Mo3W)2
_symmetry_space_group_name_H-M   'P 1'
_cell_length_a   8.49658900
_cell_length_b   8.68333466
_cell_length_c   8.68333300
_cell_angle_alpha   120.00276337
_cell_angle_beta   90.00000000
_cell_angle_gamma   90.00000000
_symmetry_Int_Tables_number   1
_chemical_formula_structural   Hf18FeCu(Mo3W)2
_chemical_formula_sum   'Hf18 Fe1 Cu1 Mo6 W2'
_cell_volume   554.79960632
_cell_formula_units_Z   1
loop_
 _symmetry_equiv_pos_site_id
 _symmetry_equiv_pos_as_xyz
  1  'x, y, z'
loop_
 _atom_site_type_symbol
 _atom_site_label
 _atom_site_symmetry_multiplicity
 _atom_site_fract_x
 _atom_site_fract_y
 _atom_site_fract_z
 _atom_site_occupancy
  Hf  Hf0  1  0.554158  0.802501  0.605008  1
  Hf  Hf1  1  0.554179  0.802500  0.197500  1
  Hf  Hf2  1  0.554158  0.394992  0.197499  1
  Hf  Hf3  1  0.441082  0.202574  0.405140  1
  Hf  Hf4  1  0.441046  0.202573  0.797427  1
  Hf  Hf5  1  0.441082  0.594860  0.797426  1
  Hf  Hf6  1  0.058918  0.202574  0.405140  1
  Hf  Hf7  1  0.058954  0.202573  0.797427  1
  Hf  Hf8  1  0.058918  0.594860  0.797426  1
  Hf  Hf9  1  0.945842  0.802501  0.605008  1
  Hf  Hf10  1  0.945821  0.802500  0.197500  1
  Hf  Hf11  1  0.945842  0.394992  0.197499  1
  Hf  Hf12  1  0.750000  0.458093  0.916207  1
  Hf  Hf13  1  0.750000  0.458106  0.541894  1
  Hf  Hf14  1  0.750000  0.083793  0.541907  1
  Hf  Hf15  1  0.250000  0.541311  0.082612  1
  Hf  Hf16  1  0.250000  0.541306  0.458694  1
  Hf  Hf17  1  0.250000  0.917388  0.458689  1
  Fe  Fe18  1  0.250000  0.333362  0.666638  1
  Cu  Cu19  1  0.750000  0.666657  0.333343  1
  Mo  Mo20  1  0.750000  0.112182  0.224386  1
  Mo  Mo21  1  0.750000  0.112181  0.887819  1
  Mo  Mo22  1  0.750000  0.775614  0.887818  1
  Mo  Mo23  1  0.250000  0.887637  0.775264  1
  Mo  Mo24  1  0.250000  0.887638  0.112362  1
  Mo  Mo25  1  0.250000  0.224736  0.112363  1
  W  W26  1  0.498015  0.999997  0.000003  1
  W  W27  1  0.001985  0.999997  0.000003  1
