# generated using pymatgen
data_PaMoO5
_symmetry_space_group_name_H-M   'P 1'
_cell_length_a   4.19868500
_cell_length_b   7.52005900
_cell_length_c   13.05326700
_cell_angle_alpha   90.00000000
_cell_angle_beta   90.00000000
_cell_angle_gamma   90.00000000
_symmetry_Int_Tables_number   1
_chemical_formula_structural   PaMoO5
_chemical_formula_sum   'Pa4 Mo4 O20'
_cell_volume   412.14853737
_cell_formula_units_Z   4
loop_
 _symmetry_equiv_pos_site_id
 _symmetry_equiv_pos_as_xyz
  1  'x, y, z'
loop_
 _atom_site_type_symbol
 _atom_site_label
 _atom_site_symmetry_multiplicity
 _atom_site_fract_x
 _atom_site_fract_y
 _atom_site_fract_z
 _atom_site_occupancy
  Pa  Pa0  1  0.000000  0.250000  0.523259  1
  Pa  Pa1  1  0.000000  0.750000  0.476741  1
  Pa  Pa2  1  0.000000  0.250000  0.023259  1
  Pa  Pa3  1  0.000000  0.750000  0.976741  1
  Mo  Mo4  1  0.899276  0.000000  0.750000  1
  Mo  Mo5  1  0.100724  0.000000  0.250000  1
  Mo  Mo6  1  0.899276  0.500000  0.250000  1
  Mo  Mo7  1  0.100724  0.500000  0.750000  1
  O  O8  1  0.988581  0.458011  0.400878  1
  O  O9  1  0.988581  0.041989  0.900878  1
  O  O10  1  0.988581  0.958011  0.599122  1
  O  O11  1  0.514327  0.000000  0.250000  1
  O  O12  1  0.500000  0.250000  0.525897  1
  O  O13  1  0.485673  0.500000  0.250000  1
  O  O14  1  0.011419  0.541989  0.599122  1
  O  O15  1  0.988581  0.541989  0.099122  1
  O  O16  1  0.000000  0.750000  0.294990  1
  O  O17  1  0.011419  0.958011  0.099122  1
  O  O18  1  0.011419  0.041989  0.400878  1
  O  O19  1  0.500000  0.750000  0.474103  1
  O  O20  1  0.000000  0.250000  0.205010  1
  O  O21  1  0.485673  0.000000  0.750000  1
  O  O22  1  0.000000  0.250000  0.705010  1
  O  O23  1  0.500000  0.250000  0.025897  1
  O  O24  1  0.500000  0.750000  0.974103  1
  O  O25  1  0.011419  0.458011  0.900878  1
  O  O26  1  0.514327  0.500000  0.750000  1
  O  O27  1  0.000000  0.750000  0.794990  1
