# generated using pymatgen
data_VCo21B6Sb
_symmetry_space_group_name_H-M   'P 1'
_cell_length_a   7.40705493
_cell_length_b   7.40705451
_cell_length_c   7.40705400
_cell_angle_alpha   60.00000228
_cell_angle_beta   60.00000413
_cell_angle_gamma   60.00000606
_symmetry_Int_Tables_number   1
_chemical_formula_structural   VCo21B6Sb
_chemical_formula_sum   'V1 Co21 B6 Sb1'
_cell_volume   287.35691976
_cell_formula_units_Z   1
loop_
 _symmetry_equiv_pos_site_id
 _symmetry_equiv_pos_as_xyz
  1  'x, y, z'
loop_
 _atom_site_type_symbol
 _atom_site_label
 _atom_site_symmetry_multiplicity
 _atom_site_fract_x
 _atom_site_fract_y
 _atom_site_fract_z
 _atom_site_occupancy
  V  V0  1  0.750000  0.750000  0.750000  1
  Co  Co1  1  0.000000  0.000000  0.000000  1
  Co  Co2  1  0.843450  0.385517  0.385517  1
  Co  Co3  1  0.385517  0.843450  0.385517  1
  Co  Co4  1  0.385517  0.385517  0.843450  1
  Co  Co5  1  0.385517  0.385517  0.385517  1
  Co  Co6  1  0.136818  0.621060  0.621060  1
  Co  Co7  1  0.621060  0.136818  0.621060  1
  Co  Co8  1  0.621060  0.621060  0.136818  1
  Co  Co9  1  0.621060  0.621060  0.621060  1
  Co  Co10  1  0.666837  0.996727  0.996727  1
  Co  Co11  1  0.666837  0.996727  0.339710  1
  Co  Co12  1  0.666837  0.339710  0.996727  1
  Co  Co13  1  0.996727  0.666837  0.339710  1
  Co  Co14  1  0.996727  0.666837  0.996727  1
  Co  Co15  1  0.339710  0.666837  0.996727  1
  Co  Co16  1  0.996727  0.339710  0.666837  1
  Co  Co17  1  0.339710  0.996727  0.666837  1
  Co  Co18  1  0.996727  0.996727  0.666837  1
  Co  Co19  1  0.339710  0.996727  0.996727  1
  Co  Co20  1  0.996727  0.339710  0.996727  1
  Co  Co21  1  0.996727  0.996727  0.339710  1
  B  B22  1  0.725040  0.274960  0.274960  1
  B  B23  1  0.725040  0.274960  0.725040  1
  B  B24  1  0.725040  0.725040  0.274960  1
  B  B25  1  0.274960  0.725040  0.725040  1
  B  B26  1  0.274960  0.725040  0.274960  1
  B  B27  1  0.274960  0.274960  0.725040  1
  Sb  Sb28  1  0.250000  0.250000  0.250000  1
