# generated using pymatgen
data_CsTa(SiO3)3
_symmetry_space_group_name_H-M   'P 1'
_cell_length_a   7.03353400
_cell_length_b   7.03353389
_cell_length_c   9.93814500
_cell_angle_alpha   90.00000000
_cell_angle_beta   90.00000000
_cell_angle_gamma   120.00000050
_symmetry_Int_Tables_number   1
_chemical_formula_structural   CsTa(SiO3)3
_chemical_formula_sum   'Cs2 Ta2 Si6 O18'
_cell_volume   425.77791824
_cell_formula_units_Z   2
loop_
 _symmetry_equiv_pos_site_id
 _symmetry_equiv_pos_as_xyz
  1  'x, y, z'
loop_
 _atom_site_type_symbol
 _atom_site_label
 _atom_site_symmetry_multiplicity
 _atom_site_fract_x
 _atom_site_fract_y
 _atom_site_fract_z
 _atom_site_occupancy
  Cs  Cs0  1  0.666667  0.333333  0.500000  1
  Cs  Cs1  1  0.666667  0.333333  0.000000  1
  Ta  Ta2  1  0.333333  0.666667  0.500000  1
  Ta  Ta3  1  0.333333  0.666667  0.000000  1
  Si  Si4  1  0.199647  0.920512  0.250000  1
  Si  Si5  1  0.199647  0.279134  0.750000  1
  Si  Si6  1  0.720866  0.920512  0.750000  1
  Si  Si7  1  0.720866  0.800353  0.250000  1
  Si  Si8  1  0.079488  0.279134  0.250000  1
  Si  Si9  1  0.079488  0.800353  0.750000  1
  O  O10  1  0.114693  0.688266  0.616190  1
  O  O11  1  0.311734  0.885307  0.383810  1
  O  O12  1  0.573574  0.885307  0.616190  1
  O  O13  1  0.311734  0.426426  0.883810  1
  O  O14  1  0.573574  0.885307  0.883810  1
  O  O15  1  0.114693  0.688266  0.883810  1
  O  O16  1  0.573574  0.688266  0.116190  1
  O  O17  1  0.114693  0.426426  0.116190  1
  O  O18  1  0.245339  0.175571  0.250000  1
  O  O19  1  0.930233  0.754661  0.250000  1
  O  O20  1  0.824429  0.069767  0.250000  1
  O  O21  1  0.824429  0.754661  0.750000  1
  O  O22  1  0.573574  0.688266  0.383810  1
  O  O23  1  0.245339  0.069767  0.750000  1
  O  O24  1  0.930233  0.175571  0.750000  1
  O  O25  1  0.114693  0.426426  0.383810  1
  O  O26  1  0.311734  0.885307  0.116190  1
  O  O27  1  0.311734  0.426426  0.616190  1
