# generated using pymatgen
data_YTm19(SiBi2)4
_symmetry_space_group_name_H-M   'P 1'
_cell_length_a   7.97176869
_cell_length_b   9.09816500
_cell_length_c   11.86493403
_cell_angle_alpha   90.00000000
_cell_angle_beta   90.04776046
_cell_angle_gamma   90.00000000
_symmetry_Int_Tables_number   1
_chemical_formula_structural   YTm19(SiBi2)4
_chemical_formula_sum   'Y1 Tm19 Si4 Bi8'
_cell_volume   860.54517619
_cell_formula_units_Z   1
loop_
 _symmetry_equiv_pos_site_id
 _symmetry_equiv_pos_as_xyz
  1  'x, y, z'
loop_
 _atom_site_type_symbol
 _atom_site_label
 _atom_site_symmetry_multiplicity
 _atom_site_fract_x
 _atom_site_fract_y
 _atom_site_fract_z
 _atom_site_occupancy
  Y  Y0  1  0.331849  0.750000  0.286395  1
  Tm  Tm1  1  0.678897  0.945081  0.438065  1
  Tm  Tm2  1  0.821069  0.554887  0.937810  1
  Tm  Tm3  1  0.321019  0.445188  0.562033  1
  Tm  Tm4  1  0.178936  0.055235  0.061938  1
  Tm  Tm5  1  0.321019  0.054812  0.562033  1
  Tm  Tm6  1  0.178936  0.444765  0.061938  1
  Tm  Tm7  1  0.678897  0.554919  0.438065  1
  Tm  Tm8  1  0.821069  0.945113  0.937810  1
  Tm  Tm9  1  0.168170  0.750000  0.786979  1
  Tm  Tm10  1  0.668032  0.250000  0.712886  1
  Tm  Tm11  1  0.832012  0.250000  0.212633  1
  Tm  Tm12  1  0.038090  0.750000  0.498109  1
  Tm  Tm13  1  0.462002  0.750000  0.997360  1
  Tm  Tm14  1  0.961407  0.250000  0.502436  1
  Tm  Tm15  1  0.538580  0.250000  0.002146  1
  Tm  Tm16  1  0.862307  0.750000  0.204968  1
  Tm  Tm17  1  0.637072  0.750000  0.705498  1
  Tm  Tm18  1  0.136812  0.250000  0.794914  1
  Tm  Tm19  1  0.363227  0.250000  0.294770  1
  Si  Si20  1  0.090662  0.750000  0.021788  1
  Si  Si21  1  0.409933  0.750000  0.523100  1
  Si  Si22  1  0.909559  0.250000  0.978432  1
  Si  Si23  1  0.590446  0.250000  0.478594  1
  Bi  Bi24  1  0.568224  0.989189  0.174141  1
  Bi  Bi25  1  0.932813  0.511589  0.674762  1
  Bi  Bi26  1  0.432776  0.488289  0.825308  1
  Bi  Bi27  1  0.066185  0.012180  0.325440  1
  Bi  Bi28  1  0.432776  0.011711  0.825308  1
  Bi  Bi29  1  0.066185  0.487820  0.325440  1
  Bi  Bi30  1  0.568224  0.510811  0.174141  1
  Bi  Bi31  1  0.932813  0.988411  0.674762  1
