# generated using pymatgen
data_PrPu3(NbN2)4
_symmetry_space_group_name_H-M   'P 1'
_cell_length_a   3.33562400
_cell_length_b   5.72811337
_cell_length_c   11.00893751
_cell_angle_alpha   89.85797215
_cell_angle_beta   90.00000000
_cell_angle_gamma   90.00000000
_symmetry_Int_Tables_number   1
_chemical_formula_structural   PrPu3(NbN2)4
_chemical_formula_sum   'Pr1 Pu3 Nb4 N8'
_cell_volume   210.34527806
_cell_formula_units_Z   1
loop_
 _symmetry_equiv_pos_site_id
 _symmetry_equiv_pos_as_xyz
  1  'x, y, z'
loop_
 _atom_site_type_symbol
 _atom_site_label
 _atom_site_symmetry_multiplicity
 _atom_site_fract_x
 _atom_site_fract_y
 _atom_site_fract_z
 _atom_site_occupancy
  Pr  Pr0  1  0.250000  0.583233  0.857474  1
  Pu  Pu1  1  0.750000  0.421353  0.142834  1
  Pu  Pu2  1  0.750000  0.921119  0.360415  1
  Pu  Pu3  1  0.250000  0.078813  0.638530  1
  Nb  Nb4  1  0.250000  0.919737  0.106924  1
  Nb  Nb5  1  0.750000  0.082073  0.895955  1
  Nb  Nb6  1  0.750000  0.579501  0.600357  1
  Nb  Nb7  1  0.250000  0.418765  0.398028  1
  N  N8  1  0.250000  0.655354  0.245934  1
  N  N9  1  0.750000  0.330881  0.747979  1
  N  N10  1  0.750000  0.848810  0.740560  1
  N  N11  1  0.250000  0.156142  0.257424  1
  N  N12  1  0.250000  0.753859  0.505726  1
  N  N13  1  0.750000  0.245087  0.491532  1
  N  N14  1  0.750000  0.762775  0.014086  1
  N  N15  1  0.250000  0.242497  0.996241  1
