# generated using pymatgen
data_DyY9Ag3Pt
_symmetry_space_group_name_H-M   'P 1'
_cell_length_a   9.54377400
_cell_length_b   9.54377423
_cell_length_c   9.70444700
_cell_angle_alpha   90.00000000
_cell_angle_beta   90.00000000
_cell_angle_gamma   119.99999920
_symmetry_Int_Tables_number   1
_chemical_formula_structural   DyY9Ag3Pt
_chemical_formula_sum   'Dy2 Y18 Ag6 Pt2'
_cell_volume   765.49389485
_cell_formula_units_Z   2
loop_
 _symmetry_equiv_pos_site_id
 _symmetry_equiv_pos_as_xyz
  1  'x, y, z'
loop_
 _atom_site_type_symbol
 _atom_site_label
 _atom_site_symmetry_multiplicity
 _atom_site_fract_x
 _atom_site_fract_y
 _atom_site_fract_z
 _atom_site_occupancy
  Dy  Dy0  1  0.000000  0.000000  0.500000  1
  Dy  Dy1  1  0.000000  0.000000  0.000000  1
  Y  Y2  1  0.207175  0.792826  0.444491  1
  Y  Y3  1  0.207175  0.414348  0.444491  1
  Y  Y4  1  0.585652  0.792826  0.444492  1
  Y  Y5  1  0.792825  0.207174  0.555509  1
  Y  Y6  1  0.792825  0.585652  0.555509  1
  Y  Y7  1  0.414348  0.207174  0.555508  1
  Y  Y8  1  0.792825  0.207174  0.944491  1
  Y  Y9  1  0.792825  0.585652  0.944491  1
  Y  Y10  1  0.414348  0.207174  0.944492  1
  Y  Y11  1  0.207175  0.792826  0.055509  1
  Y  Y12  1  0.207175  0.414348  0.055509  1
  Y  Y13  1  0.585652  0.792826  0.055508  1
  Y  Y14  1  0.542740  0.457260  0.250000  1
  Y  Y15  1  0.542740  0.085480  0.250000  1
  Y  Y16  1  0.914520  0.457260  0.250000  1
  Y  Y17  1  0.457260  0.542740  0.750000  1
  Y  Y18  1  0.457260  0.914520  0.750000  1
  Y  Y19  1  0.085480  0.542740  0.750000  1
  Ag  Ag20  1  0.884021  0.115978  0.250000  1
  Ag  Ag21  1  0.884021  0.768046  0.250000  1
  Ag  Ag22  1  0.231954  0.115978  0.250000  1
  Ag  Ag23  1  0.115979  0.884022  0.750000  1
  Ag  Ag24  1  0.115979  0.231954  0.750000  1
  Ag  Ag25  1  0.768046  0.884022  0.750000  1
  Pt  Pt26  1  0.333334  0.666666  0.250000  1
  Pt  Pt27  1  0.666666  0.333334  0.750000  1
