# generated using pymatgen
data_Ce2Pr9Nd(PBr3)4
_symmetry_space_group_name_H-M   'P 1'
_cell_length_a   10.37677234
_cell_length_b   10.39726653
_cell_length_c   10.40659255
_cell_angle_alpha   109.53196811
_cell_angle_beta   109.50810809
_cell_angle_gamma   109.47167028
_symmetry_Int_Tables_number   1
_chemical_formula_structural   Ce2Pr9Nd(PBr3)4
_chemical_formula_sum   'Ce2 Pr9 Nd1 P4 Br12'
_cell_volume   863.25918397
_cell_formula_units_Z   1
loop_
 _symmetry_equiv_pos_site_id
 _symmetry_equiv_pos_as_xyz
  1  'x, y, z'
loop_
 _atom_site_type_symbol
 _atom_site_label
 _atom_site_symmetry_multiplicity
 _atom_site_fract_x
 _atom_site_fract_y
 _atom_site_fract_z
 _atom_site_occupancy
  Ce  Ce0  1  0.750809  0.238087  0.263043  1
  Ce  Ce1  1  0.750809  0.012723  0.487766  1
  Pr  Pr2  1  0.234701  0.470623  0.487124  1
  Pr  Pr3  1  0.265367  0.752058  0.235512  1
  Pr  Pr4  1  0.027729  0.263865  0.013865  1
  Pr  Pr5  1  0.014338  0.028533  0.264638  1
  Pr  Pr6  1  0.485126  0.750192  0.013548  1
  Pr  Pr7  1  0.485126  0.234934  0.471578  1
  Pr  Pr8  1  0.014338  0.485805  0.749701  1
  Pr  Pr9  1  0.265367  0.013308  0.029855  1
  Pr  Pr10  1  0.234701  0.264078  0.747577  1
  Nd  Nd11  1  0.470844  0.485422  0.235422  1
  P  P12  1  0.250691  0.251155  0.249992  1
  P  P13  1  0.505294  0.002648  0.252648  1
  P  P14  1  0.995271  0.247636  0.497636  1
  P  P15  1  0.250691  0.499537  0.000699  1
  Br  Br16  1  0.249497  0.756098  0.744030  1
  Br  Br17  1  0.512386  0.506193  0.756193  1
  Br  Br18  1  0.987728  0.743863  0.993863  1
  Br  Br19  1  0.743898  0.248213  0.754048  1
  Br  Br20  1  0.995310  0.990202  0.745183  1
  Br  Br21  1  0.249497  0.993398  0.505467  1
  Br  Br22  1  0.754252  0.510134  0.503419  1
  Br  Br23  1  0.506385  0.252428  0.998757  1
  Br  Br24  1  0.754252  0.744118  0.250834  1
  Br  Br25  1  0.743898  0.995685  0.989851  1
  Br  Br26  1  0.995310  0.505109  0.250127  1
  Br  Br27  1  0.506385  0.753957  0.507627  1
