# generated using pymatgen
data_Hf5Sc(SnC2)2
_symmetry_space_group_name_H-M   'P 1'
_cell_length_a   3.33838700
_cell_length_b   3.33838729
_cell_length_c   19.94651900
_cell_angle_alpha   90.00000000
_cell_angle_beta   90.00000000
_cell_angle_gamma   120.00000700
_symmetry_Int_Tables_number   1
_chemical_formula_structural   Hf5Sc(SnC2)2
_chemical_formula_sum   'Hf5 Sc1 Sn2 C4'
_cell_volume   192.51789982
_cell_formula_units_Z   1
loop_
 _symmetry_equiv_pos_site_id
 _symmetry_equiv_pos_as_xyz
  1  'x, y, z'
loop_
 _atom_site_type_symbol
 _atom_site_label
 _atom_site_symmetry_multiplicity
 _atom_site_fract_x
 _atom_site_fract_y
 _atom_site_fract_z
 _atom_site_occupancy
  Hf  Hf0  1  0.000000  0.000000  0.999894  1
  Hf  Hf1  1  0.333333  0.666666  0.374717  1
  Hf  Hf2  1  0.000000  0.000000  0.501025  1
  Hf  Hf3  1  0.666668  0.333333  0.627308  1
  Hf  Hf4  1  0.666668  0.333333  0.871515  1
  Sc  Sc5  1  0.333333  0.666666  0.125110  1
  Sn  Sn6  1  0.000000  0.000000  0.252006  1
  Sn  Sn7  1  0.000000  0.000000  0.749957  1
  C  C8  1  0.666668  0.333333  0.066916  1
  C  C9  1  0.666668  0.333333  0.432047  1
  C  C10  1  0.333333  0.666666  0.570052  1
  C  C11  1  0.333333  0.666666  0.929451  1
