# generated using pymatgen
data_Tb8NbSi16W11
_symmetry_space_group_name_H-M   'P 1'
_cell_length_a   6.90396257
_cell_length_b   6.90396326
_cell_length_c   12.86073534
_cell_angle_alpha   89.96648647
_cell_angle_beta   89.96648812
_cell_angle_gamma   89.85629310
_symmetry_Int_Tables_number   1
_chemical_formula_structural   Tb8NbSi16W11
_chemical_formula_sum   'Tb8 Nb1 Si16 W11'
_cell_volume   613.00100496
_cell_formula_units_Z   1
loop_
 _symmetry_equiv_pos_site_id
 _symmetry_equiv_pos_as_xyz
  1  'x, y, z'
loop_
 _atom_site_type_symbol
 _atom_site_label
 _atom_site_symmetry_multiplicity
 _atom_site_fract_x
 _atom_site_fract_y
 _atom_site_fract_z
 _atom_site_occupancy
  Tb  Tb0  1  0.002046  0.336473  0.219192  1
  Tb  Tb1  1  0.999592  0.664127  0.719119  1
  Tb  Tb2  1  0.163908  0.503001  0.468164  1
  Tb  Tb3  1  0.496999  0.836092  0.031836  1
  Tb  Tb4  1  0.837162  0.499153  0.969758  1
  Tb  Tb5  1  0.500847  0.162838  0.530242  1
  Tb  Tb6  1  0.335873  0.000408  0.780881  1
  Tb  Tb7  1  0.663527  0.997954  0.280808  1
  Nb  Nb8  1  0.667515  0.332485  0.750000  1
  Si  Si9  1  0.376066  0.298679  0.315747  1
  Si  Si10  1  0.626596  0.705195  0.816558  1
  Si  Si11  1  0.200765  0.875746  0.565891  1
  Si  Si12  1  0.124254  0.799235  0.934109  1
  Si  Si13  1  0.798061  0.124459  0.065977  1
  Si  Si14  1  0.875541  0.201939  0.434023  1
  Si  Si15  1  0.294805  0.373404  0.683442  1
  Si  Si16  1  0.701321  0.623934  0.184253  1
  Si  Si17  1  0.286828  0.034440  0.187423  1
  Si  Si18  1  0.710116  0.959070  0.683681  1
  Si  Si19  1  0.464888  0.787490  0.436286  1
  Si  Si20  1  0.212510  0.535112  0.063714  1
  Si  Si21  1  0.532830  0.210796  0.938711  1
  Si  Si22  1  0.789204  0.467170  0.561289  1
  Si  Si23  1  0.040930  0.289884  0.816319  1
  Si  Si24  1  0.965560  0.713172  0.312577  1
  W  W25  1  0.165975  0.164947  0.002787  1
  W  W26  1  0.835053  0.834025  0.497213  1
  W  W27  1  0.333224  0.666776  0.250000  1
  W  W28  1  0.166698  0.000963  0.377203  1
  W  W29  1  0.833278  0.002976  0.874630  1
  W  W30  1  0.498722  0.661612  0.626637  1
  W  W31  1  0.338388  0.501278  0.873363  1
  W  W32  1  0.498575  0.333714  0.126990  1
  W  W33  1  0.666286  0.501425  0.373010  1
  W  W34  1  0.997024  0.166722  0.625370  1
  W  W35  1  0.999037  0.833302  0.122797  1
