# generated using pymatgen
data_Tb4Al18IrPt4Rh
_symmetry_space_group_name_H-M   'P 1'
_cell_length_a   7.60429002
_cell_length_b   7.60429038
_cell_length_c   9.44115609
_cell_angle_alpha   90.00782394
_cell_angle_beta   90.00782478
_cell_angle_gamma   119.64282289
_symmetry_Int_Tables_number   1
_chemical_formula_structural   Tb4Al18IrPt4Rh
_chemical_formula_sum   'Tb4 Al18 Ir1 Pt4 Rh1'
_cell_volume   474.48777313
_cell_formula_units_Z   1
loop_
 _symmetry_equiv_pos_site_id
 _symmetry_equiv_pos_as_xyz
  1  'x, y, z'
loop_
 _atom_site_type_symbol
 _atom_site_label
 _atom_site_symmetry_multiplicity
 _atom_site_fract_x
 _atom_site_fract_y
 _atom_site_fract_z
 _atom_site_occupancy
  Tb  Tb0  1  0.994022  0.668103  0.250206  1
  Tb  Tb1  1  0.005978  0.331897  0.749794  1
  Tb  Tb2  1  0.668103  0.994022  0.250206  1
  Tb  Tb3  1  0.331897  0.005978  0.749794  1
  Al  Al4  1  0.126063  0.126063  0.249148  1
  Al  Al5  1  0.873937  0.873937  0.750852  1
  Al  Al6  1  0.000072  0.330701  0.076314  1
  Al  Al7  1  0.999928  0.669299  0.923686  1
  Al  Al8  1  0.000064  0.669069  0.576215  1
  Al  Al9  1  0.330931  0.999936  0.423785  1
  Al  Al10  1  0.999936  0.330931  0.423785  1
  Al  Al11  1  0.669069  0.000064  0.576215  1
  Al  Al12  1  0.669299  0.999928  0.923686  1
  Al  Al13  1  0.330701  0.000072  0.076314  1
  Al  Al14  1  0.330051  0.330051  0.555621  1
  Al  Al15  1  0.669949  0.669949  0.444379  1
  Al  Al16  1  0.670446  0.670446  0.055734  1
  Al  Al17  1  0.329554  0.329554  0.944266  1
  Al  Al18  1  0.340491  0.546358  0.249885  1
  Al  Al19  1  0.659509  0.453642  0.750115  1
  Al  Al20  1  0.546358  0.340491  0.249885  1
  Al  Al21  1  0.453642  0.659509  0.750115  1
  Ir  Ir22  1  0.000000  0.000000  0.500000  1
  Pt  Pt23  1  0.672460  0.327540  0.000000  1
  Pt  Pt24  1  0.327540  0.672460  0.000000  1
  Pt  Pt25  1  0.327776  0.672224  0.500000  1
  Pt  Pt26  1  0.672224  0.327776  0.500000  1
  Rh  Rh27  1  0.000000  0.000000  0.000000  1
