# generated using pymatgen
data_Cs4V2FeCuTe8
_symmetry_space_group_name_H-M   'P 1'
_cell_length_a   15.65820177
_cell_length_b   13.93752655
_cell_length_c   8.33814334
_cell_angle_alpha   85.40997936
_cell_angle_beta   62.53037277
_cell_angle_gamma   32.05963712
_symmetry_Int_Tables_number   1
_chemical_formula_structural   Cs4V2FeCuTe8
_chemical_formula_sum   'Cs4 V2 Fe1 Cu1 Te8'
_cell_volume   643.71066029
_cell_formula_units_Z   1
loop_
 _symmetry_equiv_pos_site_id
 _symmetry_equiv_pos_as_xyz
  1  'x, y, z'
loop_
 _atom_site_type_symbol
 _atom_site_label
 _atom_site_symmetry_multiplicity
 _atom_site_fract_x
 _atom_site_fract_y
 _atom_site_fract_z
 _atom_site_occupancy
  Cs  Cs0  1  0.680277  0.680277  0.319723  1
  Cs  Cs1  1  0.319723  0.319723  0.680277  1
  Cs  Cs2  1  0.929534  0.929534  0.570466  1
  Cs  Cs3  1  0.570466  0.570466  0.929534  1
  V  V4  1  0.750000  0.750000  0.750000  1
  V  V5  1  0.500000  0.500000  0.500000  1
  Fe  Fe6  1  0.000000  0.000000  0.000000  1
  Cu  Cu7  1  0.250000  0.250000  0.250000  1
  Te  Te8  1  0.363148  0.028762  0.948941  1
  Te  Te9  1  0.659152  0.948941  0.028762  1
  Te  Te10  1  0.948941  0.659152  0.363148  1
  Te  Te11  1  0.028762  0.363148  0.659152  1
  Te  Te12  1  0.214411  0.893718  0.597506  1
  Te  Te13  1  0.597506  0.294362  0.214411  1
  Te  Te14  1  0.294362  0.597506  0.893718  1
  Te  Te15  1  0.893718  0.214411  0.294362  1
