# generated using pymatgen
data_Sm8AsPd5Pt19
_symmetry_space_group_name_H-M   'P 1'
_cell_length_a   8.44064800
_cell_length_b   8.45089000
_cell_length_c   8.46508300
_cell_angle_alpha   90.00000000
_cell_angle_beta   90.00000000
_cell_angle_gamma   90.00000000
_symmetry_Int_Tables_number   1
_chemical_formula_structural   Sm8AsPd5Pt19
_chemical_formula_sum   'Sm8 As1 Pd5 Pt19'
_cell_volume   603.82273200
_cell_formula_units_Z   1
loop_
 _symmetry_equiv_pos_site_id
 _symmetry_equiv_pos_as_xyz
  1  'x, y, z'
loop_
 _atom_site_type_symbol
 _atom_site_label
 _atom_site_symmetry_multiplicity
 _atom_site_fract_x
 _atom_site_fract_y
 _atom_site_fract_z
 _atom_site_occupancy
  Sm  Sm0  1  0.253559  0.253528  0.253761  1
  Sm  Sm1  1  0.745766  0.745778  0.745251  1
  Sm  Sm2  1  0.746441  0.746472  0.253761  1
  Sm  Sm3  1  0.745766  0.254222  0.745251  1
  Sm  Sm4  1  0.254234  0.254222  0.745251  1
  Sm  Sm5  1  0.253559  0.746472  0.253761  1
  Sm  Sm6  1  0.254234  0.745778  0.745251  1
  Sm  Sm7  1  0.746441  0.253528  0.253761  1
  As  As8  1  0.000000  0.000000  0.008710  1
  Pd  Pd9  1  0.500000  0.253536  0.499486  1
  Pd  Pd10  1  0.500000  0.746464  0.499486  1
  Pd  Pd11  1  0.500000  0.500000  0.253703  1
  Pd  Pd12  1  0.500000  0.500000  0.746434  1
  Pd  Pd13  1  0.000000  0.000000  0.714251  1
  Pt  Pt14  1  0.260599  0.500000  0.000097  1
  Pt  Pt15  1  0.739401  0.500000  0.000097  1
  Pt  Pt16  1  0.000000  0.259997  0.500366  1
  Pt  Pt17  1  0.500000  0.260436  0.000036  1
  Pt  Pt18  1  0.000000  0.740003  0.500366  1
  Pt  Pt19  1  0.500000  0.739564  0.000036  1
  Pt  Pt20  1  0.500000  0.000000  0.259081  1
  Pt  Pt21  1  0.260684  0.000000  0.500339  1
  Pt  Pt22  1  0.500000  0.000000  0.738243  1
  Pt  Pt23  1  0.739316  0.000000  0.500339  1
  Pt  Pt24  1  0.000000  0.500000  0.258512  1
  Pt  Pt25  1  0.000000  0.500000  0.738829  1
  Pt  Pt26  1  0.252302  0.500000  0.499287  1
  Pt  Pt27  1  0.747698  0.500000  0.499287  1
  Pt  Pt28  1  0.290609  0.000000  0.997808  1
  Pt  Pt29  1  0.709391  0.000000  0.997808  1
  Pt  Pt30  1  0.000000  0.289846  0.997747  1
  Pt  Pt31  1  0.000000  0.710154  0.997747  1
  Pt  Pt32  1  0.000000  0.000000  0.295863  1
