# generated using pymatgen
data_YbTm3Al24Pt7Au2
_symmetry_space_group_name_H-M   'P 1'
_cell_length_a   7.54907783
_cell_length_b   7.57502928
_cell_length_c   13.16613476
_cell_angle_alpha   84.59140785
_cell_angle_beta   79.05608562
_cell_angle_gamma   59.90514084
_symmetry_Int_Tables_number   1
_chemical_formula_structural   YbTm3Al24Pt7Au2
_chemical_formula_sum   'Yb1 Tm3 Al24 Pt7 Au2'
_cell_volume   639.55803060
_cell_formula_units_Z   1
loop_
 _symmetry_equiv_pos_site_id
 _symmetry_equiv_pos_as_xyz
  1  'x, y, z'
loop_
 _atom_site_type_symbol
 _atom_site_label
 _atom_site_symmetry_multiplicity
 _atom_site_fract_x
 _atom_site_fract_y
 _atom_site_fract_z
 _atom_site_occupancy
  Yb  Yb0  1  0.392703  0.169191  0.808766  1
  Tm  Tm1  1  0.606923  0.830996  0.191138  1
  Tm  Tm2  1  0.733726  0.498825  0.809295  1
  Tm  Tm3  1  0.266242  0.500824  0.190444  1
  Al  Al4  1  0.683027  0.833975  0.944957  1
  Al  Al5  1  0.317127  0.165690  0.054664  1
  Al  Al6  1  0.145970  0.838824  0.561799  1
  Al  Al7  1  0.853682  0.161179  0.438250  1
  Al  Al8  1  0.487734  0.159135  0.559392  1
  Al  Al9  1  0.512079  0.840986  0.441118  1
  Al  Al10  1  0.223920  0.160847  0.324267  1
  Al  Al11  1  0.775747  0.839699  0.675229  1
  Al  Al12  1  0.440170  0.506069  0.675480  1
  Al  Al13  1  0.560397  0.493529  0.324214  1
  Al  Al14  1  0.108895  0.154971  0.674039  1
  Al  Al15  1  0.891494  0.845134  0.325677  1
  Al  Al16  1  0.353775  0.498590  0.944607  1
  Al  Al17  1  0.646086  0.501557  0.055538  1
  Al  Al18  1  0.015696  0.167915  0.952948  1
  Al  Al19  1  0.984277  0.831865  0.047107  1
  Al  Al20  1  0.195336  0.499348  0.438065  1
  Al  Al21  1  0.804731  0.500488  0.562157  1
  Al  Al22  1  0.732582  0.164617  0.182891  1
  Al  Al23  1  0.268221  0.833579  0.817188  1
  Al  Al24  1  0.058076  0.634840  0.818322  1
  Al  Al25  1  0.939582  0.366988  0.181919  1
  Al  Al26  1  0.854927  0.043591  0.816699  1
  Al  Al27  1  0.146455  0.956914  0.183409  1
  Pt  Pt28  1  0.657319  0.171462  0.000323  1
  Pt  Pt29  1  0.342587  0.828194  0.000867  1
  Pt  Pt30  1  0.536990  0.167176  0.361464  1
  Pt  Pt31  1  0.462827  0.832559  0.637936  1
  Pt  Pt32  1  0.779857  0.175390  0.636488  1
  Pt  Pt33  1  0.221152  0.824403  0.362935  1
  Pt  Pt34  1  0.999597  0.500348  0.000647  1
  Au  Au35  1  0.119938  0.490591  0.638277  1
  Au  Au36  1  0.880153  0.509711  0.361480  1
