# generated using pymatgen
data_Co(PtO3)2
_symmetry_space_group_name_H-M   'P 1'
_cell_length_a   4.56177254
_cell_length_b   4.56351300
_cell_length_c   10.49483826
_cell_angle_alpha   90.00039349
_cell_angle_beta   115.71747949
_cell_angle_gamma   89.99911122
_symmetry_Int_Tables_number   1
_chemical_formula_structural   Co(PtO3)2
_chemical_formula_sum   'Co2 Pt4 O12'
_cell_volume   196.83702552
_cell_formula_units_Z   2
loop_
 _symmetry_equiv_pos_site_id
 _symmetry_equiv_pos_as_xyz
  1  'x, y, z'
loop_
 _atom_site_type_symbol
 _atom_site_label
 _atom_site_symmetry_multiplicity
 _atom_site_fract_x
 _atom_site_fract_y
 _atom_site_fract_z
 _atom_site_occupancy
  Co  Co0  1  0.000000  0.000000  0.000000  1
  Co  Co1  1  0.000000  0.500001  0.500000  1
  Pt  Pt2  1  0.667913  0.500171  0.167896  1
  Pt  Pt3  1  0.332093  0.000170  0.332109  1
  Pt  Pt4  1  0.667907  0.999830  0.667891  1
  Pt  Pt5  1  0.332087  0.499831  0.832104  1
  O  O6  1  0.305837  0.693976  0.000079  1
  O  O7  1  0.971929  0.809591  0.163590  1
  O  O8  1  0.354574  0.191625  0.163469  1
  O  O9  1  0.645422  0.691631  0.336533  1
  O  O10  1  0.028082  0.309584  0.336412  1
  O  O11  1  0.694154  0.193968  0.499921  1
  O  O12  1  0.305846  0.806031  0.500079  1
  O  O13  1  0.971920  0.690415  0.663588  1
  O  O14  1  0.354578  0.308368  0.663467  1
  O  O15  1  0.645426  0.808376  0.836531  1
  O  O16  1  0.028071  0.190409  0.836410  1
  O  O17  1  0.694162  0.306026  0.999921  1
