# generated using pymatgen
data_HfPaInRh5
_symmetry_space_group_name_H-M   'P 1'
_cell_length_a   4.19498300
_cell_length_b   5.71671786
_cell_length_c   11.32585944
_cell_angle_alpha   89.51581029
_cell_angle_beta   90.00000000
_cell_angle_gamma   90.00000000
_symmetry_Int_Tables_number   1
_chemical_formula_structural   HfPaInRh5
_chemical_formula_sum   'Hf2 Pa2 In2 Rh10'
_cell_volume   271.60178762
_cell_formula_units_Z   2
loop_
 _symmetry_equiv_pos_site_id
 _symmetry_equiv_pos_as_xyz
  1  'x, y, z'
loop_
 _atom_site_type_symbol
 _atom_site_label
 _atom_site_symmetry_multiplicity
 _atom_site_fract_x
 _atom_site_fract_y
 _atom_site_fract_z
 _atom_site_occupancy
  Hf  Hf0  1  0.500000  0.683880  0.864109  1
  Hf  Hf1  1  0.500000  0.316120  0.135891  1
  Pa  Pa2  1  0.500000  0.185466  0.647252  1
  Pa  Pa3  1  0.500000  0.814534  0.352748  1
  In  In4  1  0.000000  0.500000  0.500000  1
  In  In5  1  0.000000  0.000000  0.000000  1
  Rh  Rh6  1  0.500000  0.211594  0.887413  1
  Rh  Rh7  1  0.500000  0.788406  0.112587  1
  Rh  Rh8  1  0.500000  0.710845  0.619104  1
  Rh  Rh9  1  0.500000  0.289155  0.380896  1
  Rh  Rh10  1  0.000000  0.445415  0.750745  1
  Rh  Rh11  1  0.000000  0.554585  0.249255  1
  Rh  Rh12  1  0.000000  0.000000  0.500000  1
  Rh  Rh13  1  0.000000  0.500000  0.000000  1
  Rh  Rh14  1  0.000000  0.058274  0.244991  1
  Rh  Rh15  1  0.000000  0.941726  0.755009  1
