# generated using pymatgen
data_K4Hf6OsI18
_symmetry_space_group_name_H-M   'P 1'
_cell_length_a   11.33586815
_cell_length_b   11.46465054
_cell_length_c   11.58116389
_cell_angle_alpha   118.53528634
_cell_angle_beta   100.16303573
_cell_angle_gamma   103.72198040
_symmetry_Int_Tables_number   1
_chemical_formula_structural   K4Hf6OsI18
_chemical_formula_sum   'K4 Hf6 Os1 I18'
_cell_volume   1208.22842115
_cell_formula_units_Z   1
loop_
 _symmetry_equiv_pos_site_id
 _symmetry_equiv_pos_as_xyz
  1  'x, y, z'
loop_
 _atom_site_type_symbol
 _atom_site_label
 _atom_site_symmetry_multiplicity
 _atom_site_fract_x
 _atom_site_fract_y
 _atom_site_fract_z
 _atom_site_occupancy
  K  K0  1  0.649438  0.537483  0.226008  1
  K  K1  1  0.350562  0.462517  0.773992  1
  K  K2  1  0.683315  0.224157  0.563429  1
  K  K3  1  0.316685  0.775843  0.436571  1
  Hf  Hf4  1  0.149549  0.055240  0.229047  1
  Hf  Hf5  1  0.850451  0.944760  0.770953  1
  Hf  Hf6  1  0.862748  0.126530  0.132697  1
  Hf  Hf7  1  0.137252  0.873470  0.867303  1
  Hf  Hf8  1  0.144699  0.237741  0.044985  1
  Hf  Hf9  1  0.855301  0.762259  0.955015  1
  Os  Os10  1  0.000000  0.000000  0.000000  1
  I  I11  1  0.008218  0.412259  0.198436  1
  I  I12  1  0.991782  0.587741  0.801564  1
  I  I13  1  0.330123  0.334569  0.312756  1
  I  I14  1  0.669877  0.665431  0.687244  1
  I  I15  1  0.322276  0.522574  0.099956  1
  I  I16  1  0.677724  0.477426  0.900044  1
  I  I17  1  0.004432  0.794506  0.210321  1
  I  I18  1  0.995568  0.205494  0.789679  1
  I  I19  1  0.702340  0.277902  0.290251  1
  I  I20  1  0.297660  0.722098  0.709749  1
  I  I21  1  0.317769  0.127001  0.901851  1
  I  I22  1  0.682231  0.872999  0.098149  1
  I  I23  1  0.014908  0.205727  0.410258  1
  I  I24  1  0.985092  0.794273  0.589742  1
  I  I25  1  0.322292  0.921537  0.109837  1
  I  I26  1  0.677708  0.078463  0.890163  1
  I  I27  1  0.333434  0.120950  0.503000  1
  I  I28  1  0.666566  0.879050  0.497000  1
