# generated using pymatgen
data_In6Cu2BIr4
_symmetry_space_group_name_H-M   'P 1'
_cell_length_a   8.59110833
_cell_length_b   8.59967741
_cell_length_c   8.58363000
_cell_angle_alpha   60.07880687
_cell_angle_beta   60.01080507
_cell_angle_gamma   59.99264738
_symmetry_Int_Tables_number   1
_chemical_formula_structural   In6Cu2BIr4
_chemical_formula_sum   'In12 Cu4 B2 Ir8'
_cell_volume   448.70061027
_cell_formula_units_Z   2
loop_
 _symmetry_equiv_pos_site_id
 _symmetry_equiv_pos_as_xyz
  1  'x, y, z'
loop_
 _atom_site_type_symbol
 _atom_site_label
 _atom_site_symmetry_multiplicity
 _atom_site_fract_x
 _atom_site_fract_y
 _atom_site_fract_z
 _atom_site_occupancy
  In  In0  1  0.957338  0.957529  0.542547  1
  In  In1  1  0.292721  0.707163  0.292816  1
  In  In2  1  0.707649  0.292464  0.707259  1
  In  In3  1  0.292662  0.292471  0.707453  1
  In  In4  1  0.707483  0.292461  0.292586  1
  In  In5  1  0.707325  0.707372  0.292698  1
  In  In6  1  0.957522  0.542589  0.542573  1
  In  In7  1  0.542517  0.957539  0.957414  1
  In  In8  1  0.542351  0.957536  0.542741  1
  In  In9  1  0.542675  0.542628  0.957302  1
  In  In10  1  0.957279  0.542837  0.957184  1
  In  In11  1  0.292478  0.707411  0.707427  1
  Cu  Cu12  1  0.125000  0.125000  0.625000  1
  Cu  Cu13  1  0.125000  0.625000  0.125000  1
  Cu  Cu14  1  0.125000  0.125000  0.125000  1
  Cu  Cu15  1  0.625000  0.125000  0.125000  1
  B  B16  1  0.250280  0.249576  0.249878  1
  B  B17  1  0.999720  0.000424  0.000122  1
  Ir  Ir18  1  0.901172  0.900992  0.901356  1
  Ir  Ir19  1  0.901288  0.296705  0.900916  1
  Ir  Ir20  1  0.296465  0.900935  0.901457  1
  Ir  Ir21  1  0.348872  0.349153  0.953385  1
  Ir  Ir22  1  0.953535  0.349065  0.348543  1
  Ir  Ir23  1  0.901128  0.900847  0.296615  1
  Ir  Ir24  1  0.348712  0.953295  0.349084  1
  Ir  Ir25  1  0.348828  0.349008  0.348644  1
