# generated using pymatgen
data_EuDyFe4(PIr)6
_symmetry_space_group_name_H-M   'P 1'
_cell_length_a   3.87154500
_cell_length_b   10.50301200
_cell_length_c   12.37176500
_cell_angle_alpha   90.00000000
_cell_angle_beta   90.00000000
_cell_angle_gamma   90.00000000
_symmetry_Int_Tables_number   1
_chemical_formula_structural   EuDyFe4(PIr)6
_chemical_formula_sum   'Eu2 Dy2 Fe8 P12 Ir12'
_cell_volume   503.07164004
_cell_formula_units_Z   2
loop_
 _symmetry_equiv_pos_site_id
 _symmetry_equiv_pos_as_xyz
  1  'x, y, z'
loop_
 _atom_site_type_symbol
 _atom_site_label
 _atom_site_symmetry_multiplicity
 _atom_site_fract_x
 _atom_site_fract_y
 _atom_site_fract_z
 _atom_site_occupancy
  Eu  Eu0  1  0.250000  0.579519  0.712440  1
  Eu  Eu1  1  0.250000  0.920481  0.212440  1
  Dy  Dy2  1  0.750000  0.420616  0.287226  1
  Dy  Dy3  1  0.750000  0.079384  0.787226  1
  Fe  Fe4  1  0.250000  0.876645  0.697042  1
  Fe  Fe5  1  0.250000  0.623355  0.197042  1
  Fe  Fe6  1  0.750000  0.128592  0.304854  1
  Fe  Fe7  1  0.750000  0.371408  0.804854  1
  Fe  Fe8  1  0.250000  0.456172  0.938953  1
  Fe  Fe9  1  0.250000  0.043828  0.438953  1
  Fe  Fe10  1  0.750000  0.542776  0.062955  1
  Fe  Fe11  1  0.750000  0.957224  0.562955  1
  P  P12  1  0.250000  0.440999  0.112769  1
  P  P13  1  0.250000  0.059001  0.612769  1
  P  P14  1  0.750000  0.558325  0.888425  1
  P  P15  1  0.750000  0.941675  0.388425  1
  P  P16  1  0.250000  0.272383  0.861709  1
  P  P17  1  0.250000  0.227617  0.361709  1
  P  P18  1  0.750000  0.727962  0.137149  1
  P  P19  1  0.750000  0.772038  0.637149  1
  P  P20  1  0.250000  0.600937  0.378016  1
  P  P21  1  0.250000  0.899063  0.878016  1
  P  P22  1  0.750000  0.399405  0.622313  1
  P  P23  1  0.750000  0.100595  0.122313  1
  Ir  Ir24  1  0.250000  0.714839  0.988805  1
  Ir  Ir25  1  0.250000  0.785161  0.488805  1
  Ir  Ir26  1  0.750000  0.283994  0.012100  1
  Ir  Ir27  1  0.750000  0.216006  0.512100  1
  Ir  Ir28  1  0.250000  0.407769  0.473792  1
  Ir  Ir29  1  0.250000  0.092231  0.973792  1
  Ir  Ir30  1  0.750000  0.590682  0.521225  1
  Ir  Ir31  1  0.750000  0.909318  0.021225  1
  Ir  Ir32  1  0.250000  0.231110  0.172859  1
  Ir  Ir33  1  0.250000  0.268890  0.672859  1
  Ir  Ir34  1  0.750000  0.772200  0.827369  1
  Ir  Ir35  1  0.750000  0.727800  0.327369  1
