# generated using pymatgen
data_EuDy3(Si3Rh)2
_symmetry_space_group_name_H-M   'P 1'
_cell_length_a   8.22408300
_cell_length_b   8.22408242
_cell_length_c   8.13617900
_cell_angle_alpha   90.00000000
_cell_angle_beta   90.00000000
_cell_angle_gamma   119.99999026
_symmetry_Int_Tables_number   1
_chemical_formula_structural   EuDy3(Si3Rh)2
_chemical_formula_sum   'Eu2 Dy6 Si12 Rh4'
_cell_volume   476.56935022
_cell_formula_units_Z   2
loop_
 _symmetry_equiv_pos_site_id
 _symmetry_equiv_pos_as_xyz
  1  'x, y, z'
loop_
 _atom_site_type_symbol
 _atom_site_label
 _atom_site_symmetry_multiplicity
 _atom_site_fract_x
 _atom_site_fract_y
 _atom_site_fract_z
 _atom_site_occupancy
  Eu  Eu0  1  0.000000  0.000000  0.250000  1
  Eu  Eu1  1  0.000000  0.000000  0.750000  1
  Dy  Dy2  1  0.503524  0.496476  0.250000  1
  Dy  Dy3  1  0.503524  0.007047  0.250000  1
  Dy  Dy4  1  0.992953  0.496476  0.250000  1
  Dy  Dy5  1  0.496476  0.503524  0.750000  1
  Dy  Dy6  1  0.496476  0.992953  0.750000  1
  Dy  Dy7  1  0.007047  0.503524  0.750000  1
  Si  Si8  1  0.167350  0.832650  0.502779  1
  Si  Si9  1  0.167350  0.334702  0.502779  1
  Si  Si10  1  0.665298  0.832650  0.502779  1
  Si  Si11  1  0.832650  0.167350  0.497221  1
  Si  Si12  1  0.832650  0.665298  0.497221  1
  Si  Si13  1  0.334702  0.167350  0.497221  1
  Si  Si14  1  0.832650  0.167350  0.002779  1
  Si  Si15  1  0.832650  0.665298  0.002779  1
  Si  Si16  1  0.334702  0.167350  0.002779  1
  Si  Si17  1  0.167350  0.832650  0.997221  1
  Si  Si18  1  0.167350  0.334702  0.997221  1
  Si  Si19  1  0.665298  0.832650  0.997221  1
  Rh  Rh20  1  0.333333  0.666667  0.483780  1
  Rh  Rh21  1  0.666667  0.333333  0.516220  1
  Rh  Rh22  1  0.666667  0.333333  0.983780  1
  Rh  Rh23  1  0.333333  0.666667  0.016220  1
