# generated using pymatgen
data_LiHo3Al2Si2Pd
_symmetry_space_group_name_H-M   'P 1'
_cell_length_a   6.93816300
_cell_length_b   6.84435035
_cell_length_c   4.28167000
_cell_angle_alpha   90.00000000
_cell_angle_beta   90.00000000
_cell_angle_gamma   120.45446026
_symmetry_Int_Tables_number   1
_chemical_formula_structural   LiHo3Al2Si2Pd
_chemical_formula_sum   'Li1 Ho3 Al2 Si2 Pd1'
_cell_volume   175.27236885
_cell_formula_units_Z   1
loop_
 _symmetry_equiv_pos_site_id
 _symmetry_equiv_pos_as_xyz
  1  'x, y, z'
loop_
 _atom_site_type_symbol
 _atom_site_label
 _atom_site_symmetry_multiplicity
 _atom_site_fract_x
 _atom_site_fract_y
 _atom_site_fract_z
 _atom_site_occupancy
  Li  Li0  1  0.759855  0.000000  0.500000  1
  Ho  Ho1  1  0.424279  0.000000  0.000000  1
  Ho  Ho2  1  0.994868  0.414939  0.000000  1
  Ho  Ho3  1  0.579928  0.585060  0.000000  1
  Al  Al4  1  0.234566  0.236014  0.500000  1
  Al  Al5  1  0.998554  0.763988  0.500000  1
  Si  Si6  1  0.664164  0.339132  0.500000  1
  Si  Si7  1  0.325034  0.660869  0.500000  1
  Pd  Pd8  1  0.018753  0.000000  0.000000  1
