# generated using pymatgen
data_NaY4Nb3(Ni4As3)4
_symmetry_space_group_name_H-M   'P 1'
_cell_length_a   12.67114000
_cell_length_b   12.67114038
_cell_length_c   3.88816800
_cell_angle_alpha   90.00000000
_cell_angle_beta   90.00000000
_cell_angle_gamma   120.00000422
_symmetry_Int_Tables_number   1
_chemical_formula_structural   NaY4Nb3(Ni4As3)4
_chemical_formula_sum   'Na1 Y4 Nb3 Ni16 As12'
_cell_volume   540.63857124
_cell_formula_units_Z   1
loop_
 _symmetry_equiv_pos_site_id
 _symmetry_equiv_pos_as_xyz
  1  'x, y, z'
loop_
 _atom_site_type_symbol
 _atom_site_label
 _atom_site_symmetry_multiplicity
 _atom_site_fract_x
 _atom_site_fract_y
 _atom_site_fract_z
 _atom_site_occupancy
  Na  Na0  1  0.333333  0.666667  0.000000  1
  Y  Y1  1  0.185511  0.185867  0.500000  1
  Y  Y2  1  0.814133  0.999644  0.500000  1
  Y  Y3  1  0.000356  0.814489  0.500000  1
  Y  Y4  1  0.666667  0.333333  0.000000  1
  Nb  Nb5  1  0.562819  0.563862  0.000000  1
  Nb  Nb6  1  0.436138  0.998958  0.000000  1
  Nb  Nb7  1  0.001042  0.437181  0.000000  1
  Ni  Ni8  1  0.720019  0.721746  0.500000  1
  Ni  Ni9  1  0.278254  0.998273  0.500000  1
  Ni  Ni10  1  0.001727  0.279981  0.500000  1
  Ni  Ni11  1  0.181744  0.375679  0.000000  1
  Ni  Ni12  1  0.624321  0.806065  0.000000  1
  Ni  Ni13  1  0.193935  0.818256  0.000000  1
  Ni  Ni14  1  0.806448  0.623088  0.000000  1
  Ni  Ni15  1  0.816640  0.193552  0.000000  1
  Ni  Ni16  1  0.376912  0.183360  0.000000  1
  Ni  Ni17  1  0.361362  0.481650  0.500000  1
  Ni  Ni18  1  0.518350  0.879713  0.500000  1
  Ni  Ni19  1  0.120287  0.638638  0.500000  1
  Ni  Ni20  1  0.876721  0.516645  0.500000  1
  Ni  Ni21  1  0.639925  0.123279  0.500000  1
  Ni  Ni22  1  0.483355  0.360075  0.500000  1
  Ni  Ni23  1  0.000000  0.000000  0.000000  1
  As  As24  1  0.822054  0.821290  0.000000  1
  As  As25  1  0.178710  0.000765  0.000000  1
  As  As26  1  0.999235  0.177946  0.000000  1
  As  As27  1  0.171976  0.482401  0.500000  1
  As  As28  1  0.517599  0.689575  0.500000  1
  As  As29  1  0.310425  0.828024  0.500000  1
  As  As30  1  0.688873  0.520295  0.500000  1
  As  As31  1  0.831422  0.311127  0.500000  1
  As  As32  1  0.479705  0.168578  0.500000  1
  As  As33  1  0.361453  0.361706  0.000000  1
  As  As34  1  0.638294  0.999747  0.000000  1
  As  As35  1  0.000253  0.638547  0.000000  1
