# generated using pymatgen
data_TbErPb4
_symmetry_space_group_name_H-M   'P 1'
_cell_length_a   8.56994090
_cell_length_b   8.56994133
_cell_length_c   4.52949100
_cell_angle_alpha   90.00000000
_cell_angle_beta   90.00000000
_cell_angle_gamma   148.65788719
_symmetry_Int_Tables_number   1
_chemical_formula_structural   TbErPb4
_chemical_formula_sum   'Tb1 Er1 Pb4'
_cell_volume   173.03389294
_cell_formula_units_Z   1
loop_
 _symmetry_equiv_pos_site_id
 _symmetry_equiv_pos_as_xyz
  1  'x, y, z'
loop_
 _atom_site_type_symbol
 _atom_site_label
 _atom_site_symmetry_multiplicity
 _atom_site_fract_x
 _atom_site_fract_y
 _atom_site_fract_z
 _atom_site_occupancy
  Tb  Tb0  1  0.404884  0.595117  0.750000  1
  Er  Er1  1  0.595335  0.404666  0.249999  1
  Pb  Pb2  1  0.931750  0.068252  0.249999  1
  Pb  Pb3  1  0.248328  0.751674  0.249999  1
  Pb  Pb4  1  0.750873  0.249129  0.750000  1
  Pb  Pb5  1  0.068836  0.931166  0.750000  1
