# generated using pymatgen
data_Ba3TcBr2O5
_symmetry_space_group_name_H-M   'P 1'
_cell_length_a   8.19202600
_cell_length_b   8.19202457
_cell_length_c   11.52917800
_cell_angle_alpha   90.00000000
_cell_angle_beta   90.00000000
_cell_angle_gamma   138.00245983
_symmetry_Int_Tables_number   1
_chemical_formula_structural   Ba3TcBr2O5
_chemical_formula_sum   'Ba6 Tc2 Br4 O10'
_cell_volume   517.69157757
_cell_formula_units_Z   2
loop_
 _symmetry_equiv_pos_site_id
 _symmetry_equiv_pos_as_xyz
  1  'x, y, z'
loop_
 _atom_site_type_symbol
 _atom_site_label
 _atom_site_symmetry_multiplicity
 _atom_site_fract_x
 _atom_site_fract_y
 _atom_site_fract_z
 _atom_site_occupancy
  Ba  Ba0  1  0.343479  0.656521  0.959021  1
  Ba  Ba1  1  0.656521  0.343479  0.459021  1
  Ba  Ba2  1  0.343479  0.656521  0.540979  1
  Ba  Ba3  1  0.113635  0.886365  0.750000  1
  Ba  Ba4  1  0.656521  0.343479  0.040979  1
  Ba  Ba5  1  0.886365  0.113635  0.250000  1
  Tc  Tc6  1  0.236991  0.763009  0.250000  1
  Tc  Tc7  1  0.763009  0.236991  0.750000  1
  Br  Br8  1  0.506701  0.493299  0.750000  1
  Br  Br9  1  0.000000  0.000000  0.000000  1
  Br  Br10  1  0.000000  0.000000  0.500000  1
  Br  Br11  1  0.493299  0.506701  0.250000  1
  O  O12  1  0.496234  0.947713  0.136746  1
  O  O13  1  0.875095  0.124905  0.750000  1
  O  O14  1  0.947713  0.496234  0.636746  1
  O  O15  1  0.503766  0.052287  0.863254  1
  O  O16  1  0.124905  0.875095  0.250000  1
  O  O17  1  0.503766  0.052287  0.636746  1
  O  O18  1  0.947713  0.496234  0.863254  1
  O  O19  1  0.052287  0.503766  0.136746  1
  O  O20  1  0.496234  0.947713  0.363254  1
  O  O21  1  0.052287  0.503766  0.363254  1
