# generated using pymatgen
data_YEr2Fe2Co7P6
_symmetry_space_group_name_H-M   'P 1'
_cell_length_a   3.69538900
_cell_length_b   10.53941200
_cell_length_c   12.08769500
_cell_angle_alpha   90.00000000
_cell_angle_beta   90.00000000
_cell_angle_gamma   90.00000000
_symmetry_Int_Tables_number   1
_chemical_formula_structural   YEr2Fe2Co7P6
_chemical_formula_sum   'Y2 Er4 Fe4 Co14 P12'
_cell_volume   470.78220314
_cell_formula_units_Z   2
loop_
 _symmetry_equiv_pos_site_id
 _symmetry_equiv_pos_as_xyz
  1  'x, y, z'
loop_
 _atom_site_type_symbol
 _atom_site_label
 _atom_site_symmetry_multiplicity
 _atom_site_fract_x
 _atom_site_fract_y
 _atom_site_fract_z
 _atom_site_occupancy
  Y  Y0  1  0.750000  0.250000  0.477206  1
  Y  Y1  1  0.250000  0.750000  0.522794  1
  Er  Er2  1  0.250000  0.930821  0.796045  1
  Er  Er3  1  0.250000  0.569179  0.796045  1
  Er  Er4  1  0.750000  0.069179  0.203955  1
  Er  Er5  1  0.750000  0.430821  0.203955  1
  Fe  Fe6  1  0.250000  0.250000  0.844135  1
  Fe  Fe7  1  0.750000  0.750000  0.155865  1
  Fe  Fe8  1  0.750000  0.250000  0.011600  1
  Fe  Fe9  1  0.250000  0.750000  0.988400  1
  Co  Co10  1  0.250000  0.250000  0.297968  1
  Co  Co11  1  0.750000  0.750000  0.702032  1
  Co  Co12  1  0.250000  0.418372  0.005846  1
  Co  Co13  1  0.250000  0.081628  0.005846  1
  Co  Co14  1  0.750000  0.581628  0.994154  1
  Co  Co15  1  0.750000  0.918372  0.994154  1
  Co  Co16  1  0.250000  0.453564  0.569869  1
  Co  Co17  1  0.250000  0.046436  0.569869  1
  Co  Co18  1  0.750000  0.546436  0.430131  1
  Co  Co19  1  0.750000  0.953564  0.430131  1
  Co  Co20  1  0.250000  0.871374  0.290444  1
  Co  Co21  1  0.250000  0.628626  0.290444  1
  Co  Co22  1  0.750000  0.128626  0.709556  1
  Co  Co23  1  0.750000  0.371374  0.709556  1
  P  P24  1  0.250000  0.250000  0.115798  1
  P  P25  1  0.750000  0.750000  0.884202  1
  P  P26  1  0.250000  0.250000  0.658405  1
  P  P27  1  0.750000  0.750000  0.341595  1
  P  P28  1  0.250000  0.439957  0.382624  1
  P  P29  1  0.250000  0.060043  0.382624  1
  P  P30  1  0.750000  0.560043  0.617376  1
  P  P31  1  0.750000  0.939957  0.617376  1
  P  P32  1  0.250000  0.902779  0.106662  1
  P  P33  1  0.250000  0.597221  0.106662  1
  P  P34  1  0.750000  0.097221  0.893338  1
  P  P35  1  0.750000  0.402779  0.893338  1
