# generated using pymatgen
data_Tm16MgTl3Pt4
_symmetry_space_group_name_H-M   'P 1'
_cell_length_a   9.63264748
_cell_length_b   9.59665519
_cell_length_c   9.59665500
_cell_angle_alpha   60.00000409
_cell_angle_beta   60.12352941
_cell_angle_gamma   60.12352126
_symmetry_Int_Tables_number   1
_chemical_formula_structural   Tm16MgTl3Pt4
_chemical_formula_sum   'Tm16 Mg1 Tl3 Pt4'
_cell_volume   628.46167993
_cell_formula_units_Z   1
loop_
 _symmetry_equiv_pos_site_id
 _symmetry_equiv_pos_as_xyz
  1  'x, y, z'
loop_
 _atom_site_type_symbol
 _atom_site_label
 _atom_site_symmetry_multiplicity
 _atom_site_fract_x
 _atom_site_fract_y
 _atom_site_fract_z
 _atom_site_occupancy
  Tm  Tm0  1  0.600611  0.599756  0.599756  1
  Tm  Tm1  1  0.600608  0.599751  0.199884  1
  Tm  Tm2  1  0.600608  0.199884  0.599751  1
  Tm  Tm3  1  0.196891  0.601033  0.601033  1
  Tm  Tm4  1  0.059745  0.439445  0.439445  1
  Tm  Tm5  1  0.435934  0.062866  0.062866  1
  Tm  Tm6  1  0.435933  0.062866  0.438332  1
  Tm  Tm7  1  0.059745  0.439439  0.061370  1
  Tm  Tm8  1  0.435933  0.438332  0.062866  1
  Tm  Tm9  1  0.059745  0.061370  0.439439  1
  Tm  Tm10  1  0.186295  0.814124  0.814124  1
  Tm  Tm11  1  0.813925  0.187329  0.187329  1
  Tm  Tm12  1  0.813928  0.187332  0.811412  1
  Tm  Tm13  1  0.186296  0.814124  0.185453  1
  Tm  Tm14  1  0.813928  0.811412  0.187332  1
  Tm  Tm15  1  0.186296  0.185453  0.814124  1
  Mg  Mg16  1  0.514941  0.828360  0.828360  1
  Tl  Tl17  1  0.833577  0.836651  0.836651  1
  Tl  Tl18  1  0.833575  0.836653  0.493116  1
  Tl  Tl19  1  0.833575  0.493116  0.836653  1
  Pt  Pt20  1  0.392104  0.393215  0.393215  1
  Pt  Pt21  1  0.392118  0.393227  0.821446  1
  Pt  Pt22  1  0.392118  0.821446  0.393227  1
  Pt  Pt23  1  0.821576  0.392820  0.392820  1
