# generated using pymatgen
data_Tb4EuY2PtI12
_symmetry_space_group_name_H-M   'P 1'
_cell_length_a   9.85455899
_cell_length_b   9.85420482
_cell_length_c   9.83485339
_cell_angle_alpha   106.63707310
_cell_angle_beta   106.65776010
_cell_angle_gamma   106.64749785
_symmetry_Int_Tables_number   1
_chemical_formula_structural   Tb4EuY2PtI12
_chemical_formula_sum   'Tb4 Eu1 Y2 Pt1 I12'
_cell_volume   802.90238341
_cell_formula_units_Z   1
loop_
 _symmetry_equiv_pos_site_id
 _symmetry_equiv_pos_as_xyz
  1  'x, y, z'
loop_
 _atom_site_type_symbol
 _atom_site_label
 _atom_site_symmetry_multiplicity
 _atom_site_fract_x
 _atom_site_fract_y
 _atom_site_fract_z
 _atom_site_occupancy
  Tb  Tb0  1  0.024795  0.300389  0.097093  1
  Tb  Tb1  1  0.903177  0.975487  0.699402  1
  Tb  Tb2  1  0.699496  0.902988  0.975623  1
  Tb  Tb3  1  0.975699  0.699828  0.903310  1
  Eu  Eu4  1  0.500074  0.500090  0.500095  1
  Y  Y5  1  0.097099  0.024711  0.300624  1
  Y  Y6  1  0.300612  0.096956  0.024859  1
  Pt  Pt7  1  0.999497  0.999949  0.999595  1
  I  I8  1  0.073870  0.678142  0.223366  1
  I  I9  1  0.223133  0.073659  0.677186  1
  I  I10  1  0.676792  0.222946  0.073608  1
  I  I11  1  0.926389  0.322298  0.777022  1
  I  I12  1  0.777561  0.926455  0.322241  1
  I  I13  1  0.322265  0.777466  0.926447  1
  I  I14  1  0.453490  0.141718  0.374672  1
  I  I15  1  0.375131  0.453597  0.141917  1
  I  I16  1  0.142086  0.374785  0.454156  1
  I  I17  1  0.545882  0.857944  0.625039  1
  I  I18  1  0.624940  0.545683  0.857856  1
  I  I19  1  0.858011  0.624909  0.545889  1
