# generated using pymatgen
data_Cs4Nd4TiGe3Se16
_symmetry_space_group_name_H-M   'P 1'
_cell_length_a   7.22528694
_cell_length_b   6.93567059
_cell_length_c   19.90739534
_cell_angle_alpha   71.17728036
_cell_angle_beta   89.98050076
_cell_angle_gamma   90.10557926
_symmetry_Int_Tables_number   1
_chemical_formula_structural   Cs4Nd4TiGe3Se16
_chemical_formula_sum   'Cs4 Nd4 Ti1 Ge3 Se16'
_cell_volume   944.25106892
_cell_formula_units_Z   1
loop_
 _symmetry_equiv_pos_site_id
 _symmetry_equiv_pos_as_xyz
  1  'x, y, z'
loop_
 _atom_site_type_symbol
 _atom_site_label
 _atom_site_symmetry_multiplicity
 _atom_site_fract_x
 _atom_site_fract_y
 _atom_site_fract_z
 _atom_site_occupancy
  Cs  Cs0  1  0.750802  0.727715  0.033134  1
  Cs  Cs1  1  0.248616  0.271972  0.967229  1
  Cs  Cs2  1  0.748325  0.728855  0.532920  1
  Cs  Cs3  1  0.250548  0.271190  0.466927  1
  Nd  Nd4  1  0.233312  0.227542  0.226953  1
  Nd  Nd5  1  0.733103  0.772505  0.273026  1
  Nd  Nd6  1  0.768892  0.775419  0.772853  1
  Nd  Nd7  1  0.266702  0.226565  0.727406  1
  Ti  Ti8  1  0.731155  0.215830  0.834005  1
  Ge  Ge9  1  0.767156  0.213543  0.333724  1
  Ge  Ge10  1  0.233374  0.785496  0.666192  1
  Ge  Ge11  1  0.267093  0.786425  0.166300  1
  Se  Se12  1  0.505934  0.039193  0.144124  1
  Se  Se13  1  0.759685  0.414810  0.409285  1
  Se  Se14  1  0.004330  0.005570  0.846268  1
  Se  Se15  1  0.838750  0.429291  0.217084  1
  Se  Se16  1  0.995097  0.037899  0.644174  1
  Se  Se17  1  0.259562  0.585275  0.090751  1
  Se  Se18  1  0.741390  0.418883  0.909757  1
  Se  Se19  1  0.338571  0.570698  0.282970  1
  Se  Se20  1  0.238309  0.584640  0.590686  1
  Se  Se21  1  0.493679  0.961472  0.855623  1
  Se  Se22  1  0.663263  0.428197  0.716651  1
  Se  Se23  1  0.161310  0.568633  0.782616  1
  Se  Se24  1  0.005685  0.961208  0.355877  1
  Se  Se25  1  0.994834  0.991788  0.152999  1
  Se  Se26  1  0.494510  0.008016  0.347011  1
  Se  Se27  1  0.506010  0.991369  0.653457  1
