# generated using pymatgen
data_Ho8Tm8Cd4Ir3Ru
_symmetry_space_group_name_H-M   'P 1'
_cell_length_a   9.56746807
_cell_length_b   9.56746722
_cell_length_c   9.57661676
_cell_angle_alpha   59.58583262
_cell_angle_beta   59.58583338
_cell_angle_gamma   59.64539221
_symmetry_Int_Tables_number   1
_chemical_formula_structural   Ho8Tm8Cd4Ir3Ru
_chemical_formula_sum   'Ho8 Tm8 Cd4 Ir3 Ru1'
_cell_volume   614.30084345
_cell_formula_units_Z   1
loop_
 _symmetry_equiv_pos_site_id
 _symmetry_equiv_pos_as_xyz
  1  'x, y, z'
loop_
 _atom_site_type_symbol
 _atom_site_label
 _atom_site_symmetry_multiplicity
 _atom_site_fract_x
 _atom_site_fract_y
 _atom_site_fract_z
 _atom_site_occupancy
  Ho  Ho0  1  0.438324  0.438324  0.062281  1
  Ho  Ho1  1  0.060530  0.060530  0.437649  1
  Ho  Ho2  1  0.189431  0.811157  0.811069  1
  Ho  Ho3  1  0.809402  0.188688  0.188631  1
  Ho  Ho4  1  0.811157  0.189431  0.811069  1
  Ho  Ho5  1  0.188688  0.809402  0.188631  1
  Ho  Ho6  1  0.811064  0.811064  0.189454  1
  Ho  Ho7  1  0.188778  0.188778  0.809347  1
  Tm  Tm8  1  0.598900  0.598900  0.598672  1
  Tm  Tm9  1  0.598570  0.598570  0.206715  1
  Tm  Tm10  1  0.597912  0.206644  0.598621  1
  Tm  Tm11  1  0.206644  0.597912  0.598621  1
  Tm  Tm12  1  0.061766  0.438697  0.438689  1
  Tm  Tm13  1  0.438014  0.060221  0.060153  1
  Tm  Tm14  1  0.438697  0.061766  0.438689  1
  Tm  Tm15  1  0.060221  0.438014  0.060153  1
  Cd  Cd16  1  0.829817  0.829817  0.830038  1
  Cd  Cd17  1  0.830671  0.830671  0.506864  1
  Cd  Cd18  1  0.830847  0.506963  0.830609  1
  Cd  Cd19  1  0.506963  0.830847  0.830609  1
  Ir  Ir20  1  0.392889  0.392889  0.825622  1
  Ir  Ir21  1  0.393822  0.825540  0.393027  1
  Ir  Ir22  1  0.825540  0.393822  0.393027  1
  Ru  Ru23  1  0.391355  0.391355  0.391761  1
