# generated using pymatgen
data_LuSc2Ga5Pt
_symmetry_space_group_name_H-M   'P 1'
_cell_length_a   6.79352614
_cell_length_b   6.73037090
_cell_length_c   4.15699800
_cell_angle_alpha   90.00000000
_cell_angle_beta   90.00000000
_cell_angle_gamma   119.69296847
_symmetry_Int_Tables_number   1
_chemical_formula_structural   LuSc2Ga5Pt
_chemical_formula_sum   'Lu1 Sc2 Ga5 Pt1'
_cell_volume   165.11253410
_cell_formula_units_Z   1
loop_
 _symmetry_equiv_pos_site_id
 _symmetry_equiv_pos_as_xyz
  1  'x, y, z'
loop_
 _atom_site_type_symbol
 _atom_site_label
 _atom_site_symmetry_multiplicity
 _atom_site_fract_x
 _atom_site_fract_y
 _atom_site_fract_z
 _atom_site_occupancy
  Lu  Lu0  1  0.000000  0.582510  0.500000  1
  Sc  Sc1  1  0.584883  0.997639  0.500000  1
  Sc  Sc2  1  0.415117  0.412756  0.500000  1
  Ga  Ga3  1  0.247106  0.001513  0.000000  1
  Ga  Ga4  1  0.000000  0.246811  0.000000  1
  Ga  Ga5  1  0.659862  0.328731  0.000000  1
  Ga  Ga6  1  0.340138  0.668870  0.000000  1
  Ga  Ga7  1  0.752894  0.754407  0.000000  1
  Pt  Pt8  1  0.000000  0.006763  0.500000  1
