# generated using pymatgen
data_Y4Ho16Cd6TcRu
_symmetry_space_group_name_H-M   'P 1'
_cell_length_a   9.54678201
_cell_length_b   9.54760880
_cell_length_c   9.87423500
_cell_angle_alpha   90.00000000
_cell_angle_beta   90.00000000
_cell_angle_gamma   120.00286598
_symmetry_Int_Tables_number   1
_chemical_formula_structural   Y4Ho16Cd6TcRu
_chemical_formula_sum   'Y4 Ho16 Cd6 Tc1 Ru1'
_cell_volume   779.42291528
_cell_formula_units_Z   1
loop_
 _symmetry_equiv_pos_site_id
 _symmetry_equiv_pos_as_xyz
  1  'x, y, z'
loop_
 _atom_site_type_symbol
 _atom_site_label
 _atom_site_symmetry_multiplicity
 _atom_site_fract_x
 _atom_site_fract_y
 _atom_site_fract_z
 _atom_site_occupancy
  Y  Y0  1  0.539941  0.460092  0.250000  1
  Y  Y1  1  0.539941  0.079848  0.250000  1
  Y  Y2  1  0.920110  0.460055  0.250000  1
  Y  Y3  1  0.082731  0.541366  0.750000  1
  Ho  Ho4  1  0.999940  0.999970  0.500157  1
  Ho  Ho5  1  0.999940  0.999970  0.999843  1
  Ho  Ho6  1  0.210095  0.790154  0.441242  1
  Ho  Ho7  1  0.210095  0.419941  0.441242  1
  Ho  Ho8  1  0.579984  0.789992  0.441358  1
  Ho  Ho9  1  0.789641  0.209986  0.559380  1
  Ho  Ho10  1  0.789641  0.579653  0.559380  1
  Ho  Ho11  1  0.420336  0.210167  0.559442  1
  Ho  Ho12  1  0.789641  0.209986  0.940620  1
  Ho  Ho13  1  0.789641  0.579653  0.940620  1
  Ho  Ho14  1  0.420336  0.210167  0.940558  1
  Ho  Ho15  1  0.210095  0.790154  0.058758  1
  Ho  Ho16  1  0.210095  0.419941  0.058758  1
  Ho  Ho17  1  0.579984  0.789992  0.058642  1
  Ho  Ho18  1  0.458988  0.541210  0.750000  1
  Ho  Ho19  1  0.458988  0.917780  0.750000  1
  Cd  Cd20  1  0.885561  0.114503  0.250000  1
  Cd  Cd21  1  0.885561  0.771059  0.250000  1
  Cd  Cd22  1  0.228905  0.114453  0.250000  1
  Cd  Cd23  1  0.114487  0.885731  0.750000  1
  Cd  Cd24  1  0.114487  0.228756  0.750000  1
  Cd  Cd25  1  0.771044  0.885522  0.750000  1
  Tc  Tc26  1  0.333351  0.666676  0.250000  1
  Ru  Ru27  1  0.666446  0.333223  0.750000  1
