# generated using pymatgen
data_DyTm3Lu4(WO6)4
_symmetry_space_group_name_H-M   'P 1'
_cell_length_a   5.33095200
_cell_length_b   7.61514255
_cell_length_c   11.32108101
_cell_angle_alpha   75.30651476
_cell_angle_beta   90.00000000
_cell_angle_gamma   90.00000000
_symmetry_Int_Tables_number   1
_chemical_formula_structural   DyTm3Lu4(WO6)4
_chemical_formula_sum   'Dy1 Tm3 Lu4 W4 O24'
_cell_volume   444.55998446
_cell_formula_units_Z   1
loop_
 _symmetry_equiv_pos_site_id
 _symmetry_equiv_pos_as_xyz
  1  'x, y, z'
loop_
 _atom_site_type_symbol
 _atom_site_label
 _atom_site_symmetry_multiplicity
 _atom_site_fract_x
 _atom_site_fract_y
 _atom_site_fract_z
 _atom_site_occupancy
  Dy  Dy0  1  0.315055  0.500000  0.750000  1
  Tm  Tm1  1  0.258024  0.000000  0.750000  1
  Tm  Tm2  1  0.741465  0.000000  0.250000  1
  Tm  Tm3  1  0.684915  0.500000  0.250000  1
  Lu  Lu4  1  0.182797  0.794095  0.079262  1
  Lu  Lu5  1  0.182797  0.205905  0.420738  1
  Lu  Lu6  1  0.816843  0.205149  0.921307  1
  Lu  Lu7  1  0.816843  0.794851  0.578693  1
  W  W8  1  0.743703  0.724238  0.886104  1
  W  W9  1  0.256372  0.723784  0.385196  1
  W  W10  1  0.743703  0.275762  0.613896  1
  W  W11  1  0.256372  0.276216  0.114804  1
  O  O12  1  0.540447  0.154396  0.068403  1
  O  O13  1  0.044334  0.057414  0.104306  1
  O  O14  1  0.019526  0.713824  0.769772  1
  O  O15  1  0.458780  0.154551  0.568228  1
  O  O16  1  0.361301  0.487273  0.385180  1
  O  O17  1  0.955971  0.057815  0.603445  1
  O  O18  1  0.542297  0.794225  0.724978  1
  O  O19  1  0.458535  0.793228  0.224781  1
  O  O20  1  0.146552  0.634600  0.549489  1
  O  O21  1  0.044334  0.942586  0.395694  1
  O  O22  1  0.458780  0.845449  0.931772  1
  O  O23  1  0.458535  0.206772  0.275219  1
  O  O24  1  0.852095  0.365382  0.449010  1
  O  O25  1  0.642435  0.487086  0.886456  1
  O  O26  1  0.361301  0.512727  0.114820  1
  O  O27  1  0.955971  0.942185  0.896555  1
  O  O28  1  0.540447  0.845604  0.431597  1
  O  O29  1  0.978283  0.288696  0.229938  1
  O  O30  1  0.542297  0.205775  0.775022  1
  O  O31  1  0.852095  0.634618  0.050990  1
  O  O32  1  0.019526  0.286176  0.730228  1
  O  O33  1  0.146552  0.365400  0.950511  1
  O  O34  1  0.978283  0.711304  0.270062  1
  O  O35  1  0.642435  0.512914  0.613544  1
