# generated using pymatgen
data_EuDy(SiPd2)2
_symmetry_space_group_name_H-M   'P 1'
_cell_length_a   5.61652900
_cell_length_b   7.02818600
_cell_length_c   7.47725400
_cell_angle_alpha   90.00000000
_cell_angle_beta   90.00000000
_cell_angle_gamma   90.00000000
_symmetry_Int_Tables_number   1
_chemical_formula_structural   EuDy(SiPd2)2
_chemical_formula_sum   'Eu2 Dy2 Si4 Pd8'
_cell_volume   295.15720281
_cell_formula_units_Z   2
loop_
 _symmetry_equiv_pos_site_id
 _symmetry_equiv_pos_as_xyz
  1  'x, y, z'
loop_
 _atom_site_type_symbol
 _atom_site_label
 _atom_site_symmetry_multiplicity
 _atom_site_fract_x
 _atom_site_fract_y
 _atom_site_fract_z
 _atom_site_occupancy
  Eu  Eu0  1  0.361674  0.750000  0.027814  1
  Eu  Eu1  1  0.138326  0.750000  0.527814  1
  Dy  Dy2  1  0.641956  0.250000  0.971201  1
  Dy  Dy3  1  0.858044  0.250000  0.471201  1
  Si  Si4  1  0.641628  0.750000  0.377337  1
  Si  Si5  1  0.858372  0.750000  0.877337  1
  Si  Si6  1  0.358859  0.250000  0.625257  1
  Si  Si7  1  0.141141  0.250000  0.125257  1
  Pd  Pd8  1  0.898016  0.549583  0.173911  1
  Pd  Pd9  1  0.601984  0.950417  0.673911  1
  Pd  Pd10  1  0.088113  0.055507  0.825285  1
  Pd  Pd11  1  0.411887  0.444493  0.325285  1
  Pd  Pd12  1  0.088113  0.444493  0.825285  1
  Pd  Pd13  1  0.411887  0.055507  0.325285  1
  Pd  Pd14  1  0.898016  0.950417  0.173911  1
  Pd  Pd15  1  0.601984  0.549583  0.673911  1
