# generated using pymatgen
data_Tb20Bi7Ir4Pb
_symmetry_space_group_name_H-M   'P 1'
_cell_length_a   8.05350068
_cell_length_b   9.04960901
_cell_length_c   12.53883552
_cell_angle_alpha   90.03977130
_cell_angle_beta   90.03027926
_cell_angle_gamma   89.99646336
_symmetry_Int_Tables_number   1
_chemical_formula_structural   Tb20Bi7Ir4Pb
_chemical_formula_sum   'Tb20 Bi7 Ir4 Pb1'
_cell_volume   913.84292734
_cell_formula_units_Z   1
loop_
 _symmetry_equiv_pos_site_id
 _symmetry_equiv_pos_as_xyz
  1  'x, y, z'
loop_
 _atom_site_type_symbol
 _atom_site_label
 _atom_site_symmetry_multiplicity
 _atom_site_fract_x
 _atom_site_fract_y
 _atom_site_fract_z
 _atom_site_occupancy
  Tb  Tb0  1  0.839844  0.747954  0.792431  1
  Tb  Tb1  1  0.158383  0.250553  0.206008  1
  Tb  Tb2  1  0.342431  0.251271  0.708181  1
  Tb  Tb3  1  0.657964  0.750894  0.293800  1
  Tb  Tb4  1  0.378667  0.748447  0.695142  1
  Tb  Tb5  1  0.622912  0.250152  0.305402  1
  Tb  Tb6  1  0.872545  0.251842  0.804838  1
  Tb  Tb7  1  0.122997  0.749695  0.194963  1
  Tb  Tb8  1  0.948180  0.750691  0.501889  1
  Tb  Tb9  1  0.053470  0.249405  0.498232  1
  Tb  Tb10  1  0.449643  0.252893  0.996442  1
  Tb  Tb11  1  0.554705  0.747307  0.001055  1
  Tb  Tb12  1  0.678196  0.042554  0.565565  1
  Tb  Tb13  1  0.322900  0.957689  0.434561  1
  Tb  Tb14  1  0.176577  0.959756  0.934969  1
  Tb  Tb15  1  0.323042  0.540839  0.434342  1
  Tb  Tb16  1  0.821806  0.041243  0.065338  1
  Tb  Tb17  1  0.676288  0.458652  0.568081  1
  Tb  Tb18  1  0.821964  0.456377  0.064256  1
  Tb  Tb19  1  0.179054  0.541063  0.934512  1
  Bi  Bi20  1  0.429422  0.509470  0.173123  1
  Bi  Bi21  1  0.071245  0.508799  0.671964  1
  Bi  Bi22  1  0.429097  0.991416  0.171687  1
  Bi  Bi23  1  0.929380  0.491214  0.327978  1
  Bi  Bi24  1  0.569769  0.007769  0.827741  1
  Bi  Bi25  1  0.930146  0.009298  0.326947  1
  Bi  Bi26  1  0.069791  0.991359  0.673601  1
  Ir  Ir27  1  0.571480  0.750061  0.509820  1
  Ir  Ir28  1  0.428960  0.249493  0.490272  1
  Ir  Ir29  1  0.069731  0.249564  0.989500  1
  Ir  Ir30  1  0.929536  0.749969  0.009878  1
  Pb  Pb31  1  0.569874  0.492310  0.827483  1
