# generated using pymatgen
data_Y2ZnSi3
_symmetry_space_group_name_H-M   'P 1'
_cell_length_a   4.09412600
_cell_length_b   4.11909100
_cell_length_c   14.00381000
_cell_angle_alpha   90.00000000
_cell_angle_beta   90.00000000
_cell_angle_gamma   90.00000000
_symmetry_Int_Tables_number   1
_chemical_formula_structural   Y2ZnSi3
_chemical_formula_sum   'Y4 Zn2 Si6'
_cell_volume   236.16133797
_cell_formula_units_Z   2
loop_
 _symmetry_equiv_pos_site_id
 _symmetry_equiv_pos_as_xyz
  1  'x, y, z'
loop_
 _atom_site_type_symbol
 _atom_site_label
 _atom_site_symmetry_multiplicity
 _atom_site_fract_x
 _atom_site_fract_y
 _atom_site_fract_z
 _atom_site_occupancy
  Y  Y0  1  0.500000  0.500000  0.005622  1
  Y  Y1  1  0.000000  0.000000  0.505411  1
  Y  Y2  1  0.500000  0.000000  0.745416  1
  Y  Y3  1  0.000000  0.500000  0.246007  1
  Zn  Zn4  1  0.000000  0.000000  0.914946  1
  Zn  Zn5  1  0.500000  0.500000  0.415458  1
  Si  Si6  1  0.000000  0.500000  0.832981  1
  Si  Si7  1  0.500000  0.000000  0.333578  1
  Si  Si8  1  0.000000  0.000000  0.083175  1
  Si  Si9  1  0.500000  0.500000  0.583101  1
  Si  Si10  1  0.500000  0.000000  0.167363  1
  Si  Si11  1  0.000000  0.500000  0.666940  1
