# generated using pymatgen
data_Tm3Mg(Si4Tc3)2
_symmetry_space_group_name_H-M   'P 1'
_cell_length_a   6.75808004
_cell_length_b   6.59057641
_cell_length_c   6.74322697
_cell_angle_alpha   70.59869932
_cell_angle_beta   89.87672389
_cell_angle_gamma   89.97741253
_symmetry_Int_Tables_number   1
_chemical_formula_structural   Tm3Mg(Si4Tc3)2
_chemical_formula_sum   'Tm3 Mg1 Si8 Tc6'
_cell_volume   283.28542494
_cell_formula_units_Z   1
loop_
 _symmetry_equiv_pos_site_id
 _symmetry_equiv_pos_as_xyz
  1  'x, y, z'
loop_
 _atom_site_type_symbol
 _atom_site_label
 _atom_site_symmetry_multiplicity
 _atom_site_fract_x
 _atom_site_fract_y
 _atom_site_fract_z
 _atom_site_occupancy
  Tm  Tm0  1  0.833553  0.940878  0.193570  1
  Tm  Tm1  1  0.666276  0.443635  0.189887  1
  Tm  Tm2  1  0.169420  0.057956  0.806516  1
  Mg  Mg3  1  0.330878  0.546431  0.817706  1
  Si  Si4  1  0.545725  0.874781  0.894252  1
  Si  Si5  1  0.049560  0.622652  0.097723  1
  Si  Si6  1  0.452577  0.124538  0.098393  1
  Si  Si7  1  0.958079  0.380293  0.896435  1
  Si  Si8  1  0.147140  0.856895  0.497021  1
  Si  Si9  1  0.632405  0.634330  0.515453  1
  Si  Si10  1  0.859814  0.134201  0.511132  1
  Si  Si11  1  0.357843  0.374137  0.491462  1
  Tc  Tc12  1  0.497127  0.999380  0.500022  1
  Tc  Tc13  1  0.001202  0.502068  0.498564  1
  Tc  Tc14  1  0.845567  0.758515  0.763808  1
  Tc  Tc15  1  0.346508  0.747049  0.227486  1
  Tc  Tc16  1  0.153153  0.240694  0.234971  1
  Tc  Tc17  1  0.653174  0.261567  0.765601  1
