# generated using pymatgen
data_Tb2FeCo9Mo2P7
_symmetry_space_group_name_H-M   'P 1'
_cell_length_a   3.70385800
_cell_length_b   9.04806774
_cell_length_c   9.03267879
_cell_angle_alpha   119.86146068
_cell_angle_beta   90.00000000
_cell_angle_gamma   90.00000000
_symmetry_Int_Tables_number   1
_chemical_formula_structural   Tb2FeCo9Mo2P7
_chemical_formula_sum   'Tb2 Fe1 Co9 Mo2 P7'
_cell_volume   262.51973670
_cell_formula_units_Z   1
loop_
 _symmetry_equiv_pos_site_id
 _symmetry_equiv_pos_as_xyz
  1  'x, y, z'
loop_
 _atom_site_type_symbol
 _atom_site_label
 _atom_site_symmetry_multiplicity
 _atom_site_fract_x
 _atom_site_fract_y
 _atom_site_fract_z
 _atom_site_occupancy
  Tb  Tb0  1  0.000000  0.666642  0.336903  1
  Tb  Tb1  1  0.500000  0.334103  0.667285  1
  Fe  Fe2  1  0.500000  0.780502  0.876578  1
  Co  Co3  1  0.000000  0.371397  0.938863  1
  Co  Co4  1  0.000000  0.060140  0.431650  1
  Co  Co5  1  0.000000  0.567679  0.630347  1
  Co  Co6  1  0.000000  0.878265  0.720411  1
  Co  Co7  1  0.000000  0.281325  0.158630  1
  Co  Co8  1  0.000000  0.839384  0.119542  1
  Co  Co9  1  0.500000  0.947847  0.562823  1
  Co  Co10  1  0.500000  0.438458  0.386807  1
  Co  Co11  1  0.500000  0.614786  0.047284  1
  Mo  Mo12  1  0.500000  0.121986  0.903037  1
  Mo  Mo13  1  0.500000  0.097926  0.217476  1
  P  P14  1  0.000000  0.110280  0.697366  1
  P  P15  1  0.000000  0.302347  0.412417  1
  P  P16  1  0.000000  0.590173  0.888243  1
  P  P17  1  0.500000  0.710481  0.600096  1
  P  P18  1  0.500000  0.410219  0.117379  1
  P  P19  1  0.500000  0.881301  0.289315  1
  P  P20  1  0.000000  0.994761  0.997545  1
