# generated using pymatgen
data_Lu10In8CuRu3
_symmetry_space_group_name_H-M   'P 1'
_cell_length_a   3.53977000
_cell_length_b   7.91903446
_cell_length_c   18.08342358
_cell_angle_alpha   89.91706860
_cell_angle_beta   90.00000000
_cell_angle_gamma   90.00000000
_symmetry_Int_Tables_number   1
_chemical_formula_structural   Lu10In8CuRu3
_chemical_formula_sum   'Lu10 In8 Cu1 Ru3'
_cell_volume   506.90605341
_cell_formula_units_Z   1
loop_
 _symmetry_equiv_pos_site_id
 _symmetry_equiv_pos_as_xyz
  1  'x, y, z'
loop_
 _atom_site_type_symbol
 _atom_site_label
 _atom_site_symmetry_multiplicity
 _atom_site_fract_x
 _atom_site_fract_y
 _atom_site_fract_z
 _atom_site_occupancy
  Lu  Lu0  1  0.000000  0.117831  0.413173  1
  Lu  Lu1  1  0.000000  0.882128  0.589330  1
  Lu  Lu2  1  0.000000  0.379858  0.910283  1
  Lu  Lu3  1  0.000000  0.618901  0.085644  1
  Lu  Lu4  1  0.000000  0.238652  0.223361  1
  Lu  Lu5  1  0.000000  0.752102  0.778704  1
  Lu  Lu6  1  0.000000  0.253059  0.721291  1
  Lu  Lu7  1  0.000000  0.758393  0.279106  1
  Lu  Lu8  1  0.000000  0.998942  0.999517  1
  Lu  Lu9  1  0.000000  0.501015  0.499738  1
  In  In10  1  0.500000  0.428398  0.351805  1
  In  In11  1  0.500000  0.567716  0.648872  1
  In  In12  1  0.500000  0.066825  0.850113  1
  In  In13  1  0.500000  0.934655  0.148695  1
  In  In14  1  0.500000  0.292287  0.065384  1
  In  In15  1  0.500000  0.702330  0.933366  1
  In  In16  1  0.500000  0.206723  0.568017  1
  In  In17  1  0.500000  0.794236  0.431937  1
  Cu  Cu18  1  0.500000  0.526769  0.197142  1
  Ru  Ru19  1  0.500000  0.026623  0.304214  1
  Ru  Ru20  1  0.500000  0.975372  0.697163  1
  Ru  Ru21  1  0.500000  0.477181  0.803146  1
