# generated using pymatgen
data_Er7TmSc12GaSi15
_symmetry_space_group_name_H-M   'P 1'
_cell_length_a   7.07209247
_cell_length_b   7.36784759
_cell_length_c   13.96709800
_cell_angle_alpha   89.94269674
_cell_angle_beta   89.98000072
_cell_angle_gamma   90.00195575
_symmetry_Int_Tables_number   1
_chemical_formula_structural   Er7TmSc12GaSi15
_chemical_formula_sum   'Er7 Tm1 Sc12 Ga1 Si15'
_cell_volume   727.77058893
_cell_formula_units_Z   1
loop_
 _symmetry_equiv_pos_site_id
 _symmetry_equiv_pos_as_xyz
  1  'x, y, z'
loop_
 _atom_site_type_symbol
 _atom_site_label
 _atom_site_symmetry_multiplicity
 _atom_site_fract_x
 _atom_site_fract_y
 _atom_site_fract_z
 _atom_site_occupancy
  Er  Er0  1  0.011998  0.176118  0.096735  1
  Er  Er1  1  0.987935  0.824041  0.903648  1
  Er  Er2  1  0.487800  0.677058  0.903601  1
  Er  Er3  1  0.987476  0.825804  0.597284  1
  Er  Er4  1  0.512072  0.323173  0.096615  1
  Er  Er5  1  0.011065  0.174659  0.401969  1
  Er  Er6  1  0.512717  0.322811  0.401933  1
  Tm  Tm7  1  0.489895  0.678964  0.597369  1
  Sc  Sc8  1  0.161253  0.503546  0.751530  1
  Sc  Sc9  1  0.838772  0.496692  0.249935  1
  Sc  Sc10  1  0.338805  0.003581  0.249688  1
  Sc  Sc11  1  0.661557  0.995571  0.750118  1
  Sc  Sc12  1  0.332542  0.173973  0.626127  1
  Sc  Sc13  1  0.668387  0.824021  0.374350  1
  Sc  Sc14  1  0.169872  0.677681  0.373527  1
  Sc  Sc15  1  0.669447  0.823582  0.125329  1
  Sc  Sc16  1  0.828489  0.323169  0.625548  1
  Sc  Sc17  1  0.330318  0.175984  0.874915  1
  Sc  Sc18  1  0.830683  0.322906  0.874891  1
  Sc  Sc19  1  0.169038  0.676978  0.125386  1
  Ga  Ga20  1  0.161170  0.463174  0.539318  1
  Si  Si21  1  0.033239  0.115886  0.750573  1
  Si  Si22  1  0.966895  0.885219  0.249733  1
  Si  Si23  1  0.467900  0.614293  0.249978  1
  Si  Si24  1  0.531767  0.386412  0.749736  1
  Si  Si25  1  0.284586  0.871022  0.750253  1
  Si  Si26  1  0.714830  0.128962  0.249582  1
  Si  Si27  1  0.214624  0.370856  0.249426  1
  Si  Si28  1  0.785339  0.628826  0.750645  1
  Si  Si29  1  0.840335  0.535345  0.460346  1
  Si  Si30  1  0.340778  0.964803  0.460315  1
  Si  Si31  1  0.840957  0.535020  0.038672  1
  Si  Si32  1  0.658561  0.034974  0.539130  1
  Si  Si33  1  0.158962  0.464754  0.961606  1
  Si  Si34  1  0.658609  0.034885  0.960671  1
  Si  Si35  1  0.341325  0.965254  0.039520  1
