# generated using pymatgen
data_Dy8Ti2ReSi16Mo9
_symmetry_space_group_name_H-M   'P 1'
_cell_length_a   6.89966372
_cell_length_b   6.89966401
_cell_length_c   12.79260939
_cell_angle_alpha   90.00649814
_cell_angle_beta   89.99350178
_cell_angle_gamma   89.36461335
_symmetry_Int_Tables_number   1
_chemical_formula_structural   Dy8Ti2ReSi16Mo9
_chemical_formula_sum   'Dy8 Ti2 Re1 Si16 Mo9'
_cell_volume   608.95933904
_cell_formula_units_Z   1
loop_
 _symmetry_equiv_pos_site_id
 _symmetry_equiv_pos_as_xyz
  1  'x, y, z'
loop_
 _atom_site_type_symbol
 _atom_site_label
 _atom_site_symmetry_multiplicity
 _atom_site_fract_x
 _atom_site_fract_y
 _atom_site_fract_z
 _atom_site_occupancy
  Dy  Dy0  1  0.000092  0.658948  0.031413  1
  Dy  Dy1  1  0.000126  0.340482  0.531422  1
  Dy  Dy2  1  0.658948  0.000092  0.968587  1
  Dy  Dy3  1  0.162950  0.500585  0.781604  1
  Dy  Dy4  1  0.837597  0.498951  0.281570  1
  Dy  Dy5  1  0.500585  0.162950  0.218396  1
  Dy  Dy6  1  0.498951  0.837597  0.718430  1
  Dy  Dy7  1  0.340482  0.000126  0.468578  1
  Ti  Ti8  1  0.829907  0.170510  0.750369  1
  Ti  Ti9  1  0.170510  0.829907  0.249631  1
  Re  Re10  1  0.331909  0.331909  0.000000  1
  Si  Si11  1  0.037003  0.712407  0.438128  1
  Si  Si12  1  0.965626  0.287072  0.938671  1
  Si  Si13  1  0.712407  0.037003  0.561872  1
  Si  Si14  1  0.211333  0.458154  0.182914  1
  Si  Si15  1  0.789225  0.540596  0.684362  1
  Si  Si16  1  0.458154  0.211333  0.817086  1
  Si  Si17  1  0.540596  0.789225  0.315638  1
  Si  Si18  1  0.287072  0.965626  0.061329  1
  Si  Si19  1  0.797607  0.871190  0.184785  1
  Si  Si20  1  0.302503  0.625803  0.565200  1
  Si  Si21  1  0.694170  0.374916  0.064269  1
  Si  Si22  1  0.625803  0.302503  0.434800  1
  Si  Si23  1  0.374916  0.694170  0.935731  1
  Si  Si24  1  0.128714  0.203020  0.315030  1
  Si  Si25  1  0.203020  0.128714  0.684970  1
  Si  Si26  1  0.871190  0.797607  0.815215  1
  Mo  Mo27  1  0.333609  0.502569  0.373945  1
  Mo  Mo28  1  0.844619  0.998378  0.372747  1
  Mo  Mo29  1  0.000465  0.155241  0.126672  1
  Mo  Mo30  1  0.998378  0.844619  0.627253  1
  Mo  Mo31  1  0.502569  0.333609  0.626055  1
  Mo  Mo32  1  0.155241  0.000465  0.873328  1
  Mo  Mo33  1  0.668158  0.668158  0.500000  1
  Mo  Mo34  1  0.497910  0.667657  0.125994  1
  Mo  Mo35  1  0.667657  0.497910  0.874006  1
