# generated using pymatgen
data_Li3Y6IrOs2
_symmetry_space_group_name_H-M   'P 1'
_cell_length_a   4.94076800
_cell_length_b   6.93101900
_cell_length_c   14.79977000
_cell_angle_alpha   90.00000000
_cell_angle_beta   90.00171759
_cell_angle_gamma   90.00000000
_symmetry_Int_Tables_number   1
_chemical_formula_structural   Li3Y6IrOs2
_chemical_formula_sum   'Li6 Y12 Ir2 Os4'
_cell_volume   506.81156550
_cell_formula_units_Z   2
loop_
 _symmetry_equiv_pos_site_id
 _symmetry_equiv_pos_as_xyz
  1  'x, y, z'
loop_
 _atom_site_type_symbol
 _atom_site_label
 _atom_site_symmetry_multiplicity
 _atom_site_fract_x
 _atom_site_fract_y
 _atom_site_fract_z
 _atom_site_occupancy
  Li  Li0  1  0.999997  0.000000  0.999774  1
  Li  Li1  1  0.499022  0.500000  0.166964  1
  Li  Li2  1  0.998995  0.000000  0.333711  1
  Li  Li3  1  0.499994  0.500000  0.500126  1
  Li  Li4  1  0.000990  0.000000  0.666545  1
  Li  Li5  1  0.500985  0.500000  0.832887  1
  Y  Y6  1  0.499985  0.248104  0.999104  1
  Y  Y7  1  0.499985  0.751895  0.999104  1
  Y  Y8  1  0.999371  0.251890  0.167540  1
  Y  Y9  1  0.999371  0.748109  0.167540  1
  Y  Y10  1  0.499404  0.249778  0.334401  1
  Y  Y11  1  0.499404  0.750223  0.334401  1
  Y  Y12  1  0.000011  0.251423  0.500186  1
  Y  Y13  1  0.000011  0.748576  0.500186  1
  Y  Y14  1  0.500621  0.248566  0.666481  1
  Y  Y15  1  0.500621  0.751435  0.666481  1
  Y  Y16  1  0.000616  0.250250  0.832292  1
  Y  Y17  1  0.000616  0.749749  0.832292  1
  Ir  Ir18  1  0.000002  0.500000  0.001094  1
  Ir  Ir19  1  0.499424  0.000000  0.165614  1
  Os  Os20  1  0.999424  0.500000  0.331505  1
  Os  Os21  1  0.499990  0.000000  0.499473  1
  Os  Os22  1  0.000573  0.500000  0.667141  1
  Os  Os23  1  0.500584  0.000000  0.835158  1
