# generated using pymatgen
data_Cs6YBiBr12
_symmetry_space_group_name_H-M   'P 1'
_cell_length_a   10.02693500
_cell_length_b   10.03285012
_cell_length_c   8.32772500
_cell_angle_alpha   90.00000000
_cell_angle_beta   90.00000000
_cell_angle_gamma   89.99097120
_symmetry_Int_Tables_number   1
_chemical_formula_structural   Cs6YBiBr12
_chemical_formula_sum   'Cs6 Y1 Bi1 Br12'
_cell_volume   837.75859889
_cell_formula_units_Z   1
loop_
 _symmetry_equiv_pos_site_id
 _symmetry_equiv_pos_as_xyz
  1  'x, y, z'
loop_
 _atom_site_type_symbol
 _atom_site_label
 _atom_site_symmetry_multiplicity
 _atom_site_fract_x
 _atom_site_fract_y
 _atom_site_fract_z
 _atom_site_occupancy
  Cs  Cs0  1  0.000000  0.000000  0.500000  1
  Cs  Cs1  1  0.000000  0.000000  0.000000  1
  Cs  Cs2  1  0.236094  0.583596  0.500000  1
  Cs  Cs3  1  0.763906  0.416404  0.500000  1
  Cs  Cs4  1  0.415952  0.234359  0.000000  1
  Cs  Cs5  1  0.584048  0.765641  0.000000  1
  Y  Y6  1  0.500000  0.000000  0.500000  1
  Bi  Bi7  1  0.000000  0.500000  0.000000  1
  Br  Br8  1  0.691777  0.057296  0.740162  1
  Br  Br9  1  0.308223  0.942704  0.740162  1
  Br  Br10  1  0.941409  0.696060  0.245643  1
  Br  Br11  1  0.058591  0.303940  0.245643  1
  Br  Br12  1  0.308223  0.942704  0.259838  1
  Br  Br13  1  0.691777  0.057296  0.259838  1
  Br  Br14  1  0.058591  0.303940  0.754357  1
  Br  Br15  1  0.941409  0.696060  0.754357  1
  Br  Br16  1  0.570649  0.729244  0.500000  1
  Br  Br17  1  0.429351  0.270756  0.500000  1
  Br  Br18  1  0.278226  0.570910  0.000000  1
  Br  Br19  1  0.721774  0.429090  0.000000  1
