# generated using pymatgen
data_Pr4Bi6Rh7
_symmetry_space_group_name_H-M   'P 1'
_cell_length_a   7.93036422
_cell_length_b   7.93036559
_cell_length_c   7.93036500
_cell_angle_alpha   109.47121913
_cell_angle_beta   109.47122262
_cell_angle_gamma   109.47122600
_symmetry_Int_Tables_number   1
_chemical_formula_structural   Pr4Bi6Rh7
_chemical_formula_sum   'Pr4 Bi6 Rh7'
_cell_volume   383.93490461
_cell_formula_units_Z   1
loop_
 _symmetry_equiv_pos_site_id
 _symmetry_equiv_pos_as_xyz
  1  'x, y, z'
loop_
 _atom_site_type_symbol
 _atom_site_label
 _atom_site_symmetry_multiplicity
 _atom_site_fract_x
 _atom_site_fract_y
 _atom_site_fract_z
 _atom_site_occupancy
  Pr  Pr0  1  0.500000  0.000000  0.000000  1
  Pr  Pr1  1  0.000000  0.500000  0.000000  1
  Pr  Pr2  1  0.000000  0.000000  0.500000  1
  Pr  Pr3  1  0.500000  0.500000  0.500000  1
  Bi  Bi4  1  0.000000  0.317586  0.317586  1
  Bi  Bi5  1  0.682414  0.000000  0.682414  1
  Bi  Bi6  1  0.682414  0.682414  0.000000  1
  Bi  Bi7  1  0.000000  0.682414  0.682414  1
  Bi  Bi8  1  0.317586  0.000000  0.317586  1
  Bi  Bi9  1  0.317586  0.317586  0.000000  1
  Rh  Rh10  1  0.000000  0.000000  0.000000  1
  Rh  Rh11  1  0.500000  0.750000  0.250000  1
  Rh  Rh12  1  0.750000  0.500000  0.250000  1
  Rh  Rh13  1  0.250000  0.750000  0.500000  1
  Rh  Rh14  1  0.250000  0.500000  0.750000  1
  Rh  Rh15  1  0.500000  0.250000  0.750000  1
  Rh  Rh16  1  0.750000  0.250000  0.500000  1
