# generated using pymatgen
data_Sm3Mg2CdPb2Au
_symmetry_space_group_name_H-M   'P 1'
_cell_length_a   7.64237700
_cell_length_b   7.60557265
_cell_length_c   4.63981500
_cell_angle_alpha   90.00000000
_cell_angle_beta   90.00000000
_cell_angle_gamma   120.16021100
_symmetry_Int_Tables_number   1
_chemical_formula_structural   Sm3Mg2CdPb2Au
_chemical_formula_sum   'Sm3 Mg2 Cd1 Pb2 Au1'
_cell_volume   233.17838237
_cell_formula_units_Z   1
loop_
 _symmetry_equiv_pos_site_id
 _symmetry_equiv_pos_as_xyz
  1  'x, y, z'
loop_
 _atom_site_type_symbol
 _atom_site_label
 _atom_site_symmetry_multiplicity
 _atom_site_fract_x
 _atom_site_fract_y
 _atom_site_fract_z
 _atom_site_occupancy
  Sm  Sm0  1  0.590858  0.000000  0.000000  1
  Sm  Sm1  1  0.003677  0.599428  0.000000  1
  Sm  Sm2  1  0.404249  0.400572  0.000000  1
  Mg  Mg3  1  0.000798  0.229050  0.500000  1
  Mg  Mg4  1  0.771749  0.770950  0.500000  1
  Cd  Cd5  1  0.234120  0.000000  0.500000  1
  Pb  Pb6  1  0.334819  0.662515  0.500000  1
  Pb  Pb7  1  0.672305  0.337485  0.500000  1
  Au  Au8  1  0.987424  0.000000  0.000000  1
