# generated using pymatgen
data_TbY2Al3SiPd2
_symmetry_space_group_name_H-M   'P 1'
_cell_length_a   7.06128206
_cell_length_b   7.05650500
_cell_length_c   4.17776800
_cell_angle_alpha   90.00000000
_cell_angle_beta   90.00000000
_cell_angle_gamma   120.00756248
_symmetry_Int_Tables_number   1
_chemical_formula_structural   TbY2Al3SiPd2
_chemical_formula_sum   'Tb1 Y2 Al3 Si1 Pd2'
_cell_volume   180.26651539
_cell_formula_units_Z   1
loop_
 _symmetry_equiv_pos_site_id
 _symmetry_equiv_pos_as_xyz
  1  'x, y, z'
loop_
 _atom_site_type_symbol
 _atom_site_label
 _atom_site_symmetry_multiplicity
 _atom_site_fract_x
 _atom_site_fract_y
 _atom_site_fract_z
 _atom_site_occupancy
  Tb  Tb0  1  0.416923  0.419276  0.500000  1
  Y  Y1  1  0.581267  0.998410  0.500000  1
  Y  Y2  1  0.001763  0.582711  0.500000  1
  Al  Al3  1  0.008027  0.243416  0.000000  1
  Al  Al4  1  0.756706  0.764904  0.000000  1
  Al  Al5  1  0.235237  0.991691  0.000000  1
  Si  Si6  1  0.666809  0.333122  0.000000  1
  Pd  Pd7  1  0.999903  0.999908  0.500000  1
  Pd  Pd8  1  0.333366  0.666562  0.000000  1
