# generated using pymatgen
data_Li12HfZr2SnO14
_symmetry_space_group_name_H-M   'P 1'
_cell_length_a   6.03978451
_cell_length_b   6.04743083
_cell_length_c   10.22883665
_cell_angle_alpha   81.11040636
_cell_angle_beta   81.21238065
_cell_angle_gamma   59.64828499
_symmetry_Int_Tables_number   1
_chemical_formula_structural   Li12HfZr2SnO14
_chemical_formula_sum   'Li12 Hf1 Zr2 Sn1 O14'
_cell_volume   317.30574168
_cell_formula_units_Z   1
loop_
 _symmetry_equiv_pos_site_id
 _symmetry_equiv_pos_as_xyz
  1  'x, y, z'
loop_
 _atom_site_type_symbol
 _atom_site_label
 _atom_site_symmetry_multiplicity
 _atom_site_fract_x
 _atom_site_fract_y
 _atom_site_fract_z
 _atom_site_occupancy
  Li  Li0  1  0.662571  0.926246  0.395380  1
  Li  Li1  1  0.923569  0.664239  0.895821  1
  Li  Li2  1  0.204012  0.919079  0.413517  1
  Li  Li3  1  0.664922  0.464539  0.398529  1
  Li  Li4  1  0.918250  0.204652  0.915411  1
  Li  Li5  1  0.466316  0.665682  0.899156  1
  Li  Li6  1  0.530294  0.335415  0.103881  1
  Li  Li7  1  0.083954  0.792411  0.085178  1
  Li  Li8  1  0.335014  0.531283  0.600803  1
  Li  Li9  1  0.794022  0.082828  0.583211  1
  Li  Li10  1  0.078851  0.336510  0.105457  1
  Li  Li11  1  0.335937  0.078990  0.603664  1
  Hf  Hf12  1  0.438324  0.194277  0.866015  1
  Zr  Zr13  1  0.560861  0.805028  0.137118  1
  Zr  Zr14  1  0.802635  0.562395  0.636982  1
  Sn  Sn15  1  0.189673  0.440333  0.366099  1
  O  O16  1  0.866562  0.634255  0.256966  1
  O  O17  1  0.000879  0.261827  0.495996  1
  O  O18  1  0.637762  0.864154  0.755886  1
  O  O19  1  0.266118  0.000848  0.996304  1
  O  O20  1  0.745330  0.498869  0.021802  1
  O  O21  1  0.347070  0.648971  0.249385  1
  O  O22  1  0.498015  0.745118  0.520961  1
  O  O23  1  0.501530  0.255503  0.477829  1
  O  O24  1  0.650464  0.345778  0.750086  1
  O  O25  1  0.257125  0.499995  0.977280  1
  O  O26  1  0.735258  0.000244  0.001340  1
  O  O27  1  0.361953  0.142827  0.243944  1
  O  O28  1  0.000393  0.737419  0.500431  1
  O  O29  1  0.142338  0.360285  0.745568  1
