# generated using pymatgen
data_Na10TiSiAs6
_symmetry_space_group_name_H-M   'P 1'
_cell_length_a   7.55339400
_cell_length_b   8.32900092
_cell_length_c   15.78519742
_cell_angle_alpha   59.11232151
_cell_angle_beta   90.00000000
_cell_angle_gamma   90.00000000
_symmetry_Int_Tables_number   1
_chemical_formula_structural   Na10TiSiAs6
_chemical_formula_sum   'Na20 Ti2 Si2 As12'
_cell_volume   852.23838168
_cell_formula_units_Z   2
loop_
 _symmetry_equiv_pos_site_id
 _symmetry_equiv_pos_as_xyz
  1  'x, y, z'
loop_
 _atom_site_type_symbol
 _atom_site_label
 _atom_site_symmetry_multiplicity
 _atom_site_fract_x
 _atom_site_fract_y
 _atom_site_fract_z
 _atom_site_occupancy
  Na  Na0  1  0.508933  0.560554  0.755122  1
  Na  Na1  1  0.008933  0.439446  0.744878  1
  Na  Na2  1  0.490598  0.439974  0.242387  1
  Na  Na3  1  0.990598  0.560026  0.257613  1
  Na  Na4  1  0.971091  0.255430  0.581923  1
  Na  Na5  1  0.471091  0.744570  0.918077  1
  Na  Na6  1  0.031675  0.749880  0.416881  1
  Na  Na7  1  0.531675  0.250120  0.083119  1
  Na  Na8  1  0.480633  0.086225  0.586978  1
  Na  Na9  1  0.980633  0.913775  0.913022  1
  Na  Na10  1  0.516081  0.913810  0.412139  1
  Na  Na11  1  0.016081  0.086190  0.087861  1
  Na  Na12  1  0.338396  0.158434  0.917755  1
  Na  Na13  1  0.838396  0.841566  0.582245  1
  Na  Na14  1  0.661891  0.846970  0.080643  1
  Na  Na15  1  0.161891  0.153030  0.419357  1
  Na  Na16  1  0.151079  0.834771  0.740022  1
  Na  Na17  1  0.651079  0.165229  0.759978  1
  Na  Na18  1  0.849764  0.164219  0.258489  1
  Na  Na19  1  0.349764  0.835781  0.241511  1
  Ti  Ti20  1  0.135049  0.488285  0.079681  1
  Ti  Ti21  1  0.635049  0.511715  0.420319  1
  Si  Si22  1  0.866214  0.512994  0.919301  1
  Si  Si23  1  0.366214  0.487006  0.580699  1
  As  As24  1  0.242746  0.756660  0.579293  1
  As  As25  1  0.742746  0.243340  0.920707  1
  As  As26  1  0.759671  0.232492  0.421458  1
  As  As27  1  0.259671  0.767508  0.078542  1
  As  As28  1  0.269732  0.195293  0.719999  1
  As  As29  1  0.769732  0.804707  0.780001  1
  As  As30  1  0.733641  0.810070  0.274002  1
  As  As31  1  0.233641  0.189930  0.225998  1
  As  As32  1  0.190790  0.478174  0.925800  1
  As  As33  1  0.690790  0.521826  0.574200  1
  As  As34  1  0.802016  0.521778  0.068435  1
  As  As35  1  0.302016  0.478222  0.431565  1
