# generated using pymatgen
data_Y2Ho3(In2Rh)2
_symmetry_space_group_name_H-M   'P 1'
_cell_length_a   3.62263400
_cell_length_b   8.03783487
_cell_length_c   18.24447900
_cell_angle_alpha   89.74139297
_cell_angle_beta   90.00000000
_cell_angle_gamma   90.00000000
_symmetry_Int_Tables_number   1
_chemical_formula_structural   Y2Ho3(In2Rh)2
_chemical_formula_sum   'Y4 Ho6 In8 Rh4'
_cell_volume   531.23977117
_cell_formula_units_Z   2
loop_
 _symmetry_equiv_pos_site_id
 _symmetry_equiv_pos_as_xyz
  1  'x, y, z'
loop_
 _atom_site_type_symbol
 _atom_site_label
 _atom_site_symmetry_multiplicity
 _atom_site_fract_x
 _atom_site_fract_y
 _atom_site_fract_z
 _atom_site_occupancy
  Y  Y0  1  0.000000  0.500000  0.500000  1
  Y  Y1  1  0.000000  0.000000  0.000000  1
  Y  Y2  1  0.000000  0.745919  0.279326  1
  Y  Y3  1  0.000000  0.254081  0.720674  1
  Ho  Ho4  1  0.000000  0.754411  0.778484  1
  Ho  Ho5  1  0.000000  0.245589  0.221516  1
  Ho  Ho6  1  0.000000  0.615689  0.089256  1
  Ho  Ho7  1  0.000000  0.384311  0.910744  1
  Ho  Ho8  1  0.000000  0.882243  0.588587  1
  Ho  Ho9  1  0.000000  0.117757  0.411413  1
  In  In10  1  0.500000  0.706793  0.932236  1
  In  In11  1  0.500000  0.293207  0.067764  1
  In  In12  1  0.500000  0.795319  0.432557  1
  In  In13  1  0.500000  0.204681  0.567443  1
  In  In14  1  0.500000  0.573221  0.650228  1
  In  In15  1  0.500000  0.426779  0.349772  1
  In  In16  1  0.500000  0.928298  0.150833  1
  In  In17  1  0.500000  0.071702  0.849167  1
  Rh  Rh18  1  0.500000  0.518186  0.194427  1
  Rh  Rh19  1  0.500000  0.481814  0.805573  1
  Rh  Rh20  1  0.500000  0.972335  0.694823  1
  Rh  Rh21  1  0.500000  0.027665  0.305177  1
