# generated using pymatgen
data_Y4CrOs6W
_symmetry_space_group_name_H-M   'P 1'
_cell_length_a   5.22341860
_cell_length_b   5.22341864
_cell_length_c   8.94448600
_cell_angle_alpha   90.00000000
_cell_angle_beta   90.00000000
_cell_angle_gamma   116.20099800
_symmetry_Int_Tables_number   1
_chemical_formula_structural   Y4CrOs6W
_chemical_formula_sum   'Y4 Cr1 Os6 W1'
_cell_volume   218.96709164
_cell_formula_units_Z   1
loop_
 _symmetry_equiv_pos_site_id
 _symmetry_equiv_pos_as_xyz
  1  'x, y, z'
loop_
 _atom_site_type_symbol
 _atom_site_label
 _atom_site_symmetry_multiplicity
 _atom_site_fract_x
 _atom_site_fract_y
 _atom_site_fract_z
 _atom_site_occupancy
  Y  Y0  1  0.327931  0.672069  0.437953  1
  Y  Y1  1  0.667007  0.332993  0.566200  1
  Y  Y2  1  0.667007  0.332993  0.933800  1
  Y  Y3  1  0.327931  0.672069  0.062047  1
  Cr  Cr4  1  0.173791  0.826209  0.750000  1
  Os  Os5  1  0.997948  0.002052  0.507019  1
  Os  Os6  1  0.997948  0.002052  0.992981  1
  Os  Os7  1  0.824894  0.649581  0.250000  1
  Os  Os8  1  0.350419  0.175106  0.250000  1
  Os  Os9  1  0.172375  0.347979  0.750000  1
  Os  Os10  1  0.652021  0.827625  0.750000  1
  W  W11  1  0.840728  0.159272  0.250000  1
