# generated using pymatgen
data_Pr2NdSi2BiO10
_symmetry_space_group_name_H-M   'P 1'
_cell_length_a   7.38254000
_cell_length_b   6.98134681
_cell_length_c   9.43321806
_cell_angle_alpha   71.15565478
_cell_angle_beta   90.00000000
_cell_angle_gamma   90.00000000
_symmetry_Int_Tables_number   1
_chemical_formula_structural   Pr2NdSi2BiO10
_chemical_formula_sum   'Pr4 Nd2 Si4 Bi2 O20'
_cell_volume   460.12880485
_cell_formula_units_Z   2
loop_
 _symmetry_equiv_pos_site_id
 _symmetry_equiv_pos_as_xyz
  1  'x, y, z'
loop_
 _atom_site_type_symbol
 _atom_site_label
 _atom_site_symmetry_multiplicity
 _atom_site_fract_x
 _atom_site_fract_y
 _atom_site_fract_z
 _atom_site_occupancy
  Pr  Pr0  1  0.654977  0.097223  0.606603  1
  Pr  Pr1  1  0.846963  0.592800  0.611059  1
  Pr  Pr2  1  0.154977  0.402777  0.393397  1
  Pr  Pr3  1  0.346963  0.907200  0.388941  1
  Nd  Nd4  1  0.877891  0.730999  0.977608  1
  Nd  Nd5  1  0.377891  0.769001  0.022392  1
  Si  Si6  1  0.080313  0.038490  0.701361  1
  Si  Si7  1  0.580313  0.461510  0.298639  1
  Si  Si8  1  0.416692  0.546078  0.703864  1
  Si  Si9  1  0.916692  0.953922  0.296136  1
  Bi  Bi10  1  0.631669  0.215110  0.980591  1
  Bi  Bi11  1  0.131669  0.284890  0.019409  1
  O  O12  1  0.566701  0.363918  0.711703  1
  O  O13  1  0.357140  0.511529  0.879581  1
  O  O14  1  0.381904  0.047055  0.115470  1
  O  O15  1  0.857140  0.988471  0.120419  1
  O  O16  1  0.248034  0.058076  0.586492  1
  O  O17  1  0.747790  0.941529  0.408583  1
  O  O18  1  0.039607  0.746737  0.365255  1
  O  O19  1  0.138338  0.974601  0.879190  1
  O  O20  1  0.461397  0.250434  0.364234  1
  O  O21  1  0.627222  0.958642  0.884467  1
  O  O22  1  0.066701  0.136082  0.288297  1
  O  O23  1  0.127222  0.541358  0.115533  1
  O  O24  1  0.748034  0.441924  0.413508  1
  O  O25  1  0.539607  0.753263  0.634745  1
  O  O26  1  0.961397  0.249566  0.635766  1
  O  O27  1  0.923362  0.865339  0.704486  1
  O  O28  1  0.638338  0.525399  0.120810  1
  O  O29  1  0.881904  0.452945  0.884530  1
  O  O30  1  0.423362  0.634661  0.295514  1
  O  O31  1  0.247790  0.558471  0.591417  1
