# generated using pymatgen
data_Ni2Sn4PdRh3
_symmetry_space_group_name_H-M   'P 1'
_cell_length_a   5.60712900
_cell_length_b   7.26520611
_cell_length_c   8.33464437
_cell_angle_alpha   89.81887995
_cell_angle_beta   90.00000000
_cell_angle_gamma   90.00000000
_symmetry_Int_Tables_number   1
_chemical_formula_structural   Ni2Sn4PdRh3
_chemical_formula_sum   'Ni4 Sn8 Pd2 Rh6'
_cell_volume   339.52627683
_cell_formula_units_Z   2
loop_
 _symmetry_equiv_pos_site_id
 _symmetry_equiv_pos_as_xyz
  1  'x, y, z'
loop_
 _atom_site_type_symbol
 _atom_site_label
 _atom_site_symmetry_multiplicity
 _atom_site_fract_x
 _atom_site_fract_y
 _atom_site_fract_z
 _atom_site_occupancy
  Ni  Ni0  1  0.250000  0.910299  0.372754  1
  Ni  Ni1  1  0.750000  0.093312  0.626271  1
  Ni  Ni2  1  0.250000  0.412695  0.127030  1
  Ni  Ni3  1  0.750000  0.589114  0.873828  1
  Sn  Sn4  1  0.250000  0.561327  0.404615  1
  Sn  Sn5  1  0.250000  0.094242  0.640177  1
  Sn  Sn6  1  0.750000  0.908788  0.365613  1
  Sn  Sn7  1  0.750000  0.396495  0.137484  1
  Sn  Sn8  1  0.250000  0.588580  0.855359  1
  Sn  Sn9  1  0.250000  0.070917  0.101758  1
  Sn  Sn10  1  0.750000  0.438281  0.599186  1
  Sn  Sn11  1  0.750000  0.936151  0.893574  1
  Pd  Pd12  1  0.498876  0.740633  0.125071  1
  Pd  Pd13  1  0.001124  0.740633  0.125071  1
  Rh  Rh14  1  0.496580  0.241490  0.376049  1
  Rh  Rh15  1  0.997462  0.759841  0.623991  1
  Rh  Rh16  1  0.503163  0.257935  0.876064  1
  Rh  Rh17  1  0.996837  0.257935  0.876064  1
  Rh  Rh18  1  0.502538  0.759841  0.623991  1
  Rh  Rh19  1  0.003420  0.241490  0.376049  1
