# generated using pymatgen
data_Hf3ZnCo4
_symmetry_space_group_name_H-M   'P 1'
_cell_length_a   7.62031485
_cell_length_b   7.62031517
_cell_length_c   7.62031466
_cell_angle_alpha   33.23514745
_cell_angle_beta   33.23514559
_cell_angle_gamma   33.23515177
_symmetry_Int_Tables_number   1
_chemical_formula_structural   Hf3ZnCo4
_chemical_formula_sum   'Hf3 Zn1 Co4'
_cell_volume   118.33545128
_cell_formula_units_Z   1
loop_
 _symmetry_equiv_pos_site_id
 _symmetry_equiv_pos_as_xyz
  1  'x, y, z'
loop_
 _atom_site_type_symbol
 _atom_site_label
 _atom_site_symmetry_multiplicity
 _atom_site_fract_x
 _atom_site_fract_y
 _atom_site_fract_z
 _atom_site_occupancy
  Hf  Hf0  1  0.256698  0.256698  0.256698  1
  Hf  Hf1  1  0.743302  0.743302  0.743302  1
  Hf  Hf2  1  0.500000  0.500000  0.500000  1
  Zn  Zn3  1  0.000000  0.000000  0.000000  1
  Co  Co4  1  0.622250  0.622250  0.622250  1
  Co  Co5  1  0.126955  0.126955  0.126955  1
  Co  Co6  1  0.873045  0.873045  0.873045  1
  Co  Co7  1  0.377750  0.377750  0.377750  1
