# generated using pymatgen
data_Er2Lu10In2Fe3
_symmetry_space_group_name_H-M   'P 1'
_cell_length_a   8.19414337
_cell_length_b   8.19414388
_cell_length_c   8.21396582
_cell_angle_alpha   108.45669995
_cell_angle_beta   108.45669638
_cell_angle_gamma   111.42559069
_symmetry_Int_Tables_number   1
_chemical_formula_structural   Er2Lu10In2Fe3
_chemical_formula_sum   'Er2 Lu10 In2 Fe3'
_cell_volume   424.66223817
_cell_formula_units_Z   1
loop_
 _symmetry_equiv_pos_site_id
 _symmetry_equiv_pos_as_xyz
  1  'x, y, z'
loop_
 _atom_site_type_symbol
 _atom_site_label
 _atom_site_symmetry_multiplicity
 _atom_site_fract_x
 _atom_site_fract_y
 _atom_site_fract_z
 _atom_site_occupancy
  Er  Er0  1  0.307565  0.307565  0.615130  1
  Er  Er1  1  0.692435  0.692435  0.384870  1
  Lu  Lu2  1  0.691623  0.308377  0.000000  1
  Lu  Lu3  1  0.308377  0.691623  0.000000  1
  Lu  Lu4  1  0.189247  0.425823  0.234551  1
  Lu  Lu5  1  0.810753  0.574177  0.765449  1
  Lu  Lu6  1  0.191272  0.954695  0.765449  1
  Lu  Lu7  1  0.954695  0.191272  0.765449  1
  Lu  Lu8  1  0.808728  0.045305  0.234551  1
  Lu  Lu9  1  0.045305  0.808728  0.234551  1
  Lu  Lu10  1  0.425823  0.189247  0.234551  1
  Lu  Lu11  1  0.574177  0.810753  0.765449  1
  In  In12  1  0.000000  0.500000  0.500000  1
  In  In13  1  0.500000  0.000000  0.500000  1
  Fe  Fe14  1  0.384376  0.384376  0.000000  1
  Fe  Fe15  1  0.615624  0.615624  0.000000  1
  Fe  Fe16  1  0.000000  0.000000  0.000000  1
