# generated using pymatgen
data_Dy3Tm2In4PtRh
_symmetry_space_group_name_H-M   'P 1'
_cell_length_a   3.60791600
_cell_length_b   8.10225643
_cell_length_c   18.17034776
_cell_angle_alpha   90.08656074
_cell_angle_beta   90.00000000
_cell_angle_gamma   90.00000000
_symmetry_Int_Tables_number   1
_chemical_formula_structural   Dy3Tm2In4PtRh
_chemical_formula_sum   'Dy6 Tm4 In8 Pt2 Rh2'
_cell_volume   531.15973486
_cell_formula_units_Z   2
loop_
 _symmetry_equiv_pos_site_id
 _symmetry_equiv_pos_as_xyz
  1  'x, y, z'
loop_
 _atom_site_type_symbol
 _atom_site_label
 _atom_site_symmetry_multiplicity
 _atom_site_fract_x
 _atom_site_fract_y
 _atom_site_fract_z
 _atom_site_occupancy
  Dy  Dy0  1  0.000000  0.239072  0.221515  1
  Dy  Dy1  1  0.000000  0.760928  0.778485  1
  Dy  Dy2  1  0.000000  0.250211  0.720452  1
  Dy  Dy3  1  0.000000  0.749789  0.279548  1
  Dy  Dy4  1  0.000000  0.000000  0.000000  1
  Dy  Dy5  1  0.000000  0.500000  0.500000  1
  Tm  Tm6  1  0.000000  0.115262  0.411869  1
  Tm  Tm7  1  0.000000  0.884738  0.588131  1
  Tm  Tm8  1  0.000000  0.383236  0.913665  1
  Tm  Tm9  1  0.000000  0.616764  0.086335  1
  In  In10  1  0.500000  0.422188  0.351265  1
  In  In11  1  0.500000  0.577812  0.648735  1
  In  In12  1  0.500000  0.074094  0.850324  1
  In  In13  1  0.500000  0.925906  0.149676  1
  In  In14  1  0.500000  0.294321  0.065780  1
  In  In15  1  0.500000  0.705679  0.934220  1
  In  In16  1  0.500000  0.204496  0.567278  1
  In  In17  1  0.500000  0.795504  0.432722  1
  Pt  Pt18  1  0.500000  0.476033  0.804172  1
  Pt  Pt19  1  0.500000  0.523967  0.195828  1
  Rh  Rh20  1  0.500000  0.023326  0.305236  1
  Rh  Rh21  1  0.500000  0.976674  0.694764  1
