# generated using pymatgen
data_ScAlV2Ga3
_symmetry_space_group_name_H-M   'P 1'
_cell_length_a   5.30351456
_cell_length_b   5.30351481
_cell_length_c   5.28293035
_cell_angle_alpha   103.82714684
_cell_angle_beta   103.82713706
_cell_angle_gamma   121.59208687
_symmetry_Int_Tables_number   1
_chemical_formula_structural   ScAlV2Ga3
_chemical_formula_sum   'Sc1 Al1 V2 Ga3'
_cell_volume   110.34890388
_cell_formula_units_Z   1
loop_
 _symmetry_equiv_pos_site_id
 _symmetry_equiv_pos_as_xyz
  1  'x, y, z'
loop_
 _atom_site_type_symbol
 _atom_site_label
 _atom_site_symmetry_multiplicity
 _atom_site_fract_x
 _atom_site_fract_y
 _atom_site_fract_z
 _atom_site_occupancy
  Sc  Sc0  1  0.999035  0.999035  0.998070  1
  Al  Al1  1  0.301546  0.301546  0.603093  1
  V  V2  1  0.250023  0.750023  0.500046  1
  V  V3  1  0.750023  0.250023  0.500046  1
  Ga  Ga4  1  0.700415  0.700415  0.400829  1
  Ga  Ga5  1  0.699315  0.299643  0.998958  1
  Ga  Ga6  1  0.299643  0.699315  0.998958  1
