# generated using pymatgen
data_Hf6Zr2Co11Si16Rh
_symmetry_space_group_name_H-M   'P 1'
_cell_length_a   5.23645030
_cell_length_b   6.76842760
_cell_length_c   13.72136760
_cell_angle_alpha   90.05216720
_cell_angle_beta   89.99999129
_cell_angle_gamma   89.86385150
_symmetry_Int_Tables_number   1
_chemical_formula_structural   Hf6Zr2Co11Si16Rh
_chemical_formula_sum   'Hf6 Zr2 Co11 Si16 Rh1'
_cell_volume   486.31847282
_cell_formula_units_Z   1
loop_
 _symmetry_equiv_pos_site_id
 _symmetry_equiv_pos_as_xyz
  1  'x, y, z'
loop_
 _atom_site_type_symbol
 _atom_site_label
 _atom_site_symmetry_multiplicity
 _atom_site_fract_x
 _atom_site_fract_y
 _atom_site_fract_z
 _atom_site_occupancy
  Hf  Hf0  1  0.269259  0.100006  0.644687  1
  Hf  Hf1  1  0.765752  0.400822  0.644480  1
  Hf  Hf2  1  0.230872  0.601136  0.354895  1
  Hf  Hf3  1  0.731876  0.898609  0.354764  1
  Hf  Hf4  1  0.266456  0.901777  0.852965  1
  Hf  Hf5  1  0.770833  0.601982  0.851059  1
  Zr  Zr6  1  0.234770  0.399116  0.149943  1
  Zr  Zr7  1  0.730209  0.099982  0.148811  1
  Co  Co8  1  0.506511  0.225399  0.481712  1
  Co  Co9  1  0.773846  0.998820  0.749134  1
  Co  Co10  1  0.491611  0.220992  0.979969  1
  Co  Co11  1  0.725031  0.502470  0.252979  1
  Co  Co12  1  0.494335  0.774372  0.518486  1
  Co  Co13  1  0.006401  0.274408  0.481686  1
  Co  Co14  1  0.004818  0.725283  0.018813  1
  Co  Co15  1  0.224778  0.997158  0.253145  1
  Co  Co16  1  0.277695  0.502587  0.749416  1
  Co  Co17  1  0.505090  0.773639  0.019060  1
  Co  Co18  1  0.994170  0.725409  0.518460  1
  Si  Si19  1  0.222528  0.013485  0.071091  1
  Si  Si20  1  0.718596  0.518944  0.432319  1
  Si  Si21  1  0.782759  0.018816  0.567505  1
  Si  Si22  1  0.480751  0.753906  0.189397  1
  Si  Si23  1  0.020443  0.254309  0.803717  1
  Si  Si24  1  0.519136  0.246861  0.811204  1
  Si  Si25  1  0.218400  0.981075  0.432519  1
  Si  Si26  1  0.293009  0.525501  0.931537  1
  Si  Si27  1  0.980165  0.746009  0.188779  1
  Si  Si28  1  0.711165  0.485571  0.070173  1
  Si  Si29  1  0.281572  0.481337  0.567557  1
  Si  Si30  1  0.480836  0.246077  0.313807  1
  Si  Si31  1  0.020111  0.746406  0.686821  1
  Si  Si32  1  0.774828  0.973573  0.930568  1
  Si  Si33  1  0.518834  0.754620  0.687188  1
  Si  Si34  1  0.980364  0.253552  0.313521  1
  Rh  Rh35  1  0.992194  0.275988  0.977833  1
