# generated using pymatgen
data_CeU7(PS)8
_symmetry_space_group_name_H-M   'P 1'
_cell_length_a   5.39588400
_cell_length_b   5.37824700
_cell_length_c   15.93336800
_cell_angle_alpha   89.99855872
_cell_angle_beta   89.99976846
_cell_angle_gamma   89.99981928
_symmetry_Int_Tables_number   1
_chemical_formula_structural   CeU7(PS)8
_chemical_formula_sum   'Ce1 U7 P8 S8'
_cell_volume   462.39266383
_cell_formula_units_Z   1
loop_
 _symmetry_equiv_pos_site_id
 _symmetry_equiv_pos_as_xyz
  1  'x, y, z'
loop_
 _atom_site_type_symbol
 _atom_site_label
 _atom_site_symmetry_multiplicity
 _atom_site_fract_x
 _atom_site_fract_y
 _atom_site_fract_z
 _atom_site_occupancy
  Ce  Ce0  1  0.749999  0.499944  0.126544  1
  U  U1  1  0.250002  0.499988  0.370077  1
  U  U2  1  0.249998  0.999965  0.145250  1
  U  U3  1  0.750000  0.500031  0.641523  1
  U  U4  1  0.750000  0.000027  0.862715  1
  U  U5  1  0.250001  0.000034  0.633702  1
  U  U6  1  0.250000  0.500012  0.862100  1
  U  U7  1  0.750002  0.999990  0.357728  1
  P  P8  1  0.033867  0.217558  0.998040  1
  P  P9  1  0.533490  0.760746  0.500840  1
  P  P10  1  0.466143  0.782435  0.998042  1
  P  P11  1  0.966508  0.239267  0.500840  1
  P  P12  1  0.033856  0.782435  0.998042  1
  P  P13  1  0.533493  0.239271  0.500841  1
  P  P14  1  0.466131  0.217557  0.998040  1
  P  P15  1  0.966512  0.760746  0.500840  1
  S  S16  1  0.249999  0.499943  0.185001  1
  S  S17  1  0.249995  0.999997  0.323470  1
  S  S18  1  0.750000  0.500022  0.821359  1
  S  S19  1  0.750001  0.000028  0.684388  1
  S  S20  1  0.250001  0.000015  0.812813  1
  S  S21  1  0.250001  0.500042  0.680090  1
  S  S22  1  0.750000  0.999968  0.181061  1
  S  S23  1  0.750002  0.499977  0.316655  1
