# generated using pymatgen
data_Y6Er10MgAg3Ir4
_symmetry_space_group_name_H-M   'P 1'
_cell_length_a   9.57567250
_cell_length_b   9.57206494
_cell_length_c   9.57197200
_cell_angle_alpha   60.00070823
_cell_angle_beta   60.01290713
_cell_angle_gamma   60.01336148
_symmetry_Int_Tables_number   1
_chemical_formula_structural   Y6Er10MgAg3Ir4
_chemical_formula_sum   'Y6 Er10 Mg1 Ag3 Ir4'
_cell_volume   620.51153249
_cell_formula_units_Z   1
loop_
 _symmetry_equiv_pos_site_id
 _symmetry_equiv_pos_as_xyz
  1  'x, y, z'
loop_
 _atom_site_type_symbol
 _atom_site_label
 _atom_site_symmetry_multiplicity
 _atom_site_fract_x
 _atom_site_fract_y
 _atom_site_fract_z
 _atom_site_occupancy
  Y  Y0  1  0.186642  0.812046  0.812063  1
  Y  Y1  1  0.812080  0.187084  0.187081  1
  Y  Y2  1  0.812055  0.187088  0.813759  1
  Y  Y3  1  0.186597  0.812089  0.189226  1
  Y  Y4  1  0.812079  0.813754  0.187085  1
  Y  Y5  1  0.186650  0.189247  0.812063  1
  Er  Er6  1  0.599488  0.598401  0.598402  1
  Er  Er7  1  0.599477  0.598397  0.203727  1
  Er  Er8  1  0.599491  0.203709  0.598395  1
  Er  Er9  1  0.192215  0.602598  0.602581  1
  Er  Er10  1  0.059944  0.439349  0.439333  1
  Er  Er11  1  0.436533  0.063088  0.063095  1
  Er  Er12  1  0.436540  0.063099  0.437256  1
  Er  Er13  1  0.059951  0.439329  0.061402  1
  Er  Er14  1  0.436521  0.437289  0.063092  1
  Er  Er15  1  0.059956  0.061375  0.439332  1
  Mg  Mg16  1  0.537948  0.820695  0.820678  1
  Ag  Ag17  1  0.831259  0.834296  0.834310  1
  Ag  Ag18  1  0.831272  0.834297  0.500143  1
  Ag  Ag19  1  0.831253  0.500141  0.834310  1
  Ir  Ir20  1  0.389262  0.393595  0.393599  1
  Ir  Ir21  1  0.389260  0.393595  0.823539  1
  Ir  Ir22  1  0.389271  0.823533  0.393602  1
  Ir  Ir23  1  0.824259  0.391907  0.391926  1
