# generated using pymatgen
data_Hf6Al16CoPt5Rh
_symmetry_space_group_name_H-M   'P 1'
_cell_length_a   8.71187226
_cell_length_b   8.69889717
_cell_length_c   8.69889807
_cell_angle_alpha   60.20077194
_cell_angle_beta   59.95064520
_cell_angle_gamma   59.95064814
_symmetry_Int_Tables_number   1
_chemical_formula_structural   Hf6Al16CoPt5Rh
_chemical_formula_sum   'Hf6 Al16 Co1 Pt5 Rh1'
_cell_volume   466.50275643
_cell_formula_units_Z   1
loop_
 _symmetry_equiv_pos_site_id
 _symmetry_equiv_pos_as_xyz
  1  'x, y, z'
loop_
 _atom_site_type_symbol
 _atom_site_label
 _atom_site_symmetry_multiplicity
 _atom_site_fract_x
 _atom_site_fract_y
 _atom_site_fract_z
 _atom_site_occupancy
  Hf  Hf0  1  0.683392  0.681946  0.318054  1
  Hf  Hf1  1  0.316608  0.681946  0.318054  1
  Hf  Hf2  1  0.683177  0.316823  0.316823  1
  Hf  Hf3  1  0.316608  0.318054  0.681946  1
  Hf  Hf4  1  0.683392  0.318054  0.681946  1
  Hf  Hf5  1  0.316823  0.683177  0.683177  1
  Al  Al6  1  0.885969  0.870434  0.357629  1
  Al  Al7  1  0.885969  0.357629  0.870434  1
  Al  Al8  1  0.356974  0.879936  0.879936  1
  Al  Al9  1  0.883152  0.879936  0.879936  1
  Al  Al10  1  0.114031  0.129566  0.642371  1
  Al  Al11  1  0.114031  0.642371  0.129566  1
  Al  Al12  1  0.643026  0.120064  0.120064  1
  Al  Al13  1  0.116848  0.120064  0.120064  1
  Al  Al14  1  0.664161  0.663021  0.008657  1
  Al  Al15  1  0.664161  0.008657  0.663021  1
  Al  Al16  1  0.007724  0.658713  0.658713  1
  Al  Al17  1  0.674849  0.658713  0.658713  1
  Al  Al18  1  0.335839  0.336979  0.991343  1
  Al  Al19  1  0.335839  0.991343  0.336979  1
  Al  Al20  1  0.992276  0.341287  0.341287  1
  Al  Al21  1  0.325151  0.341287  0.341287  1
  Co  Co22  1  0.000000  0.500000  0.500000  1
  Pt  Pt23  1  0.000000  0.000000  0.500000  1
  Pt  Pt24  1  0.500000  0.000000  0.500000  1
  Pt  Pt25  1  0.500000  0.500000  0.000000  1
  Pt  Pt26  1  0.000000  0.500000  0.000000  1
  Pt  Pt27  1  0.500000  0.000000  0.000000  1
  Rh  Rh28  1  0.000000  0.000000  0.000000  1
