# generated using pymatgen
data_Ho7RhO12
_symmetry_space_group_name_H-M   'P 1'
_cell_length_a   6.60331316
_cell_length_b   6.60331234
_cell_length_c   6.60331261
_cell_angle_alpha   94.14647297
_cell_angle_beta   94.14646571
_cell_angle_gamma   94.14646910
_symmetry_Int_Tables_number   1
_chemical_formula_structural   Ho7RhO12
_chemical_formula_sum   'Ho7 Rh1 O12'
_cell_volume   285.55243343
_cell_formula_units_Z   1
loop_
 _symmetry_equiv_pos_site_id
 _symmetry_equiv_pos_as_xyz
  1  'x, y, z'
loop_
 _atom_site_type_symbol
 _atom_site_label
 _atom_site_symmetry_multiplicity
 _atom_site_fract_x
 _atom_site_fract_y
 _atom_site_fract_z
 _atom_site_occupancy
  Ho  Ho0  1  0.737690  0.917876  0.432230  1
  Ho  Ho1  1  0.917876  0.432230  0.737690  1
  Ho  Ho2  1  0.432230  0.737690  0.917876  1
  Ho  Ho3  1  0.262310  0.082124  0.567770  1
  Ho  Ho4  1  0.082124  0.567770  0.262310  1
  Ho  Ho5  1  0.567770  0.262310  0.082124  1
  Ho  Ho6  1  0.000000  0.000000  0.000000  1
  Rh  Rh7  1  0.500000  0.500000  0.500000  1
  O  O8  1  0.590427  0.461816  0.805578  1
  O  O9  1  0.461816  0.805578  0.590427  1
  O  O10  1  0.805578  0.590427  0.461816  1
  O  O11  1  0.409573  0.538184  0.194422  1
  O  O12  1  0.538184  0.194422  0.409573  1
  O  O13  1  0.194422  0.409573  0.538184  1
  O  O14  1  0.067814  0.908476  0.319229  1
  O  O15  1  0.908476  0.319229  0.067814  1
  O  O16  1  0.680771  0.932186  0.091524  1
  O  O17  1  0.091524  0.680771  0.932186  1
  O  O18  1  0.932186  0.091524  0.680771  1
  O  O19  1  0.319229  0.067814  0.908476  1
