# generated using pymatgen
data_Ho8Sc12Si15Au
_symmetry_space_group_name_H-M   'P 1'
_cell_length_a   7.10936162
_cell_length_b   7.36347562
_cell_length_c   14.04184016
_cell_angle_alpha   89.89677467
_cell_angle_beta   89.60011932
_cell_angle_gamma   90.16418233
_symmetry_Int_Tables_number   1
_chemical_formula_structural   Ho8Sc12Si15Au
_chemical_formula_sum   'Ho8 Sc12 Si15 Au1'
_cell_volume   735.06272983
_cell_formula_units_Z   1
loop_
 _symmetry_equiv_pos_site_id
 _symmetry_equiv_pos_as_xyz
  1  'x, y, z'
loop_
 _atom_site_type_symbol
 _atom_site_label
 _atom_site_symmetry_multiplicity
 _atom_site_fract_x
 _atom_site_fract_y
 _atom_site_fract_z
 _atom_site_occupancy
  Ho  Ho0  1  0.011844  0.175276  0.097458  1
  Ho  Ho1  1  0.987959  0.825340  0.903818  1
  Ho  Ho2  1  0.487079  0.677340  0.903693  1
  Ho  Ho3  1  0.989709  0.828533  0.597598  1
  Ho  Ho4  1  0.511947  0.323395  0.096469  1
  Ho  Ho5  1  0.009468  0.173708  0.399434  1
  Ho  Ho6  1  0.508983  0.323488  0.400823  1
  Ho  Ho7  1  0.492000  0.676983  0.599155  1
  Sc  Sc8  1  0.163917  0.501938  0.751287  1
  Sc  Sc9  1  0.836625  0.498104  0.250998  1
  Sc  Sc10  1  0.336552  0.000320  0.249120  1
  Sc  Sc11  1  0.665658  0.996241  0.751120  1
  Sc  Sc12  1  0.340523  0.176269  0.625671  1
  Sc  Sc13  1  0.664855  0.823691  0.373420  1
  Sc  Sc14  1  0.167392  0.673229  0.372725  1
  Sc  Sc15  1  0.669527  0.824144  0.124917  1
  Sc  Sc16  1  0.829181  0.326006  0.625660  1
  Sc  Sc17  1  0.328876  0.175127  0.876390  1
  Sc  Sc18  1  0.831113  0.322755  0.876101  1
  Sc  Sc19  1  0.168873  0.676145  0.124930  1
  Si  Si20  1  0.036975  0.119122  0.750674  1
  Si  Si21  1  0.964954  0.883825  0.248724  1
  Si  Si22  1  0.465949  0.614386  0.248070  1
  Si  Si23  1  0.535743  0.385969  0.752873  1
  Si  Si24  1  0.286168  0.874357  0.751051  1
  Si  Si25  1  0.711808  0.128001  0.248618  1
  Si  Si26  1  0.213620  0.369890  0.247690  1
  Si  Si27  1  0.787878  0.628142  0.752941  1
  Si  Si28  1  0.833827  0.537206  0.459574  1
  Si  Si29  1  0.338292  0.962260  0.460267  1
  Si  Si30  1  0.843124  0.535313  0.039073  1
  Si  Si31  1  0.660452  0.036540  0.537499  1
  Si  Si32  1  0.156037  0.464540  0.961765  1
  Si  Si33  1  0.657604  0.034738  0.960908  1
  Si  Si34  1  0.342267  0.964490  0.039806  1
  Au  Au35  1  0.163223  0.463191  0.539677  1
