# generated using pymatgen
data_Lu5Ta3(P3Rh4)4
_symmetry_space_group_name_H-M   'P 1'
_cell_length_a   12.75708800
_cell_length_b   12.75708875
_cell_length_c   3.91817700
_cell_angle_alpha   90.00000000
_cell_angle_beta   90.00000000
_cell_angle_gamma   120.00000842
_symmetry_Int_Tables_number   1
_chemical_formula_structural   Lu5Ta3(P3Rh4)4
_chemical_formula_sum   'Lu5 Ta3 P12 Rh16'
_cell_volume   552.22717464
_cell_formula_units_Z   1
loop_
 _symmetry_equiv_pos_site_id
 _symmetry_equiv_pos_as_xyz
  1  'x, y, z'
loop_
 _atom_site_type_symbol
 _atom_site_label
 _atom_site_symmetry_multiplicity
 _atom_site_fract_x
 _atom_site_fract_y
 _atom_site_fract_z
 _atom_site_occupancy
  Lu  Lu0  1  0.666667  0.333333  0.000000  1
  Lu  Lu1  1  0.333333  0.666667  0.000000  1
  Lu  Lu2  1  0.813324  0.813324  0.500000  1
  Lu  Lu3  1  0.186676  0.000000  0.500000  1
  Lu  Lu4  1  0.000000  0.186676  0.500000  1
  Ta  Ta5  1  0.450351  0.450351  0.000000  1
  Ta  Ta6  1  0.549649  0.000000  0.000000  1
  Ta  Ta7  1  0.000000  0.549649  0.000000  1
  P  P8  1  0.682360  0.165469  0.500000  1
  P  P9  1  0.834531  0.516889  0.500000  1
  P  P10  1  0.483111  0.317640  0.500000  1
  P  P11  1  0.165469  0.682360  0.500000  1
  P  P12  1  0.516889  0.834531  0.500000  1
  P  P13  1  0.317640  0.483111  0.500000  1
  P  P14  1  0.174828  0.174828  0.000000  1
  P  P15  1  0.825172  0.000000  0.000000  1
  P  P16  1  0.000000  0.825172  0.000000  1
  P  P17  1  0.642680  0.642680  0.000000  1
  P  P18  1  0.357320  0.000000  0.000000  1
  P  P19  1  0.000000  0.357320  0.000000  1
  Rh  Rh20  1  0.865788  0.354626  0.500000  1
  Rh  Rh21  1  0.645374  0.511162  0.500000  1
  Rh  Rh22  1  0.488838  0.134212  0.500000  1
  Rh  Rh23  1  0.354626  0.865788  0.500000  1
  Rh  Rh24  1  0.511162  0.645374  0.500000  1
  Rh  Rh25  1  0.134212  0.488838  0.500000  1
  Rh  Rh26  1  0.803327  0.176973  0.000000  1
  Rh  Rh27  1  0.823027  0.626353  0.000000  1
  Rh  Rh28  1  0.373647  0.196673  0.000000  1
  Rh  Rh29  1  0.176973  0.803327  0.000000  1
  Rh  Rh30  1  0.626353  0.823027  0.000000  1
  Rh  Rh31  1  0.196673  0.373647  0.000000  1
  Rh  Rh32  1  0.280298  0.280298  0.500000  1
  Rh  Rh33  1  0.719702  0.000000  0.500000  1
  Rh  Rh34  1  0.000000  0.719702  0.500000  1
  Rh  Rh35  1  0.000000  0.000000  0.000000  1
