# generated using pymatgen
data_Ho6Ti7Al9Ir8
_symmetry_space_group_name_H-M   'P 1'
_cell_length_a   9.07128299
_cell_length_b   9.07128369
_cell_length_c   9.07128415
_cell_angle_alpha   60.09171869
_cell_angle_beta   60.09172169
_cell_angle_gamma   60.09172789
_symmetry_Int_Tables_number   1
_chemical_formula_structural   Ho6Ti7Al9Ir8
_chemical_formula_sum   'Ho6 Ti7 Al9 Ir8'
_cell_volume   528.92358059
_cell_formula_units_Z   1
loop_
 _symmetry_equiv_pos_site_id
 _symmetry_equiv_pos_as_xyz
  1  'x, y, z'
loop_
 _atom_site_type_symbol
 _atom_site_label
 _atom_site_symmetry_multiplicity
 _atom_site_fract_x
 _atom_site_fract_y
 _atom_site_fract_z
 _atom_site_occupancy
  Ho  Ho0  1  0.211923  0.211923  0.789366  1
  Ho  Ho1  1  0.789366  0.211923  0.211923  1
  Ho  Ho2  1  0.211923  0.789366  0.211923  1
  Ho  Ho3  1  0.793457  0.793457  0.197899  1
  Ho  Ho4  1  0.197899  0.793457  0.793457  1
  Ho  Ho5  1  0.793457  0.197899  0.793457  1
  Ti  Ti6  1  0.379207  0.379207  0.379207  1
  Ti  Ti7  1  0.381160  0.861966  0.381160  1
  Ti  Ti8  1  0.861966  0.381160  0.381160  1
  Ti  Ti9  1  0.381160  0.381160  0.861966  1
  Ti  Ti10  1  0.831760  0.504536  0.831760  1
  Ti  Ti11  1  0.504536  0.831760  0.831760  1
  Ti  Ti12  1  0.831760  0.831760  0.504536  1
  Al  Al13  1  0.170959  0.170959  0.170959  1
  Al  Al14  1  0.170758  0.489516  0.170758  1
  Al  Al15  1  0.489516  0.170758  0.170758  1
  Al  Al16  1  0.170758  0.170758  0.489516  1
  Al  Al17  1  0.618557  0.618557  0.618557  1
  Al  Al18  1  0.617966  0.144701  0.617966  1
  Al  Al19  1  0.144701  0.617966  0.617966  1
  Al  Al20  1  0.617966  0.617966  0.144701  1
  Al  Al21  1  0.824416  0.824416  0.824416  1
  Ir  Ir22  1  0.000569  0.000569  0.496627  1
  Ir  Ir23  1  0.496627  0.000569  0.000569  1
  Ir  Ir24  1  0.000569  0.496627  0.000569  1
  Ir  Ir25  1  0.502531  0.502531  0.998301  1
  Ir  Ir26  1  0.998301  0.502531  0.502531  1
  Ir  Ir27  1  0.502531  0.998301  0.502531  1
  Ir  Ir28  1  0.500463  0.500463  0.500463  1
  Ir  Ir29  1  0.003234  0.003234  0.003234  1
