# generated using pymatgen
data_Dy15HoCd3NiAgIr3
_symmetry_space_group_name_H-M   'P 1'
_cell_length_a   9.57554950
_cell_length_b   9.57555002
_cell_length_c   9.57555000
_cell_angle_alpha   60.35662980
_cell_angle_beta   60.35662805
_cell_angle_gamma   60.35662376
_symmetry_Int_Tables_number   1
_chemical_formula_structural   Dy15HoCd3NiAgIr3
_chemical_formula_sum   'Dy15 Ho1 Cd3 Ni1 Ag1 Ir3'
_cell_volume   625.84339083
_cell_formula_units_Z   1
loop_
 _symmetry_equiv_pos_site_id
 _symmetry_equiv_pos_as_xyz
  1  'x, y, z'
loop_
 _atom_site_type_symbol
 _atom_site_label
 _atom_site_symmetry_multiplicity
 _atom_site_fract_x
 _atom_site_fract_y
 _atom_site_fract_z
 _atom_site_occupancy
  Dy  Dy0  1  0.598202  0.598202  0.202422  1
  Dy  Dy1  1  0.598202  0.202422  0.598202  1
  Dy  Dy2  1  0.202422  0.598202  0.598202  1
  Dy  Dy3  1  0.061226  0.440075  0.440075  1
  Dy  Dy4  1  0.438356  0.060409  0.060409  1
  Dy  Dy5  1  0.440075  0.061226  0.440075  1
  Dy  Dy6  1  0.060409  0.438356  0.060409  1
  Dy  Dy7  1  0.440075  0.440075  0.061226  1
  Dy  Dy8  1  0.060409  0.060409  0.438356  1
  Dy  Dy9  1  0.186518  0.811406  0.811406  1
  Dy  Dy10  1  0.814968  0.186275  0.186275  1
  Dy  Dy11  1  0.811406  0.186518  0.811406  1
  Dy  Dy12  1  0.186275  0.814968  0.186275  1
  Dy  Dy13  1  0.811406  0.811406  0.186518  1
  Dy  Dy14  1  0.186275  0.186275  0.814968  1
  Ho  Ho15  1  0.598397  0.598397  0.598397  1
  Cd  Cd16  1  0.831853  0.831853  0.507578  1
  Cd  Cd17  1  0.831853  0.507578  0.831853  1
  Cd  Cd18  1  0.507578  0.831853  0.831853  1
  Ni  Ni19  1  0.391921  0.391921  0.391921  1
  Ag  Ag20  1  0.832484  0.832484  0.832484  1
  Ir  Ir21  1  0.392714  0.392714  0.824264  1
  Ir  Ir22  1  0.392714  0.824264  0.392714  1
  Ir  Ir23  1  0.824264  0.392714  0.392714  1
