# generated using pymatgen
data_Hf3PtRh4
_symmetry_space_group_name_H-M   'P 1'
_cell_length_a   4.33131300
_cell_length_b   5.61177184
_cell_length_c   11.02768592
_cell_angle_alpha   88.89230860
_cell_angle_beta   90.00000000
_cell_angle_gamma   90.00000000
_symmetry_Int_Tables_number   1
_chemical_formula_structural   Hf3PtRh4
_chemical_formula_sum   'Hf6 Pt2 Rh8'
_cell_volume   267.99259658
_cell_formula_units_Z   2
loop_
 _symmetry_equiv_pos_site_id
 _symmetry_equiv_pos_as_xyz
  1  'x, y, z'
loop_
 _atom_site_type_symbol
 _atom_site_label
 _atom_site_symmetry_multiplicity
 _atom_site_fract_x
 _atom_site_fract_y
 _atom_site_fract_z
 _atom_site_occupancy
  Hf  Hf0  1  0.500000  0.152044  0.644403  1
  Hf  Hf1  1  0.500000  0.847956  0.355597  1
  Hf  Hf2  1  0.500000  0.661848  0.856440  1
  Hf  Hf3  1  0.500000  0.338152  0.143560  1
  Hf  Hf4  1  0.000000  0.500000  0.500000  1
  Hf  Hf5  1  0.000000  0.000000  0.000000  1
  Pt  Pt6  1  0.000000  0.401426  0.744580  1
  Pt  Pt7  1  0.000000  0.598574  0.255420  1
  Rh  Rh8  1  0.500000  0.182819  0.892616  1
  Rh  Rh9  1  0.500000  0.817181  0.107384  1
  Rh  Rh10  1  0.500000  0.680551  0.606948  1
  Rh  Rh11  1  0.500000  0.319449  0.393052  1
  Rh  Rh12  1  0.000000  0.000000  0.500000  1
  Rh  Rh13  1  0.000000  0.500000  0.000000  1
  Rh  Rh14  1  0.000000  0.099199  0.242291  1
  Rh  Rh15  1  0.000000  0.900801  0.757709  1
