# generated using pymatgen
data_Ac4Mg4GeIr3
_symmetry_space_group_name_H-M   'P 1'
_cell_length_a   4.35366200
_cell_length_b   7.66431564
_cell_length_c   9.10174800
_cell_angle_alpha   89.04275018
_cell_angle_beta   90.00000000
_cell_angle_gamma   90.00000000
_symmetry_Int_Tables_number   1
_chemical_formula_structural   Ac4Mg4GeIr3
_chemical_formula_sum   'Ac4 Mg4 Ge1 Ir3'
_cell_volume   303.66328330
_cell_formula_units_Z   1
loop_
 _symmetry_equiv_pos_site_id
 _symmetry_equiv_pos_as_xyz
  1  'x, y, z'
loop_
 _atom_site_type_symbol
 _atom_site_label
 _atom_site_symmetry_multiplicity
 _atom_site_fract_x
 _atom_site_fract_y
 _atom_site_fract_z
 _atom_site_occupancy
  Ac  Ac0  1  0.250000  0.536825  0.182243  1
  Ac  Ac1  1  0.750000  0.471623  0.827329  1
  Ac  Ac2  1  0.750000  0.951840  0.681655  1
  Ac  Ac3  1  0.250000  0.029015  0.312896  1
  Mg  Mg4  1  0.250000  0.635859  0.554886  1
  Mg  Mg5  1  0.750000  0.371954  0.439904  1
  Mg  Mg6  1  0.750000  0.869488  0.055378  1
  Mg  Mg7  1  0.250000  0.128519  0.950662  1
  Ge  Ge8  1  0.250000  0.265743  0.618109  1
  Ir  Ir9  1  0.250000  0.760950  0.877651  1
  Ir  Ir10  1  0.750000  0.239137  0.125687  1
  Ir  Ir11  1  0.750000  0.739047  0.373602  1
