# generated using pymatgen
data_Tm3Lu(Ga3Pt)2
_symmetry_space_group_name_H-M   'P 1'
_cell_length_a   8.80809301
_cell_length_b   8.81397644
_cell_length_c   6.94031600
_cell_angle_alpha   90.00000000
_cell_angle_beta   90.00000000
_cell_angle_gamma   119.98500039
_symmetry_Int_Tables_number   1
_chemical_formula_structural   Tm3Lu(Ga3Pt)2
_chemical_formula_sum   'Tm6 Lu2 Ga12 Pt4'
_cell_volume   466.69083901
_cell_formula_units_Z   2
loop_
 _symmetry_equiv_pos_site_id
 _symmetry_equiv_pos_as_xyz
  1  'x, y, z'
loop_
 _atom_site_type_symbol
 _atom_site_label
 _atom_site_symmetry_multiplicity
 _atom_site_fract_x
 _atom_site_fract_y
 _atom_site_fract_z
 _atom_site_occupancy
  Tm  Tm0  1  0.000146  0.999870  0.250000  1
  Tm  Tm1  1  0.999841  0.000100  0.750000  1
  Tm  Tm2  1  0.520442  0.040968  0.250000  1
  Tm  Tm3  1  0.520247  0.479731  0.250000  1
  Tm  Tm4  1  0.959111  0.479588  0.250000  1
  Tm  Tm5  1  0.479460  0.958834  0.750000  1
  Lu  Lu6  1  0.479510  0.520426  0.750000  1
  Lu  Lu7  1  0.041268  0.520548  0.750000  1
  Ga  Ga8  1  0.166418  0.332996  0.047234  1
  Ga  Ga9  1  0.166607  0.833245  0.452613  1
  Ga  Ga10  1  0.666964  0.833491  0.452609  1
  Ga  Ga11  1  0.666964  0.833491  0.047391  1
  Ga  Ga12  1  0.166607  0.833245  0.047387  1
  Ga  Ga13  1  0.833542  0.666924  0.952215  1
  Ga  Ga14  1  0.833478  0.166867  0.952399  1
  Ga  Ga15  1  0.333066  0.166626  0.952398  1
  Ga  Ga16  1  0.166418  0.332996  0.452766  1
  Ga  Ga17  1  0.333066  0.166626  0.547602  1
  Ga  Ga18  1  0.833542  0.666924  0.547785  1
  Ga  Ga19  1  0.833478  0.166867  0.547601  1
  Pt  Pt20  1  0.333183  0.666179  0.027808  1
  Pt  Pt21  1  0.333183  0.666179  0.472192  1
  Pt  Pt22  1  0.666730  0.333639  0.970976  1
  Pt  Pt23  1  0.666730  0.333639  0.529024  1
