# generated using pymatgen
data_Ba3Zn2CoTe(PO7)2
_symmetry_space_group_name_H-M   'P 1'
_cell_length_a   8.60381536
_cell_length_b   10.14187588
_cell_length_c   10.14159800
_cell_angle_alpha   85.43990241
_cell_angle_beta   115.09906969
_cell_angle_gamma   64.91003804
_symmetry_Int_Tables_number   1
_chemical_formula_structural   Ba3Zn2CoTe(PO7)2
_chemical_formula_sum   'Ba6 Zn4 Co2 Te2 P4 O28'
_cell_volume   688.51509648
_cell_formula_units_Z   2
loop_
 _symmetry_equiv_pos_site_id
 _symmetry_equiv_pos_as_xyz
  1  'x, y, z'
loop_
 _atom_site_type_symbol
 _atom_site_label
 _atom_site_symmetry_multiplicity
 _atom_site_fract_x
 _atom_site_fract_y
 _atom_site_fract_z
 _atom_site_occupancy
  Ba  Ba0  1  0.436183  0.999846  0.000351  1
  Ba  Ba1  1  0.935662  0.500157  0.499655  1
  Ba  Ba2  1  0.782640  0.217410  0.218375  1
  Ba  Ba3  1  0.281534  0.718231  0.717490  1
  Ba  Ba4  1  0.281643  0.282566  0.281612  1
  Ba  Ba5  1  0.782271  0.781748  0.782511  1
  Zn  Zn6  1  0.515740  0.250002  0.750016  1
  Zn  Zn7  1  0.867276  0.132735  0.633286  1
  Zn  Zn8  1  0.866692  0.367247  0.866705  1
  Zn  Zn9  1  0.017392  0.750021  0.250001  1
  Co  Co10  1  0.369191  0.631019  0.131383  1
  Co  Co11  1  0.368819  0.868939  0.368648  1
  Te  Te12  1  0.000130  0.000290  0.000254  1
  Te  Te13  1  0.500155  0.499705  0.499733  1
  P  P14  1  0.268630  0.064320  0.602006  1
  P  P15  1  0.768814  0.564764  0.102293  1
  P  P16  1  0.731304  0.935237  0.397714  1
  P  P17  1  0.230969  0.435674  0.898001  1
  O  O18  1  0.125288  0.207974  0.458514  1
  O  O19  1  0.625111  0.708174  0.958559  1
  O  O20  1  0.874769  0.791835  0.541460  1
  O  O21  1  0.374787  0.292024  0.041498  1
  O  O22  1  0.561984  0.652345  0.442118  1
  O  O23  1  0.063788  0.153115  0.945646  1
  O  O24  1  0.239802  0.663730  0.455979  1
  O  O25  1  0.738677  0.162138  0.955629  1
  O  O26  1  0.887415  0.994494  0.788594  1
  O  O27  1  0.384564  0.496073  0.288006  1
  O  O28  1  0.092652  0.003919  0.211985  1
  O  O29  1  0.593309  0.505517  0.711396  1
  O  O30  1  0.445029  0.337909  0.544347  1
  O  O31  1  0.947403  0.836354  0.043993  1
  O  O32  1  0.771175  0.346887  0.554345  1
  O  O33  1  0.272190  0.847636  0.057865  1
  O  O34  1  0.511564  0.969919  0.323198  1
  O  O35  1  0.010925  0.471329  0.823352  1
  O  O36  1  0.787961  0.917646  0.269961  1
  O  O37  1  0.287737  0.418397  0.770246  1
  O  O38  1  0.728740  0.082756  0.434847  1
  O  O39  1  0.228942  0.582799  0.935945  1
  O  O40  1  0.375763  0.917213  0.564047  1
  O  O41  1  0.876620  0.417265  0.065137  1
  O  O42  1  0.435884  0.081603  0.729744  1
  O  O43  1  0.935634  0.582361  0.230033  1
  O  O44  1  0.158926  0.028638  0.676685  1
  O  O45  1  0.658315  0.530039  0.176833  1
