# generated using pymatgen
data_UBe12Cu
_symmetry_space_group_name_H-M   'P 1'
_cell_length_a   7.24879121
_cell_length_b   7.25728986
_cell_length_c   7.26754995
_cell_angle_alpha   59.87582278
_cell_angle_beta   59.99181324
_cell_angle_gamma   60.13234698
_symmetry_Int_Tables_number   1
_chemical_formula_structural   UBe12Cu
_chemical_formula_sum   'U2 Be24 Cu2'
_cell_volume   270.33897626
_cell_formula_units_Z   2
loop_
 _symmetry_equiv_pos_site_id
 _symmetry_equiv_pos_as_xyz
  1  'x, y, z'
loop_
 _atom_site_type_symbol
 _atom_site_label
 _atom_site_symmetry_multiplicity
 _atom_site_fract_x
 _atom_site_fract_y
 _atom_site_fract_z
 _atom_site_occupancy
  U  U0  1  0.749786  0.749786  0.750214  1
  U  U1  1  0.249786  0.249786  0.250214  1
  Be  Be2  1  0.999568  0.999568  0.000432  1
  Be  Be3  1  0.499134  0.499134  0.500866  1
  Be  Be4  1  0.940407  0.297973  0.059593  1
  Be  Be5  1  0.788848  0.437980  0.562020  1
  Be  Be6  1  0.437980  0.788848  0.211152  1
  Be  Be7  1  0.214432  0.431749  0.785568  1
  Be  Be8  1  0.785778  0.561161  0.214222  1
  Be  Be9  1  0.443118  0.561367  0.788334  1
  Be  Be10  1  0.211666  0.792819  0.556882  1
  Be  Be11  1  0.065383  0.938805  0.292109  1
  Be  Be12  1  0.294803  0.058658  0.941342  1
  Be  Be13  1  0.942489  0.701487  0.298513  1
  Be  Be14  1  0.938805  0.065383  0.703703  1
  Be  Be15  1  0.296297  0.707891  0.061195  1
  Be  Be16  1  0.701487  0.942489  0.057511  1
  Be  Be17  1  0.707891  0.296297  0.934617  1
  Be  Be18  1  0.058658  0.294803  0.705197  1
  Be  Be19  1  0.561161  0.785778  0.438839  1
  Be  Be20  1  0.560404  0.210445  0.789555  1
  Be  Be21  1  0.792819  0.211666  0.438633  1
  Be  Be22  1  0.561367  0.443118  0.207181  1
  Be  Be23  1  0.210445  0.560404  0.439596  1
  Be  Be24  1  0.431749  0.214432  0.568251  1
  Be  Be25  1  0.297973  0.940407  0.702027  1
  Cu  Cu26  1  0.698901  0.058865  0.301099  1
  Cu  Cu27  1  0.058865  0.698901  0.941135  1
