# generated using pymatgen
data_TbNdZn5Sn
_symmetry_space_group_name_H-M   'P 1'
_cell_length_a   8.49666083
_cell_length_b   8.49665997
_cell_length_c   9.04939800
_cell_angle_alpha   90.00000000
_cell_angle_beta   90.00000000
_cell_angle_gamma   149.72310376
_symmetry_Int_Tables_number   1
_chemical_formula_structural   TbNdZn5Sn
_chemical_formula_sum   'Tb2 Nd2 Zn10 Sn2'
_cell_volume   329.38311552
_cell_formula_units_Z   2
loop_
 _symmetry_equiv_pos_site_id
 _symmetry_equiv_pos_as_xyz
  1  'x, y, z'
loop_
 _atom_site_type_symbol
 _atom_site_label
 _atom_site_symmetry_multiplicity
 _atom_site_fract_x
 _atom_site_fract_y
 _atom_site_fract_z
 _atom_site_occupancy
  Tb  Tb0  1  0.204955  0.795045  0.250000  1
  Tb  Tb1  1  0.795045  0.204955  0.750000  1
  Nd  Nd2  1  0.000000  0.000000  0.500000  1
  Nd  Nd3  1  0.000000  0.000000  0.000000  1
  Zn  Zn4  1  0.812822  0.187178  0.391038  1
  Zn  Zn5  1  0.187178  0.812822  0.608962  1
  Zn  Zn6  1  0.812822  0.187178  0.108962  1
  Zn  Zn7  1  0.187178  0.812822  0.891038  1
  Zn  Zn8  1  0.657060  0.342940  0.482174  1
  Zn  Zn9  1  0.342940  0.657060  0.517826  1
  Zn  Zn10  1  0.657060  0.342940  0.017826  1
  Zn  Zn11  1  0.342940  0.657060  0.982174  1
  Zn  Zn12  1  0.393801  0.606199  0.250000  1
  Zn  Zn13  1  0.606199  0.393801  0.750000  1
  Sn  Sn14  1  0.555990  0.444010  0.250000  1
  Sn  Sn15  1  0.444010  0.555990  0.750000  1
