# generated using pymatgen
data_Tm3Be2Co4Ni5B4
_symmetry_space_group_name_H-M   'P 1'
_cell_length_a   4.97288800
_cell_length_b   4.99042509
_cell_length_c   9.42790900
_cell_angle_alpha   90.00000000
_cell_angle_beta   90.00000000
_cell_angle_gamma   119.88383413
_symmetry_Int_Tables_number   1
_chemical_formula_structural   Tm3Be2Co4Ni5B4
_chemical_formula_sum   'Tm3 Be2 Co4 Ni5 B4'
_cell_volume   202.86139739
_cell_formula_units_Z   1
loop_
 _symmetry_equiv_pos_site_id
 _symmetry_equiv_pos_as_xyz
  1  'x, y, z'
loop_
 _atom_site_type_symbol
 _atom_site_label
 _atom_site_symmetry_multiplicity
 _atom_site_fract_x
 _atom_site_fract_y
 _atom_site_fract_z
 _atom_site_occupancy
  Tm  Tm0  1  0.000000  0.000000  0.002616  1
  Tm  Tm1  1  0.000000  0.000000  0.660203  1
  Tm  Tm2  1  0.000000  0.000000  0.338339  1
  Be  Be3  1  0.664978  0.329955  0.001081  1
  Be  Be4  1  0.335022  0.670045  0.001081  1
  Co  Co5  1  0.500000  0.500000  0.500167  1
  Co  Co6  1  0.500000  0.000000  0.499440  1
  Co  Co7  1  0.000000  0.500000  0.500167  1
  Co  Co8  1  0.500000  0.000000  0.190702  1
  Ni  Ni9  1  0.500000  0.500000  0.811326  1
  Ni  Ni10  1  0.500000  0.000000  0.811717  1
  Ni  Ni11  1  0.000000  0.500000  0.811326  1
  Ni  Ni12  1  0.500000  0.500000  0.187802  1
  Ni  Ni13  1  0.000000  0.500000  0.187802  1
  B  B14  1  0.666435  0.332870  0.655251  1
  B  B15  1  0.333565  0.667130  0.655251  1
  B  B16  1  0.335505  0.671011  0.342865  1
  B  B17  1  0.664495  0.328989  0.342865  1
