# generated using pymatgen
data_Cs2MnSeS
_symmetry_space_group_name_H-M   'P 1'
_cell_length_a   8.64129834
_cell_length_b   8.85850679
_cell_length_c   8.85850796
_cell_angle_alpha   135.58725065
_cell_angle_beta   128.89309071
_cell_angle_gamma   70.42714391
_symmetry_Int_Tables_number   1
_chemical_formula_structural   Cs2MnSeS
_chemical_formula_sum   'Cs4 Mn2 Se2 S2'
_cell_volume   361.24941741
_cell_formula_units_Z   2
loop_
 _symmetry_equiv_pos_site_id
 _symmetry_equiv_pos_as_xyz
  1  'x, y, z'
loop_
 _atom_site_type_symbol
 _atom_site_label
 _atom_site_symmetry_multiplicity
 _atom_site_fract_x
 _atom_site_fract_y
 _atom_site_fract_z
 _atom_site_occupancy
  Cs  Cs0  1  0.804099  0.142925  0.661175  1
  Cs  Cs1  1  0.195901  0.857074  0.338825  1
  Cs  Cs2  1  0.482683  0.651309  0.831373  1
  Cs  Cs3  1  0.517317  0.348690  0.168627  1
  Mn  Mn4  1  0.000000  0.759648  0.759648  1
  Mn  Mn5  1  0.000000  0.240352  0.240352  1
  Se  Se6  1  0.077685  0.403700  0.673985  1
  Se  Se7  1  0.922315  0.596300  0.326015  1
  S  S8  1  0.732580  0.907099  0.825481  1
  S  S9  1  0.267420  0.092901  0.174519  1
