# generated using pymatgen
data_Ho4Ta(ReN4)3
_symmetry_space_group_name_H-M   'P 1'
_cell_length_a   7.37954804
_cell_length_b   7.43251820
_cell_length_c   6.30485546
_cell_angle_alpha   72.38136574
_cell_angle_beta   73.15215410
_cell_angle_gamma   81.43999506
_symmetry_Int_Tables_number   1
_chemical_formula_structural   Ho4Ta(ReN4)3
_chemical_formula_sum   'Ho4 Ta1 Re3 N12'
_cell_volume   314.73570776
_cell_formula_units_Z   1
loop_
 _symmetry_equiv_pos_site_id
 _symmetry_equiv_pos_as_xyz
  1  'x, y, z'
loop_
 _atom_site_type_symbol
 _atom_site_label
 _atom_site_symmetry_multiplicity
 _atom_site_fract_x
 _atom_site_fract_y
 _atom_site_fract_z
 _atom_site_occupancy
  Ho  Ho0  1  0.908519  0.091646  0.751691  1
  Ho  Ho1  1  0.097821  0.908296  0.247127  1
  Ho  Ho2  1  0.706032  0.275201  0.254544  1
  Ho  Ho3  1  0.285751  0.712126  0.750809  1
  Ta  Ta4  1  0.624174  0.796042  0.280698  1
  Re  Re5  1  0.200157  0.378930  0.218016  1
  Re  Re6  1  0.377738  0.205209  0.719385  1
  Re  Re7  1  0.795969  0.618781  0.785847  1
  N  N8  1  0.664379  0.616510  0.083086  1
  N  N9  1  0.369048  0.877546  0.352128  1
  N  N10  1  0.358811  0.331730  0.419033  1
  N  N11  1  0.127497  0.628961  0.156918  1
  N  N12  1  0.002702  0.223771  0.334571  1
  N  N13  1  0.791609  0.002292  0.146763  1
  N  N14  1  0.225804  0.004496  0.837673  1
  N  N15  1  0.631145  0.137367  0.655466  1
  N  N16  1  0.331043  0.362699  0.917944  1
  N  N17  1  0.887303  0.380638  0.823685  1
  N  N18  1  0.627031  0.664054  0.602485  1
  N  N19  1  0.987467  0.783703  0.662132  1
