# generated using pymatgen
data_CaHg3(P2O7)2
_symmetry_space_group_name_H-M   'P 1'
_cell_length_a   6.96807157
_cell_length_b   6.97774617
_cell_length_c   7.13408963
_cell_angle_alpha   77.94448512
_cell_angle_beta   66.54783114
_cell_angle_gamma   79.62080597
_symmetry_Int_Tables_number   1
_chemical_formula_structural   CaHg3(P2O7)2
_chemical_formula_sum   'Ca1 Hg3 P4 O14'
_cell_volume   309.37191807
_cell_formula_units_Z   1
loop_
 _symmetry_equiv_pos_site_id
 _symmetry_equiv_pos_as_xyz
  1  'x, y, z'
loop_
 _atom_site_type_symbol
 _atom_site_label
 _atom_site_symmetry_multiplicity
 _atom_site_fract_x
 _atom_site_fract_y
 _atom_site_fract_z
 _atom_site_occupancy
  Ca  Ca0  1  0.098381  0.173763  0.252069  1
  Hg  Hg1  1  0.895575  0.825292  0.754171  1
  Hg  Hg2  1  0.306138  0.313149  0.624239  1
  Hg  Hg3  1  0.694439  0.684249  0.375272  1
  P  P4  1  0.210659  0.658158  0.268068  1
  P  P5  1  0.788870  0.341130  0.732424  1
  P  P6  1  0.357930  0.872813  0.834228  1
  P  P7  1  0.640005  0.128629  0.168927  1
  O  O8  1  0.224739  0.774506  0.766025  1
  O  O9  1  0.778163  0.227281  0.227842  1
  O  O10  1  0.090326  0.511678  0.239704  1
  O  O11  1  0.916551  0.479977  0.764191  1
  O  O12  1  0.259454  0.084880  0.892495  1
  O  O13  1  0.737879  0.914033  0.115672  1
  O  O14  1  0.365322  0.560919  0.377520  1
  O  O15  1  0.631834  0.444514  0.627866  1
  O  O16  1  0.625017  0.245774  0.951269  1
  O  O17  1  0.377366  0.747681  0.045164  1
  O  O18  1  0.936471  0.172071  0.622440  1
  O  O19  1  0.066683  0.835299  0.362383  1
  O  O20  1  0.410670  0.127028  0.316615  1
  O  O21  1  0.587529  0.877175  0.681415  1
