# generated using pymatgen
data_Dy7Ho13(Bi2Ir)4
_symmetry_space_group_name_H-M   'P 1'
_cell_length_a   7.98146600
_cell_length_b   8.99126300
_cell_length_c   12.49368700
_cell_angle_alpha   90.00000000
_cell_angle_beta   89.99738190
_cell_angle_gamma   90.00000000
_symmetry_Int_Tables_number   1
_chemical_formula_structural   Dy7Ho13(Bi2Ir)4
_chemical_formula_sum   'Dy7 Ho13 Bi8 Ir4'
_cell_volume   896.59020595
_cell_formula_units_Z   1
loop_
 _symmetry_equiv_pos_site_id
 _symmetry_equiv_pos_as_xyz
  1  'x, y, z'
loop_
 _atom_site_type_symbol
 _atom_site_label
 _atom_site_symmetry_multiplicity
 _atom_site_fract_x
 _atom_site_fract_y
 _atom_site_fract_z
 _atom_site_occupancy
  Dy  Dy0  1  0.839147  0.750000  0.794080  1
  Dy  Dy1  1  0.160827  0.250000  0.205896  1
  Dy  Dy2  1  0.339170  0.250000  0.705944  1
  Dy  Dy3  1  0.660907  0.750000  0.294074  1
  Dy  Dy4  1  0.375446  0.750000  0.691160  1
  Dy  Dy5  1  0.624554  0.250000  0.308859  1
  Dy  Dy6  1  0.875458  0.250000  0.808883  1
  Ho  Ho7  1  0.124249  0.750000  0.190815  1
  Ho  Ho8  1  0.947746  0.750000  0.501749  1
  Ho  Ho9  1  0.052262  0.250000  0.498222  1
  Ho  Ho10  1  0.447689  0.250000  0.998233  1
  Ho  Ho11  1  0.552320  0.750000  0.001773  1
  Ho  Ho12  1  0.675896  0.041800  0.566039  1
  Ho  Ho13  1  0.324070  0.958184  0.433957  1
  Ho  Ho14  1  0.175896  0.958051  0.934053  1
  Ho  Ho15  1  0.324070  0.541816  0.433957  1
  Ho  Ho16  1  0.824191  0.041612  0.066021  1
  Ho  Ho17  1  0.675896  0.458200  0.566039  1
  Ho  Ho18  1  0.824191  0.458388  0.066021  1
  Ho  Ho19  1  0.175896  0.541949  0.934053  1
  Bi  Bi20  1  0.566425  0.491668  0.826763  1
  Bi  Bi21  1  0.433411  0.508447  0.173238  1
  Bi  Bi22  1  0.066416  0.508344  0.673252  1
  Bi  Bi23  1  0.433411  0.991553  0.173238  1
  Bi  Bi24  1  0.933687  0.491776  0.326708  1
  Bi  Bi25  1  0.566425  0.008332  0.826763  1
  Bi  Bi26  1  0.933687  0.008224  0.326708  1
  Bi  Bi27  1  0.066416  0.991656  0.673252  1
  Ir  Ir28  1  0.571499  0.750000  0.508733  1
  Ir  Ir29  1  0.428515  0.250000  0.491282  1
  Ir  Ir30  1  0.071479  0.250000  0.991301  1
  Ir  Ir31  1  0.928743  0.750000  0.008934  1
