# generated using pymatgen
data_Dy3Sc3CoBi2
_symmetry_space_group_name_H-M   'P 1'
_cell_length_a   7.99621209
_cell_length_b   7.99673915
_cell_length_c   4.12853600
_cell_angle_alpha   90.00000000
_cell_angle_beta   90.00000000
_cell_angle_gamma   119.99317963
_symmetry_Int_Tables_number   1
_chemical_formula_structural   Dy3Sc3CoBi2
_chemical_formula_sum   'Dy3 Sc3 Co1 Bi2'
_cell_volume   228.64082850
_cell_formula_units_Z   1
loop_
 _symmetry_equiv_pos_site_id
 _symmetry_equiv_pos_as_xyz
  1  'x, y, z'
loop_
 _atom_site_type_symbol
 _atom_site_label
 _atom_site_symmetry_multiplicity
 _atom_site_fract_x
 _atom_site_fract_y
 _atom_site_fract_z
 _atom_site_occupancy
  Dy  Dy0  1  0.614624  0.999995  0.000000  1
  Dy  Dy1  1  0.999986  0.614560  0.000000  1
  Dy  Dy2  1  0.385374  0.385386  0.000000  1
  Sc  Sc3  1  0.221802  0.000008  0.500000  1
  Sc  Sc4  1  0.000035  0.221798  0.500000  1
  Sc  Sc5  1  0.778301  0.778273  0.500000  1
  Co  Co6  1  0.999853  0.999959  0.000000  1
  Bi  Bi7  1  0.333358  0.666662  0.500000  1
  Bi  Bi8  1  0.666669  0.333358  0.500000  1
