# generated using pymatgen
data_Tb3Ag3C
_symmetry_space_group_name_H-M   'P 1'
_cell_length_a   9.42426347
_cell_length_b   9.42426385
_cell_length_c   9.42426200
_cell_angle_alpha   60.00000649
_cell_angle_beta   60.00000516
_cell_angle_gamma   60.00000882
_symmetry_Int_Tables_number   1
_chemical_formula_structural   Tb3Ag3C
_chemical_formula_sum   'Tb12 Ag12 C4'
_cell_volume   591.87129253
_cell_formula_units_Z   4
loop_
 _symmetry_equiv_pos_site_id
 _symmetry_equiv_pos_as_xyz
  1  'x, y, z'
loop_
 _atom_site_type_symbol
 _atom_site_label
 _atom_site_symmetry_multiplicity
 _atom_site_fract_x
 _atom_site_fract_y
 _atom_site_fract_z
 _atom_site_occupancy
  Tb  Tb0  1  0.441840  0.441840  0.058160  1
  Tb  Tb1  1  0.058160  0.441840  0.058160  1
  Tb  Tb2  1  0.441840  0.058160  0.058160  1
  Tb  Tb3  1  0.058160  0.058160  0.441840  1
  Tb  Tb4  1  0.441840  0.058160  0.441840  1
  Tb  Tb5  1  0.058160  0.441840  0.441840  1
  Tb  Tb6  1  0.808160  0.808160  0.191840  1
  Tb  Tb7  1  0.191840  0.808160  0.191840  1
  Tb  Tb8  1  0.808160  0.191840  0.191840  1
  Tb  Tb9  1  0.191840  0.191840  0.808160  1
  Tb  Tb10  1  0.808160  0.191840  0.808160  1
  Tb  Tb11  1  0.191840  0.808160  0.808160  1
  Ag  Ag12  1  0.831885  0.831885  0.504346  1
  Ag  Ag13  1  0.831885  0.504346  0.831885  1
  Ag  Ag14  1  0.504346  0.831885  0.831885  1
  Ag  Ag15  1  0.831885  0.831885  0.831885  1
  Ag  Ag16  1  0.418115  0.418115  0.745654  1
  Ag  Ag17  1  0.418115  0.745654  0.418115  1
  Ag  Ag18  1  0.745654  0.418115  0.418115  1
  Ag  Ag19  1  0.418115  0.418115  0.418115  1
  Ag  Ag20  1  0.625000  0.625000  0.125000  1
  Ag  Ag21  1  0.625000  0.125000  0.625000  1
  Ag  Ag22  1  0.125000  0.625000  0.625000  1
  Ag  Ag23  1  0.625000  0.625000  0.625000  1
  C  C24  1  0.125000  0.125000  0.625000  1
  C  C25  1  0.125000  0.625000  0.125000  1
  C  C26  1  0.625000  0.125000  0.125000  1
  C  C27  1  0.125000  0.125000  0.125000  1
