# generated using pymatgen
data_Ac17La3Si15Pd
_symmetry_space_group_name_H-M   'P 1'
_cell_length_a   8.27878038
_cell_length_b   8.25375347
_cell_length_c   16.40850700
_cell_angle_alpha   90.15931416
_cell_angle_beta   90.07112508
_cell_angle_gamma   90.02089136
_symmetry_Int_Tables_number   1
_chemical_formula_structural   Ac17La3Si15Pd
_chemical_formula_sum   'Ac17 La3 Si15 Pd1'
_cell_volume   1121.20461860
_cell_formula_units_Z   1
loop_
 _symmetry_equiv_pos_site_id
 _symmetry_equiv_pos_as_xyz
  1  'x, y, z'
loop_
 _atom_site_type_symbol
 _atom_site_label
 _atom_site_symmetry_multiplicity
 _atom_site_fract_x
 _atom_site_fract_y
 _atom_site_fract_z
 _atom_site_occupancy
  Ac  Ac0  1  0.371929  0.475917  0.372777  1
  Ac  Ac1  1  0.877231  0.026838  0.374967  1
  Ac  Ac2  1  0.973945  0.124193  0.120977  1
  Ac  Ac3  1  0.029409  0.877449  0.622324  1
  Ac  Ac4  1  0.624641  0.526025  0.872100  1
  Ac  Ac5  1  0.475593  0.375483  0.629669  1
  Ac  Ac6  1  0.524904  0.622529  0.126977  1
  Ac  Ac7  1  0.122932  0.974920  0.879985  1
  Ac  Ac8  1  0.987500  0.617383  0.054901  1
  Ac  Ac9  1  0.012819  0.375200  0.556635  1
  Ac  Ac10  1  0.619141  0.985795  0.945895  1
  Ac  Ac11  1  0.119459  0.513269  0.806031  1
  Ac  Ac12  1  0.879728  0.482826  0.302987  1
  Ac  Ac13  1  0.513794  0.119682  0.193636  1
  Ac  Ac14  1  0.488391  0.884432  0.696882  1
  Ac  Ac15  1  0.381743  0.016015  0.444392  1
  Ac  Ac16  1  0.692479  0.691973  0.498587  1
  La  La17  1  0.811697  0.187659  0.750988  1
  La  La18  1  0.186962  0.808362  0.249340  1
  La  La19  1  0.307717  0.310987  0.000589  1
  Si  Si20  1  0.916680  0.287867  0.938217  1
  Si  Si21  1  0.712689  0.083852  0.562350  1
  Si  Si22  1  0.213219  0.418124  0.188685  1
  Si  Si23  1  0.791548  0.581258  0.690657  1
  Si  Si24  1  0.416760  0.213308  0.813121  1
  Si  Si25  1  0.579130  0.790767  0.307636  1
  Si  Si26  1  0.290385  0.918968  0.061323  1
  Si  Si27  1  0.826386  0.810118  0.788937  1
  Si  Si28  1  0.174791  0.191593  0.287345  1
  Si  Si29  1  0.806216  0.826863  0.208850  1
  Si  Si30  1  0.309423  0.673833  0.540996  1
  Si  Si31  1  0.692211  0.327195  0.037382  1
  Si  Si32  1  0.670062  0.303286  0.461809  1
  Si  Si33  1  0.325568  0.690411  0.962399  1
  Si  Si34  1  0.191432  0.175528  0.712793  1
  Pd  Pd35  1  0.081489  0.710092  0.436858  1
