# generated using pymatgen
data_TbLu9HgSb5
_symmetry_space_group_name_H-M   'P 1'
_cell_length_a   8.76054800
_cell_length_b   8.76817985
_cell_length_c   6.25869800
_cell_angle_alpha   90.00000000
_cell_angle_beta   90.00000000
_cell_angle_gamma   120.14281725
_symmetry_Int_Tables_number   1
_chemical_formula_structural   TbLu9HgSb5
_chemical_formula_sum   'Tb1 Lu9 Hg1 Sb5'
_cell_volume   415.74644829
_cell_formula_units_Z   1
loop_
 _symmetry_equiv_pos_site_id
 _symmetry_equiv_pos_as_xyz
  1  'x, y, z'
loop_
 _atom_site_type_symbol
 _atom_site_label
 _atom_site_symmetry_multiplicity
 _atom_site_fract_x
 _atom_site_fract_y
 _atom_site_fract_z
 _atom_site_occupancy
  Tb  Tb0  1  0.242989  0.236607  0.750000  1
  Lu  Lu1  1  0.008954  0.764256  0.750000  1
  Lu  Lu2  1  0.997363  0.240969  0.250000  1
  Lu  Lu3  1  0.759872  0.761466  0.250000  1
  Lu  Lu4  1  0.757792  0.000473  0.750000  1
  Lu  Lu5  1  0.242760  0.999139  0.250000  1
  Lu  Lu6  1  0.334416  0.672546  0.499308  1
  Lu  Lu7  1  0.660186  0.326429  0.000954  1
  Lu  Lu8  1  0.660186  0.326429  0.499046  1
  Lu  Lu9  1  0.334416  0.672546  0.000692  1
  Hg  Hg10  1  0.395834  0.997106  0.750000  1
  Sb  Sb11  1  0.389808  0.393748  0.250000  1
  Sb  Sb12  1  0.995902  0.605615  0.250000  1
  Sb  Sb13  1  0.998690  0.392997  0.750000  1
  Sb  Sb14  1  0.612110  0.609709  0.750000  1
  Sb  Sb15  1  0.608718  0.999965  0.250000  1
