# generated using pymatgen
data_TbLu(AlPd)2
_symmetry_space_group_name_H-M   'P 1'
_cell_length_a   4.44288600
_cell_length_b   6.85687063
_cell_length_c   7.75645358
_cell_angle_alpha   88.49179926
_cell_angle_beta   90.00000000
_cell_angle_gamma   90.00000000
_symmetry_Int_Tables_number   1
_chemical_formula_structural   TbLu(AlPd)2
_chemical_formula_sum   'Tb2 Lu2 Al4 Pd4'
_cell_volume   236.21302616
_cell_formula_units_Z   2
loop_
 _symmetry_equiv_pos_site_id
 _symmetry_equiv_pos_as_xyz
  1  'x, y, z'
loop_
 _atom_site_type_symbol
 _atom_site_label
 _atom_site_symmetry_multiplicity
 _atom_site_fract_x
 _atom_site_fract_y
 _atom_site_fract_z
 _atom_site_occupancy
  Tb  Tb0  1  0.250000  0.032897  0.681566  1
  Tb  Tb1  1  0.750000  0.967103  0.318434  1
  Lu  Lu2  1  0.250000  0.531577  0.820194  1
  Lu  Lu3  1  0.750000  0.468423  0.179806  1
  Al  Al4  1  0.250000  0.644266  0.438239  1
  Al  Al5  1  0.750000  0.355734  0.561761  1
  Al  Al6  1  0.250000  0.148491  0.062370  1
  Al  Al7  1  0.750000  0.851509  0.937630  1
  Pd  Pd8  1  0.750000  0.723653  0.620844  1
  Pd  Pd9  1  0.250000  0.276347  0.379156  1
  Pd  Pd10  1  0.750000  0.232305  0.885879  1
  Pd  Pd11  1  0.250000  0.767695  0.114121  1
