# generated using pymatgen
data_La2Er3Tm(IrO7)2
_symmetry_space_group_name_H-M   'P 1'
_cell_length_a   6.45095971
_cell_length_b   6.45212736
_cell_length_c   7.49523000
_cell_angle_alpha   90.00000000
_cell_angle_beta   90.00000000
_cell_angle_gamma   109.39135724
_symmetry_Int_Tables_number   1
_chemical_formula_structural   La2Er3Tm(IrO7)2
_chemical_formula_sum   'La2 Er3 Tm1 Ir2 O14'
_cell_volume   294.27238828
_cell_formula_units_Z   1
loop_
 _symmetry_equiv_pos_site_id
 _symmetry_equiv_pos_as_xyz
  1  'x, y, z'
loop_
 _atom_site_type_symbol
 _atom_site_label
 _atom_site_symmetry_multiplicity
 _atom_site_fract_x
 _atom_site_fract_y
 _atom_site_fract_z
 _atom_site_occupancy
  La  La0  1  0.001290  0.001564  0.499239  1
  La  La1  1  0.001290  0.001564  0.000761  1
  Er  Er2  1  0.940893  0.485939  0.750000  1
  Er  Er3  1  0.485901  0.941616  0.750000  1
  Er  Er4  1  0.061155  0.513559  0.250000  1
  Tm  Tm5  1  0.512973  0.060327  0.250000  1
  Ir  Ir6  1  0.501122  0.501036  0.499321  1
  Ir  Ir7  1  0.501122  0.501036  0.000679  1
  O  O8  1  0.443826  0.179983  0.532465  1
  O  O9  1  0.820561  0.558504  0.465671  1
  O  O10  1  0.443826  0.179983  0.967535  1
  O  O11  1  0.820561  0.558504  0.034329  1
  O  O12  1  0.556742  0.820141  0.464788  1
  O  O13  1  0.180119  0.442555  0.533454  1
  O  O14  1  0.556742  0.820141  0.035212  1
  O  O15  1  0.180119  0.442555  0.966546  1
  O  O16  1  0.163265  0.875861  0.250000  1
  O  O17  1  0.124194  0.838106  0.750000  1
  O  O18  1  0.837908  0.124271  0.750000  1
  O  O19  1  0.873218  0.162428  0.250000  1
  O  O20  1  0.403763  0.401216  0.250000  1
  O  O21  1  0.589412  0.589110  0.750000  1
