# generated using pymatgen
data_Hf8Co2PtW
_symmetry_space_group_name_H-M   'P 1'
_cell_length_a   8.64755161
_cell_length_b   8.64808738
_cell_length_c   8.61081121
_cell_angle_alpha   60.12182258
_cell_angle_beta   60.11980124
_cell_angle_gamma   60.09335389
_symmetry_Int_Tables_number   1
_chemical_formula_structural   Hf8Co2PtW
_chemical_formula_sum   'Hf16 Co4 Pt2 W2'
_cell_volume   456.49868229
_cell_formula_units_Z   2
loop_
 _symmetry_equiv_pos_site_id
 _symmetry_equiv_pos_as_xyz
  1  'x, y, z'
loop_
 _atom_site_type_symbol
 _atom_site_label
 _atom_site_symmetry_multiplicity
 _atom_site_fract_x
 _atom_site_fract_y
 _atom_site_fract_z
 _atom_site_occupancy
  Hf  Hf0  1  0.051274  0.650371  0.649358  1
  Hf  Hf1  1  0.650476  0.051317  0.649282  1
  Hf  Hf2  1  0.651657  0.651441  0.048852  1
  Hf  Hf3  1  0.651493  0.651282  0.648247  1
  Hf  Hf4  1  0.794690  0.794721  0.205089  1
  Hf  Hf5  1  0.202139  0.202359  0.797757  1
  Hf  Hf6  1  0.804793  0.199008  0.798315  1
  Hf  Hf7  1  0.199130  0.804780  0.197792  1
  Hf  Hf8  1  0.198887  0.804804  0.798314  1
  Hf  Hf9  1  0.804773  0.199242  0.197675  1
  Hf  Hf10  1  0.436702  0.436672  0.063298  1
  Hf  Hf11  1  0.063802  0.063812  0.436211  1
  Hf  Hf12  1  0.434346  0.058211  0.435833  1
  Hf  Hf13  1  0.058146  0.434393  0.071560  1
  Hf  Hf14  1  0.058155  0.434363  0.435892  1
  Hf  Hf15  1  0.434376  0.058198  0.071579  1
  Co  Co16  1  0.420762  0.862399  0.858439  1
  Co  Co17  1  0.862425  0.420767  0.858421  1
  Co  Co18  1  0.860768  0.860729  0.420804  1
  Co  Co19  1  0.860738  0.860700  0.857729  1
  Pt  Pt20  1  0.417318  0.417315  0.753736  1
  Pt  Pt21  1  0.417313  0.417315  0.411624  1
  W  W22  1  0.747930  0.417892  0.417096  1
  W  W23  1  0.417906  0.747911  0.417098  1
