# generated using pymatgen
data_Lu8Sc9Si16Tc3
_symmetry_space_group_name_H-M   'P 1'
_cell_length_a   6.82821602
_cell_length_b   7.16323017
_cell_length_c   13.63161000
_cell_angle_alpha   90.00000000
_cell_angle_beta   90.00000000
_cell_angle_gamma   90.16160602
_symmetry_Int_Tables_number   1
_chemical_formula_structural   Lu8Sc9Si16Tc3
_chemical_formula_sum   'Lu8 Sc9 Si16 Tc3'
_cell_volume   666.74778675
_cell_formula_units_Z   1
loop_
 _symmetry_equiv_pos_site_id
 _symmetry_equiv_pos_as_xyz
  1  'x, y, z'
loop_
 _atom_site_type_symbol
 _atom_site_label
 _atom_site_symmetry_multiplicity
 _atom_site_fract_x
 _atom_site_fract_y
 _atom_site_fract_z
 _atom_site_occupancy
  Lu  Lu0  1  0.009241  0.179261  0.096675  1
  Lu  Lu1  1  0.990444  0.818431  0.905581  1
  Lu  Lu2  1  0.487343  0.675298  0.906985  1
  Lu  Lu3  1  0.990444  0.818431  0.594419  1
  Lu  Lu4  1  0.509501  0.322680  0.099224  1
  Lu  Lu5  1  0.009241  0.179261  0.403325  1
  Lu  Lu6  1  0.509501  0.322680  0.400776  1
  Lu  Lu7  1  0.487343  0.675298  0.593015  1
  Sc  Sc8  1  0.652001  0.994359  0.750000  1
  Sc  Sc9  1  0.322760  0.174097  0.623135  1
  Sc  Sc10  1  0.677070  0.828308  0.371427  1
  Sc  Sc11  1  0.175530  0.670353  0.373566  1
  Sc  Sc12  1  0.677070  0.828308  0.128573  1
  Sc  Sc13  1  0.825327  0.331817  0.625401  1
  Sc  Sc14  1  0.322760  0.174097  0.876865  1
  Sc  Sc15  1  0.825327  0.331817  0.874599  1
  Sc  Sc16  1  0.175530  0.670353  0.126434  1
  Si  Si17  1  0.027095  0.118524  0.750000  1
  Si  Si18  1  0.986016  0.896735  0.250000  1
  Si  Si19  1  0.481031  0.605865  0.250000  1
  Si  Si20  1  0.512868  0.398595  0.750000  1
  Si  Si21  1  0.279745  0.852730  0.750000  1
  Si  Si22  1  0.715493  0.138512  0.250000  1
  Si  Si23  1  0.212107  0.360902  0.250000  1
  Si  Si24  1  0.789397  0.634015  0.750000  1
  Si  Si25  1  0.156343  0.465235  0.543127  1
  Si  Si26  1  0.840077  0.533407  0.453865  1
  Si  Si27  1  0.345665  0.968198  0.451577  1
  Si  Si28  1  0.840077  0.533407  0.046135  1
  Si  Si29  1  0.659979  0.035514  0.536291  1
  Si  Si30  1  0.156343  0.465235  0.956873  1
  Si  Si31  1  0.659979  0.035514  0.963709  1
  Si  Si32  1  0.345665  0.968198  0.048423  1
  Tc  Tc33  1  0.147478  0.496574  0.750000  1
  Tc  Tc34  1  0.848184  0.502795  0.250000  1
  Tc  Tc35  1  0.350028  0.995197  0.250000  1
