# generated using pymatgen
data_La3Pr4Rh3
_symmetry_space_group_name_H-M   'P 1'
_cell_length_a   6.48849108
_cell_length_b   10.26056810
_cell_length_c   10.26056889
_cell_angle_alpha   120.31415734
_cell_angle_beta   90.01592551
_cell_angle_gamma   89.98407616
_symmetry_Int_Tables_number   1
_chemical_formula_structural   La3Pr4Rh3
_chemical_formula_sum   'La6 Pr8 Rh6'
_cell_volume   589.70338231
_cell_formula_units_Z   2
loop_
 _symmetry_equiv_pos_site_id
 _symmetry_equiv_pos_as_xyz
  1  'x, y, z'
loop_
 _atom_site_type_symbol
 _atom_site_label
 _atom_site_symmetry_multiplicity
 _atom_site_fract_x
 _atom_site_fract_y
 _atom_site_fract_z
 _atom_site_occupancy
  La  La0  1  0.469695  0.333345  0.666655  1
  La  La1  1  0.970193  0.666195  0.333805  1
  La  La2  1  0.254312  0.125460  0.874540  1
  La  La3  1  0.253734  0.748686  0.873292  1
  La  La4  1  0.253734  0.126708  0.251314  1
  La  La5  1  0.753298  0.875134  0.124866  1
  Pr  Pr6  1  0.751983  0.250732  0.124745  1
  Pr  Pr7  1  0.751983  0.875255  0.749268  1
  Pr  Pr8  1  0.441889  0.541205  0.458795  1
  Pr  Pr9  1  0.440900  0.918120  0.459637  1
  Pr  Pr10  1  0.440900  0.540363  0.081880  1
  Pr  Pr11  1  0.938842  0.459454  0.540546  1
  Pr  Pr12  1  0.939901  0.081464  0.541562  1
  Pr  Pr13  1  0.939901  0.458438  0.918536  1
  Rh  Rh14  1  0.180365  0.812180  0.187820  1
  Rh  Rh15  1  0.183928  0.376575  0.188439  1
  Rh  Rh16  1  0.183928  0.811561  0.623425  1
  Rh  Rh17  1  0.677785  0.190592  0.809408  1
  Rh  Rh18  1  0.679364  0.621516  0.812981  1
  Rh  Rh19  1  0.679364  0.187019  0.378484  1
