# generated using pymatgen
data_Ho3In3SnPdPt
_symmetry_space_group_name_H-M   'P 1'
_cell_length_a   7.61561200
_cell_length_b   7.61561247
_cell_length_c   4.14060200
_cell_angle_alpha   90.00000000
_cell_angle_beta   90.00000000
_cell_angle_gamma   119.99999044
_symmetry_Int_Tables_number   1
_chemical_formula_structural   Ho3In3SnPdPt
_chemical_formula_sum   'Ho3 In3 Sn1 Pd1 Pt1'
_cell_volume   207.97149174
_cell_formula_units_Z   1
loop_
 _symmetry_equiv_pos_site_id
 _symmetry_equiv_pos_as_xyz
  1  'x, y, z'
loop_
 _atom_site_type_symbol
 _atom_site_label
 _atom_site_symmetry_multiplicity
 _atom_site_fract_x
 _atom_site_fract_y
 _atom_site_fract_z
 _atom_site_occupancy
  Ho  Ho0  1  0.602701  0.021779  0.500000  1
  Ho  Ho1  1  0.419078  0.397299  0.500000  1
  Ho  Ho2  1  0.978221  0.580922  0.500000  1
  In  In3  1  0.755997  0.745087  0.000000  1
  In  In4  1  0.989091  0.244003  0.000000  1
  In  In5  1  0.254913  0.010909  0.000000  1
  Sn  Sn6  1  0.333333  0.666667  0.000000  1
  Pd  Pd7  1  0.000000  0.000000  0.500000  1
  Pt  Pt8  1  0.666667  0.333333  0.000000  1
