# generated using pymatgen
data_Dy3Zr(MoN2)4
_symmetry_space_group_name_H-M   'P 1'
_cell_length_a   3.17731600
_cell_length_b   5.67702853
_cell_length_c   10.57672126
_cell_angle_alpha   90.30818622
_cell_angle_beta   90.00000000
_cell_angle_gamma   90.00000000
_symmetry_Int_Tables_number   1
_chemical_formula_structural   Dy3Zr(MoN2)4
_chemical_formula_sum   'Dy3 Zr1 Mo4 N8'
_cell_volume   190.77710875
_cell_formula_units_Z   1
loop_
 _symmetry_equiv_pos_site_id
 _symmetry_equiv_pos_as_xyz
  1  'x, y, z'
loop_
 _atom_site_type_symbol
 _atom_site_label
 _atom_site_symmetry_multiplicity
 _atom_site_fract_x
 _atom_site_fract_y
 _atom_site_fract_z
 _atom_site_occupancy
  Dy  Dy0  1  0.250000  0.580984  0.647716  1
  Dy  Dy1  1  0.750000  0.919505  0.146598  1
  Dy  Dy2  1  0.750000  0.420223  0.352358  1
  Zr  Zr3  1  0.250000  0.081469  0.849524  1
  Mo  Mo4  1  0.250000  0.430499  0.091324  1
  Mo  Mo5  1  0.250000  0.932136  0.406312  1
  Mo  Mo6  1  0.750000  0.564707  0.909112  1
  Mo  Mo7  1  0.750000  0.069605  0.594115  1
  N  N8  1  0.250000  0.167261  0.246862  1
  N  N9  1  0.250000  0.663691  0.248651  1
  N  N10  1  0.750000  0.846630  0.758799  1
  N  N11  1  0.750000  0.324721  0.753862  1
  N  N12  1  0.250000  0.766273  0.989597  1
  N  N13  1  0.250000  0.259365  0.507877  1
  N  N14  1  0.750000  0.233320  0.000655  1
  N  N15  1  0.750000  0.739609  0.496638  1
