# generated using pymatgen
data_Th6SiBr14
_symmetry_space_group_name_H-M   'P 1'
_cell_length_a   10.88443900
_cell_length_b   10.88443947
_cell_length_c   13.31753800
_cell_angle_alpha   90.00000000
_cell_angle_beta   90.00000000
_cell_angle_gamma   96.03421647
_symmetry_Int_Tables_number   1
_chemical_formula_structural   Th6SiBr14
_chemical_formula_sum   'Th12 Si2 Br28'
_cell_volume   1569.00047214
_cell_formula_units_Z   2
loop_
 _symmetry_equiv_pos_site_id
 _symmetry_equiv_pos_as_xyz
  1  'x, y, z'
loop_
 _atom_site_type_symbol
 _atom_site_label
 _atom_site_symmetry_multiplicity
 _atom_site_fract_x
 _atom_site_fract_y
 _atom_site_fract_z
 _atom_site_occupancy
  Th  Th0  1  0.657582  0.657582  0.386493  1
  Th  Th1  1  0.842418  0.842418  0.886493  1
  Th  Th2  1  0.157582  0.157582  0.113507  1
  Th  Th3  1  0.342418  0.342418  0.613507  1
  Th  Th4  1  0.450206  0.696885  0.621522  1
  Th  Th5  1  0.049794  0.803115  0.121522  1
  Th  Th6  1  0.196885  0.950206  0.878478  1
  Th  Th7  1  0.303115  0.549794  0.378478  1
  Th  Th8  1  0.549794  0.303115  0.378478  1
  Th  Th9  1  0.950206  0.196885  0.878478  1
  Th  Th10  1  0.803115  0.049794  0.121522  1
  Th  Th11  1  0.696885  0.450206  0.621522  1
  Si  Si12  1  0.500000  0.500000  0.500000  1
  Si  Si13  1  0.000000  0.000000  0.000000  1
  Br  Br14  1  0.415454  0.915454  0.750000  1
  Br  Br15  1  0.084546  0.584546  0.250000  1
  Br  Br16  1  0.584546  0.084546  0.250000  1
  Br  Br17  1  0.915454  0.415454  0.750000  1
  Br  Br18  1  0.378524  0.126267  0.490126  1
  Br  Br19  1  0.121476  0.373733  0.990126  1
  Br  Br20  1  0.626267  0.878524  0.009874  1
  Br  Br21  1  0.873733  0.621476  0.509874  1
  Br  Br22  1  0.621476  0.873733  0.509874  1
  Br  Br23  1  0.878524  0.626267  0.009874  1
  Br  Br24  1  0.537562  0.284529  0.752423  1
  Br  Br25  1  0.962438  0.215471  0.252423  1
  Br  Br26  1  0.784529  0.037562  0.747577  1
  Br  Br27  1  0.715471  0.462438  0.247577  1
  Br  Br28  1  0.462438  0.715471  0.247577  1
  Br  Br29  1  0.037562  0.784529  0.747577  1
  Br  Br30  1  0.215471  0.962438  0.252423  1
  Br  Br31  1  0.284529  0.537562  0.752423  1
  Br  Br32  1  0.153745  0.153745  0.733328  1
  Br  Br33  1  0.346255  0.346255  0.233328  1
  Br  Br34  1  0.653745  0.653745  0.766672  1
  Br  Br35  1  0.846255  0.846255  0.266672  1
  Br  Br36  1  0.758369  0.241631  0.500000  1
  Br  Br37  1  0.741631  0.258369  0.000000  1
  Br  Br38  1  0.241631  0.758369  0.500000  1
  Br  Br39  1  0.258369  0.741631  0.000000  1
  Br  Br40  1  0.126267  0.378524  0.490126  1
  Br  Br41  1  0.373733  0.121476  0.990126  1
