# generated using pymatgen
data_SmDy5(Y7Sn8)2
_symmetry_space_group_name_H-M   'P 1'
_cell_length_a   8.06970219
_cell_length_b   8.20561494
_cell_length_c   15.52050878
_cell_angle_alpha   90.01209732
_cell_angle_beta   89.84194345
_cell_angle_gamma   89.94193958
_symmetry_Int_Tables_number   1
_chemical_formula_structural   SmDy5(Y7Sn8)2
_chemical_formula_sum   'Sm1 Dy5 Y14 Sn16'
_cell_volume   1027.71503213
_cell_formula_units_Z   1
loop_
 _symmetry_equiv_pos_site_id
 _symmetry_equiv_pos_as_xyz
  1  'x, y, z'
loop_
 _atom_site_type_symbol
 _atom_site_label
 _atom_site_symmetry_multiplicity
 _atom_site_fract_x
 _atom_site_fract_y
 _atom_site_fract_z
 _atom_site_occupancy
  Sm  Sm0  1  0.017954  0.179508  0.903512  1
  Dy  Dy1  1  0.366358  0.836526  0.877609  1
  Dy  Dy2  1  0.867294  0.663626  0.621643  1
  Dy  Dy3  1  0.632702  0.163226  0.377830  1
  Dy  Dy4  1  0.134026  0.336722  0.122426  1
  Dy  Dy5  1  0.633878  0.163327  0.122554  1
  Y  Y6  1  0.133061  0.336953  0.377862  1
  Y  Y7  1  0.367100  0.836848  0.621887  1
  Y  Y8  1  0.866405  0.662884  0.877775  1
  Y  Y9  1  0.520352  0.321942  0.902762  1
  Y  Y10  1  0.021192  0.178574  0.597681  1
  Y  Y11  1  0.479361  0.678469  0.402478  1
  Y  Y12  1  0.980177  0.820992  0.097577  1
  Y  Y13  1  0.480150  0.678817  0.097401  1
  Y  Y14  1  0.979392  0.821357  0.402581  1
  Y  Y15  1  0.520464  0.321485  0.596691  1
  Y  Y16  1  0.198586  0.502238  0.749579  1
  Y  Y17  1  0.698569  0.997383  0.749552  1
  Y  Y18  1  0.801477  0.497666  0.250098  1
  Y  Y19  1  0.301687  0.002343  0.250288  1
  Sn  Sn20  1  0.296001  0.035889  0.042483  1
  Sn  Sn21  1  0.793201  0.463352  0.458206  1
  Sn  Sn22  1  0.706987  0.963960  0.541498  1
  Sn  Sn23  1  0.206688  0.538335  0.958893  1
  Sn  Sn24  1  0.703239  0.961196  0.959179  1
  Sn  Sn25  1  0.206370  0.536514  0.541520  1
  Sn  Sn26  1  0.293421  0.036432  0.458180  1
  Sn  Sn27  1  0.794277  0.462739  0.041844  1
  Sn  Sn28  1  0.564830  0.619147  0.749923  1
  Sn  Sn29  1  0.064906  0.880461  0.749762  1
  Sn  Sn30  1  0.435411  0.381195  0.250039  1
  Sn  Sn31  1  0.935163  0.118903  0.249942  1
  Sn  Sn32  1  0.330631  0.146976  0.749846  1
  Sn  Sn33  1  0.828225  0.353880  0.748884  1
  Sn  Sn34  1  0.670268  0.852999  0.250045  1
  Sn  Sn35  1  0.170195  0.647133  0.249970  1
