# generated using pymatgen
data_Hf2Zr4Ti4Ga5Se
_symmetry_space_group_name_H-M   'P 1'
_cell_length_a   7.93080400
_cell_length_b   7.92151359
_cell_length_c   5.42795300
_cell_angle_alpha   90.00000000
_cell_angle_beta   90.00000000
_cell_angle_gamma   120.03880374
_symmetry_Int_Tables_number   1
_chemical_formula_structural   Hf2Zr4Ti4Ga5Se
_chemical_formula_sum   'Hf2 Zr4 Ti4 Ga5 Se1'
_cell_volume   295.20394139
_cell_formula_units_Z   1
loop_
 _symmetry_equiv_pos_site_id
 _symmetry_equiv_pos_as_xyz
  1  'x, y, z'
loop_
 _atom_site_type_symbol
 _atom_site_label
 _atom_site_symmetry_multiplicity
 _atom_site_fract_x
 _atom_site_fract_y
 _atom_site_fract_z
 _atom_site_occupancy
  Hf  Hf0  1  0.996286  0.753560  0.750000  1
  Hf  Hf1  1  0.242726  0.246440  0.750000  1
  Zr  Zr2  1  0.245389  0.000000  0.250000  1
  Zr  Zr3  1  0.749858  0.000000  0.750000  1
  Zr  Zr4  1  0.003416  0.245961  0.250000  1
  Zr  Zr5  1  0.757456  0.754039  0.250000  1
  Ti  Ti6  1  0.334602  0.666861  0.997459  1
  Ti  Ti7  1  0.667743  0.333139  0.997459  1
  Ti  Ti8  1  0.667743  0.333139  0.502541  1
  Ti  Ti9  1  0.334602  0.666861  0.502541  1
  Ga  Ga10  1  0.391069  0.000000  0.750000  1
  Ga  Ga11  1  0.001069  0.600001  0.250000  1
  Ga  Ga12  1  0.001475  0.402141  0.750000  1
  Ga  Ga13  1  0.401068  0.399999  0.250000  1
  Ga  Ga14  1  0.599334  0.597859  0.750000  1
  Se  Se15  1  0.606164  0.000000  0.250000  1
