# generated using pymatgen
data_BaLiPuS3
_symmetry_space_group_name_H-M   'P 1'
_cell_length_a   7.05201301
_cell_length_b   7.05201281
_cell_length_c   10.45882202
_cell_angle_alpha   90.00599860
_cell_angle_beta   89.99400003
_cell_angle_gamma   145.70544447
_symmetry_Int_Tables_number   1
_chemical_formula_structural   BaLiPuS3
_chemical_formula_sum   'Ba2 Li2 Pu2 S6'
_cell_volume   293.06399113
_cell_formula_units_Z   2
loop_
 _symmetry_equiv_pos_site_id
 _symmetry_equiv_pos_as_xyz
  1  'x, y, z'
loop_
 _atom_site_type_symbol
 _atom_site_label
 _atom_site_symmetry_multiplicity
 _atom_site_fract_x
 _atom_site_fract_y
 _atom_site_fract_z
 _atom_site_occupancy
  Ba  Ba0  1  0.743188  0.256811  0.249963  1
  Ba  Ba1  1  0.256811  0.743188  0.750037  1
  Li  Li2  1  0.468559  0.531440  0.250007  1
  Li  Li3  1  0.531440  0.468559  0.749993  1
  Pu  Pu4  1  0.000000  0.000000  0.000000  1
  Pu  Pu5  1  0.000000  0.000000  0.500000  1
  S  S6  1  0.369515  0.630484  0.061896  1
  S  S7  1  0.063980  0.936018  0.249974  1
  S  S8  1  0.369575  0.630424  0.438168  1
  S  S9  1  0.630424  0.369575  0.561833  1
  S  S10  1  0.936018  0.063980  0.750026  1
  S  S11  1  0.630484  0.369515  0.938104  1
