# generated using pymatgen
data_Tb15Yb3(YIr6)2
_symmetry_space_group_name_H-M   'P 1'
_cell_length_a   6.33509403
_cell_length_b   10.94480505
_cell_length_c   10.94547002
_cell_angle_alpha   90.00482630
_cell_angle_beta   90.00448841
_cell_angle_gamma   90.01005024
_symmetry_Int_Tables_number   1
_chemical_formula_structural   Tb15Yb3(YIr6)2
_chemical_formula_sum   'Tb15 Yb3 Y2 Ir12'
_cell_volume   758.91913283
_cell_formula_units_Z   1
loop_
 _symmetry_equiv_pos_site_id
 _symmetry_equiv_pos_as_xyz
  1  'x, y, z'
loop_
 _atom_site_type_symbol
 _atom_site_label
 _atom_site_symmetry_multiplicity
 _atom_site_fract_x
 _atom_site_fract_y
 _atom_site_fract_z
 _atom_site_occupancy
  Tb  Tb0  1  0.379836  0.840395  0.541814  1
  Tb  Tb1  1  0.879368  0.662484  0.539093  1
  Tb  Tb2  1  0.879537  0.837593  0.961013  1
  Tb  Tb3  1  0.379999  0.659634  0.958260  1
  Tb  Tb4  1  0.879631  0.540094  0.836935  1
  Tb  Tb5  1  0.380367  0.960445  0.839598  1
  Tb  Tb6  1  0.380479  0.539557  0.660426  1
  Tb  Tb7  1  0.879775  0.959921  0.663124  1
  Tb  Tb8  1  0.619717  0.160629  0.460159  1
  Tb  Tb9  1  0.120357  0.336653  0.459645  1
  Tb  Tb10  1  0.120515  0.163157  0.040176  1
  Tb  Tb11  1  0.619804  0.339473  0.039716  1
  Tb  Tb12  1  0.120574  0.460814  0.162614  1
  Tb  Tb13  1  0.620048  0.041930  0.159812  1
  Tb  Tb14  1  0.500035  0.749968  0.249979  1
  Yb  Yb15  1  0.000056  0.750093  0.250012  1
  Yb  Yb16  1  0.000065  0.249941  0.750022  1
  Yb  Yb17  1  0.500135  0.250018  0.750037  1
  Y  Y18  1  0.620233  0.458231  0.340277  1
  Y  Y19  1  0.120801  0.038976  0.337413  1
  Ir  Ir20  1  0.253535  0.905031  0.094178  1
  Ir  Ir21  1  0.746595  0.594350  0.094794  1
  Ir  Ir22  1  0.746129  0.905583  0.405157  1
  Ir  Ir23  1  0.253004  0.595063  0.405766  1
  Ir  Ir24  1  0.752321  0.091600  0.907169  1
  Ir  Ir25  1  0.247459  0.407251  0.908377  1
  Ir  Ir26  1  0.247824  0.092747  0.591835  1
  Ir  Ir27  1  0.752744  0.408396  0.593031  1
  Ir  Ir28  1  0.119738  0.749992  0.749960  1
  Ir  Ir29  1  0.620373  0.750002  0.749971  1
  Ir  Ir30  1  0.879882  0.250001  0.249820  1
  Ir  Ir31  1  0.379061  0.249981  0.249821  1
