# generated using pymatgen
data_Tb3Co2P6Ru7
_symmetry_space_group_name_H-M   'P 1'
_cell_length_a   3.88490400
_cell_length_b   10.90436600
_cell_length_c   12.68776500
_cell_angle_alpha   90.00000000
_cell_angle_beta   90.00000000
_cell_angle_gamma   90.00000000
_symmetry_Int_Tables_number   1
_chemical_formula_structural   Tb3Co2P6Ru7
_chemical_formula_sum   'Tb6 Co4 P12 Ru14'
_cell_volume   537.48436751
_cell_formula_units_Z   2
loop_
 _symmetry_equiv_pos_site_id
 _symmetry_equiv_pos_as_xyz
  1  'x, y, z'
loop_
 _atom_site_type_symbol
 _atom_site_label
 _atom_site_symmetry_multiplicity
 _atom_site_fract_x
 _atom_site_fract_y
 _atom_site_fract_z
 _atom_site_occupancy
  Tb  Tb0  1  0.000000  0.500000  0.525921  1
  Tb  Tb1  1  0.500000  0.000000  0.473275  1
  Tb  Tb2  1  0.500000  0.821647  0.203128  1
  Tb  Tb3  1  0.500000  0.178353  0.203128  1
  Tb  Tb4  1  0.000000  0.681269  0.797524  1
  Tb  Tb5  1  0.000000  0.318731  0.797524  1
  Co  Co6  1  0.000000  0.500000  0.988539  1
  Co  Co7  1  0.500000  0.000000  0.012868  1
  Co  Co8  1  0.000000  0.162411  0.009937  1
  Co  Co9  1  0.000000  0.837589  0.009937  1
  P  P10  1  0.500000  0.305958  0.616443  1
  P  P11  1  0.500000  0.694042  0.616443  1
  P  P12  1  0.000000  0.194073  0.384039  1
  P  P13  1  0.000000  0.805927  0.384039  1
  P  P14  1  0.500000  0.500000  0.886621  1
  P  P15  1  0.000000  0.000000  0.112384  1
  P  P16  1  0.500000  0.852043  0.896221  1
  P  P17  1  0.500000  0.147957  0.896221  1
  P  P18  1  0.000000  0.655768  0.101185  1
  P  P19  1  0.000000  0.344232  0.101185  1
  P  P20  1  0.500000  0.500000  0.336496  1
  P  P21  1  0.000000  0.000000  0.662789  1
  Ru  Ru22  1  0.500000  0.300218  0.429205  1
  Ru  Ru23  1  0.500000  0.699782  0.429205  1
  Ru  Ru24  1  0.000000  0.199703  0.571064  1
  Ru  Ru25  1  0.000000  0.800297  0.571064  1
  Ru  Ru26  1  0.500000  0.877837  0.715788  1
  Ru  Ru27  1  0.500000  0.122163  0.715788  1
  Ru  Ru28  1  0.000000  0.623666  0.282409  1
  Ru  Ru29  1  0.000000  0.376334  0.282409  1
  Ru  Ru30  1  0.500000  0.327010  0.992583  1
  Ru  Ru31  1  0.500000  0.672990  0.992583  1
  Ru  Ru32  1  0.500000  0.500000  0.152080  1
  Ru  Ru33  1  0.000000  0.000000  0.851130  1
  Ru  Ru34  1  0.500000  0.500000  0.700111  1
  Ru  Ru35  1  0.000000  0.000000  0.298734  1
