# generated using pymatgen
data_Y8Er9(TmBi4)3
_symmetry_space_group_name_H-M   'P 1'
_cell_length_a   8.23418617
_cell_length_b   9.47072500
_cell_length_c   12.04377825
_cell_angle_alpha   90.00000000
_cell_angle_beta   90.02336211
_cell_angle_gamma   90.00000000
_symmetry_Int_Tables_number   1
_chemical_formula_structural   Y8Er9(TmBi4)3
_chemical_formula_sum   'Y8 Er9 Tm3 Bi12'
_cell_volume   939.21846633
_cell_formula_units_Z   1
loop_
 _symmetry_equiv_pos_site_id
 _symmetry_equiv_pos_as_xyz
  1  'x, y, z'
loop_
 _atom_site_type_symbol
 _atom_site_label
 _atom_site_symmetry_multiplicity
 _atom_site_fract_x
 _atom_site_fract_y
 _atom_site_fract_z
 _atom_site_occupancy
  Y  Y0  1  0.186497  0.750000  0.718860  1
  Y  Y1  1  0.686425  0.750000  0.781171  1
  Y  Y2  1  0.813608  0.250000  0.281063  1
  Y  Y3  1  0.313489  0.250000  0.218755  1
  Y  Y4  1  0.353838  0.750000  0.215630  1
  Y  Y5  1  0.853771  0.750000  0.284314  1
  Y  Y6  1  0.646111  0.250000  0.784471  1
  Y  Y7  1  0.146077  0.250000  0.715712  1
  Er  Er8  1  0.474420  0.250000  0.488926  1
  Er  Er9  1  0.306232  0.435276  0.940300  1
  Er  Er10  1  0.806461  0.064638  0.559739  1
  Er  Er11  1  0.693705  0.935268  0.059754  1
  Er  Er12  1  0.193635  0.564732  0.440253  1
  Er  Er13  1  0.693705  0.564732  0.059754  1
  Er  Er14  1  0.193635  0.935268  0.440253  1
  Er  Er15  1  0.306232  0.064724  0.940300  1
  Er  Er16  1  0.806461  0.435362  0.559739  1
  Tm  Tm17  1  0.025452  0.750000  0.989027  1
  Tm  Tm18  1  0.525540  0.750000  0.510986  1
  Tm  Tm19  1  0.974574  0.250000  0.010956  1
  Bi  Bi20  1  0.433961  0.003547  0.673006  1
  Bi  Bi21  1  0.933956  0.496293  0.827220  1
  Bi  Bi22  1  0.566235  0.503977  0.326982  1
  Bi  Bi23  1  0.066077  0.996252  0.172795  1
  Bi  Bi24  1  0.566235  0.996023  0.326982  1
  Bi  Bi25  1  0.066077  0.503748  0.172795  1
  Bi  Bi26  1  0.433961  0.496453  0.673006  1
  Bi  Bi27  1  0.933956  0.003707  0.827220  1
  Bi  Bi28  1  0.408185  0.750000  0.958154  1
  Bi  Bi29  1  0.908152  0.750000  0.541870  1
  Bi  Bi30  1  0.591841  0.250000  0.041917  1
  Bi  Bi31  1  0.091496  0.250000  0.458087  1
