# generated using pymatgen
data_Pr3Nd(Co2Os)2
_symmetry_space_group_name_H-M   'P 1'
_cell_length_a   5.72779591
_cell_length_b   5.72775104
_cell_length_c   7.22422108
_cell_angle_alpha   89.99911704
_cell_angle_beta   90.01506646
_cell_angle_gamma   123.71455373
_symmetry_Int_Tables_number   1
_chemical_formula_structural   Pr3Nd(Co2Os)2
_chemical_formula_sum   'Pr3 Nd1 Co4 Os2'
_cell_volume   197.14622335
_cell_formula_units_Z   1
loop_
 _symmetry_equiv_pos_site_id
 _symmetry_equiv_pos_as_xyz
  1  'x, y, z'
loop_
 _atom_site_type_symbol
 _atom_site_label
 _atom_site_symmetry_multiplicity
 _atom_site_fract_x
 _atom_site_fract_y
 _atom_site_fract_z
 _atom_site_occupancy
  Pr  Pr0  1  0.660638  0.339368  0.902427  1
  Pr  Pr1  1  0.339361  0.660677  0.097172  1
  Pr  Pr2  1  0.839314  0.160649  0.403200  1
  Nd  Nd3  1  0.160186  0.839806  0.597146  1
  Co  Co4  1  0.665881  0.834053  0.749629  1
  Co  Co5  1  0.834483  0.666303  0.250460  1
  Co  Co6  1  0.333693  0.165520  0.250460  1
  Co  Co7  1  0.165966  0.334103  0.749629  1
  Os  Os8  1  0.500233  0.499775  0.500218  1
  Os  Os9  1  0.000245  0.999747  0.999658  1
