# generated using pymatgen
data_Tb3Zn3C
_symmetry_space_group_name_H-M   'P 1'
_cell_length_a   9.22671957
_cell_length_b   9.22671986
_cell_length_c   9.22671800
_cell_angle_alpha   60.00000667
_cell_angle_beta   60.00000565
_cell_angle_gamma   60.00000893
_symmetry_Int_Tables_number   1
_chemical_formula_structural   Tb3Zn3C
_chemical_formula_sum   'Tb12 Zn12 C4'
_cell_volume   555.42698457
_cell_formula_units_Z   4
loop_
 _symmetry_equiv_pos_site_id
 _symmetry_equiv_pos_as_xyz
  1  'x, y, z'
loop_
 _atom_site_type_symbol
 _atom_site_label
 _atom_site_symmetry_multiplicity
 _atom_site_fract_x
 _atom_site_fract_y
 _atom_site_fract_z
 _atom_site_occupancy
  Tb  Tb0  1  0.447131  0.447131  0.052869  1
  Tb  Tb1  1  0.052869  0.447131  0.052869  1
  Tb  Tb2  1  0.447131  0.052869  0.052869  1
  Tb  Tb3  1  0.052869  0.052869  0.447131  1
  Tb  Tb4  1  0.447131  0.052869  0.447131  1
  Tb  Tb5  1  0.052869  0.447131  0.447131  1
  Tb  Tb6  1  0.802869  0.802869  0.197131  1
  Tb  Tb7  1  0.197131  0.802869  0.197131  1
  Tb  Tb8  1  0.802869  0.197131  0.197131  1
  Tb  Tb9  1  0.197131  0.197131  0.802869  1
  Tb  Tb10  1  0.802869  0.197131  0.802869  1
  Tb  Tb11  1  0.197131  0.802869  0.802869  1
  Zn  Zn12  1  0.826360  0.826360  0.520920  1
  Zn  Zn13  1  0.826360  0.520920  0.826360  1
  Zn  Zn14  1  0.520920  0.826360  0.826360  1
  Zn  Zn15  1  0.826360  0.826360  0.826360  1
  Zn  Zn16  1  0.423640  0.423640  0.729080  1
  Zn  Zn17  1  0.423640  0.729080  0.423640  1
  Zn  Zn18  1  0.729080  0.423640  0.423640  1
  Zn  Zn19  1  0.423640  0.423640  0.423640  1
  Zn  Zn20  1  0.625000  0.625000  0.125000  1
  Zn  Zn21  1  0.625000  0.125000  0.625000  1
  Zn  Zn22  1  0.125000  0.625000  0.625000  1
  Zn  Zn23  1  0.625000  0.625000  0.625000  1
  C  C24  1  0.125000  0.125000  0.625000  1
  C  C25  1  0.125000  0.625000  0.125000  1
  C  C26  1  0.625000  0.125000  0.125000  1
  C  C27  1  0.125000  0.125000  0.125000  1
