# generated using pymatgen
data_Y(GaCu)6
_symmetry_space_group_name_H-M   'P 1'
_cell_length_a   5.23965164
_cell_length_b   6.61129219
_cell_length_c   6.61129217
_cell_angle_alpha   80.03001774
_cell_angle_beta   66.65508869
_cell_angle_gamma   66.65508010
_symmetry_Int_Tables_number   1
_chemical_formula_structural   Y(GaCu)6
_chemical_formula_sum   'Y1 Ga6 Cu6'
_cell_volume   193.02336627
_cell_formula_units_Z   1
loop_
 _symmetry_equiv_pos_site_id
 _symmetry_equiv_pos_as_xyz
  1  'x, y, z'
loop_
 _atom_site_type_symbol
 _atom_site_label
 _atom_site_symmetry_multiplicity
 _atom_site_fract_x
 _atom_site_fract_y
 _atom_site_fract_z
 _atom_site_occupancy
  Y  Y0  1  0.000000  0.000000  0.000000  1
  Ga  Ga1  1  0.000000  0.652004  0.347996  1
  Ga  Ga2  1  0.000000  0.347996  0.652004  1
  Ga  Ga3  1  0.347929  0.652071  0.652071  1
  Ga  Ga4  1  0.652071  0.347929  0.347929  1
  Ga  Ga5  1  0.309567  0.190433  0.190433  1
  Ga  Ga6  1  0.690433  0.809567  0.809567  1
  Cu  Cu7  1  0.500000  0.235225  0.764775  1
  Cu  Cu8  1  0.500000  0.764775  0.235225  1
  Cu  Cu9  1  0.000000  0.500000  0.000000  1
  Cu  Cu10  1  0.500000  0.500000  0.000000  1
  Cu  Cu11  1  0.000000  0.000000  0.500000  1
  Cu  Cu12  1  0.500000  0.000000  0.500000  1
