# generated using pymatgen
data_Ba10Pt4SI5
_symmetry_space_group_name_H-M   'P 1'
_cell_length_a   4.63799127
_cell_length_b   4.63799235
_cell_length_c   43.33376730
_cell_angle_alpha   93.06765778
_cell_angle_beta   93.06765883
_cell_angle_gamma   60.00001095
_symmetry_Int_Tables_number   1
_chemical_formula_structural   Ba10Pt4SI5
_chemical_formula_sum   'Ba10 Pt4 S1 I5'
_cell_volume   805.72403334
_cell_formula_units_Z   1
loop_
 _symmetry_equiv_pos_site_id
 _symmetry_equiv_pos_as_xyz
  1  'x, y, z'
loop_
 _atom_site_type_symbol
 _atom_site_label
 _atom_site_symmetry_multiplicity
 _atom_site_fract_x
 _atom_site_fract_y
 _atom_site_fract_z
 _atom_site_occupancy
  Ba  Ba0  1  0.245896  0.245896  0.737688  1
  Ba  Ba1  1  0.646169  0.646169  0.938508  1
  Ba  Ba2  1  0.047337  0.047337  0.142011  1
  Ba  Ba3  1  0.447126  0.447126  0.341378  1
  Ba  Ba4  1  0.846540  0.846540  0.539620  1
  Ba  Ba5  1  0.552874  0.552874  0.658622  1
  Ba  Ba6  1  0.952663  0.952663  0.857989  1
  Ba  Ba7  1  0.353831  0.353831  0.061492  1
  Ba  Ba8  1  0.754104  0.754104  0.262312  1
  Ba  Ba9  1  0.153460  0.153460  0.460380  1
  Pt  Pt10  1  0.899141  0.899141  0.697420  1
  Pt  Pt11  1  0.299362  0.299362  0.898086  1
  Pt  Pt12  1  0.700638  0.700638  0.101914  1
  Pt  Pt13  1  0.100859  0.100859  0.302580  1
  S  S14  1  0.500000  0.500000  0.500000  1
  I  I15  1  0.000000  0.000000  0.000000  1
  I  I16  1  0.400697  0.400697  0.202088  1
  I  I17  1  0.801921  0.801921  0.405764  1
  I  I18  1  0.198079  0.198079  0.594236  1
  I  I19  1  0.599303  0.599303  0.797912  1
