# generated using pymatgen
data_LiZrB4Ru5
_symmetry_space_group_name_H-M   'P 1'
_cell_length_a   2.99921200
_cell_length_b   8.33885610
_cell_length_c   10.10437401
_cell_angle_alpha   91.87821209
_cell_angle_beta   90.00000000
_cell_angle_gamma   90.00000000
_symmetry_Int_Tables_number   1
_chemical_formula_structural   LiZrB4Ru5
_chemical_formula_sum   'Li2 Zr2 B8 Ru10'
_cell_volume   252.57459840
_cell_formula_units_Z   2
loop_
 _symmetry_equiv_pos_site_id
 _symmetry_equiv_pos_as_xyz
  1  'x, y, z'
loop_
 _atom_site_type_symbol
 _atom_site_label
 _atom_site_symmetry_multiplicity
 _atom_site_fract_x
 _atom_site_fract_y
 _atom_site_fract_z
 _atom_site_occupancy
  Li  Li0  1  0.500000  0.149963  0.672441  1
  Li  Li1  1  0.500000  0.850037  0.327559  1
  Zr  Zr2  1  0.500000  0.655804  0.811863  1
  Zr  Zr3  1  0.500000  0.344196  0.188137  1
  B  B4  1  0.500000  0.860449  0.597901  1
  B  B5  1  0.500000  0.139551  0.402099  1
  B  B6  1  0.500000  0.344642  0.893328  1
  B  B7  1  0.500000  0.655358  0.106672  1
  B  B8  1  0.500000  0.967316  0.908658  1
  B  B9  1  0.500000  0.032684  0.091342  1
  B  B10  1  0.500000  0.457110  0.588476  1
  B  B11  1  0.500000  0.542890  0.411524  1
  Ru  Ru12  1  0.000000  0.388184  0.736760  1
  Ru  Ru13  1  0.000000  0.611816  0.263240  1
  Ru  Ru14  1  0.000000  0.911217  0.758934  1
  Ru  Ru15  1  0.000000  0.088783  0.241066  1
  Ru  Ru16  1  0.000000  0.000000  0.500000  1
  Ru  Ru17  1  0.000000  0.500000  0.000000  1
  Ru  Ru18  1  0.000000  0.656741  0.552687  1
  Ru  Ru19  1  0.000000  0.343259  0.447313  1
  Ru  Ru20  1  0.000000  0.159954  0.959734  1
  Ru  Ru21  1  0.000000  0.840046  0.040266  1
