# generated using pymatgen
data_Y6Lu4InSb5
_symmetry_space_group_name_H-M   'P 1'
_cell_length_a   6.33661500
_cell_length_b   8.91143786
_cell_length_c   8.92132431
_cell_angle_alpha   119.96335973
_cell_angle_beta   90.00112508
_cell_angle_gamma   89.99775666
_symmetry_Int_Tables_number   1
_chemical_formula_structural   Y6Lu4InSb5
_chemical_formula_sum   'Y6 Lu4 In1 Sb5'
_cell_volume   436.44074732
_cell_formula_units_Z   1
loop_
 _symmetry_equiv_pos_site_id
 _symmetry_equiv_pos_as_xyz
  1  'x, y, z'
loop_
 _atom_site_type_symbol
 _atom_site_label
 _atom_site_symmetry_multiplicity
 _atom_site_fract_x
 _atom_site_fract_y
 _atom_site_fract_z
 _atom_site_occupancy
  Y  Y0  1  0.750000  0.244781  0.000000  1
  Y  Y1  1  0.750018  0.752705  0.756234  1
  Y  Y2  1  0.750018  0.996469  0.243766  1
  Y  Y3  1  0.250002  0.755412  0.000000  1
  Y  Y4  1  0.250006  0.247182  0.245231  1
  Y  Y5  1  0.250006  0.001952  0.754769  1
  Lu  Lu6  1  0.499620  0.335055  0.668879  1
  Lu  Lu7  1  0.499620  0.666176  0.331121  1
  Lu  Lu8  1  0.000415  0.666142  0.331078  1
  Lu  Lu9  1  0.000415  0.335064  0.668922  1
  In  In10  1  0.749857  0.605418  0.000000  1
  Sb  Sb11  1  0.750012  0.390449  0.391081  1
  Sb  Sb12  1  0.750012  0.999367  0.608919  1
  Sb  Sb13  1  0.250021  0.393126  0.000000  1
  Sb  Sb14  1  0.249986  0.609620  0.608536  1
  Sb  Sb15  1  0.249986  0.001085  0.391464  1
