# generated using pymatgen
data_CeHo2(NiSn)3
_symmetry_space_group_name_H-M   'P 1'
_cell_length_a   7.25483425
_cell_length_b   7.25483355
_cell_length_c   3.99363900
_cell_angle_alpha   90.00000000
_cell_angle_beta   90.00000000
_cell_angle_gamma   119.93272143
_symmetry_Int_Tables_number   1
_chemical_formula_structural   CeHo2(NiSn)3
_chemical_formula_sum   'Ce1 Ho2 Ni3 Sn3'
_cell_volume   182.15806815
_cell_formula_units_Z   1
loop_
 _symmetry_equiv_pos_site_id
 _symmetry_equiv_pos_as_xyz
  1  'x, y, z'
loop_
 _atom_site_type_symbol
 _atom_site_label
 _atom_site_symmetry_multiplicity
 _atom_site_fract_x
 _atom_site_fract_y
 _atom_site_fract_z
 _atom_site_occupancy
  Ce  Ce0  1  0.410812  0.410812  0.500000  1
  Ho  Ho1  1  0.594415  0.000949  0.500000  1
  Ho  Ho2  1  0.000949  0.594415  0.500000  1
  Ni  Ni3  1  0.000196  0.000196  0.500000  1
  Ni  Ni4  1  0.662429  0.332677  0.000000  1
  Ni  Ni5  1  0.332677  0.662429  0.000000  1
  Sn  Sn6  1  0.746577  0.746577  0.000000  1
  Sn  Sn7  1  0.255813  0.996132  0.000000  1
  Sn  Sn8  1  0.996132  0.255813  0.000000  1
