# generated using pymatgen
data_Ce2Ho(ZnNi)3
_symmetry_space_group_name_H-M   'P 1'
_cell_length_a   7.11041876
_cell_length_b   7.05386947
_cell_length_c   3.74162700
_cell_angle_alpha   90.00000000
_cell_angle_beta   90.00000000
_cell_angle_gamma   119.73727037
_symmetry_Int_Tables_number   1
_chemical_formula_structural   Ce2Ho(ZnNi)3
_chemical_formula_sum   'Ce2 Ho1 Zn3 Ni3'
_cell_volume   162.95114269
_cell_formula_units_Z   1
loop_
 _symmetry_equiv_pos_site_id
 _symmetry_equiv_pos_as_xyz
  1  'x, y, z'
loop_
 _atom_site_type_symbol
 _atom_site_label
 _atom_site_symmetry_multiplicity
 _atom_site_fract_x
 _atom_site_fract_y
 _atom_site_fract_z
 _atom_site_occupancy
  Ce  Ce0  1  0.584350  0.586005  0.500000  1
  Ce  Ce1  1  0.415650  0.001656  0.500000  1
  Ho  Ho2  1  0.000000  0.409938  0.500000  1
  Zn  Zn3  1  0.000000  0.751249  0.000000  1
  Zn  Zn4  1  0.233378  0.240121  0.000000  1
  Zn  Zn5  1  0.766622  0.006743  0.000000  1
  Ni  Ni6  1  0.346001  0.678176  0.000000  1
  Ni  Ni7  1  0.653999  0.332174  0.000000  1
  Ni  Ni8  1  0.000000  0.993938  0.500000  1
