# generated using pymatgen
data_Nb2SiGeRuPt
_symmetry_space_group_name_H-M   'P 1'
_cell_length_a   3.84855800
_cell_length_b   6.51652600
_cell_length_c   7.47406000
_cell_angle_alpha   90.00000000
_cell_angle_beta   90.00000000
_cell_angle_gamma   90.00000000
_symmetry_Int_Tables_number   1
_chemical_formula_structural   Nb2SiGeRuPt
_chemical_formula_sum   'Nb4 Si2 Ge2 Ru2 Pt2'
_cell_volume   187.44365684
_cell_formula_units_Z   2
loop_
 _symmetry_equiv_pos_site_id
 _symmetry_equiv_pos_as_xyz
  1  'x, y, z'
loop_
 _atom_site_type_symbol
 _atom_site_label
 _atom_site_symmetry_multiplicity
 _atom_site_fract_x
 _atom_site_fract_y
 _atom_site_fract_z
 _atom_site_occupancy
  Nb  Nb0  1  0.750000  0.473288  0.328712  1
  Nb  Nb1  1  0.250000  0.027050  0.827539  1
  Nb  Nb2  1  0.750000  0.973288  0.171288  1
  Nb  Nb3  1  0.250000  0.527050  0.672461  1
  Si  Si4  1  0.750000  0.734832  0.881821  1
  Si  Si5  1  0.750000  0.234832  0.618179  1
  Ge  Ge6  1  0.250000  0.267364  0.134800  1
  Ge  Ge7  1  0.250000  0.767364  0.365200  1
  Ru  Ru8  1  0.250000  0.644760  0.049564  1
  Ru  Ru9  1  0.250000  0.144760  0.450436  1
  Pt  Pt10  1  0.750000  0.852706  0.575203  1
  Pt  Pt11  1  0.750000  0.352706  0.924797  1
