# generated using pymatgen
data_LaPr3(PPt3)8
_symmetry_space_group_name_H-M   'P 1'
_cell_length_a   8.57265411
_cell_length_b   8.57265411
_cell_length_c   8.57265411
_cell_angle_alpha   90.01280497
_cell_angle_beta   89.98719503
_cell_angle_gamma   89.98719503
_symmetry_Int_Tables_number   1
_chemical_formula_structural   LaPr3(PPt3)8
_chemical_formula_sum   'La1 Pr3 P8 Pt24'
_cell_volume   630.00771880
_cell_formula_units_Z   1
loop_
 _symmetry_equiv_pos_site_id
 _symmetry_equiv_pos_as_xyz
  1  'x, y, z'
loop_
 _atom_site_type_symbol
 _atom_site_label
 _atom_site_symmetry_multiplicity
 _atom_site_fract_x
 _atom_site_fract_y
 _atom_site_fract_z
 _atom_site_occupancy
  La  La0  1  0.500000  0.500000  0.000000  1
  Pr  Pr1  1  0.500000  0.000000  0.500000  1
  Pr  Pr2  1  0.000000  0.500000  0.500000  1
  Pr  Pr3  1  0.000000  0.000000  0.000000  1
  P  P4  1  0.805776  0.305721  0.194405  1
  P  P5  1  0.194218  0.805782  0.305782  1
  P  P6  1  0.694279  0.694405  0.694224  1
  P  P7  1  0.305595  0.194224  0.805721  1
  P  P8  1  0.194224  0.694279  0.805595  1
  P  P9  1  0.805782  0.194218  0.694218  1
  P  P10  1  0.305721  0.305595  0.305776  1
  P  P11  1  0.694405  0.805776  0.194279  1
  Pt  Pt12  1  0.422207  0.843377  0.158446  1
  Pt  Pt13  1  0.577750  0.342944  0.342472  1
  Pt  Pt14  1  0.077801  0.156675  0.658138  1
  Pt  Pt15  1  0.921984  0.656759  0.841921  1
  Pt  Pt16  1  0.157528  0.422250  0.842944  1
  Pt  Pt17  1  0.341554  0.577793  0.343377  1
  Pt  Pt18  1  0.658079  0.078016  0.156759  1
  Pt  Pt19  1  0.841862  0.922199  0.656675  1
  Pt  Pt20  1  0.843325  0.158138  0.422199  1
  Pt  Pt21  1  0.343241  0.341921  0.578016  1
  Pt  Pt22  1  0.156623  0.658446  0.077793  1
  Pt  Pt23  1  0.657056  0.842472  0.922250  1
  Pt  Pt24  1  0.577793  0.156623  0.841554  1
  Pt  Pt25  1  0.422250  0.657056  0.657528  1
  Pt  Pt26  1  0.922199  0.843325  0.341862  1
  Pt  Pt27  1  0.078016  0.343241  0.158079  1
  Pt  Pt28  1  0.842472  0.577750  0.157056  1
  Pt  Pt29  1  0.658446  0.422207  0.656623  1
  Pt  Pt30  1  0.341921  0.921984  0.843241  1
  Pt  Pt31  1  0.158138  0.077801  0.343325  1
  Pt  Pt32  1  0.156675  0.841862  0.577801  1
  Pt  Pt33  1  0.656759  0.658079  0.421984  1
  Pt  Pt34  1  0.843377  0.341554  0.922207  1
  Pt  Pt35  1  0.342944  0.157528  0.077750  1
