# generated using pymatgen
data_Th3Mg3Pd2Ru
_symmetry_space_group_name_H-M   'P 1'
_cell_length_a   7.67098900
_cell_length_b   7.67098895
_cell_length_c   4.01058500
_cell_angle_alpha   90.00000000
_cell_angle_beta   90.00000000
_cell_angle_gamma   120.00000453
_symmetry_Int_Tables_number   1
_chemical_formula_structural   Th3Mg3Pd2Ru
_chemical_formula_sum   'Th3 Mg3 Pd2 Ru1'
_cell_volume   204.38125152
_cell_formula_units_Z   1
loop_
 _symmetry_equiv_pos_site_id
 _symmetry_equiv_pos_as_xyz
  1  'x, y, z'
loop_
 _atom_site_type_symbol
 _atom_site_label
 _atom_site_symmetry_multiplicity
 _atom_site_fract_x
 _atom_site_fract_y
 _atom_site_fract_z
 _atom_site_occupancy
  Th  Th0  1  0.427880  0.412999  0.500000  1
  Th  Th1  1  0.587001  0.014881  0.500000  1
  Th  Th2  1  0.985119  0.572120  0.500000  1
  Mg  Mg3  1  0.760116  0.762742  0.000000  1
  Mg  Mg4  1  0.237258  0.997374  0.000000  1
  Mg  Mg5  1  0.002626  0.239884  0.000000  1
  Pd  Pd6  1  0.333333  0.666667  0.000000  1
  Pd  Pd7  1  0.000000  0.000000  0.500000  1
  Ru  Ru8  1  0.666667  0.333333  0.000000  1
