# generated using pymatgen
data_Nd5Bi2PbSe
_symmetry_space_group_name_H-M   'P 1'
_cell_length_a   9.58549700
_cell_length_b   9.54016788
_cell_length_c   6.94142500
_cell_angle_alpha   90.00000000
_cell_angle_beta   90.00000000
_cell_angle_gamma   119.84369431
_symmetry_Int_Tables_number   1
_chemical_formula_structural   Nd5Bi2PbSe
_chemical_formula_sum   'Nd10 Bi4 Pb2 Se2'
_cell_volume   550.59441082
_cell_formula_units_Z   2
loop_
 _symmetry_equiv_pos_site_id
 _symmetry_equiv_pos_as_xyz
  1  'x, y, z'
loop_
 _atom_site_type_symbol
 _atom_site_label
 _atom_site_symmetry_multiplicity
 _atom_site_fract_x
 _atom_site_fract_y
 _atom_site_fract_z
 _atom_site_occupancy
  Nd  Nd0  1  0.664438  0.331782  0.998915  1
  Nd  Nd1  1  0.335562  0.667344  0.998915  1
  Nd  Nd2  1  0.335562  0.667344  0.501085  1
  Nd  Nd3  1  0.664438  0.331782  0.501085  1
  Nd  Nd4  1  0.745815  0.748520  0.750000  1
  Nd  Nd5  1  0.254185  0.002706  0.750000  1
  Nd  Nd6  1  0.000000  0.251416  0.750000  1
  Nd  Nd7  1  0.251205  0.251736  0.250000  1
  Nd  Nd8  1  0.748795  0.000532  0.250000  1
  Nd  Nd9  1  0.000000  0.747139  0.250000  1
  Bi  Bi10  1  0.000000  0.606388  0.750000  1
  Bi  Bi11  1  0.606199  0.605753  0.250000  1
  Bi  Bi12  1  0.393801  0.999553  0.250000  1
  Bi  Bi13  1  0.000000  0.394606  0.250000  1
  Pb  Pb14  1  0.393635  0.394291  0.750000  1
  Pb  Pb15  1  0.606365  0.000656  0.750000  1
  Se  Se16  1  0.000000  0.999226  0.999769  1
  Se  Se17  1  0.000000  0.999226  0.500231  1
