# generated using pymatgen
data_Na2Ho3Ni2P12Ir17
_symmetry_space_group_name_H-M   'P 1'
_cell_length_a   12.65335752
_cell_length_b   12.61345977
_cell_length_c   3.95376700
_cell_angle_alpha   90.00000000
_cell_angle_beta   90.00000000
_cell_angle_gamma   119.87323468
_symmetry_Int_Tables_number   1
_chemical_formula_structural   Na2Ho3Ni2P12Ir17
_chemical_formula_sum   'Na2 Ho3 Ni2 P12 Ir17'
_cell_volume   547.18609044
_cell_formula_units_Z   1
loop_
 _symmetry_equiv_pos_site_id
 _symmetry_equiv_pos_as_xyz
  1  'x, y, z'
loop_
 _atom_site_type_symbol
 _atom_site_label
 _atom_site_symmetry_multiplicity
 _atom_site_fract_x
 _atom_site_fract_y
 _atom_site_fract_z
 _atom_site_occupancy
  Na  Na0  1  0.188013  0.187346  0.000000  1
  Na  Na1  1  0.815815  0.000048  0.000000  1
  Ho  Ho2  1  0.333273  0.665413  0.500000  1
  Ho  Ho3  1  0.668614  0.335643  0.500000  1
  Ho  Ho4  1  0.000843  0.813837  0.000000  1
  Ni  Ni5  1  0.998628  0.461349  0.500000  1
  Ni  Ni6  1  0.537970  0.538362  0.500000  1
  P  P7  1  0.999772  0.634426  0.500000  1
  P  P8  1  0.365130  0.364957  0.500000  1
  P  P9  1  0.642678  0.999820  0.500000  1
  P  P10  1  0.517431  0.687182  0.000000  1
  P  P11  1  0.310622  0.827613  0.000000  1
  P  P12  1  0.169373  0.479300  0.000000  1
  P  P13  1  0.481454  0.172735  0.000000  1
  P  P14  1  0.687901  0.518847  0.000000  1
  P  P15  1  0.830358  0.312259  0.000000  1
  P  P16  1  0.998941  0.179381  0.500000  1
  P  P17  1  0.819662  0.821695  0.500000  1
  P  P18  1  0.178519  0.001854  0.500000  1
  Ir  Ir19  1  0.505769  0.867456  0.000000  1
  Ir  Ir20  1  0.132502  0.637688  0.000000  1
  Ir  Ir21  1  0.361038  0.492671  0.000000  1
  Ir  Ir22  1  0.494156  0.362629  0.000000  1
  Ir  Ir23  1  0.868270  0.507493  0.000000  1
  Ir  Ir24  1  0.637700  0.132792  0.000000  1
  Ir  Ir25  1  0.460089  0.998885  0.500000  1
  Ir  Ir26  1  0.998497  0.283197  0.000000  1
  Ir  Ir27  1  0.715355  0.716316  0.000000  1
  Ir  Ir28  1  0.284442  0.998490  0.000000  1
  Ir  Ir29  1  0.619402  0.801322  0.500000  1
  Ir  Ir30  1  0.195546  0.820033  0.500000  1
  Ir  Ir31  1  0.179805  0.377376  0.500000  1
  Ir  Ir32  1  0.379210  0.181300  0.500000  1
  Ir  Ir33  1  0.806449  0.626229  0.500000  1
  Ir  Ir34  1  0.817684  0.197834  0.500000  1
  Ir  Ir35  1  0.999090  0.996226  0.500000  1
