# generated using pymatgen
data_Pr17Er3Si15Tc
_symmetry_space_group_name_H-M   'P 1'
_cell_length_a   7.87030369
_cell_length_b   7.85885477
_cell_length_c   15.21053416
_cell_angle_alpha   90.34693277
_cell_angle_beta   89.93741622
_cell_angle_gamma   90.18708546
_symmetry_Int_Tables_number   1
_chemical_formula_structural   Pr17Er3Si15Tc
_chemical_formula_sum   'Pr17 Er3 Si15 Tc1'
_cell_volume   940.77267155
_cell_formula_units_Z   1
loop_
 _symmetry_equiv_pos_site_id
 _symmetry_equiv_pos_as_xyz
  1  'x, y, z'
loop_
 _atom_site_type_symbol
 _atom_site_label
 _atom_site_symmetry_multiplicity
 _atom_site_fract_x
 _atom_site_fract_y
 _atom_site_fract_z
 _atom_site_occupancy
  Pr  Pr0  1  0.696974  0.689687  0.502608  1
  Pr  Pr1  1  0.370908  0.012204  0.451205  1
  Pr  Pr2  1  0.484742  0.881369  0.697974  1
  Pr  Pr3  1  0.511370  0.124790  0.198849  1
  Pr  Pr4  1  0.876219  0.487800  0.300136  1
  Pr  Pr5  1  0.128160  0.500638  0.797726  1
  Pr  Pr6  1  0.626039  0.988332  0.949090  1
  Pr  Pr7  1  0.006806  0.376741  0.552095  1
  Pr  Pr8  1  0.989141  0.625964  0.050929  1
  Pr  Pr9  1  0.131533  0.983533  0.871943  1
  Pr  Pr10  1  0.517859  0.629835  0.126254  1
  Pr  Pr11  1  0.471198  0.361267  0.630527  1
  Pr  Pr12  1  0.629231  0.516685  0.875465  1
  Pr  Pr13  1  0.375081  0.481804  0.372491  1
  Pr  Pr14  1  0.873589  0.021462  0.376571  1
  Pr  Pr15  1  0.981461  0.127376  0.123406  1
  Pr  Pr16  1  0.026508  0.883118  0.627665  1
  Er  Er17  1  0.309461  0.308140  0.998012  1
  Er  Er18  1  0.189335  0.810686  0.250809  1
  Er  Er19  1  0.822216  0.189915  0.748562  1
  Si  Si20  1  0.330065  0.690363  0.953367  1
  Si  Si21  1  0.663710  0.301907  0.452313  1
  Si  Si22  1  0.693304  0.330897  0.048114  1
  Si  Si23  1  0.304149  0.668472  0.545821  1
  Si  Si24  1  0.809813  0.830712  0.204379  1
  Si  Si25  1  0.169919  0.192494  0.294998  1
  Si  Si26  1  0.828862  0.806308  0.798299  1
  Si  Si27  1  0.287541  0.922823  0.061633  1
  Si  Si28  1  0.574876  0.789272  0.309785  1
  Si  Si29  1  0.423253  0.211270  0.815808  1
  Si  Si30  1  0.779423  0.578512  0.692546  1
  Si  Si31  1  0.212389  0.423999  0.186488  1
  Si  Si32  1  0.706886  0.077448  0.562353  1
  Si  Si33  1  0.922910  0.285650  0.938635  1
  Si  Si34  1  0.082833  0.717357  0.436112  1
  Tc  Tc35  1  0.192234  0.171166  0.697031  1
