# generated using pymatgen
data_Sm3Mg2ScPtPb2
_symmetry_space_group_name_H-M   'P 1'
_cell_length_a   7.80601033
_cell_length_b   7.71892513
_cell_length_c   4.48756400
_cell_angle_alpha   90.00000000
_cell_angle_beta   90.00000000
_cell_angle_gamma   119.63163812
_symmetry_Int_Tables_number   1
_chemical_formula_structural   Sm3Mg2ScPtPb2
_chemical_formula_sum   'Sm3 Mg2 Sc1 Pt1 Pb2'
_cell_volume   235.03218546
_cell_formula_units_Z   1
loop_
 _symmetry_equiv_pos_site_id
 _symmetry_equiv_pos_as_xyz
  1  'x, y, z'
loop_
 _atom_site_type_symbol
 _atom_site_label
 _atom_site_symmetry_multiplicity
 _atom_site_fract_x
 _atom_site_fract_y
 _atom_site_fract_z
 _atom_site_occupancy
  Sm  Sm0  1  0.602601  0.607120  0.000000  1
  Sm  Sm1  1  0.397399  0.004519  0.000000  1
  Sm  Sm2  1  0.000000  0.391041  0.000000  1
  Mg  Mg3  1  0.231233  0.232502  0.500000  1
  Mg  Mg4  1  0.768767  0.001269  0.500000  1
  Sc  Sc5  1  0.000000  0.776752  0.500000  1
  Pt  Pt6  1  0.000000  0.984307  0.000000  1
  Pb  Pb7  1  0.330201  0.666346  0.500000  1
  Pb  Pb8  1  0.669799  0.336143  0.500000  1
