# generated using pymatgen
data_YThWC2
_symmetry_space_group_name_H-M   'P 1'
_cell_length_a   5.26864700
_cell_length_b   6.80001300
_cell_length_c   10.01195000
_cell_angle_alpha   90.00000000
_cell_angle_beta   90.00000000
_cell_angle_gamma   90.00000000
_symmetry_Int_Tables_number   1
_chemical_formula_structural   YThWC2
_chemical_formula_sum   'Y4 Th4 W4 C8'
_cell_volume   358.69681200
_cell_formula_units_Z   4
loop_
 _symmetry_equiv_pos_site_id
 _symmetry_equiv_pos_as_xyz
  1  'x, y, z'
loop_
 _atom_site_type_symbol
 _atom_site_label
 _atom_site_symmetry_multiplicity
 _atom_site_fract_x
 _atom_site_fract_y
 _atom_site_fract_z
 _atom_site_occupancy
  Y  Y0  1  0.250000  0.826445  0.054976  1
  Y  Y1  1  0.750000  0.673555  0.554976  1
  Y  Y2  1  0.250000  0.326445  0.445024  1
  Y  Y3  1  0.750000  0.173555  0.945024  1
  Th  Th4  1  0.250000  0.465047  0.786248  1
  Th  Th5  1  0.750000  0.034953  0.286248  1
  Th  Th6  1  0.250000  0.965047  0.713752  1
  Th  Th7  1  0.750000  0.534953  0.213752  1
  W  W8  1  0.250000  0.277882  0.132755  1
  W  W9  1  0.750000  0.222118  0.632755  1
  W  W10  1  0.250000  0.777882  0.367245  1
  W  W11  1  0.750000  0.722118  0.867245  1
  C  C12  1  0.250000  0.170687  0.946273  1
  C  C13  1  0.750000  0.829313  0.053727  1
  C  C14  1  0.250000  0.670687  0.553727  1
  C  C15  1  0.750000  0.329313  0.446273  1
  C  C16  1  0.250000  0.046464  0.260659  1
  C  C17  1  0.750000  0.453536  0.760659  1
  C  C18  1  0.250000  0.546464  0.239341  1
  C  C19  1  0.750000  0.953536  0.739341  1
