# generated using pymatgen
data_Sm3Th5Rh8
_symmetry_space_group_name_H-M   'P 1'
_cell_length_a   4.17713400
_cell_length_b   6.01451480
_cell_length_c   15.07092500
_cell_angle_alpha   89.66338797
_cell_angle_beta   90.00000000
_cell_angle_gamma   90.00000000
_symmetry_Int_Tables_number   1
_chemical_formula_structural   Sm3Th5Rh8
_chemical_formula_sum   'Sm3 Th5 Rh8'
_cell_volume   378.62685899
_cell_formula_units_Z   1
loop_
 _symmetry_equiv_pos_site_id
 _symmetry_equiv_pos_as_xyz
  1  'x, y, z'
loop_
 _atom_site_type_symbol
 _atom_site_label
 _atom_site_symmetry_multiplicity
 _atom_site_fract_x
 _atom_site_fract_y
 _atom_site_fract_z
 _atom_site_occupancy
  Sm  Sm0  1  0.250000  0.541935  0.284002  1
  Sm  Sm1  1  0.750000  0.461904  0.717259  1
  Sm  Sm2  1  0.250000  0.961088  0.782580  1
  Th  Th3  1  0.250000  0.753135  0.537448  1
  Th  Th4  1  0.250000  0.741677  0.036254  1
  Th  Th5  1  0.750000  0.246823  0.962439  1
  Th  Th6  1  0.750000  0.040276  0.216736  1
  Th  Th7  1  0.750000  0.253243  0.463475  1
  Rh  Rh8  1  0.250000  0.057230  0.350481  1
  Rh  Rh9  1  0.750000  0.559371  0.144180  1
  Rh  Rh10  1  0.750000  0.729534  0.407029  1
  Rh  Rh11  1  0.250000  0.441567  0.860714  1
  Rh  Rh12  1  0.750000  0.946884  0.639326  1
  Rh  Rh13  1  0.750000  0.775456  0.906670  1
  Rh  Rh14  1  0.250000  0.212439  0.099543  1
  Rh  Rh15  1  0.250000  0.277436  0.591862  1
