# generated using pymatgen
data_Tb5Tm5(Cd2Ni)4
_symmetry_space_group_name_H-M   'P 1'
_cell_length_a   3.55533600
_cell_length_b   7.84082677
_cell_length_c   18.13072808
_cell_angle_alpha   89.92305528
_cell_angle_beta   90.00000000
_cell_angle_gamma   90.00000000
_symmetry_Int_Tables_number   1
_chemical_formula_structural   Tb5Tm5(Cd2Ni)4
_chemical_formula_sum   'Tb5 Tm5 Cd8 Ni4'
_cell_volume   505.42574772
_cell_formula_units_Z   1
loop_
 _symmetry_equiv_pos_site_id
 _symmetry_equiv_pos_as_xyz
  1  'x, y, z'
loop_
 _atom_site_type_symbol
 _atom_site_label
 _atom_site_symmetry_multiplicity
 _atom_site_fract_x
 _atom_site_fract_y
 _atom_site_fract_z
 _atom_site_occupancy
  Tb  Tb0  1  0.000000  0.499827  0.499804  1
  Tb  Tb1  1  0.000000  0.999767  0.000000  1
  Tb  Tb2  1  0.000000  0.748835  0.279255  1
  Tb  Tb3  1  0.000000  0.252198  0.720711  1
  Tb  Tb4  1  0.000000  0.751588  0.779447  1
  Tm  Tm5  1  0.000000  0.248356  0.221060  1
  Tm  Tm6  1  0.000000  0.614014  0.088669  1
  Tm  Tm7  1  0.000000  0.385104  0.912127  1
  Tm  Tm8  1  0.000000  0.885095  0.587962  1
  Tm  Tm9  1  0.000000  0.115200  0.411106  1
  Cd  Cd10  1  0.500000  0.707263  0.931786  1
  Cd  Cd11  1  0.500000  0.291697  0.069582  1
  Cd  Cd12  1  0.500000  0.792733  0.431453  1
  Cd  Cd13  1  0.500000  0.207256  0.568210  1
  Cd  Cd14  1  0.500000  0.570488  0.650728  1
  Cd  Cd15  1  0.500000  0.427951  0.348254  1
  Cd  Cd16  1  0.500000  0.931897  0.151087  1
  Cd  Cd17  1  0.500000  0.070424  0.849285  1
  Ni  Ni18  1  0.500000  0.527985  0.195746  1
  Ni  Ni19  1  0.500000  0.470116  0.804539  1
  Ni  Ni20  1  0.500000  0.970019  0.695431  1
  Ni  Ni21  1  0.500000  0.032189  0.303758  1
