# generated using pymatgen
data_Nb3Al2ReC
_symmetry_space_group_name_H-M   'P 1'
_cell_length_a   8.37670360
_cell_length_b   8.37670300
_cell_length_c   8.37670300
_cell_angle_alpha   59.99999603
_cell_angle_beta   59.99999841
_cell_angle_gamma   59.99999656
_symmetry_Int_Tables_number   1
_chemical_formula_structural   Nb3Al2ReC
_chemical_formula_sum   'Nb12 Al8 Re4 C4'
_cell_volume   415.62757781
_cell_formula_units_Z   4
loop_
 _symmetry_equiv_pos_site_id
 _symmetry_equiv_pos_as_xyz
  1  'x, y, z'
loop_
 _atom_site_type_symbol
 _atom_site_label
 _atom_site_symmetry_multiplicity
 _atom_site_fract_x
 _atom_site_fract_y
 _atom_site_fract_z
 _atom_site_occupancy
  Nb  Nb0  1  0.557758  0.942242  0.557758  1
  Nb  Nb1  1  0.307758  0.692242  0.692242  1
  Nb  Nb2  1  0.692242  0.307758  0.307758  1
  Nb  Nb3  1  0.307758  0.692242  0.307758  1
  Nb  Nb4  1  0.692242  0.692242  0.307758  1
  Nb  Nb5  1  0.307758  0.307758  0.692242  1
  Nb  Nb6  1  0.557758  0.557758  0.942242  1
  Nb  Nb7  1  0.942242  0.557758  0.557758  1
  Nb  Nb8  1  0.557758  0.942242  0.942242  1
  Nb  Nb9  1  0.942242  0.942242  0.557758  1
  Nb  Nb10  1  0.692242  0.307758  0.692242  1
  Nb  Nb11  1  0.942242  0.557758  0.942242  1
  Al  Al12  1  0.915162  0.915162  0.915162  1
  Al  Al13  1  0.995485  0.334838  0.334838  1
  Al  Al14  1  0.334838  0.995485  0.334838  1
  Al  Al15  1  0.334838  0.334838  0.995485  1
  Al  Al16  1  0.915162  0.254515  0.915162  1
  Al  Al17  1  0.915162  0.915162  0.254515  1
  Al  Al18  1  0.254515  0.915162  0.915162  1
  Al  Al19  1  0.334838  0.334838  0.334838  1
  Re  Re20  1  0.125000  0.125000  0.125000  1
  Re  Re21  1  0.625000  0.125000  0.125000  1
  Re  Re22  1  0.125000  0.625000  0.125000  1
  Re  Re23  1  0.125000  0.125000  0.625000  1
  C  C24  1  0.625000  0.625000  0.625000  1
  C  C25  1  0.125000  0.625000  0.625000  1
  C  C26  1  0.625000  0.125000  0.625000  1
  C  C27  1  0.625000  0.625000  0.125000  1
