# generated using pymatgen
data_La2Y2P7Ir8
_symmetry_space_group_name_H-M   'P 1'
_cell_length_a   3.97341200
_cell_length_b   12.83098787
_cell_length_c   13.21759223
_cell_angle_alpha   81.05204839
_cell_angle_beta   90.00000000
_cell_angle_gamma   90.00000000
_symmetry_Int_Tables_number   1
_chemical_formula_structural   La2Y2P7Ir8
_chemical_formula_sum   'La4 Y4 P14 Ir16'
_cell_volume   665.66890794
_cell_formula_units_Z   2
loop_
 _symmetry_equiv_pos_site_id
 _symmetry_equiv_pos_as_xyz
  1  'x, y, z'
loop_
 _atom_site_type_symbol
 _atom_site_label
 _atom_site_symmetry_multiplicity
 _atom_site_fract_x
 _atom_site_fract_y
 _atom_site_fract_z
 _atom_site_occupancy
  La  La0  1  0.250000  0.106009  0.788406  1
  La  La1  1  0.750000  0.893991  0.211594  1
  La  La2  1  0.250000  0.280922  0.103143  1
  La  La3  1  0.750000  0.719078  0.896857  1
  Y  Y4  1  0.250000  0.519946  0.294324  1
  Y  Y5  1  0.750000  0.480054  0.705676  1
  Y  Y6  1  0.250000  0.208607  0.439404  1
  Y  Y7  1  0.750000  0.791393  0.560596  1
  P  P8  1  0.250000  0.053128  0.098854  1
  P  P9  1  0.750000  0.946872  0.901146  1
  P  P10  1  0.250000  0.316859  0.685334  1
  P  P11  1  0.750000  0.683141  0.314666  1
  P  P12  1  0.250000  0.608094  0.565359  1
  P  P13  1  0.750000  0.391906  0.434641  1
  P  P14  1  0.250000  0.843226  0.715979  1
  P  P15  1  0.750000  0.156774  0.284021  1
  P  P16  1  0.750000  0.258901  0.916954  1
  P  P17  1  0.250000  0.741099  0.083046  1
  P  P18  1  0.750000  0.092929  0.587561  1
  P  P19  1  0.250000  0.907071  0.412439  1
  P  P20  1  0.750000  0.472396  0.129693  1
  P  P21  1  0.250000  0.527604  0.870307  1
  Ir  Ir22  1  0.250000  0.989178  0.575551  1
  Ir  Ir23  1  0.750000  0.010822  0.424449  1
  Ir  Ir24  1  0.250000  0.661880  0.727194  1
  Ir  Ir25  1  0.750000  0.338120  0.272806  1
  Ir  Ir26  1  0.250000  0.550831  0.049176  1
  Ir  Ir27  1  0.750000  0.449169  0.950824  1
  Ir  Ir28  1  0.250000  0.062761  0.273847  1
  Ir  Ir29  1  0.750000  0.937239  0.726153  1
  Ir  Ir30  1  0.250000  0.423125  0.522597  1
  Ir  Ir31  1  0.750000  0.576875  0.477403  1
  Ir  Ir32  1  0.250000  0.915177  0.998384  1
  Ir  Ir33  1  0.750000  0.084823  0.001616  1
  Ir  Ir34  1  0.250000  0.727528  0.399027  1
  Ir  Ir35  1  0.750000  0.272472  0.600973  1
  Ir  Ir36  1  0.250000  0.344743  0.854958  1
  Ir  Ir37  1  0.750000  0.655257  0.145042  1
