# generated using pymatgen
data_Hf6Al16CoPt6
_symmetry_space_group_name_H-M   'P 1'
_cell_length_a   8.73288949
_cell_length_b   8.72147756
_cell_length_c   8.72147917
_cell_angle_alpha   60.21184844
_cell_angle_beta   59.95670844
_cell_angle_gamma   59.95670962
_symmetry_Int_Tables_number   1
_chemical_formula_structural   Hf6Al16CoPt6
_chemical_formula_sum   'Hf6 Al16 Co1 Pt6'
_cell_volume   470.14116891
_cell_formula_units_Z   1
loop_
 _symmetry_equiv_pos_site_id
 _symmetry_equiv_pos_as_xyz
  1  'x, y, z'
loop_
 _atom_site_type_symbol
 _atom_site_label
 _atom_site_symmetry_multiplicity
 _atom_site_fract_x
 _atom_site_fract_y
 _atom_site_fract_z
 _atom_site_occupancy
  Hf  Hf0  1  0.682702  0.680560  0.319440  1
  Hf  Hf1  1  0.317298  0.680560  0.319440  1
  Hf  Hf2  1  0.682471  0.317529  0.317529  1
  Hf  Hf3  1  0.317298  0.319440  0.680560  1
  Hf  Hf4  1  0.682702  0.319440  0.680560  1
  Hf  Hf5  1  0.317529  0.682471  0.682471  1
  Al  Al6  1  0.884303  0.869422  0.361972  1
  Al  Al7  1  0.884303  0.361972  0.869422  1
  Al  Al8  1  0.361630  0.878332  0.878332  1
  Al  Al9  1  0.881704  0.878332  0.878332  1
  Al  Al10  1  0.115697  0.130578  0.638028  1
  Al  Al11  1  0.115697  0.638028  0.130578  1
  Al  Al12  1  0.638370  0.121668  0.121668  1
  Al  Al13  1  0.118296  0.121668  0.121668  1
  Al  Al14  1  0.664114  0.663067  0.008706  1
  Al  Al15  1  0.664114  0.008706  0.663067  1
  Al  Al16  1  0.007128  0.658998  0.658998  1
  Al  Al17  1  0.674876  0.658998  0.658998  1
  Al  Al18  1  0.335886  0.336933  0.991294  1
  Al  Al19  1  0.335886  0.991294  0.336933  1
  Al  Al20  1  0.992872  0.341002  0.341002  1
  Al  Al21  1  0.325124  0.341002  0.341002  1
  Co  Co22  1  0.000000  0.500000  0.500000  1
  Pt  Pt23  1  0.000000  0.000000  0.000000  1
  Pt  Pt24  1  0.000000  0.000000  0.500000  1
  Pt  Pt25  1  0.500000  0.000000  0.500000  1
  Pt  Pt26  1  0.500000  0.500000  0.000000  1
  Pt  Pt27  1  0.000000  0.500000  0.000000  1
  Pt  Pt28  1  0.500000  0.000000  0.000000  1
