# generated using pymatgen
data_Ho4Tm(SiHg)2
_symmetry_space_group_name_H-M   'P 1'
_cell_length_a   8.74793600
_cell_length_b   8.74793695
_cell_length_c   7.50594300
_cell_angle_alpha   90.00000000
_cell_angle_beta   90.00000000
_cell_angle_gamma   129.31795481
_symmetry_Int_Tables_number   1
_chemical_formula_structural   Ho4Tm(SiHg)2
_chemical_formula_sum   'Ho8 Tm2 Si4 Hg4'
_cell_volume   444.38190635
_cell_formula_units_Z   2
loop_
 _symmetry_equiv_pos_site_id
 _symmetry_equiv_pos_as_xyz
  1  'x, y, z'
loop_
 _atom_site_type_symbol
 _atom_site_label
 _atom_site_symmetry_multiplicity
 _atom_site_fract_x
 _atom_site_fract_y
 _atom_site_fract_z
 _atom_site_occupancy
  Ho  Ho0  1  0.553920  0.808327  0.175120  1
  Ho  Ho1  1  0.308327  0.053920  0.324880  1
  Ho  Ho2  1  0.191673  0.446080  0.824880  1
  Ho  Ho3  1  0.946080  0.691673  0.675120  1
  Ho  Ho4  1  0.691673  0.946080  0.675120  1
  Ho  Ho5  1  0.446080  0.191673  0.824880  1
  Ho  Ho6  1  0.808327  0.553920  0.175120  1
  Ho  Ho7  1  0.053920  0.308327  0.324880  1
  Tm  Tm8  1  0.500000  0.500000  0.500000  1
  Tm  Tm9  1  0.000000  0.000000  0.000000  1
  Si  Si10  1  0.620746  0.620746  0.876047  1
  Si  Si11  1  0.120746  0.120746  0.623953  1
  Si  Si12  1  0.879254  0.879254  0.376047  1
  Si  Si13  1  0.379254  0.379254  0.123953  1
  Hg  Hg14  1  0.282109  0.717891  0.500000  1
  Hg  Hg15  1  0.217891  0.782109  0.000000  1
  Hg  Hg16  1  0.717891  0.282109  0.500000  1
  Hg  Hg17  1  0.782109  0.217891  0.000000  1
