# generated using pymatgen
data_Li3Er3ZnSi4
_symmetry_space_group_name_H-M   'P 1'
_cell_length_a   8.01462789
_cell_length_b   8.03713543
_cell_length_c   8.03713560
_cell_angle_alpha   149.50939908
_cell_angle_beta   131.33792304
_cell_angle_gamma   58.54540682
_symmetry_Int_Tables_number   1
_chemical_formula_structural   Li3Er3ZnSi4
_chemical_formula_sum   'Li3 Er3 Zn1 Si4'
_cell_volume   195.70189151
_cell_formula_units_Z   1
loop_
 _symmetry_equiv_pos_site_id
 _symmetry_equiv_pos_as_xyz
  1  'x, y, z'
loop_
 _atom_site_type_symbol
 _atom_site_label
 _atom_site_symmetry_multiplicity
 _atom_site_fract_x
 _atom_site_fract_y
 _atom_site_fract_z
 _atom_site_occupancy
  Li  Li0  1  0.518831  0.829040  0.689792  1
  Li  Li1  1  0.861804  0.170647  0.691156  1
  Li  Li2  1  0.138500  0.827665  0.310835  1
  Er  Er3  1  0.869315  0.373731  0.495583  1
  Er  Er4  1  0.124941  0.628099  0.496843  1
  Er  Er5  1  0.501871  0.500178  0.001693  1
  Zn  Zn6  1  0.479132  0.172180  0.306953  1
  Si  Si7  1  0.819516  0.000265  0.819251  1
  Si  Si8  1  0.182996  0.000440  0.182555  1
  Si  Si9  1  0.287521  0.284871  0.002650  1
  Si  Si10  1  0.715572  0.712883  0.002689  1
