# generated using pymatgen
data_Y4NiAu3O14
_symmetry_space_group_name_H-M   'P 1'
_cell_length_a   7.35447542
_cell_length_b   7.34450750
_cell_length_c   7.34450800
_cell_angle_alpha   59.99999775
_cell_angle_beta   60.04482241
_cell_angle_gamma   60.04482030
_symmetry_Int_Tables_number   1
_chemical_formula_structural   Y4NiAu3O14
_chemical_formula_sum   'Y4 Ni1 Au3 O14'
_cell_volume   280.70876549
_cell_formula_units_Z   1
loop_
 _symmetry_equiv_pos_site_id
 _symmetry_equiv_pos_as_xyz
  1  'x, y, z'
loop_
 _atom_site_type_symbol
 _atom_site_label
 _atom_site_symmetry_multiplicity
 _atom_site_fract_x
 _atom_site_fract_y
 _atom_site_fract_z
 _atom_site_occupancy
  Y  Y0  1  0.125000  0.125000  0.125000  1
  Y  Y1  1  0.625000  0.125000  0.125000  1
  Y  Y2  1  0.125000  0.125000  0.625000  1
  Y  Y3  1  0.125000  0.625000  0.125000  1
  Ni  Ni4  1  0.125000  0.625000  0.625000  1
  Au  Au5  1  0.625000  0.625000  0.625000  1
  Au  Au6  1  0.625000  0.625000  0.125000  1
  Au  Au7  1  0.625000  0.125000  0.625000  1
  O  O8  1  0.993860  0.002047  0.002047  1
  O  O9  1  0.256140  0.247953  0.247953  1
  O  O10  1  0.284923  0.277922  0.718578  1
  O  O11  1  0.539394  0.528880  0.965863  1
  O  O12  1  0.710606  0.284137  0.721120  1
  O  O13  1  0.710606  0.284137  0.284137  1
  O  O14  1  0.284923  0.718578  0.718578  1
  O  O15  1  0.284923  0.718578  0.277922  1
  O  O16  1  0.710606  0.721120  0.284137  1
  O  O17  1  0.965077  0.531422  0.531422  1
  O  O18  1  0.539394  0.965863  0.965863  1
  O  O19  1  0.965077  0.972078  0.531422  1
  O  O20  1  0.965077  0.531422  0.972078  1
  O  O21  1  0.539394  0.965863  0.528880  1
