# generated using pymatgen
data_Tb2Ho2Ni13Ir
_symmetry_space_group_name_H-M   'P 1'
_cell_length_a   4.93563213
_cell_length_b   4.93563389
_cell_length_c   12.53940693
_cell_angle_alpha   78.64983011
_cell_angle_beta   78.64982405
_cell_angle_gamma   60.00000861
_symmetry_Int_Tables_number   1
_chemical_formula_structural   Tb2Ho2Ni13Ir
_chemical_formula_sum   'Tb2 Ho2 Ni13 Ir1'
_cell_volume   257.61986692
_cell_formula_units_Z   1
loop_
 _symmetry_equiv_pos_site_id
 _symmetry_equiv_pos_as_xyz
  1  'x, y, z'
loop_
 _atom_site_type_symbol
 _atom_site_label
 _atom_site_symmetry_multiplicity
 _atom_site_fract_x
 _atom_site_fract_y
 _atom_site_fract_z
 _atom_site_occupancy
  Tb  Tb0  1  0.949439  0.949439  0.151681  1
  Tb  Tb1  1  0.050561  0.050561  0.848319  1
  Ho  Ho2  1  0.853295  0.853295  0.440115  1
  Ho  Ho3  1  0.146705  0.146705  0.559885  1
  Ni  Ni4  1  0.720768  0.720768  0.837696  1
  Ni  Ni5  1  0.279232  0.279232  0.162304  1
  Ni  Ni6  1  0.612705  0.612705  0.161885  1
  Ni  Ni7  1  0.387295  0.387295  0.838115  1
  Ni  Ni8  1  0.000000  0.500000  0.000000  1
  Ni  Ni9  1  0.500000  0.000000  0.000000  1
  Ni  Ni10  1  0.500000  0.500000  0.000000  1
  Ni  Ni11  1  0.390798  0.390798  0.324215  1
  Ni  Ni12  1  0.894189  0.390798  0.324215  1
  Ni  Ni13  1  0.390798  0.894189  0.324215  1
  Ni  Ni14  1  0.609202  0.609202  0.675785  1
  Ni  Ni15  1  0.105811  0.609202  0.675785  1
  Ni  Ni16  1  0.609202  0.105811  0.675785  1
  Ir  Ir17  1  0.500000  0.500000  0.500000  1
