# generated using pymatgen
data_CeNpO4
_symmetry_space_group_name_H-M   'P 1'
_cell_length_a   6.68842922
_cell_length_b   6.68842961
_cell_length_c   6.68842971
_cell_angle_alpha   33.28871692
_cell_angle_beta   33.28871531
_cell_angle_gamma   33.28871470
_symmetry_Int_Tables_number   1
_chemical_formula_structural   CeNpO4
_chemical_formula_sum   'Ce1 Np1 O4'
_cell_volume   80.24991423
_cell_formula_units_Z   1
loop_
 _symmetry_equiv_pos_site_id
 _symmetry_equiv_pos_as_xyz
  1  'x, y, z'
loop_
 _atom_site_type_symbol
 _atom_site_label
 _atom_site_symmetry_multiplicity
 _atom_site_fract_x
 _atom_site_fract_y
 _atom_site_fract_z
 _atom_site_occupancy
  Ce  Ce0  1  0.500000  0.500000  0.500000  1
  Np  Np1  1  0.000000  0.000000  0.000000  1
  O  O2  1  0.370976  0.370976  0.370976  1
  O  O3  1  0.877843  0.877843  0.877843  1
  O  O4  1  0.629024  0.629024  0.629024  1
  O  O5  1  0.122157  0.122157  0.122157  1
