# generated using pymatgen
data_Tb5Er15(Bi2Sb)4
_symmetry_space_group_name_H-M   'P 1'
_cell_length_a   8.13661786
_cell_length_b   9.41546331
_cell_length_c   11.90789200
_cell_angle_alpha   89.98890044
_cell_angle_beta   90.02630082
_cell_angle_gamma   90.00952857
_symmetry_Int_Tables_number   1
_chemical_formula_structural   Tb5Er15(Bi2Sb)4
_chemical_formula_sum   'Tb5 Er15 Bi8 Sb4'
_cell_volume   912.26380032
_cell_formula_units_Z   1
loop_
 _symmetry_equiv_pos_site_id
 _symmetry_equiv_pos_as_xyz
  1  'x, y, z'
loop_
 _atom_site_type_symbol
 _atom_site_label
 _atom_site_symmetry_multiplicity
 _atom_site_fract_x
 _atom_site_fract_y
 _atom_site_fract_z
 _atom_site_occupancy
  Tb  Tb0  1  0.188845  0.562420  0.441641  1
  Tb  Tb1  1  0.316130  0.250042  0.217779  1
  Tb  Tb2  1  0.816372  0.250019  0.282139  1
  Tb  Tb3  1  0.683828  0.750120  0.782280  1
  Tb  Tb4  1  0.183869  0.750302  0.718065  1
  Er  Er5  1  0.353710  0.750404  0.214176  1
  Er  Er6  1  0.852654  0.750446  0.285397  1
  Er  Er7  1  0.646981  0.250160  0.785719  1
  Er  Er8  1  0.147130  0.250361  0.714369  1
  Er  Er9  1  0.688739  0.563821  0.058278  1
  Er  Er10  1  0.188624  0.936074  0.441514  1
  Er  Er11  1  0.311224  0.063853  0.941744  1
  Er  Er12  1  0.811573  0.435980  0.558253  1
  Er  Er13  1  0.311333  0.436191  0.941715  1
  Er  Er14  1  0.810736  0.063536  0.558550  1
  Er  Er15  1  0.688823  0.936285  0.058200  1
  Er  Er16  1  0.473161  0.250063  0.488159  1
  Er  Er17  1  0.972996  0.250299  0.011686  1
  Er  Er18  1  0.527412  0.750123  0.511910  1
  Er  Er19  1  0.027017  0.750012  0.988162  1
  Bi  Bi20  1  0.565596  0.995025  0.325897  1
  Bi  Bi21  1  0.065363  0.505357  0.173735  1
  Bi  Bi22  1  0.434457  0.494922  0.674282  1
  Bi  Bi23  1  0.934382  0.005475  0.825986  1
  Bi  Bi24  1  0.434491  0.005404  0.674086  1
  Bi  Bi25  1  0.934236  0.494872  0.826045  1
  Bi  Bi26  1  0.566043  0.505230  0.325780  1
  Bi  Bi27  1  0.065515  0.994846  0.173912  1
  Sb  Sb28  1  0.405968  0.749985  0.959299  1
  Sb  Sb29  1  0.905523  0.750517  0.540869  1
  Sb  Sb30  1  0.593974  0.250036  0.040598  1
  Sb  Sb31  1  0.093295  0.247818  0.459775  1
