# generated using pymatgen
data_LaYbAlRh3
_symmetry_space_group_name_H-M   'P 1'
_cell_length_a   5.14287166
_cell_length_b   5.14287119
_cell_length_c   5.14287173
_cell_angle_alpha   67.44676216
_cell_angle_beta   67.44676756
_cell_angle_gamma   67.44676371
_symmetry_Int_Tables_number   1
_chemical_formula_structural   LaYbAlRh3
_chemical_formula_sum   'La1 Yb1 Al1 Rh3'
_cell_volume   111.46775785
_cell_formula_units_Z   1
loop_
 _symmetry_equiv_pos_site_id
 _symmetry_equiv_pos_as_xyz
  1  'x, y, z'
loop_
 _atom_site_type_symbol
 _atom_site_label
 _atom_site_symmetry_multiplicity
 _atom_site_fract_x
 _atom_site_fract_y
 _atom_site_fract_z
 _atom_site_occupancy
  La  La0  1  0.256233  0.256233  0.256233  1
  Yb  Yb1  1  0.993592  0.993592  0.993592  1
  Al  Al2  1  0.624900  0.624900  0.624900  1
  Rh  Rh3  1  0.626144  0.626144  0.122988  1
  Rh  Rh4  1  0.626144  0.122988  0.626144  1
  Rh  Rh5  1  0.122988  0.626144  0.626144  1
