# generated using pymatgen
data_Sr2Hf2(Al8Pt3)3
_symmetry_space_group_name_H-M   'P 1'
_cell_length_a   7.52657972
_cell_length_b   7.53036531
_cell_length_c   13.17140572
_cell_angle_alpha   84.64227615
_cell_angle_beta   100.89244943
_cell_angle_gamma   119.85952253
_symmetry_Int_Tables_number   1
_chemical_formula_structural   Sr2Hf2(Al8Pt3)3
_chemical_formula_sum   'Sr2 Hf2 Al24 Pt9'
_cell_volume   635.76057021
_cell_formula_units_Z   1
loop_
 _symmetry_equiv_pos_site_id
 _symmetry_equiv_pos_as_xyz
  1  'x, y, z'
loop_
 _atom_site_type_symbol
 _atom_site_label
 _atom_site_symmetry_multiplicity
 _atom_site_fract_x
 _atom_site_fract_y
 _atom_site_fract_z
 _atom_site_occupancy
  Sr  Sr0  1  0.769438  0.502536  0.809725  1
  Sr  Sr1  1  0.230562  0.497464  0.190275  1
  Hf  Hf2  1  0.437260  0.830908  0.807635  1
  Hf  Hf3  1  0.562740  0.169092  0.192365  1
  Al  Al4  1  0.481969  0.161837  0.945671  1
  Al  Al5  1  0.518031  0.838163  0.054329  1
  Al  Al6  1  0.020259  0.167133  0.561605  1
  Al  Al7  1  0.979741  0.832867  0.438395  1
  Al  Al8  1  0.353591  0.833714  0.559440  1
  Al  Al9  1  0.646409  0.166286  0.440560  1
  Al  Al10  1  0.616754  0.835756  0.329374  1
  Al  Al11  1  0.383246  0.164244  0.670626  1
  Al  Al12  1  0.058271  0.496140  0.671013  1
  Al  Al13  1  0.941729  0.503860  0.328987  1
  Al  Al14  1  0.727795  0.839407  0.670010  1
  Al  Al15  1  0.272205  0.160593  0.329990  1
  Al  Al16  1  0.152310  0.503049  0.943681  1
  Al  Al17  1  0.847690  0.496951  0.056319  1
  Al  Al18  1  0.813540  0.834154  0.953054  1
  Al  Al19  1  0.186460  0.165846  0.046946  1
  Al  Al20  1  0.314033  0.500572  0.441161  1
  Al  Al21  1  0.685967  0.499428  0.558839  1
  Al  Al22  1  0.110547  0.848676  0.183734  1
  Al  Al23  1  0.889453  0.151324  0.816266  1
  Al  Al24  1  0.303481  0.376301  0.814909  1
  Al  Al25  1  0.696519  0.623699  0.185091  1
  Al  Al26  1  0.116573  0.965021  0.815509  1
  Al  Al27  1  0.883427  0.034979  0.184491  1
  Pt  Pt28  1  0.385346  0.509071  0.637657  1
  Pt  Pt29  1  0.614654  0.490929  0.362343  1
  Pt  Pt30  1  0.170258  0.829310  0.999499  1
  Pt  Pt31  1  0.829742  0.170690  0.000501  1
  Pt  Pt32  1  0.296252  0.835695  0.362254  1
  Pt  Pt33  1  0.703748  0.164305  0.637746  1
  Pt  Pt34  1  0.048255  0.827410  0.636397  1
  Pt  Pt35  1  0.951745  0.172590  0.363603  1
  Pt  Pt36  1  0.500000  0.500000  0.000000  1
