# generated using pymatgen
data_Cs4Sm4Si3GeSe16
_symmetry_space_group_name_H-M   'P 1'
_cell_length_a   6.77831320
_cell_length_b   7.14904602
_cell_length_c   18.68843299
_cell_angle_alpha   90.10011884
_cell_angle_beta   89.96578011
_cell_angle_gamma   89.83645980
_symmetry_Int_Tables_number   1
_chemical_formula_structural   Cs4Sm4Si3GeSe16
_chemical_formula_sum   'Cs4 Sm4 Si3 Ge1 Se16'
_cell_volume   905.60768885
_cell_formula_units_Z   1
loop_
 _symmetry_equiv_pos_site_id
 _symmetry_equiv_pos_as_xyz
  1  'x, y, z'
loop_
 _atom_site_type_symbol
 _atom_site_label
 _atom_site_symmetry_multiplicity
 _atom_site_fract_x
 _atom_site_fract_y
 _atom_site_fract_z
 _atom_site_occupancy
  Cs  Cs0  1  0.996007  0.007495  0.031994  1
  Cs  Cs1  1  0.503636  0.992465  0.531686  1
  Cs  Cs2  1  0.495338  0.493027  0.968896  1
  Cs  Cs3  1  0.003076  0.507506  0.467583  1
  Sm  Sm4  1  0.207148  0.515532  0.727781  1
  Sm  Sm5  1  0.292715  0.483848  0.227606  1
  Sm  Sm6  1  0.707341  0.983715  0.272351  1
  Sm  Sm7  1  0.793544  0.016674  0.772897  1
  Si  Si8  1  0.288957  0.978897  0.833420  1
  Si  Si9  1  0.211214  0.021075  0.333301  1
  Si  Si10  1  0.788621  0.520866  0.166654  1
  Ge  Ge11  1  0.711100  0.481099  0.665672  1
  Se  Se12  1  0.393890  0.915301  0.719347  1
  Se  Se13  1  0.107830  0.083815  0.219289  1
  Se  Se14  1  0.892087  0.583803  0.280695  1
  Se  Se15  1  0.602491  0.412019  0.783663  1
  Se  Se16  1  0.102882  0.247581  0.846794  1
  Se  Se17  1  0.397132  0.752583  0.346415  1
  Se  Se18  1  0.603762  0.252397  0.153510  1
  Se  Se19  1  0.905389  0.757525  0.652581  1
  Se  Se20  1  0.062112  0.746646  0.855504  1
  Se  Se21  1  0.437503  0.253536  0.355447  1
  Se  Se22  1  0.561355  0.753399  0.144617  1
  Se  Se23  1  0.948441  0.239172  0.644709  1
  Se  Se24  1  0.432985  0.485603  0.589915  1
  Se  Se25  1  0.054309  0.514497  0.092620  1
  Se  Se26  1  0.945456  0.015134  0.407303  1
  Se  Se27  1  0.553681  0.984791  0.907751  1
