# generated using pymatgen
data_Ho3Er5Si8Pd5Pt3
_symmetry_space_group_name_H-M   'P 1'
_cell_length_a   4.27686100
_cell_length_b   7.48570506
_cell_length_c   13.93565301
_cell_angle_alpha   90.00488694
_cell_angle_beta   90.00000000
_cell_angle_gamma   90.00000000
_symmetry_Int_Tables_number   1
_chemical_formula_structural   Ho3Er5Si8Pd5Pt3
_chemical_formula_sum   'Ho3 Er5 Si8 Pd5 Pt3'
_cell_volume   446.15438953
_cell_formula_units_Z   1
loop_
 _symmetry_equiv_pos_site_id
 _symmetry_equiv_pos_as_xyz
  1  'x, y, z'
loop_
 _atom_site_type_symbol
 _atom_site_label
 _atom_site_symmetry_multiplicity
 _atom_site_fract_x
 _atom_site_fract_y
 _atom_site_fract_z
 _atom_site_occupancy
  Ho  Ho0  1  0.000000  0.299608  0.000108  1
  Ho  Ho1  1  0.500000  0.701755  0.500225  1
  Ho  Ho2  1  0.000000  0.292018  0.499916  1
  Er  Er3  1  0.500000  0.708303  0.999755  1
  Er  Er4  1  0.000000  0.205410  0.250373  1
  Er  Er5  1  0.500000  0.793411  0.250142  1
  Er  Er6  1  0.000000  0.205055  0.749760  1
  Er  Er7  1  0.500000  0.794785  0.750445  1
  Si  Si8  1  0.000000  0.908375  0.592645  1
  Si  Si9  1  0.500000  0.091273  0.908637  1
  Si  Si10  1  0.000000  0.908149  0.406980  1
  Si  Si11  1  0.500000  0.093606  0.093560  1
  Si  Si12  1  0.000000  0.593231  0.143884  1
  Si  Si13  1  0.500000  0.405542  0.356713  1
  Si  Si14  1  0.000000  0.594616  0.856732  1
  Si  Si15  1  0.500000  0.405291  0.643068  1
  Pd  Pd16  1  0.000000  0.923631  0.107257  1
  Pd  Pd17  1  0.500000  0.421429  0.157501  1
  Pd  Pd18  1  0.000000  0.579716  0.341877  1
  Pd  Pd19  1  0.500000  0.420860  0.842593  1
  Pd  Pd20  1  0.000000  0.579181  0.658008  1
  Pt  Pt21  1  0.500000  0.074956  0.609313  1
  Pt  Pt22  1  0.000000  0.924867  0.890343  1
  Pt  Pt23  1  0.500000  0.074933  0.390166  1
