# generated using pymatgen
data_Re5Ir2Ru
_symmetry_space_group_name_H-M   'P 1'
_cell_length_a   5.57041963
_cell_length_b   5.57041872
_cell_length_c   4.39286300
_cell_angle_alpha   90.00000000
_cell_angle_beta   90.00000000
_cell_angle_gamma   120.05453637
_symmetry_Int_Tables_number   1
_chemical_formula_structural   Re5Ir2Ru
_chemical_formula_sum   'Re5 Ir2 Ru1'
_cell_volume   117.98182732
_cell_formula_units_Z   1
loop_
 _symmetry_equiv_pos_site_id
 _symmetry_equiv_pos_as_xyz
  1  'x, y, z'
loop_
 _atom_site_type_symbol
 _atom_site_label
 _atom_site_symmetry_multiplicity
 _atom_site_fract_x
 _atom_site_fract_y
 _atom_site_fract_z
 _atom_site_occupancy
  Re  Re0  1  0.158132  0.323685  0.250000  1
  Re  Re1  1  0.676315  0.841868  0.250000  1
  Re  Re2  1  0.162101  0.837899  0.250000  1
  Re  Re3  1  0.835920  0.674265  0.750000  1
  Re  Re4  1  0.325735  0.164080  0.750000  1
  Ir  Ir5  1  0.336062  0.663938  0.750000  1
  Ir  Ir6  1  0.668545  0.331455  0.250000  1
  Ru  Ru7  1  0.837192  0.162808  0.750000  1
