# generated using pymatgen
data_BaMg2Fe(PO4)3
_symmetry_space_group_name_H-M   'P 1'
_cell_length_a   9.19942324
_cell_length_b   9.19942396
_cell_length_c   9.19942345
_cell_angle_alpha   137.17820606
_cell_angle_beta   109.62115866
_cell_angle_gamma   86.02789509
_symmetry_Int_Tables_number   1
_chemical_formula_structural   BaMg2Fe(PO4)3
_chemical_formula_sum   'Ba2 Mg4 Fe2 P6 O24'
_cell_volume   479.02948731
_cell_formula_units_Z   2
loop_
 _symmetry_equiv_pos_site_id
 _symmetry_equiv_pos_as_xyz
  1  'x, y, z'
loop_
 _atom_site_type_symbol
 _atom_site_label
 _atom_site_symmetry_multiplicity
 _atom_site_fract_x
 _atom_site_fract_y
 _atom_site_fract_z
 _atom_site_occupancy
  Ba  Ba0  1  0.250000  0.356206  0.106206  1
  Ba  Ba1  1  0.750000  0.643794  0.893794  1
  Mg  Mg2  1  0.116412  0.116412  0.500000  1
  Mg  Mg3  1  0.383588  0.883588  0.000000  1
  Mg  Mg4  1  0.616412  0.116412  0.000000  1
  Mg  Mg5  1  0.883588  0.883588  0.500000  1
  Fe  Fe6  1  0.000000  0.500000  0.500000  1
  Fe  Fe7  1  0.500000  0.000000  0.500000  1
  P  P8  1  0.250000  0.849413  0.599413  1
  P  P9  1  0.750000  0.150587  0.400587  1
  P  P10  1  0.319611  0.319611  0.500000  1
  P  P11  1  0.180389  0.680389  0.000000  1
  P  P12  1  0.819611  0.319611  0.000000  1
  P  P13  1  0.680389  0.680389  0.500000  1
  O  O14  1  0.344387  0.813467  0.469081  1
  O  O15  1  0.655613  0.186533  0.530919  1
  O  O16  1  0.844387  0.375306  0.530919  1
  O  O17  1  0.155613  0.624694  0.469081  1
  O  O18  1  0.131034  0.986498  0.617531  1
  O  O19  1  0.631034  0.013502  0.144536  1
  O  O20  1  0.868966  0.013502  0.382469  1
  O  O21  1  0.368966  0.986498  0.855464  1
  O  O22  1  0.347865  0.198316  0.282432  1
  O  O23  1  0.084116  0.801684  0.149549  1
  O  O24  1  0.847865  0.565432  0.149549  1
  O  O25  1  0.584116  0.434568  0.282432  1
  O  O26  1  0.652135  0.801684  0.717568  1
  O  O27  1  0.915884  0.198316  0.850451  1
  O  O28  1  0.152135  0.434568  0.850451  1
  O  O29  1  0.415884  0.565432  0.717568  1
  O  O30  1  0.132176  0.288046  0.432236  1
  O  O31  1  0.144191  0.711954  0.844132  1
  O  O32  1  0.632176  0.199941  0.844132  1
  O  O33  1  0.644191  0.800059  0.432236  1
  O  O34  1  0.867824  0.711954  0.567764  1
  O  O35  1  0.855809  0.288046  0.155868  1
  O  O36  1  0.367824  0.800059  0.155868  1
  O  O37  1  0.355809  0.199941  0.567764  1
