# generated using pymatgen
data_Pr2HfAlPt2
_symmetry_space_group_name_H-M   'P 1'
_cell_length_a   4.54739700
_cell_length_b   7.48475900
_cell_length_c   8.01011800
_cell_angle_alpha   90.00000000
_cell_angle_beta   90.00000000
_cell_angle_gamma   90.00000000
_symmetry_Int_Tables_number   1
_chemical_formula_structural   Pr2HfAlPt2
_chemical_formula_sum   'Pr4 Hf2 Al2 Pt4'
_cell_volume   272.63374295
_cell_formula_units_Z   2
loop_
 _symmetry_equiv_pos_site_id
 _symmetry_equiv_pos_as_xyz
  1  'x, y, z'
loop_
 _atom_site_type_symbol
 _atom_site_label
 _atom_site_symmetry_multiplicity
 _atom_site_fract_x
 _atom_site_fract_y
 _atom_site_fract_z
 _atom_site_occupancy
  Pr  Pr0  1  0.250000  0.547776  0.826046  1
  Pr  Pr1  1  0.250000  0.015758  0.672014  1
  Pr  Pr2  1  0.750000  0.952224  0.326046  1
  Pr  Pr3  1  0.750000  0.484242  0.172014  1
  Hf  Hf4  1  0.250000  0.129263  0.063842  1
  Hf  Hf5  1  0.750000  0.370737  0.563842  1
  Al  Al6  1  0.250000  0.639775  0.433544  1
  Al  Al7  1  0.750000  0.860225  0.933544  1
  Pt  Pt8  1  0.250000  0.779957  0.119900  1
  Pt  Pt9  1  0.250000  0.286186  0.384655  1
  Pt  Pt10  1  0.750000  0.720043  0.619900  1
  Pt  Pt11  1  0.750000  0.213814  0.884655  1
