# generated using pymatgen
data_Tb4Y4Re3B24Os
_symmetry_space_group_name_H-M   'P 1'
_cell_length_a   3.68351700
_cell_length_b   9.18923054
_cell_length_c   11.58205207
_cell_angle_alpha   89.93275695
_cell_angle_beta   90.00000000
_cell_angle_gamma   90.00000000
_symmetry_Int_Tables_number   1
_chemical_formula_structural   Tb4Y4Re3B24Os
_chemical_formula_sum   'Tb4 Y4 Re3 B24 Os1'
_cell_volume   392.03698411
_cell_formula_units_Z   1
loop_
 _symmetry_equiv_pos_site_id
 _symmetry_equiv_pos_as_xyz
  1  'x, y, z'
loop_
 _atom_site_type_symbol
 _atom_site_label
 _atom_site_symmetry_multiplicity
 _atom_site_fract_x
 _atom_site_fract_y
 _atom_site_fract_z
 _atom_site_occupancy
  Tb  Tb0  1  0.000000  0.822053  0.085724  1
  Tb  Tb1  1  0.000000  0.177310  0.912556  1
  Tb  Tb2  1  0.000000  0.324560  0.415571  1
  Tb  Tb3  1  0.000000  0.676614  0.586347  1
  Y  Y4  1  0.000000  0.442354  0.129983  1
  Y  Y5  1  0.000000  0.556865  0.870600  1
  Y  Y6  1  0.000000  0.942378  0.370174  1
  Y  Y7  1  0.000000  0.057307  0.629170  1
  Re  Re8  1  0.000000  0.862304  0.821888  1
  Re  Re9  1  0.000000  0.638279  0.320408  1
  Re  Re10  1  0.000000  0.361786  0.679101  1
  B  B11  1  0.500000  0.053790  0.067495  1
  B  B12  1  0.500000  0.947025  0.932849  1
  B  B13  1  0.500000  0.553122  0.432847  1
  B  B14  1  0.500000  0.446911  0.567370  1
  B  B15  1  0.500000  0.247931  0.081948  1
  B  B16  1  0.500000  0.751344  0.918413  1
  B  B17  1  0.500000  0.748524  0.418315  1
  B  B18  1  0.500000  0.251870  0.581625  1
  B  B19  1  0.500000  0.290157  0.234362  1
  B  B20  1  0.500000  0.708866  0.765762  1
  B  B21  1  0.500000  0.790994  0.265231  1
  B  B22  1  0.500000  0.208762  0.734154  1
  B  B23  1  0.500000  0.131055  0.313772  1
  B  B24  1  0.500000  0.869556  0.686248  1
  B  B25  1  0.500000  0.630868  0.185490  1
  B  B26  1  0.500000  0.369007  0.814067  1
  B  B27  1  0.500000  0.482519  0.288164  1
  B  B28  1  0.500000  0.517584  0.712187  1
  B  B29  1  0.500000  0.983375  0.211750  1
  B  B30  1  0.500000  0.018049  0.788070  1
  B  B31  1  0.500000  0.101855  0.471119  1
  B  B32  1  0.500000  0.898384  0.528107  1
  B  B33  1  0.500000  0.601006  0.028559  1
  B  B34  1  0.500000  0.397678  0.971772  1
  Os  Os35  1  0.000000  0.137957  0.178801  1
