# generated using pymatgen
data_Li4La3TmSi8
_symmetry_space_group_name_H-M   'P 1'
_cell_length_a   3.89419800
_cell_length_b   7.77421772
_cell_length_c   10.53955906
_cell_angle_alpha   89.74947883
_cell_angle_beta   90.00000000
_cell_angle_gamma   90.00000000
_symmetry_Int_Tables_number   1
_chemical_formula_structural   Li4La3TmSi8
_chemical_formula_sum   'Li4 La3 Tm1 Si8'
_cell_volume   319.07517702
_cell_formula_units_Z   1
loop_
 _symmetry_equiv_pos_site_id
 _symmetry_equiv_pos_as_xyz
  1  'x, y, z'
loop_
 _atom_site_type_symbol
 _atom_site_label
 _atom_site_symmetry_multiplicity
 _atom_site_fract_x
 _atom_site_fract_y
 _atom_site_fract_z
 _atom_site_occupancy
  Li  Li0  1  0.250000  0.994681  0.389655  1
  Li  Li1  1  0.750000  0.002799  0.610955  1
  Li  Li2  1  0.250000  0.495889  0.105905  1
  Li  Li3  1  0.750000  0.510465  0.890855  1
  La  La4  1  0.750000  0.863415  0.135286  1
  La  La5  1  0.250000  0.637402  0.638110  1
  La  La6  1  0.750000  0.358810  0.364908  1
  Tm  Tm7  1  0.250000  0.130565  0.864825  1
  Si  Si8  1  0.750000  0.272242  0.061589  1
  Si  Si9  1  0.250000  0.738178  0.928587  1
  Si  Si10  1  0.750000  0.772636  0.428907  1
  Si  Si11  1  0.250000  0.218729  0.580068  1
  Si  Si12  1  0.750000  0.845137  0.821991  1
  Si  Si13  1  0.250000  0.165901  0.169820  1
  Si  Si14  1  0.750000  0.328340  0.685977  1
  Si  Si15  1  0.250000  0.664811  0.322560  1
