# generated using pymatgen
data_PrBi9(MoO8)3
_symmetry_space_group_name_H-M   'P 1'
_cell_length_a   12.26589674
_cell_length_b   12.31685678
_cell_length_c   8.87315085
_cell_angle_alpha   84.98846681
_cell_angle_beta   85.19733025
_cell_angle_gamma   27.26003787
_symmetry_Int_Tables_number   1
_chemical_formula_structural   PrBi9(MoO8)3
_chemical_formula_sum   'Pr1 Bi9 Mo3 O24'
_cell_volume   611.60185750
_cell_formula_units_Z   1
loop_
 _symmetry_equiv_pos_site_id
 _symmetry_equiv_pos_as_xyz
  1  'x, y, z'
loop_
 _atom_site_type_symbol
 _atom_site_label
 _atom_site_symmetry_multiplicity
 _atom_site_fract_x
 _atom_site_fract_y
 _atom_site_fract_z
 _atom_site_occupancy
  Pr  Pr0  1  0.452854  0.474321  0.299617  1
  Bi  Bi1  1  0.599480  0.787743  0.454657  1
  Bi  Bi2  1  0.528926  0.544299  0.664765  1
  Bi  Bi3  1  0.194501  0.275945  0.192357  1
  Bi  Bi4  1  0.060753  0.086331  0.414730  1
  Bi  Bi5  1  0.208594  0.405282  0.546166  1
  Bi  Bi6  1  0.124613  0.175660  0.749806  1
  Bi  Bi7  1  0.918615  0.930759  0.580129  1
  Bi  Bi8  1  0.820552  0.877914  0.252086  1
  Bi  Bi9  1  0.730167  0.795136  0.812221  1
  Mo  Mo10  1  0.330601  0.420754  0.930014  1
  Mo  Mo11  1  0.001700  0.001720  0.001182  1
  Mo  Mo12  1  0.563966  0.683917  0.073075  1
  O  O13  1  0.893292  0.760598  0.646922  1
  O  O14  1  0.383231  0.962221  0.012679  1
  O  O15  1  0.239728  0.103389  0.354762  1
  O  O16  1  0.224881  0.901077  0.926820  1
  O  O17  1  0.714891  0.288644  0.496633  1
  O  O18  1  0.001784  0.544020  0.353559  1
  O  O19  1  0.225688  0.773883  0.494636  1
  O  O20  1  0.824453  0.209311  0.150611  1
  O  O21  1  0.727395  0.494670  0.914134  1
  O  O22  1  0.513706  0.278134  0.093777  1
  O  O23  1  0.470018  0.189607  0.835520  1
  O  O24  1  0.293197  0.563775  0.785352  1
  O  O25  1  0.659989  0.131185  0.401332  1
  O  O26  1  0.789942  0.546113  0.181996  1
  O  O27  1  0.428604  0.703323  0.211092  1
  O  O28  1  0.862464  0.349573  0.591312  1
  O  O29  1  0.143534  0.753404  0.087354  1
  O  O30  1  0.353670  0.862371  0.580492  1
  O  O31  1  0.980090  0.471747  0.693158  1
  O  O32  1  0.129786  0.646528  0.413161  1
  O  O33  1  0.521078  0.027247  0.313564  1
  O  O34  1  0.821522  0.134376  0.845541  1
  O  O35  1  0.048768  0.609836  0.992735  1
  O  O36  1  0.457549  0.990608  0.652053  1
