# generated using pymatgen
data_Nd3In2SnPd3
_symmetry_space_group_name_H-M   'P 1'
_cell_length_a   7.76688100
_cell_length_b   7.78238890
_cell_length_c   4.05148200
_cell_angle_alpha   90.00000000
_cell_angle_beta   90.00000000
_cell_angle_gamma   119.93410842
_symmetry_Int_Tables_number   1
_chemical_formula_structural   Nd3In2SnPd3
_chemical_formula_sum   'Nd3 In2 Sn1 Pd3'
_cell_volume   212.22282948
_cell_formula_units_Z   1
loop_
 _symmetry_equiv_pos_site_id
 _symmetry_equiv_pos_as_xyz
  1  'x, y, z'
loop_
 _atom_site_type_symbol
 _atom_site_label
 _atom_site_symmetry_multiplicity
 _atom_site_fract_x
 _atom_site_fract_y
 _atom_site_fract_z
 _atom_site_occupancy
  Nd  Nd0  1  0.000323  0.589226  0.000000  1
  Nd  Nd1  1  0.411096  0.410774  0.000000  1
  Nd  Nd2  1  0.590091  0.000000  0.000000  1
  In  In3  1  0.746009  0.745841  0.500000  1
  In  In4  1  0.000167  0.254159  0.500000  1
  Sn  Sn5  1  0.251281  0.000000  0.500000  1
  Pd  Pd6  1  0.665503  0.332118  0.500000  1
  Pd  Pd7  1  0.002147  0.000000  0.000000  1
  Pd  Pd8  1  0.333384  0.667882  0.500000  1
