# generated using pymatgen
data_Zr3VBr12
_symmetry_space_group_name_H-M   'P 1'
_cell_length_a   6.32874601
_cell_length_b   7.33623659
_cell_length_c   12.76704500
_cell_angle_alpha   90.00000000
_cell_angle_beta   90.00000000
_cell_angle_gamma   90.02002432
_symmetry_Int_Tables_number   1
_chemical_formula_structural   Zr3VBr12
_chemical_formula_sum   'Zr3 V1 Br12'
_cell_volume   592.76336912
_cell_formula_units_Z   1
loop_
 _symmetry_equiv_pos_site_id
 _symmetry_equiv_pos_as_xyz
  1  'x, y, z'
loop_
 _atom_site_type_symbol
 _atom_site_label
 _atom_site_symmetry_multiplicity
 _atom_site_fract_x
 _atom_site_fract_y
 _atom_site_fract_z
 _atom_site_occupancy
  Zr  Zr0  1  0.750221  0.752047  0.500000  1
  Zr  Zr1  1  0.252315  0.247867  0.000000  1
  Zr  Zr2  1  0.747361  0.247852  0.000000  1
  V  V3  1  0.250097  0.752053  0.500000  1
  Br  Br4  1  0.006378  0.608132  0.643112  1
  Br  Br5  1  0.006223  0.039550  0.500000  1
  Br  Br6  1  0.999744  0.098830  0.850902  1
  Br  Br7  1  0.999744  0.098830  0.149098  1
  Br  Br8  1  0.493961  0.896062  0.356936  1
  Br  Br9  1  0.499975  0.398418  0.150333  1
  Br  Br10  1  0.493953  0.464653  0.500000  1
  Br  Br11  1  0.493961  0.896062  0.643064  1
  Br  Br12  1  0.499975  0.398418  0.849667  1
  Br  Br13  1  0.499692  0.945913  0.000000  1
  Br  Br14  1  0.000023  0.547178  0.000000  1
  Br  Br15  1  0.006378  0.608132  0.356888  1
