# generated using pymatgen
data_DyTm2Lu(Al3Ir)6
_symmetry_space_group_name_H-M   'P 1'
_cell_length_a   7.53222501
_cell_length_b   7.53523960
_cell_length_c   9.43529700
_cell_angle_alpha   90.00000000
_cell_angle_beta   90.00000000
_cell_angle_gamma   119.49604506
_symmetry_Int_Tables_number   1
_chemical_formula_structural   DyTm2Lu(Al3Ir)6
_chemical_formula_sum   'Dy1 Tm2 Lu1 Al18 Ir6'
_cell_volume   466.11133236
_cell_formula_units_Z   1
loop_
 _symmetry_equiv_pos_site_id
 _symmetry_equiv_pos_as_xyz
  1  'x, y, z'
loop_
 _atom_site_type_symbol
 _atom_site_label
 _atom_site_symmetry_multiplicity
 _atom_site_fract_x
 _atom_site_fract_y
 _atom_site_fract_z
 _atom_site_occupancy
  Dy  Dy0  1  0.994619  0.671830  0.250000  1
  Tm  Tm1  1  0.005319  0.327509  0.750000  1
  Tm  Tm2  1  0.672269  0.994662  0.250000  1
  Lu  Lu3  1  0.327608  0.005618  0.750000  1
  Al  Al4  1  0.129820  0.130257  0.250000  1
  Al  Al5  1  0.870535  0.870827  0.750000  1
  Al  Al6  1  0.000752  0.334937  0.073990  1
  Al  Al7  1  0.999740  0.664724  0.923499  1
  Al  Al8  1  0.999740  0.664724  0.576501  1
  Al  Al9  1  0.335838  0.001081  0.426189  1
  Al  Al10  1  0.000752  0.334937  0.426010  1
  Al  Al11  1  0.664184  0.999582  0.575516  1
  Al  Al12  1  0.664184  0.999582  0.924484  1
  Al  Al13  1  0.335838  0.001081  0.073811  1
  Al  Al14  1  0.332899  0.332718  0.552900  1
  Al  Al15  1  0.666731  0.667042  0.449725  1
  Al  Al16  1  0.666731  0.667042  0.050275  1
  Al  Al17  1  0.332899  0.332718  0.947100  1
  Al  Al18  1  0.340984  0.549456  0.250000  1
  Al  Al19  1  0.659268  0.449901  0.750000  1
  Al  Al20  1  0.548578  0.339126  0.250000  1
  Al  Al21  1  0.450352  0.660304  0.750000  1
  Ir  Ir22  1  0.671967  0.327516  0.999469  1
  Ir  Ir23  1  0.327783  0.672276  0.999507  1
  Ir  Ir24  1  0.327783  0.672276  0.500493  1
  Ir  Ir25  1  0.671967  0.327516  0.500531  1
  Ir  Ir26  1  0.000430  0.000379  0.999334  1
  Ir  Ir27  1  0.000430  0.000379  0.500666  1
