# generated using pymatgen
data_Lu2CrPdF14
_symmetry_space_group_name_H-M   'P 1'
_cell_length_a   5.41224409
_cell_length_b   8.62976107
_cell_length_c   11.65513599
_cell_angle_alpha   63.11523065
_cell_angle_beta   90.01152756
_cell_angle_gamma   90.06931873
_symmetry_Int_Tables_number   1
_chemical_formula_structural   Lu2CrPdF14
_chemical_formula_sum   'Lu4 Cr2 Pd2 F28'
_cell_volume   485.53210931
_cell_formula_units_Z   2
loop_
 _symmetry_equiv_pos_site_id
 _symmetry_equiv_pos_as_xyz
  1  'x, y, z'
loop_
 _atom_site_type_symbol
 _atom_site_label
 _atom_site_symmetry_multiplicity
 _atom_site_fract_x
 _atom_site_fract_y
 _atom_site_fract_z
 _atom_site_occupancy
  Lu  Lu0  1  0.262137  0.813178  0.261865  1
  Lu  Lu1  1  0.737863  0.186822  0.738135  1
  Lu  Lu2  1  0.765081  0.187333  0.232301  1
  Lu  Lu3  1  0.234919  0.812667  0.767699  1
  Cr  Cr4  1  0.758411  0.726013  0.043845  1
  Cr  Cr5  1  0.241589  0.273987  0.956155  1
  Pd  Pd6  1  0.260126  0.271873  0.456268  1
  Pd  Pd7  1  0.739874  0.728127  0.543732  1
  F  F8  1  0.934419  0.699252  0.414227  1
  F  F9  1  0.065581  0.300748  0.585773  1
  F  F10  1  0.435524  0.295170  0.078289  1
  F  F11  1  0.564476  0.704830  0.921711  1
  F  F12  1  0.474050  0.730191  0.135170  1
  F  F13  1  0.525950  0.269809  0.864830  1
  F  F14  1  0.961095  0.279033  0.360883  1
  F  F15  1  0.038905  0.720967  0.639117  1
  F  F16  1  0.949960  0.749193  0.169701  1
  F  F17  1  0.050040  0.250807  0.830299  1
  F  F18  1  0.449188  0.254191  0.319234  1
  F  F19  1  0.550812  0.745809  0.680766  1
  F  F20  1  0.776492  0.487158  0.137571  1
  F  F21  1  0.223508  0.512842  0.862429  1
  F  F22  1  0.279256  0.524334  0.355244  1
  F  F23  1  0.720744  0.475666  0.644756  1
  F  F24  1  0.946412  0.276037  0.043543  1
  F  F25  1  0.053588  0.723963  0.956457  1
  F  F26  1  0.433124  0.723862  0.456942  1
  F  F27  1  0.566876  0.276138  0.543058  1
  F  F28  1  0.747221  0.979400  0.450150  1
  F  F29  1  0.252779  0.020600  0.549850  1
  F  F30  1  0.245374  0.035645  0.046820  1
  F  F31  1  0.754626  0.964355  0.953180  1
  F  F32  1  0.584323  0.971958  0.230141  1
  F  F33  1  0.415677  0.028042  0.769859  1
  F  F34  1  0.084879  0.027942  0.268241  1
  F  F35  1  0.915121  0.972058  0.731759  1
