# generated using pymatgen
data_Tm4Pa4Re3B24Mo
_symmetry_space_group_name_H-M   'P 1'
_cell_length_a   3.71113500
_cell_length_b   9.12656009
_cell_length_c   11.49155811
_cell_angle_alpha   89.98380937
_cell_angle_beta   90.00000000
_cell_angle_gamma   90.00000000
_symmetry_Int_Tables_number   1
_chemical_formula_structural   Tm4Pa4Re3B24Mo
_chemical_formula_sum   'Tm4 Pa4 Re3 B24 Mo1'
_cell_volume   389.21786939
_cell_formula_units_Z   1
loop_
 _symmetry_equiv_pos_site_id
 _symmetry_equiv_pos_as_xyz
  1  'x, y, z'
loop_
 _atom_site_type_symbol
 _atom_site_label
 _atom_site_symmetry_multiplicity
 _atom_site_fract_x
 _atom_site_fract_y
 _atom_site_fract_z
 _atom_site_occupancy
  Tm  Tm0  1  0.000000  0.944727  0.374129  1
  Tm  Tm1  1  0.000000  0.055088  0.625857  1
  Tm  Tm2  1  0.000000  0.445515  0.125902  1
  Tm  Tm3  1  0.000000  0.555148  0.874124  1
  Pa  Pa4  1  0.000000  0.322589  0.412974  1
  Pa  Pa5  1  0.000000  0.678328  0.585627  1
  Pa  Pa6  1  0.000000  0.821140  0.087498  1
  Pa  Pa7  1  0.000000  0.177982  0.913745  1
  Re  Re8  1  0.000000  0.360891  0.679152  1
  Re  Re9  1  0.000000  0.138957  0.178416  1
  Re  Re10  1  0.000000  0.861459  0.821195  1
  B  B11  1  0.500000  0.552999  0.433670  1
  B  B12  1  0.500000  0.446384  0.567190  1
  B  B13  1  0.500000  0.053416  0.066874  1
  B  B14  1  0.500000  0.946624  0.933177  1
  B  B15  1  0.500000  0.749324  0.420533  1
  B  B16  1  0.500000  0.250921  0.580180  1
  B  B17  1  0.500000  0.249457  0.080147  1
  B  B18  1  0.500000  0.750511  0.919745  1
  B  B19  1  0.500000  0.793973  0.264814  1
  B  B20  1  0.500000  0.206715  0.734543  1
  B  B21  1  0.500000  0.292862  0.234603  1
  B  B22  1  0.500000  0.706982  0.765473  1
  B  B23  1  0.500000  0.632558  0.184111  1
  B  B24  1  0.500000  0.367721  0.815425  1
  B  B25  1  0.500000  0.132045  0.315088  1
  B  B26  1  0.500000  0.867934  0.684618  1
  B  B27  1  0.500000  0.982492  0.213526  1
  B  B28  1  0.500000  0.017497  0.786350  1
  B  B29  1  0.500000  0.481449  0.286393  1
  B  B30  1  0.500000  0.517305  0.713630  1
  B  B31  1  0.500000  0.608077  0.029389  1
  B  B32  1  0.500000  0.391986  0.970074  1
  B  B33  1  0.500000  0.107892  0.470205  1
  B  B34  1  0.500000  0.892302  0.530468  1
  Mo  Mo35  1  0.000000  0.638749  0.321153  1
