# generated using pymatgen
data_HgIr4Pb3O13
_symmetry_space_group_name_H-M   'P 1'
_cell_length_a   7.36330600
_cell_length_b   7.36330628
_cell_length_c   7.29341724
_cell_angle_alpha   120.31749437
_cell_angle_beta   90.00000000
_cell_angle_gamma   119.99999874
_symmetry_Int_Tables_number   1
_chemical_formula_structural   HgIr4Pb3O13
_chemical_formula_sum   'Hg1 Ir4 Pb3 O13'
_cell_volume   278.26647188
_cell_formula_units_Z   1
loop_
 _symmetry_equiv_pos_site_id
 _symmetry_equiv_pos_as_xyz
  1  'x, y, z'
loop_
 _atom_site_type_symbol
 _atom_site_label
 _atom_site_symmetry_multiplicity
 _atom_site_fract_x
 _atom_site_fract_y
 _atom_site_fract_z
 _atom_site_occupancy
  Hg  Hg0  1  0.119107  0.238212  0.357319  1
  Ir  Ir1  1  0.626391  0.252782  0.375952  1
  Ir  Ir2  1  0.123170  0.749560  0.375952  1
  Ir  Ir3  1  0.626391  0.749560  0.375952  1
  Ir  Ir4  1  0.625363  0.250725  0.876088  1
  Pb  Pb5  1  0.125792  0.251583  0.878760  1
  Pb  Pb6  1  0.125792  0.752968  0.878760  1
  Pb  Pb7  1  0.627177  0.752968  0.878760  1
  O  O8  1  0.547268  0.094535  0.046759  1
  O  O9  1  0.547268  0.499492  0.046759  1
  O  O10  1  0.952224  0.499492  0.046760  1
  O  O11  1  0.299022  0.998222  0.297243  1
  O  O12  1  0.699200  0.998222  0.297243  1
  O  O13  1  0.299022  0.598042  0.297243  1
  O  O14  1  0.950277  0.499666  0.449940  1
  O  O15  1  0.950277  0.900551  0.449940  1
  O  O16  1  0.549389  0.499666  0.449941  1
  O  O17  1  0.299956  0.000554  0.701153  1
  O  O18  1  0.700599  0.000554  0.701153  1
  O  O19  1  0.700599  0.401197  0.701153  1
  O  O20  1  0.255724  0.511448  0.767172  1
