# generated using pymatgen
data_Y2Er3Tm(ReB7)2
_symmetry_space_group_name_H-M   'P 1'
_cell_length_a   8.00535836
_cell_length_b   8.00535702
_cell_length_c   9.31756444
_cell_angle_alpha   90.03434383
_cell_angle_beta   89.96565605
_cell_angle_gamma   154.62691575
_symmetry_Int_Tables_number   1
_chemical_formula_structural   Y2Er3Tm(ReB7)2
_chemical_formula_sum   'Y2 Er3 Tm1 Re2 B14'
_cell_volume   255.87361517
_cell_formula_units_Z   1
loop_
 _symmetry_equiv_pos_site_id
 _symmetry_equiv_pos_as_xyz
  1  'x, y, z'
loop_
 _atom_site_type_symbol
 _atom_site_label
 _atom_site_symmetry_multiplicity
 _atom_site_fract_x
 _atom_site_fract_y
 _atom_site_fract_z
 _atom_site_occupancy
  Y  Y0  1  0.244113  0.755887  0.250025  1
  Y  Y1  1  0.755992  0.244008  0.749982  1
  Er  Er2  1  0.894662  0.105338  0.058993  1
  Er  Er3  1  0.105297  0.894703  0.558880  1
  Er  Er4  1  0.105319  0.894681  0.941082  1
  Tm  Tm5  1  0.894832  0.105168  0.441346  1
  Re  Re6  1  0.051831  0.948169  0.250159  1
  Re  Re7  1  0.948065  0.051935  0.749783  1
  B  B8  1  0.454676  0.545324  0.250268  1
  B  B9  1  0.545154  0.454846  0.749962  1
  B  B10  1  0.727150  0.272850  0.033407  1
  B  B11  1  0.272981  0.727019  0.533313  1
  B  B12  1  0.272845  0.727155  0.966589  1
  B  B13  1  0.727318  0.272682  0.466554  1
  B  B14  1  0.631771  0.368229  0.349480  1
  B  B15  1  0.368227  0.631773  0.849499  1
  B  B16  1  0.368238  0.631762  0.650243  1
  B  B17  1  0.631766  0.368234  0.150500  1
  B  B18  1  0.519871  0.480129  0.405022  1
  B  B19  1  0.479992  0.520008  0.904933  1
  B  B20  1  0.479927  0.520073  0.594885  1
  B  B21  1  0.519972  0.480028  0.095095  1
