# generated using pymatgen
data_Lu5(FeB3)2
_symmetry_space_group_name_H-M   'P 1'
_cell_length_a   5.36620140
_cell_length_b   5.36620065
_cell_length_c   8.06663049
_cell_angle_alpha   70.57228889
_cell_angle_beta   70.57229340
_cell_angle_gamma   60.00000528
_symmetry_Int_Tables_number   1
_chemical_formula_structural   Lu5(FeB3)2
_chemical_formula_sum   'Lu5 Fe2 B6'
_cell_volume   185.73799403
_cell_formula_units_Z   1
loop_
 _symmetry_equiv_pos_site_id
 _symmetry_equiv_pos_as_xyz
  1  'x, y, z'
loop_
 _atom_site_type_symbol
 _atom_site_label
 _atom_site_symmetry_multiplicity
 _atom_site_fract_x
 _atom_site_fract_y
 _atom_site_fract_z
 _atom_site_occupancy
  Lu  Lu0  1  0.000000  0.000000  0.000000  1
  Lu  Lu1  1  0.748682  0.748682  0.753954  1
  Lu  Lu2  1  0.251318  0.251318  0.246046  1
  Lu  Lu3  1  0.583638  0.583638  0.249086  1
  Lu  Lu4  1  0.416362  0.416362  0.750914  1
  Fe  Fe5  1  0.883956  0.883956  0.348132  1
  Fe  Fe6  1  0.116044  0.116044  0.651868  1
  B  B7  1  0.500000  0.168648  0.500000  1
  B  B8  1  0.831352  0.500000  0.500000  1
  B  B9  1  0.168648  0.831352  0.500000  1
  B  B10  1  0.168648  0.500000  0.500000  1
  B  B11  1  0.831352  0.168648  0.500000  1
  B  B12  1  0.500000  0.831352  0.500000  1
