# generated using pymatgen
data_Sr4NbRhO8
_symmetry_space_group_name_H-M   'P 1'
_cell_length_a   7.01731701
_cell_length_b   7.01731810
_cell_length_c   5.62339900
_cell_angle_alpha   90.00000000
_cell_angle_beta   90.00000000
_cell_angle_gamma   132.52922995
_symmetry_Int_Tables_number   1
_chemical_formula_structural   Sr4NbRhO8
_chemical_formula_sum   'Sr4 Nb1 Rh1 O8'
_cell_volume   204.06518528
_cell_formula_units_Z   1
loop_
 _symmetry_equiv_pos_site_id
 _symmetry_equiv_pos_as_xyz
  1  'x, y, z'
loop_
 _atom_site_type_symbol
 _atom_site_label
 _atom_site_symmetry_multiplicity
 _atom_site_fract_x
 _atom_site_fract_y
 _atom_site_fract_z
 _atom_site_occupancy
  Sr  Sr0  1  0.648276  0.351724  0.000000  1
  Sr  Sr1  1  0.145176  0.854824  0.500000  1
  Sr  Sr2  1  0.854824  0.145176  0.500000  1
  Sr  Sr3  1  0.351724  0.648276  0.000000  1
  Nb  Nb4  1  0.500000  0.500000  0.500000  1
  Rh  Rh5  1  0.000000  0.000000  0.000000  1
  O  O6  1  0.835253  0.164747  0.000000  1
  O  O7  1  0.338412  0.661588  0.500000  1
  O  O8  1  0.661588  0.338412  0.500000  1
  O  O9  1  0.164747  0.835253  0.000000  1
  O  O10  1  0.747673  0.747673  0.747429  1
  O  O11  1  0.252327  0.252327  0.252571  1
  O  O12  1  0.252327  0.252327  0.747429  1
  O  O13  1  0.747673  0.747673  0.252571  1
