# generated using pymatgen
data_Sc2FeTc2B4RuRh
_symmetry_space_group_name_H-M   'P 1'
_cell_length_a   3.02151300
_cell_length_b   8.45255618
_cell_length_c   9.87289700
_cell_angle_alpha   90.01189629
_cell_angle_beta   90.00000000
_cell_angle_gamma   90.00000000
_symmetry_Int_Tables_number   1
_chemical_formula_structural   Sc2FeTc2B4RuRh
_chemical_formula_sum   'Sc4 Fe2 Tc4 B8 Ru2 Rh2'
_cell_volume   252.14893031
_cell_formula_units_Z   2
loop_
 _symmetry_equiv_pos_site_id
 _symmetry_equiv_pos_as_xyz
  1  'x, y, z'
loop_
 _atom_site_type_symbol
 _atom_site_label
 _atom_site_symmetry_multiplicity
 _atom_site_fract_x
 _atom_site_fract_y
 _atom_site_fract_z
 _atom_site_occupancy
  Sc  Sc0  1  0.500000  0.841640  0.176489  1
  Sc  Sc1  1  0.500000  0.158360  0.823511  1
  Sc  Sc2  1  0.500000  0.664064  0.676951  1
  Sc  Sc3  1  0.500000  0.335936  0.323049  1
  Fe  Fe4  1  0.000000  0.000000  0.000000  1
  Fe  Fe5  1  0.000000  0.500000  0.500000  1
  Tc  Tc6  1  0.000000  0.664001  0.956324  1
  Tc  Tc7  1  0.000000  0.335999  0.043676  1
  Tc  Tc8  1  0.000000  0.835002  0.455079  1
  Tc  Tc9  1  0.000000  0.164998  0.544921  1
  B  B10  1  0.500000  0.967385  0.588819  1
  B  B11  1  0.500000  0.032615  0.411181  1
  B  B12  1  0.500000  0.858493  0.907206  1
  B  B13  1  0.500000  0.141507  0.092794  1
  B  B14  1  0.500000  0.642089  0.413069  1
  B  B15  1  0.500000  0.357911  0.586931  1
  B  B16  1  0.500000  0.468040  0.912330  1
  B  B17  1  0.500000  0.531960  0.087670  1
  Ru  Ru18  1  0.000000  0.909505  0.743858  1
  Ru  Ru19  1  0.000000  0.090495  0.256142  1
  Rh  Rh20  1  0.000000  0.410007  0.755576  1
  Rh  Rh21  1  0.000000  0.589993  0.244424  1
