# generated using pymatgen
data_Ca3La5(CdRu)2
_symmetry_space_group_name_H-M   'P 1'
_cell_length_a   10.07440195
_cell_length_b   10.07440236
_cell_length_c   10.07440200
_cell_angle_alpha   60.00000118
_cell_angle_beta   59.99999983
_cell_angle_gamma   59.99999745
_symmetry_Int_Tables_number   1
_chemical_formula_structural   Ca3La5(CdRu)2
_chemical_formula_sum   'Ca6 La10 Cd4 Ru4'
_cell_volume   723.00756275
_cell_formula_units_Z   2
loop_
 _symmetry_equiv_pos_site_id
 _symmetry_equiv_pos_as_xyz
  1  'x, y, z'
loop_
 _atom_site_type_symbol
 _atom_site_label
 _atom_site_symmetry_multiplicity
 _atom_site_fract_x
 _atom_site_fract_y
 _atom_site_fract_z
 _atom_site_occupancy
  Ca  Ca0  1  0.060692  0.439307  0.439307  1
  Ca  Ca1  1  0.439307  0.060692  0.060692  1
  Ca  Ca2  1  0.439307  0.060692  0.439307  1
  Ca  Ca3  1  0.439307  0.439307  0.060692  1
  Ca  Ca4  1  0.060692  0.439307  0.060692  1
  Ca  Ca5  1  0.060692  0.060692  0.439307  1
  La  La6  1  0.190141  0.809859  0.809859  1
  La  La7  1  0.809860  0.190141  0.190141  1
  La  La8  1  0.809859  0.190141  0.809859  1
  La  La9  1  0.809859  0.809859  0.190141  1
  La  La10  1  0.190141  0.809860  0.190141  1
  La  La11  1  0.190141  0.190141  0.809860  1
  La  La12  1  0.654947  0.654947  0.654947  1
  La  La13  1  0.654947  0.654947  0.035158  1
  La  La14  1  0.035158  0.654947  0.654947  1
  La  La15  1  0.654947  0.035158  0.654947  1
  Cd  Cd16  1  0.420895  0.420895  0.420895  1
  Cd  Cd17  1  0.420895  0.420895  0.737313  1
  Cd  Cd18  1  0.737313  0.420895  0.420895  1
  Cd  Cd19  1  0.420895  0.737313  0.420895  1
  Ru  Ru20  1  0.865712  0.865712  0.865712  1
  Ru  Ru21  1  0.865712  0.865712  0.402865  1
  Ru  Ru22  1  0.402865  0.865712  0.865712  1
  Ru  Ru23  1  0.865712  0.402865  0.865712  1
