# generated using pymatgen
data_Pr8Cd2IrPd
_symmetry_space_group_name_H-M   'P 1'
_cell_length_a   10.08869599
_cell_length_b   10.08869631
_cell_length_c   10.12312600
_cell_angle_alpha   59.88704445
_cell_angle_beta   59.88704340
_cell_angle_gamma   59.71336689
_symmetry_Int_Tables_number   1
_chemical_formula_structural   Pr8Cd2IrPd
_chemical_formula_sum   'Pr16 Cd4 Ir2 Pd2'
_cell_volume   725.73775889
_cell_formula_units_Z   2
loop_
 _symmetry_equiv_pos_site_id
 _symmetry_equiv_pos_as_xyz
  1  'x, y, z'
loop_
 _atom_site_type_symbol
 _atom_site_label
 _atom_site_symmetry_multiplicity
 _atom_site_fract_x
 _atom_site_fract_y
 _atom_site_fract_z
 _atom_site_occupancy
  Pr  Pr0  1  0.349206  0.349206  0.354308  1
  Pr  Pr1  1  0.349206  0.349206  0.947281  1
  Pr  Pr2  1  0.346402  0.951499  0.351050  1
  Pr  Pr3  1  0.951499  0.346402  0.351050  1
  Pr  Pr4  1  0.814262  0.188887  0.192066  1
  Pr  Pr5  1  0.188887  0.814262  0.804786  1
  Pr  Pr6  1  0.188887  0.814262  0.192066  1
  Pr  Pr7  1  0.814262  0.188887  0.804786  1
  Pr  Pr8  1  0.189042  0.189042  0.810958  1
  Pr  Pr9  1  0.807961  0.807961  0.192039  1
  Pr  Pr10  1  0.937296  0.560378  0.565429  1
  Pr  Pr11  1  0.560378  0.937296  0.936897  1
  Pr  Pr12  1  0.560378  0.937296  0.565429  1
  Pr  Pr13  1  0.937296  0.560378  0.936897  1
  Pr  Pr14  1  0.563542  0.563542  0.936458  1
  Pr  Pr15  1  0.937640  0.937640  0.562360  1
  Cd  Cd16  1  0.579918  0.579918  0.580234  1
  Cd  Cd17  1  0.579918  0.579918  0.259929  1
  Cd  Cd18  1  0.580615  0.258721  0.580331  1
  Cd  Cd19  1  0.258721  0.580615  0.580331  1
  Ir  Ir20  1  0.144307  0.144307  0.140630  1
  Ir  Ir21  1  0.144307  0.144307  0.570756  1
  Pd  Pd22  1  0.144974  0.571096  0.141965  1
  Pd  Pd23  1  0.571096  0.144974  0.141965  1
