# generated using pymatgen
data_Er5Lu3Ta10(TiSi8)2
_symmetry_space_group_name_H-M   'P 1'
_cell_length_a   7.01988252
_cell_length_b   7.01203945
_cell_length_c   12.89262575
_cell_angle_alpha   89.99982376
_cell_angle_beta   90.03901349
_cell_angle_gamma   89.96937811
_symmetry_Int_Tables_number   1
_chemical_formula_structural   Er5Lu3Ta10(TiSi8)2
_chemical_formula_sum   'Er5 Lu3 Ta10 Ti2 Si16'
_cell_volume   634.62241558
_cell_formula_units_Z   1
loop_
 _symmetry_equiv_pos_site_id
 _symmetry_equiv_pos_as_xyz
  1  'x, y, z'
loop_
 _atom_site_type_symbol
 _atom_site_label
 _atom_site_symmetry_multiplicity
 _atom_site_fract_x
 _atom_site_fract_y
 _atom_site_fract_z
 _atom_site_occupancy
  Er  Er0  1  0.841853  0.498501  0.282271  1
  Er  Er1  1  0.158153  0.501417  0.782128  1
  Er  Er2  1  0.657902  0.997806  0.967702  1
  Er  Er3  1  0.002421  0.340696  0.531805  1
  Er  Er4  1  0.997628  0.659206  0.031824  1
  Lu  Lu5  1  0.342642  0.001510  0.467763  1
  Lu  Lu6  1  0.499091  0.842497  0.717871  1
  Lu  Lu7  1  0.500664  0.157653  0.218263  1
  Ta  Ta8  1  0.329352  0.328967  0.999883  1
  Ta  Ta9  1  0.173367  0.827233  0.250409  1
  Ta  Ta10  1  0.826916  0.172826  0.749903  1
  Ta  Ta11  1  0.670354  0.671348  0.499849  1
  Ta  Ta12  1  0.152619  0.006450  0.873334  1
  Ta  Ta13  1  0.493300  0.651772  0.124097  1
  Ta  Ta14  1  0.506157  0.348052  0.623623  1
  Ta  Ta15  1  0.651400  0.492178  0.876001  1
  Ta  Ta16  1  0.348623  0.507856  0.376171  1
  Ta  Ta17  1  0.847751  0.993722  0.373492  1
  Ti  Ti18  1  0.007755  0.152759  0.126573  1
  Ti  Ti19  1  0.992467  0.847486  0.626173  1
  Si  Si20  1  0.203454  0.131592  0.680455  1
  Si  Si21  1  0.365522  0.705584  0.930812  1
  Si  Si22  1  0.633984  0.293745  0.430760  1
  Si  Si23  1  0.704825  0.363085  0.070056  1
  Si  Si24  1  0.295255  0.637972  0.569778  1
  Si  Si25  1  0.796679  0.868306  0.180885  1
  Si  Si26  1  0.136792  0.202560  0.318793  1
  Si  Si27  1  0.864229  0.796598  0.818034  1
  Si  Si28  1  0.293367  0.955607  0.064878  1
  Si  Si29  1  0.545757  0.796837  0.313701  1
  Si  Si30  1  0.453642  0.203796  0.813170  1
  Si  Si31  1  0.795979  0.547860  0.685325  1
  Si  Si32  1  0.204104  0.451911  0.185441  1
  Si  Si33  1  0.705474  0.044250  0.564562  1
  Si  Si34  1  0.954201  0.294304  0.937066  1
  Si  Si35  1  0.046323  0.706060  0.437148  1
