# generated using pymatgen
data_Nd8TmLuPb6
_symmetry_space_group_name_H-M   'P 1'
_cell_length_a   9.30155700
_cell_length_b   9.30155755
_cell_length_c   6.82054600
_cell_angle_alpha   90.00000000
_cell_angle_beta   90.00000000
_cell_angle_gamma   120.00000161
_symmetry_Int_Tables_number   1
_chemical_formula_structural   Nd8TmLuPb6
_chemical_formula_sum   'Nd8 Tm1 Lu1 Pb6'
_cell_volume   511.04729753
_cell_formula_units_Z   1
loop_
 _symmetry_equiv_pos_site_id
 _symmetry_equiv_pos_as_xyz
  1  'x, y, z'
loop_
 _atom_site_type_symbol
 _atom_site_label
 _atom_site_symmetry_multiplicity
 _atom_site_fract_x
 _atom_site_fract_y
 _atom_site_fract_z
 _atom_site_occupancy
  Nd  Nd0  1  0.333333  0.666667  0.500000  1
  Nd  Nd1  1  0.666667  0.333333  0.500000  1
  Nd  Nd2  1  0.759447  0.759519  0.751927  1
  Nd  Nd3  1  0.240481  0.999928  0.751927  1
  Nd  Nd4  1  0.000072  0.240553  0.751927  1
  Nd  Nd5  1  0.240481  0.240553  0.248073  1
  Nd  Nd6  1  0.759447  0.999928  0.248073  1
  Nd  Nd7  1  0.000072  0.759519  0.248073  1
  Tm  Tm8  1  0.666667  0.333333  0.000000  1
  Lu  Lu9  1  0.333333  0.666667  0.000000  1
  Pb  Pb10  1  0.396119  0.396297  0.757059  1
  Pb  Pb11  1  0.603703  0.999823  0.757059  1
  Pb  Pb12  1  0.000177  0.603881  0.757059  1
  Pb  Pb13  1  0.603703  0.603881  0.242941  1
  Pb  Pb14  1  0.396119  0.999823  0.242941  1
  Pb  Pb15  1  0.000177  0.396297  0.242941  1
