# generated using pymatgen
data_Dy3Np(MoN2)4
_symmetry_space_group_name_H-M   'P 1'
_cell_length_a   3.19595800
_cell_length_b   5.65685541
_cell_length_c   10.69792587
_cell_angle_alpha   89.48352593
_cell_angle_beta   90.00000000
_cell_angle_gamma   90.00000000
_symmetry_Int_Tables_number   1
_chemical_formula_structural   Dy3Np(MoN2)4
_chemical_formula_sum   'Dy3 Np1 Mo4 N8'
_cell_volume   193.40071758
_cell_formula_units_Z   1
loop_
 _symmetry_equiv_pos_site_id
 _symmetry_equiv_pos_as_xyz
  1  'x, y, z'
loop_
 _atom_site_type_symbol
 _atom_site_label
 _atom_site_symmetry_multiplicity
 _atom_site_fract_x
 _atom_site_fract_y
 _atom_site_fract_z
 _atom_site_occupancy
  Dy  Dy0  1  0.250000  0.573473  0.643772  1
  Dy  Dy1  1  0.750000  0.923522  0.149659  1
  Dy  Dy2  1  0.750000  0.422272  0.352436  1
  Np  Np3  1  0.250000  0.070088  0.856395  1
  Mo  Mo4  1  0.250000  0.436581  0.095591  1
  Mo  Mo5  1  0.250000  0.932499  0.405941  1
  Mo  Mo6  1  0.750000  0.569880  0.899225  1
  Mo  Mo7  1  0.750000  0.066942  0.592445  1
  N  N8  1  0.250000  0.167096  0.246966  1
  N  N9  1  0.250000  0.666481  0.252920  1
  N  N10  1  0.750000  0.844125  0.755392  1
  N  N11  1  0.750000  0.320878  0.750218  1
  N  N12  1  0.250000  0.763078  0.993722  1
  N  N13  1  0.250000  0.257848  0.505747  1
  N  N14  1  0.750000  0.245702  0.003530  1
  N  N15  1  0.750000  0.739535  0.496040  1
