# generated using pymatgen
data_Th3Cu2(Si2Ru)2
_symmetry_space_group_name_H-M   'P 1'
_cell_length_a   4.22232354
_cell_length_b   4.16396308
_cell_length_c   12.26508946
_cell_angle_alpha   99.77319012
_cell_angle_beta   99.91154961
_cell_angle_gamma   90.00000658
_symmetry_Int_Tables_number   1
_chemical_formula_structural   Th3Cu2(Si2Ru)2
_chemical_formula_sum   'Th3 Cu2 Si4 Ru2'
_cell_volume   209.24376829
_cell_formula_units_Z   1
loop_
 _symmetry_equiv_pos_site_id
 _symmetry_equiv_pos_as_xyz
  1  'x, y, z'
loop_
 _atom_site_type_symbol
 _atom_site_label
 _atom_site_symmetry_multiplicity
 _atom_site_fract_x
 _atom_site_fract_y
 _atom_site_fract_z
 _atom_site_occupancy
  Th  Th0  1  0.849309  0.349309  0.698621  1
  Th  Th1  1  0.150691  0.650691  0.301379  1
  Th  Th2  1  0.000000  0.000000  0.000000  1
  Cu  Cu3  1  0.597357  0.097357  0.194714  1
  Cu  Cu4  1  0.402643  0.902643  0.805286  1
  Si  Si5  1  0.449892  0.449892  0.899785  1
  Si  Si6  1  0.550108  0.550108  0.100215  1
  Si  Si7  1  0.698719  0.198719  0.397438  1
  Si  Si8  1  0.301281  0.801281  0.602562  1
  Ru  Ru9  1  0.248847  0.248847  0.497692  1
  Ru  Ru10  1  0.751153  0.751153  0.502308  1
