# generated using pymatgen
data_TbYEr3CoSb2
_symmetry_space_group_name_H-M   'P 1'
_cell_length_a   7.84685300
_cell_length_b   8.73347800
_cell_length_c   12.11372900
_cell_angle_alpha   90.00000000
_cell_angle_beta   90.00000000
_cell_angle_gamma   90.00000000
_symmetry_Int_Tables_number   1
_chemical_formula_structural   TbYEr3CoSb2
_chemical_formula_sum   'Tb4 Y4 Er12 Co4 Sb8'
_cell_volume   830.15770108
_cell_formula_units_Z   4
loop_
 _symmetry_equiv_pos_site_id
 _symmetry_equiv_pos_as_xyz
  1  'x, y, z'
loop_
 _atom_site_type_symbol
 _atom_site_label
 _atom_site_symmetry_multiplicity
 _atom_site_fract_x
 _atom_site_fract_y
 _atom_site_fract_z
 _atom_site_occupancy
  Tb  Tb0  1  0.622614  0.750000  0.306381  1
  Tb  Tb1  1  0.122614  0.250000  0.193619  1
  Tb  Tb2  1  0.377386  0.250000  0.693619  1
  Tb  Tb3  1  0.877386  0.750000  0.806381  1
  Y  Y4  1  0.155080  0.750000  0.204042  1
  Y  Y5  1  0.655080  0.250000  0.295958  1
  Y  Y6  1  0.844920  0.250000  0.795958  1
  Y  Y7  1  0.344920  0.750000  0.704042  1
  Er  Er8  1  0.453556  0.750000  0.998053  1
  Er  Er9  1  0.953556  0.250000  0.501947  1
  Er  Er10  1  0.546444  0.250000  0.001947  1
  Er  Er11  1  0.046444  0.750000  0.498053  1
  Er  Er12  1  0.822104  0.964395  0.064562  1
  Er  Er13  1  0.322104  0.035605  0.435438  1
  Er  Er14  1  0.177896  0.464395  0.935438  1
  Er  Er15  1  0.677896  0.535605  0.564562  1
  Er  Er16  1  0.177896  0.035605  0.935438  1
  Er  Er17  1  0.677896  0.964395  0.564562  1
  Er  Er18  1  0.822104  0.535605  0.064562  1
  Er  Er19  1  0.322104  0.464395  0.435438  1
  Co  Co20  1  0.434021  0.750000  0.489723  1
  Co  Co21  1  0.934021  0.250000  0.010277  1
  Co  Co22  1  0.565979  0.250000  0.510277  1
  Co  Co23  1  0.065979  0.750000  0.989723  1
  Sb  Sb24  1  0.929117  0.991772  0.328453  1
  Sb  Sb25  1  0.429117  0.008228  0.171547  1
  Sb  Sb26  1  0.070883  0.491772  0.671547  1
  Sb  Sb27  1  0.570883  0.508228  0.828453  1
  Sb  Sb28  1  0.070883  0.008228  0.671547  1
  Sb  Sb29  1  0.570883  0.991772  0.828453  1
  Sb  Sb30  1  0.929117  0.508228  0.328453  1
  Sb  Sb31  1  0.429117  0.491772  0.171547  1
