# generated using pymatgen
data_LuSc11In2Tc3
_symmetry_space_group_name_H-M   'P 1'
_cell_length_a   7.93062324
_cell_length_b   7.95306366
_cell_length_c   7.95306412
_cell_angle_alpha   109.92620900
_cell_angle_beta   109.56785928
_cell_angle_gamma   109.03419707
_symmetry_Int_Tables_number   1
_chemical_formula_structural   LuSc11In2Tc3
_chemical_formula_sum   'Lu1 Sc11 In2 Tc3'
_cell_volume   385.58366708
_cell_formula_units_Z   1
loop_
 _symmetry_equiv_pos_site_id
 _symmetry_equiv_pos_as_xyz
  1  'x, y, z'
loop_
 _atom_site_type_symbol
 _atom_site_label
 _atom_site_symmetry_multiplicity
 _atom_site_fract_x
 _atom_site_fract_y
 _atom_site_fract_z
 _atom_site_occupancy
  Lu  Lu0  1  0.558384  0.808220  0.750164  1
  Sc  Sc1  1  0.312597  0.308178  0.625330  1
  Sc  Sc2  1  0.689221  0.687399  0.373074  1
  Sc  Sc3  1  0.689221  0.316146  0.001822  1
  Sc  Sc4  1  0.312597  0.687267  0.004419  1
  Sc  Sc5  1  0.184445  0.424893  0.239226  1
  Sc  Sc6  1  0.812302  0.567969  0.758532  1
  Sc  Sc7  1  0.184445  0.945218  0.759552  1
  Sc  Sc8  1  0.947047  0.189573  0.757475  1
  Sc  Sc9  1  0.812302  0.053770  0.244332  1
  Sc  Sc10  1  0.056646  0.811984  0.244662  1
  Sc  Sc11  1  0.431823  0.191573  0.240250  1
  In  In12  1  0.000332  0.499362  0.500970  1
  In  In13  1  0.504462  0.008721  0.495741  1
  Tc  Tc14  1  0.342731  0.344173  0.998558  1
  Tc  Tc15  1  0.660079  0.655511  0.004568  1
  Tc  Tc16  1  0.001369  0.000044  0.001326  1
