# generated using pymatgen
data_RhSeF
_symmetry_space_group_name_H-M   'P 1'
_cell_length_a   6.32547863
_cell_length_b   6.32547880
_cell_length_c   6.21604809
_cell_angle_alpha   61.83837596
_cell_angle_beta   61.83837622
_cell_angle_gamma   31.51603268
_symmetry_Int_Tables_number   1
_chemical_formula_structural   RhSeF
_chemical_formula_sum   'Rh2 Se2 F2'
_cell_volume   113.30609728
_cell_formula_units_Z   2
loop_
 _symmetry_equiv_pos_site_id
 _symmetry_equiv_pos_as_xyz
  1  'x, y, z'
loop_
 _atom_site_type_symbol
 _atom_site_label
 _atom_site_symmetry_multiplicity
 _atom_site_fract_x
 _atom_site_fract_y
 _atom_site_fract_z
 _atom_site_occupancy
  Rh  Rh0  1  0.748744  0.748744  0.245202  1
  Rh  Rh1  1  0.251256  0.251256  0.754798  1
  Se  Se2  1  0.134430  0.134430  0.534568  1
  Se  Se3  1  0.865570  0.865570  0.465432  1
  F  F4  1  0.649942  0.649942  0.026069  1
  F  F5  1  0.350058  0.350058  0.973931  1
