# generated using pymatgen
data_KRbAs2Pd
_symmetry_space_group_name_H-M   'P 1'
_cell_length_a   7.92345216
_cell_length_b   7.92345211
_cell_length_c   6.20090600
_cell_angle_alpha   90.00000000
_cell_angle_beta   90.00000000
_cell_angle_gamma   128.64257600
_symmetry_Int_Tables_number   1
_chemical_formula_structural   KRbAs2Pd
_chemical_formula_sum   'K2 Rb2 As4 Pd2'
_cell_volume   304.06509169
_cell_formula_units_Z   2
loop_
 _symmetry_equiv_pos_site_id
 _symmetry_equiv_pos_as_xyz
  1  'x, y, z'
loop_
 _atom_site_type_symbol
 _atom_site_label
 _atom_site_symmetry_multiplicity
 _atom_site_fract_x
 _atom_site_fract_y
 _atom_site_fract_z
 _atom_site_occupancy
  K  K0  1  0.794560  0.205440  0.250000  1
  K  K1  1  0.205440  0.794560  0.750000  1
  Rb  Rb2  1  0.412573  0.587427  0.250000  1
  Rb  Rb3  1  0.587427  0.412573  0.750000  1
  As  As4  1  0.933828  0.710518  0.250000  1
  As  As5  1  0.066172  0.289482  0.750000  1
  As  As6  1  0.289482  0.066172  0.250000  1
  As  As7  1  0.710518  0.933828  0.750000  1
  Pd  Pd8  1  0.000000  0.000000  0.000000  1
  Pd  Pd9  1  0.000000  0.000000  0.500000  1
