# generated using pymatgen
data_NdDyTe2(RhO6)2
_symmetry_space_group_name_H-M   'P 1'
_cell_length_a   5.27238500
_cell_length_b   5.27239489
_cell_length_c   9.96644900
_cell_angle_alpha   90.00015501
_cell_angle_beta   89.99991818
_cell_angle_gamma   119.99999804
_symmetry_Int_Tables_number   1
_chemical_formula_structural   NdDyTe2(RhO6)2
_chemical_formula_sum   'Nd1 Dy1 Te2 Rh2 O12'
_cell_volume   239.93087338
_cell_formula_units_Z   1
loop_
 _symmetry_equiv_pos_site_id
 _symmetry_equiv_pos_as_xyz
  1  'x, y, z'
loop_
 _atom_site_type_symbol
 _atom_site_label
 _atom_site_symmetry_multiplicity
 _atom_site_fract_x
 _atom_site_fract_y
 _atom_site_fract_z
 _atom_site_occupancy
  Nd  Nd0  1  0.999998  0.999996  0.499998  1
  Dy  Dy1  1  0.999998  0.000001  0.999998  1
  Te  Te2  1  0.666666  0.333333  0.243979  1
  Te  Te3  1  0.333331  0.666665  0.756023  1
  Rh  Rh4  1  0.333332  0.666664  0.244619  1
  Rh  Rh5  1  0.666660  0.333333  0.755379  1
  O  O6  1  0.652842  0.640487  0.136192  1
  O  O7  1  0.987651  0.347163  0.136193  1
  O  O8  1  0.359517  0.012355  0.136193  1
  O  O9  1  0.370512  0.359934  0.355070  1
  O  O10  1  0.989421  0.629487  0.355071  1
  O  O11  1  0.640070  0.010585  0.355071  1
  O  O12  1  0.359933  0.989423  0.644931  1
  O  O13  1  0.010579  0.370511  0.644930  1
  O  O14  1  0.629490  0.640064  0.644931  1
  O  O15  1  0.640483  0.987643  0.863807  1
  O  O16  1  0.012359  0.652844  0.863807  1
  O  O17  1  0.347157  0.359516  0.863806  1
