# generated using pymatgen
data_LaEr2(P2Ir3)3
_symmetry_space_group_name_H-M   'P 1'
_cell_length_a   3.98489300
_cell_length_b   11.22437500
_cell_length_c   12.89856900
_cell_angle_alpha   90.00000000
_cell_angle_beta   90.00000000
_cell_angle_gamma   90.00000000
_symmetry_Int_Tables_number   1
_chemical_formula_structural   LaEr2(P2Ir3)3
_chemical_formula_sum   'La2 Er4 P12 Ir18'
_cell_volume   576.92633476
_cell_formula_units_Z   2
loop_
 _symmetry_equiv_pos_site_id
 _symmetry_equiv_pos_as_xyz
  1  'x, y, z'
loop_
 _atom_site_type_symbol
 _atom_site_label
 _atom_site_symmetry_multiplicity
 _atom_site_fract_x
 _atom_site_fract_y
 _atom_site_fract_z
 _atom_site_occupancy
  La  La0  1  0.750000  0.250000  0.475786  1
  La  La1  1  0.250000  0.750000  0.524214  1
  Er  Er2  1  0.250000  0.935621  0.796807  1
  Er  Er3  1  0.250000  0.564379  0.796807  1
  Er  Er4  1  0.750000  0.064379  0.203193  1
  Er  Er5  1  0.750000  0.435621  0.203193  1
  P  P6  1  0.250000  0.250000  0.122716  1
  P  P7  1  0.750000  0.750000  0.877284  1
  P  P8  1  0.250000  0.250000  0.644458  1
  P  P9  1  0.750000  0.750000  0.355542  1
  P  P10  1  0.250000  0.437238  0.380379  1
  P  P11  1  0.250000  0.062762  0.380379  1
  P  P12  1  0.750000  0.562762  0.619621  1
  P  P13  1  0.750000  0.937238  0.619621  1
  P  P14  1  0.250000  0.905121  0.105620  1
  P  P15  1  0.250000  0.594879  0.105620  1
  P  P16  1  0.750000  0.094879  0.894380  1
  P  P17  1  0.750000  0.405121  0.894380  1
  Ir  Ir18  1  0.250000  0.250000  0.820340  1
  Ir  Ir19  1  0.750000  0.750000  0.179660  1
  Ir  Ir20  1  0.250000  0.250000  0.296136  1
  Ir  Ir21  1  0.750000  0.750000  0.703864  1
  Ir  Ir22  1  0.750000  0.250000  0.029415  1
  Ir  Ir23  1  0.250000  0.750000  0.970585  1
  Ir  Ir24  1  0.250000  0.413481  0.997746  1
  Ir  Ir25  1  0.250000  0.086519  0.997746  1
  Ir  Ir26  1  0.750000  0.586519  0.002254  1
  Ir  Ir27  1  0.750000  0.913481  0.002254  1
  Ir  Ir28  1  0.250000  0.459185  0.572338  1
  Ir  Ir29  1  0.250000  0.040815  0.572338  1
  Ir  Ir30  1  0.750000  0.540815  0.427662  1
  Ir  Ir31  1  0.750000  0.959185  0.427662  1
  Ir  Ir32  1  0.250000  0.880143  0.284040  1
  Ir  Ir33  1  0.250000  0.619857  0.284040  1
  Ir  Ir34  1  0.750000  0.119857  0.715960  1
  Ir  Ir35  1  0.750000  0.380143  0.715960  1
