# generated using pymatgen
data_Yb4LuIn(OsO6)2
_symmetry_space_group_name_H-M   'P 1'
_cell_length_a   5.45795968
_cell_length_b   5.73452558
_cell_length_c   9.55085468
_cell_angle_alpha   89.66446779
_cell_angle_beta   124.43921718
_cell_angle_gamma   90.03323074
_symmetry_Int_Tables_number   1
_chemical_formula_structural   Yb4LuIn(OsO6)2
_chemical_formula_sum   'Yb4 Lu1 In1 Os2 O12'
_cell_volume   246.53025707
_cell_formula_units_Z   1
loop_
 _symmetry_equiv_pos_site_id
 _symmetry_equiv_pos_as_xyz
  1  'x, y, z'
loop_
 _atom_site_type_symbol
 _atom_site_label
 _atom_site_symmetry_multiplicity
 _atom_site_fract_x
 _atom_site_fract_y
 _atom_site_fract_z
 _atom_site_occupancy
  Yb  Yb0  1  0.234283  0.434011  0.753301  1
  Yb  Yb1  1  0.226768  0.063785  0.248929  1
  Yb  Yb2  1  0.765717  0.565989  0.246699  1
  Yb  Yb3  1  0.773232  0.936215  0.751071  1
  Lu  Lu4  1  0.500000  0.500000  0.500000  1
  In  In5  1  0.500000  0.000000  0.000000  1
  Os  Os6  1  0.000000  0.500000  0.000000  1
  Os  Os7  1  0.000000  0.000000  0.500000  1
  O  O8  1  0.763949  0.187956  0.556258  1
  O  O9  1  0.762410  0.312883  0.057794  1
  O  O10  1  0.236051  0.812044  0.443742  1
  O  O11  1  0.237590  0.687117  0.942206  1
  O  O12  1  0.880380  0.711126  0.561998  1
  O  O13  1  0.884513  0.789413  0.064179  1
  O  O14  1  0.119620  0.288874  0.438002  1
  O  O15  1  0.115487  0.210587  0.935821  1
  O  O16  1  0.354748  0.044753  0.737357  1
  O  O17  1  0.348994  0.457270  0.236533  1
  O  O18  1  0.645252  0.955247  0.262643  1
  O  O19  1  0.651006  0.542730  0.763467  1
