# generated using pymatgen
data_LiTb8ScPd23
_symmetry_space_group_name_H-M   'P 1'
_cell_length_a   8.37147800
_cell_length_b   8.40789100
_cell_length_c   8.48772400
_cell_angle_alpha   90.00000000
_cell_angle_beta   90.00000000
_cell_angle_gamma   90.00000000
_symmetry_Int_Tables_number   1
_chemical_formula_structural   LiTb8ScPd23
_chemical_formula_sum   'Li1 Tb8 Sc1 Pd23'
_cell_volume   597.42096917
_cell_formula_units_Z   1
loop_
 _symmetry_equiv_pos_site_id
 _symmetry_equiv_pos_as_xyz
  1  'x, y, z'
loop_
 _atom_site_type_symbol
 _atom_site_label
 _atom_site_symmetry_multiplicity
 _atom_site_fract_x
 _atom_site_fract_y
 _atom_site_fract_z
 _atom_site_occupancy
  Li  Li0  1  0.273246  0.500000  0.000000  1
  Tb  Tb1  1  0.251905  0.247050  0.259553  1
  Tb  Tb2  1  0.747554  0.747204  0.749631  1
  Tb  Tb3  1  0.747554  0.747204  0.250369  1
  Tb  Tb4  1  0.747554  0.252796  0.749631  1
  Tb  Tb5  1  0.251905  0.247050  0.740447  1
  Tb  Tb6  1  0.251905  0.752950  0.259553  1
  Tb  Tb7  1  0.251905  0.752950  0.740447  1
  Tb  Tb8  1  0.747554  0.252796  0.250369  1
  Sc  Sc9  1  0.995000  0.000000  0.000000  1
  Pd  Pd10  1  0.738498  0.500000  0.000000  1
  Pd  Pd11  1  0.997455  0.264404  0.500000  1
  Pd  Pd12  1  0.492187  0.270840  0.000000  1
  Pd  Pd13  1  0.997455  0.735596  0.500000  1
  Pd  Pd14  1  0.492187  0.729160  0.000000  1
  Pd  Pd15  1  0.500109  0.000000  0.265487  1
  Pd  Pd16  1  0.263770  0.000000  0.500000  1
  Pd  Pd17  1  0.500109  0.000000  0.734513  1
  Pd  Pd18  1  0.735083  0.000000  0.500000  1
  Pd  Pd19  1  0.002186  0.500000  0.266576  1
  Pd  Pd20  1  0.002186  0.500000  0.733424  1
  Pd  Pd21  1  0.254299  0.500000  0.500000  1
  Pd  Pd22  1  0.745605  0.500000  0.500000  1
  Pd  Pd23  1  0.501673  0.255441  0.500000  1
  Pd  Pd24  1  0.501673  0.744559  0.500000  1
  Pd  Pd25  1  0.496730  0.500000  0.254717  1
  Pd  Pd26  1  0.496730  0.500000  0.745283  1
  Pd  Pd27  1  0.304087  0.000000  0.000000  1
  Pd  Pd28  1  0.686188  0.000000  0.000000  1
  Pd  Pd29  1  0.014634  0.311690  0.000000  1
  Pd  Pd30  1  0.014634  0.688310  0.000000  1
  Pd  Pd31  1  0.998221  0.000000  0.304651  1
  Pd  Pd32  1  0.998221  0.000000  0.695349  1
