# generated using pymatgen
data_YLu5(Co2Si)6
_symmetry_space_group_name_H-M   'P 1'
_cell_length_a   5.15959800
_cell_length_b   5.15959855
_cell_length_c   14.66762400
_cell_angle_alpha   90.00000000
_cell_angle_beta   90.00000000
_cell_angle_gamma   120.00000929
_symmetry_Int_Tables_number   1
_chemical_formula_structural   YLu5(Co2Si)6
_chemical_formula_sum   'Y1 Lu5 Co12 Si6'
_cell_volume   338.15992407
_cell_formula_units_Z   1
loop_
 _symmetry_equiv_pos_site_id
 _symmetry_equiv_pos_as_xyz
  1  'x, y, z'
loop_
 _atom_site_type_symbol
 _atom_site_label
 _atom_site_symmetry_multiplicity
 _atom_site_fract_x
 _atom_site_fract_y
 _atom_site_fract_z
 _atom_site_occupancy
  Y  Y0  1  0.666667  0.333334  0.750000  1
  Lu  Lu1  1  0.333333  0.666667  0.038871  1
  Lu  Lu2  1  0.333333  0.666667  0.250000  1
  Lu  Lu3  1  0.333333  0.666667  0.461129  1
  Lu  Lu4  1  0.666667  0.333334  0.538216  1
  Lu  Lu5  1  0.666667  0.333334  0.961784  1
  Co  Co6  1  0.334850  0.167425  0.129855  1
  Co  Co7  1  0.832575  0.167425  0.129855  1
  Co  Co8  1  0.832575  0.665149  0.129855  1
  Co  Co9  1  0.334850  0.167425  0.370145  1
  Co  Co10  1  0.832575  0.167425  0.370145  1
  Co  Co11  1  0.832575  0.665149  0.370145  1
  Co  Co12  1  0.167599  0.335199  0.629038  1
  Co  Co13  1  0.167599  0.832400  0.629038  1
  Co  Co14  1  0.664800  0.832400  0.629038  1
  Co  Co15  1  0.167599  0.335199  0.870961  1
  Co  Co16  1  0.167599  0.832400  0.870961  1
  Co  Co17  1  0.664800  0.832400  0.870961  1
  Si  Si18  1  0.000000  0.000000  0.000282  1
  Si  Si19  1  0.000000  0.000000  0.250000  1
  Si  Si20  1  0.666667  0.333334  0.250000  1
  Si  Si21  1  0.000000  0.000000  0.499718  1
  Si  Si22  1  0.000000  0.000000  0.750000  1
  Si  Si23  1  0.333333  0.666667  0.750000  1
