# generated using pymatgen
data_Hf3Sc(VP)4
_symmetry_space_group_name_H-M   'P 1'
_cell_length_a   3.47642700
_cell_length_b   6.60261781
_cell_length_c   7.87070747
_cell_angle_alpha   90.18705674
_cell_angle_beta   90.00000000
_cell_angle_gamma   90.00000000
_symmetry_Int_Tables_number   1
_chemical_formula_structural   Hf3Sc(VP)4
_chemical_formula_sum   'Hf3 Sc1 V4 P4'
_cell_volume   180.65946930
_cell_formula_units_Z   1
loop_
 _symmetry_equiv_pos_site_id
 _symmetry_equiv_pos_as_xyz
  1  'x, y, z'
loop_
 _atom_site_type_symbol
 _atom_site_label
 _atom_site_symmetry_multiplicity
 _atom_site_fract_x
 _atom_site_fract_y
 _atom_site_fract_z
 _atom_site_occupancy
  Hf  Hf0  1  0.250000  0.539660  0.667321  1
  Hf  Hf1  1  0.750000  0.959852  0.168661  1
  Hf  Hf2  1  0.750000  0.460252  0.331470  1
  Sc  Sc3  1  0.250000  0.039711  0.832924  1
  V  V4  1  0.250000  0.132292  0.440910  1
  V  V5  1  0.250000  0.628777  0.058054  1
  V  V6  1  0.750000  0.868646  0.557232  1
  V  V7  1  0.750000  0.371780  0.942642  1
  P  P8  1  0.250000  0.762273  0.362782  1
  P  P9  1  0.250000  0.260988  0.137109  1
  P  P10  1  0.750000  0.236447  0.639130  1
  P  P11  1  0.750000  0.739321  0.861765  1
