# generated using pymatgen
data_Ho9ErSi5Pb
_symmetry_space_group_name_H-M   'P 1'
_cell_length_a   8.48431601
_cell_length_b   8.51279147
_cell_length_c   6.37130301
_cell_angle_alpha   90.00574688
_cell_angle_beta   89.99976847
_cell_angle_gamma   119.88307462
_symmetry_Int_Tables_number   1
_chemical_formula_structural   Ho9ErSi5Pb
_chemical_formula_sum   'Ho9 Er1 Si5 Pb1'
_cell_volume   398.98650677
_cell_formula_units_Z   1
loop_
 _symmetry_equiv_pos_site_id
 _symmetry_equiv_pos_as_xyz
  1  'x, y, z'
loop_
 _atom_site_type_symbol
 _atom_site_label
 _atom_site_symmetry_multiplicity
 _atom_site_fract_x
 _atom_site_fract_y
 _atom_site_fract_z
 _atom_site_occupancy
  Ho  Ho0  1  0.987701  0.747687  0.749935  1
  Ho  Ho1  1  0.998643  0.242518  0.250091  1
  Ho  Ho2  1  0.756059  0.757556  0.250073  1
  Ho  Ho3  1  0.766869  0.999950  0.749927  1
  Ho  Ho4  1  0.239949  0.252377  0.749883  1
  Ho  Ho5  1  0.240209  0.999939  0.250075  1
  Ho  Ho6  1  0.674840  0.343575  0.003960  1
  Ho  Ho7  1  0.674840  0.343548  0.496026  1
  Ho  Ho8  1  0.331294  0.656461  0.003948  1
  Er  Er9  1  0.331239  0.656391  0.496130  1
  Si  Si10  1  0.393581  0.392390  0.250258  1
  Si  Si11  1  0.001691  0.607844  0.250210  1
  Si  Si12  1  0.998723  0.394686  0.749760  1
  Si  Si13  1  0.603787  0.605531  0.749753  1
  Si  Si14  1  0.605700  0.999789  0.250185  1
  Pb  Pb15  1  0.394876  0.999757  0.749785  1
