# generated using pymatgen
data_DyY3F12
_symmetry_space_group_name_H-M   'P 1'
_cell_length_a   4.79045336
_cell_length_b   6.24072247
_cell_length_c   6.93812600
_cell_angle_alpha   90.00000000
_cell_angle_beta   90.00000000
_cell_angle_gamma   89.95549901
_symmetry_Int_Tables_number   1
_chemical_formula_structural   DyY3F12
_chemical_formula_sum   'Dy1 Y3 F12'
_cell_volume   207.42138869
_cell_formula_units_Z   1
loop_
 _symmetry_equiv_pos_site_id
 _symmetry_equiv_pos_as_xyz
  1  'x, y, z'
loop_
 _atom_site_type_symbol
 _atom_site_label
 _atom_site_symmetry_multiplicity
 _atom_site_fract_x
 _atom_site_fract_y
 _atom_site_fract_z
 _atom_site_occupancy
  Dy  Dy0  1  0.039662  0.865080  0.250000  1
  Y  Y1  1  0.460492  0.364912  0.250000  1
  Y  Y2  1  0.539707  0.635155  0.750000  1
  Y  Y3  1  0.960410  0.134697  0.750000  1
  F  F4  1  0.632009  0.036513  0.250000  1
  F  F5  1  0.369196  0.963340  0.750000  1
  F  F6  1  0.131094  0.463141  0.750000  1
  F  F7  1  0.868397  0.537647  0.250000  1
  F  F8  1  0.151502  0.160180  0.064014  1
  F  F9  1  0.848839  0.839148  0.936824  1
  F  F10  1  0.651387  0.339259  0.936385  1
  F  F11  1  0.848839  0.839148  0.563176  1
  F  F12  1  0.347788  0.661170  0.063878  1
  F  F13  1  0.151502  0.160180  0.435986  1
  F  F14  1  0.347788  0.661170  0.436122  1
  F  F15  1  0.651387  0.339259  0.563615  1
