# generated using pymatgen
data_Mn3Cr(CuS4)2
_symmetry_space_group_name_H-M   'P 1'
_cell_length_a   6.94037778
_cell_length_b   6.94037710
_cell_length_c   6.94037719
_cell_angle_alpha   59.57302724
_cell_angle_beta   59.57303142
_cell_angle_gamma   59.57302424
_symmetry_Int_Tables_number   1
_chemical_formula_structural   Mn3Cr(CuS4)2
_chemical_formula_sum   'Mn3 Cr1 Cu2 S8'
_cell_volume   234.09833328
_cell_formula_units_Z   1
loop_
 _symmetry_equiv_pos_site_id
 _symmetry_equiv_pos_as_xyz
  1  'x, y, z'
loop_
 _atom_site_type_symbol
 _atom_site_label
 _atom_site_symmetry_multiplicity
 _atom_site_fract_x
 _atom_site_fract_y
 _atom_site_fract_z
 _atom_site_occupancy
  Mn  Mn0  1  0.625000  0.125000  0.125000  1
  Mn  Mn1  1  0.125000  0.125000  0.625000  1
  Mn  Mn2  1  0.125000  0.625000  0.125000  1
  Cr  Cr3  1  0.125000  0.125000  0.125000  1
  Cu  Cu4  1  0.500355  0.500355  0.500355  1
  Cu  Cu5  1  0.749645  0.749645  0.749645  1
  S  S6  1  0.366352  0.366352  0.366352  1
  S  S7  1  0.347598  0.882212  0.882212  1
  S  S8  1  0.882212  0.882212  0.347598  1
  S  S9  1  0.882212  0.347598  0.882212  1
  S  S10  1  0.367788  0.367788  0.902402  1
  S  S11  1  0.367788  0.902402  0.367788  1
  S  S12  1  0.883648  0.883648  0.883648  1
  S  S13  1  0.902402  0.367788  0.367788  1
