# generated using pymatgen
data_PuPaTcB6
_symmetry_space_group_name_H-M   'P 1'
_cell_length_a   3.68711000
_cell_length_b   9.33244300
_cell_length_c   11.42068800
_cell_angle_alpha   90.00000000
_cell_angle_beta   90.00000000
_cell_angle_gamma   90.00000000
_symmetry_Int_Tables_number   1
_chemical_formula_structural   PuPaTcB6
_chemical_formula_sum   'Pu4 Pa4 Tc4 B24'
_cell_volume   392.98294935
_cell_formula_units_Z   4
loop_
 _symmetry_equiv_pos_site_id
 _symmetry_equiv_pos_as_xyz
  1  'x, y, z'
loop_
 _atom_site_type_symbol
 _atom_site_label
 _atom_site_symmetry_multiplicity
 _atom_site_fract_x
 _atom_site_fract_y
 _atom_site_fract_z
 _atom_site_occupancy
  Pu  Pu0  1  0.000000  0.954641  0.390915  1
  Pu  Pu1  1  0.000000  0.045359  0.609085  1
  Pu  Pu2  1  0.000000  0.454641  0.109085  1
  Pu  Pu3  1  0.000000  0.545359  0.890915  1
  Pa  Pa4  1  0.000000  0.335096  0.407169  1
  Pa  Pa5  1  0.000000  0.664904  0.592831  1
  Pa  Pa6  1  0.000000  0.835096  0.092831  1
  Pa  Pa7  1  0.000000  0.164904  0.907169  1
  Tc  Tc8  1  0.000000  0.645578  0.320890  1
  Tc  Tc9  1  0.000000  0.354422  0.679110  1
  Tc  Tc10  1  0.000000  0.145578  0.179110  1
  Tc  Tc11  1  0.000000  0.854422  0.820890  1
  B  B12  1  0.500000  0.551515  0.431574  1
  B  B13  1  0.500000  0.448485  0.568426  1
  B  B14  1  0.500000  0.051515  0.068426  1
  B  B15  1  0.500000  0.948485  0.931574  1
  B  B16  1  0.500000  0.743791  0.423380  1
  B  B17  1  0.500000  0.256209  0.576620  1
  B  B18  1  0.500000  0.243791  0.076620  1
  B  B19  1  0.500000  0.756209  0.923380  1
  B  B20  1  0.500000  0.803648  0.273845  1
  B  B21  1  0.500000  0.196352  0.726155  1
  B  B22  1  0.500000  0.303648  0.226155  1
  B  B23  1  0.500000  0.696352  0.773845  1
  B  B24  1  0.500000  0.646036  0.188626  1
  B  B25  1  0.500000  0.353964  0.811374  1
  B  B26  1  0.500000  0.146036  0.311374  1
  B  B27  1  0.500000  0.853964  0.688626  1
  B  B28  1  0.500000  0.988612  0.218956  1
  B  B29  1  0.500000  0.011388  0.781044  1
  B  B30  1  0.500000  0.488612  0.281044  1
  B  B31  1  0.500000  0.511388  0.718956  1
  B  B32  1  0.500000  0.643535  0.039926  1
  B  B33  1  0.500000  0.356465  0.960074  1
  B  B34  1  0.500000  0.143535  0.460074  1
  B  B35  1  0.500000  0.856465  0.539926  1
