# generated using pymatgen
data_Li2Ho2As6Ir7
_symmetry_space_group_name_H-M   'P 1'
_cell_length_a   7.10183271
_cell_length_b   7.18555487
_cell_length_c   7.18555538
_cell_angle_alpha   110.40659089
_cell_angle_beta   109.23838353
_cell_angle_gamma   109.23838539
_symmetry_Int_Tables_number   1
_chemical_formula_structural   Li2Ho2As6Ir7
_chemical_formula_sum   'Li2 Ho2 As6 Ir7'
_cell_volume   280.59553097
_cell_formula_units_Z   1
loop_
 _symmetry_equiv_pos_site_id
 _symmetry_equiv_pos_as_xyz
  1  'x, y, z'
loop_
 _atom_site_type_symbol
 _atom_site_label
 _atom_site_symmetry_multiplicity
 _atom_site_fract_x
 _atom_site_fract_y
 _atom_site_fract_z
 _atom_site_occupancy
  Li  Li0  1  0.000000  0.000000  0.500000  1
  Li  Li1  1  0.000000  0.500000  0.000000  1
  Ho  Ho2  1  0.500000  0.000000  0.000000  1
  Ho  Ho3  1  0.500000  0.500000  0.500000  1
  As  As4  1  0.698577  0.684965  0.013611  1
  As  As5  1  0.301423  0.315035  0.986389  1
  As  As6  1  0.000000  0.685127  0.685127  1
  As  As7  1  0.000000  0.314873  0.314873  1
  As  As8  1  0.698577  0.013611  0.684965  1
  As  As9  1  0.301423  0.986389  0.315035  1
  Ir  Ir10  1  0.000000  0.000000  0.000000  1
  Ir  Ir11  1  0.246873  0.497551  0.749322  1
  Ir  Ir12  1  0.753127  0.250678  0.502449  1
  Ir  Ir13  1  0.500000  0.250000  0.750000  1
  Ir  Ir14  1  0.500000  0.750000  0.250000  1
  Ir  Ir15  1  0.753127  0.502449  0.250678  1
  Ir  Ir16  1  0.246873  0.749322  0.497551  1
