# generated using pymatgen
data_Sr2Pr2Al13Au9
_symmetry_space_group_name_H-M   'P 1'
_cell_length_a   11.86551000
_cell_length_b   11.85591898
_cell_length_c   4.29502100
_cell_angle_alpha   90.00000000
_cell_angle_beta   90.00000000
_cell_angle_gamma   120.02675277
_symmetry_Int_Tables_number   1
_chemical_formula_structural   Sr2Pr2Al13Au9
_chemical_formula_sum   'Sr2 Pr2 Al13 Au9'
_cell_volume   523.11890618
_cell_formula_units_Z   1
loop_
 _symmetry_equiv_pos_site_id
 _symmetry_equiv_pos_as_xyz
  1  'x, y, z'
loop_
 _atom_site_type_symbol
 _atom_site_label
 _atom_site_symmetry_multiplicity
 _atom_site_fract_x
 _atom_site_fract_y
 _atom_site_fract_z
 _atom_site_occupancy
  Sr  Sr0  1  0.205187  0.410375  0.500000  1
  Sr  Sr1  1  0.666478  0.332956  0.000000  1
  Pr  Pr2  1  0.204495  0.796455  0.500000  1
  Pr  Pr3  1  0.591960  0.796455  0.500000  1
  Al  Al4  1  0.947178  0.290658  0.000000  1
  Al  Al5  1  0.709500  0.656958  0.000000  1
  Al  Al6  1  0.947458  0.656958  0.000000  1
  Al  Al7  1  0.344293  0.052166  0.000000  1
  Al  Al8  1  0.163677  0.081739  0.500000  1
  Al  Al9  1  0.918289  0.836578  0.500000  1
  Al  Al10  1  0.707873  0.052166  0.000000  1
  Al  Al11  1  0.531726  0.063450  0.500000  1
  Al  Al12  1  0.918061  0.081739  0.500000  1
  Al  Al13  1  0.343480  0.290658  0.000000  1
  Al  Al14  1  0.532855  0.467385  0.500000  1
  Al  Al15  1  0.934530  0.467385  0.500000  1
  Al  Al16  1  0.334113  0.668227  0.000000  1
  Au  Au17  1  0.459711  0.543453  0.000000  1
  Au  Au18  1  0.827599  0.913723  0.000000  1
  Au  Au19  1  0.457752  0.915502  0.000000  1
  Au  Au20  1  0.084753  0.169506  0.000000  1
  Au  Au21  1  0.086124  0.913723  0.000000  1
  Au  Au22  1  0.792185  0.584370  0.500000  1
  Au  Au23  1  0.083743  0.543453  0.000000  1
  Au  Au24  1  0.791437  0.206981  0.500000  1
  Au  Au25  1  0.415545  0.206981  0.500000  1
