# generated using pymatgen
data_Nb16Ni8C3N
_symmetry_space_group_name_H-M   'P 1'
_cell_length_a   8.26590846
_cell_length_b   8.30152497
_cell_length_c   8.30152500
_cell_angle_alpha   60.00000388
_cell_angle_beta   59.85736584
_cell_angle_gamma   59.85736457
_symmetry_Int_Tables_number   1
_chemical_formula_structural   Nb16Ni8C3N
_chemical_formula_sum   'Nb16 Ni8 C3 N1'
_cell_volume   401.93117004
_cell_formula_units_Z   1
loop_
 _symmetry_equiv_pos_site_id
 _symmetry_equiv_pos_as_xyz
  1  'x, y, z'
loop_
 _atom_site_type_symbol
 _atom_site_label
 _atom_site_symmetry_multiplicity
 _atom_site_fract_x
 _atom_site_fract_y
 _atom_site_fract_z
 _atom_site_occupancy
  Nb  Nb0  1  0.432112  0.068226  0.068226  1
  Nb  Nb1  1  0.064658  0.434222  0.434222  1
  Nb  Nb2  1  0.064658  0.434222  0.066899  1
  Nb  Nb3  1  0.064658  0.066899  0.434222  1
  Nb  Nb4  1  0.432112  0.068226  0.431436  1
  Nb  Nb5  1  0.432112  0.431436  0.068226  1
  Nb  Nb6  1  0.185342  0.815778  0.183101  1
  Nb  Nb7  1  0.817888  0.181774  0.818564  1
  Nb  Nb8  1  0.817888  0.181774  0.181774  1
  Nb  Nb9  1  0.185342  0.183101  0.815778  1
  Nb  Nb10  1  0.185342  0.815778  0.815778  1
  Nb  Nb11  1  0.817888  0.818564  0.181774  1
  Nb  Nb12  1  0.625000  0.625000  0.625000  1
  Nb  Nb13  1  0.625000  0.625000  0.125000  1
  Nb  Nb14  1  0.125000  0.625000  0.625000  1
  Nb  Nb15  1  0.625000  0.125000  0.625000  1
  Ni  Ni16  1  0.828865  0.830539  0.830539  1
  Ni  Ni17  1  0.828865  0.830539  0.510056  1
  Ni  Ni18  1  0.512520  0.829160  0.829160  1
  Ni  Ni19  1  0.828865  0.510056  0.830539  1
  Ni  Ni20  1  0.421135  0.419461  0.419461  1
  Ni  Ni21  1  0.421135  0.419461  0.739944  1
  Ni  Ni22  1  0.421135  0.739944  0.419461  1
  Ni  Ni23  1  0.737480  0.420840  0.420840  1
  C  C24  1  0.125000  0.625000  0.125000  1
  C  C25  1  0.125000  0.125000  0.625000  1
  C  C26  1  0.125000  0.125000  0.125000  1
  N  N27  1  0.625000  0.125000  0.125000  1
