# generated using pymatgen
data_Hf3Nb7N12
_symmetry_space_group_name_H-M   'P 1'
_cell_length_a   5.31239800
_cell_length_b   5.31239659
_cell_length_c   10.54131800
_cell_angle_alpha   90.00000000
_cell_angle_beta   90.00000000
_cell_angle_gamma   120.00000875
_symmetry_Int_Tables_number   1
_chemical_formula_structural   Hf3Nb7N12
_chemical_formula_sum   'Hf3 Nb7 N12'
_cell_volume   257.63603242
_cell_formula_units_Z   1
loop_
 _symmetry_equiv_pos_site_id
 _symmetry_equiv_pos_as_xyz
  1  'x, y, z'
loop_
 _atom_site_type_symbol
 _atom_site_label
 _atom_site_symmetry_multiplicity
 _atom_site_fract_x
 _atom_site_fract_y
 _atom_site_fract_z
 _atom_site_occupancy
  Hf  Hf0  1  0.333333  0.666667  0.500000  1
  Hf  Hf1  1  0.666667  0.333333  0.000000  1
  Hf  Hf2  1  0.666667  0.333333  0.500000  1
  Nb  Nb3  1  0.333333  0.666667  0.000000  1
  Nb  Nb4  1  0.678439  0.000324  0.751903  1
  Nb  Nb5  1  0.678439  0.678114  0.248097  1
  Nb  Nb6  1  0.999676  0.321561  0.248097  1
  Nb  Nb7  1  0.999676  0.678114  0.751903  1
  Nb  Nb8  1  0.321886  0.321561  0.751903  1
  Nb  Nb9  1  0.321886  0.000324  0.248097  1
  N  N10  1  0.345796  0.345777  0.373848  1
  N  N11  1  0.654223  0.000019  0.373848  1
  N  N12  1  0.999981  0.654204  0.373848  1
  N  N13  1  0.002985  0.345128  0.877581  1
  N  N14  1  0.654872  0.997015  0.122419  1
  N  N15  1  0.654872  0.657856  0.877581  1
  N  N16  1  0.342144  0.997015  0.877581  1
  N  N17  1  0.654223  0.654204  0.626152  1
  N  N18  1  0.999981  0.345777  0.626152  1
  N  N19  1  0.002985  0.657856  0.122419  1
  N  N20  1  0.345796  0.000019  0.626152  1
  N  N21  1  0.342144  0.345128  0.122419  1
