# generated using pymatgen
data_Y3Er3Si4(GeRh6)2
_symmetry_space_group_name_H-M   'P 1'
_cell_length_a   5.58078800
_cell_length_b   5.58078734
_cell_length_c   15.17955500
_cell_angle_alpha   90.00000000
_cell_angle_beta   90.00000000
_cell_angle_gamma   119.99999204
_symmetry_Int_Tables_number   1
_chemical_formula_structural   Y3Er3Si4(GeRh6)2
_chemical_formula_sum   'Y3 Er3 Si4 Ge2 Rh12'
_cell_volume   409.43098450
_cell_formula_units_Z   1
loop_
 _symmetry_equiv_pos_site_id
 _symmetry_equiv_pos_as_xyz
  1  'x, y, z'
loop_
 _atom_site_type_symbol
 _atom_site_label
 _atom_site_symmetry_multiplicity
 _atom_site_fract_x
 _atom_site_fract_y
 _atom_site_fract_z
 _atom_site_occupancy
  Y  Y0  1  0.333333  0.666667  0.537555  1
  Y  Y1  1  0.333333  0.666667  0.750165  1
  Y  Y2  1  0.666667  0.333333  0.249994  1
  Er  Er3  1  0.666667  0.333333  0.462425  1
  Er  Er4  1  0.666667  0.333333  0.037452  1
  Er  Er5  1  0.333333  0.666667  0.962595  1
  Si  Si6  1  0.000000  0.000000  0.249918  1
  Si  Si7  1  0.000000  0.000000  0.750018  1
  Si  Si8  1  0.333333  0.666667  0.249938  1
  Si  Si9  1  0.666667  0.333333  0.749980  1
  Ge  Ge10  1  0.000000  0.000000  0.000015  1
  Ge  Ge11  1  0.000000  0.000000  0.499992  1
  Rh  Rh12  1  0.167825  0.335649  0.132079  1
  Rh  Rh13  1  0.832162  0.664326  0.867966  1
  Rh  Rh14  1  0.664351  0.832175  0.132079  1
  Rh  Rh15  1  0.832135  0.664270  0.632281  1
  Rh  Rh16  1  0.335674  0.167838  0.867966  1
  Rh  Rh17  1  0.167687  0.335373  0.367658  1
  Rh  Rh18  1  0.167825  0.832175  0.132079  1
  Rh  Rh19  1  0.335730  0.167865  0.632281  1
  Rh  Rh20  1  0.832162  0.167838  0.867966  1
  Rh  Rh21  1  0.664627  0.832313  0.367658  1
  Rh  Rh22  1  0.832135  0.167865  0.632281  1
  Rh  Rh23  1  0.167687  0.832313  0.367658  1
