# generated using pymatgen
data_Hf5Zr3Co11Si16Ni
_symmetry_space_group_name_H-M   'P 1'
_cell_length_a   5.19919649
_cell_length_b   6.75423045
_cell_length_c   13.67543969
_cell_angle_alpha   89.93686094
_cell_angle_beta   89.84724378
_cell_angle_gamma   90.11929409
_symmetry_Int_Tables_number   1
_chemical_formula_structural   Hf5Zr3Co11Si16Ni
_chemical_formula_sum   'Hf5 Zr3 Co11 Si16 Ni1'
_cell_volume   480.23151029
_cell_formula_units_Z   1
loop_
 _symmetry_equiv_pos_site_id
 _symmetry_equiv_pos_as_xyz
  1  'x, y, z'
loop_
 _atom_site_type_symbol
 _atom_site_label
 _atom_site_symmetry_multiplicity
 _atom_site_fract_x
 _atom_site_fract_y
 _atom_site_fract_z
 _atom_site_occupancy
  Hf  Hf0  1  0.767729  0.398451  0.645846  1
  Hf  Hf1  1  0.231406  0.601956  0.354538  1
  Hf  Hf2  1  0.733044  0.899533  0.354457  1
  Hf  Hf3  1  0.265613  0.896099  0.852686  1
  Hf  Hf4  1  0.766411  0.599588  0.852895  1
  Zr  Zr5  1  0.234555  0.401718  0.147076  1
  Zr  Zr6  1  0.733895  0.101873  0.147039  1
  Zr  Zr7  1  0.267043  0.098560  0.646142  1
  Co  Co8  1  0.507357  0.226324  0.480729  1
  Co  Co9  1  0.772521  0.997377  0.750704  1
  Co  Co10  1  0.494008  0.226958  0.980182  1
  Co  Co11  1  0.725375  0.503775  0.251662  1
  Co  Co12  1  0.495272  0.773690  0.518044  1
  Co  Co13  1  0.005860  0.276335  0.480743  1
  Co  Co14  1  0.003296  0.734221  0.017802  1
  Co  Co15  1  0.227930  0.998138  0.252702  1
  Co  Co16  1  0.274838  0.499829  0.751072  1
  Co  Co17  1  0.503590  0.771875  0.018631  1
  Co  Co18  1  0.995294  0.725143  0.518867  1
  Si  Si19  1  0.225815  0.017916  0.070907  1
  Si  Si20  1  0.718825  0.519877  0.431880  1
  Si  Si21  1  0.781858  0.019140  0.567509  1
  Si  Si22  1  0.482531  0.755049  0.188103  1
  Si  Si23  1  0.017529  0.252108  0.810422  1
  Si  Si24  1  0.517189  0.244766  0.811961  1
  Si  Si25  1  0.218686  0.981465  0.432694  1
  Si  Si26  1  0.279951  0.522138  0.932204  1
  Si  Si27  1  0.981920  0.747850  0.187808  1
  Si  Si28  1  0.721658  0.484071  0.068392  1
  Si  Si29  1  0.282044  0.480432  0.568104  1
  Si  Si30  1  0.482265  0.247457  0.312878  1
  Si  Si31  1  0.017196  0.743884  0.687839  1
  Si  Si32  1  0.772189  0.976841  0.928991  1
  Si  Si33  1  0.519440  0.751529  0.687154  1
  Si  Si34  1  0.982072  0.254866  0.312791  1
  Ni  Ni35  1  0.993795  0.269170  0.978548  1
