# generated using pymatgen
data_Nd8Dy4Cu3Si8Ni
_symmetry_space_group_name_H-M   'P 1'
_cell_length_a   4.23093400
_cell_length_b   11.85979099
_cell_length_c   11.41049326
_cell_angle_alpha   89.92120852
_cell_angle_beta   90.00000000
_cell_angle_gamma   90.00000000
_symmetry_Int_Tables_number   1
_chemical_formula_structural   Nd8Dy4Cu3Si8Ni
_chemical_formula_sum   'Nd8 Dy4 Cu3 Si8 Ni1'
_cell_volume   572.55510900
_cell_formula_units_Z   1
loop_
 _symmetry_equiv_pos_site_id
 _symmetry_equiv_pos_as_xyz
  1  'x, y, z'
loop_
 _atom_site_type_symbol
 _atom_site_label
 _atom_site_symmetry_multiplicity
 _atom_site_fract_x
 _atom_site_fract_y
 _atom_site_fract_z
 _atom_site_occupancy
  Nd  Nd0  1  0.250000  0.060074  0.880802  1
  Nd  Nd1  1  0.250000  0.437672  0.381657  1
  Nd  Nd2  1  0.750000  0.935832  0.114448  1
  Nd  Nd3  1  0.750000  0.561657  0.617615  1
  Nd  Nd4  1  0.250000  0.118058  0.562972  1
  Nd  Nd5  1  0.250000  0.381690  0.063899  1
  Nd  Nd6  1  0.750000  0.880278  0.437624  1
  Nd  Nd7  1  0.750000  0.623884  0.936050  1
  Dy  Dy8  1  0.250000  0.807624  0.709276  1
  Dy  Dy9  1  0.250000  0.692782  0.204525  1
  Dy  Dy10  1  0.750000  0.191750  0.294153  1
  Dy  Dy11  1  0.750000  0.308808  0.796130  1
  Cu  Cu12  1  0.250000  0.358318  0.634984  1
  Cu  Cu13  1  0.250000  0.139320  0.132945  1
  Cu  Cu14  1  0.750000  0.640825  0.365592  1
  Si  Si15  1  0.250000  0.813398  0.968264  1
  Si  Si16  1  0.250000  0.688033  0.470319  1
  Si  Si17  1  0.750000  0.189847  0.030263  1
  Si  Si18  1  0.750000  0.310756  0.530134  1
  Si  Si19  1  0.250000  0.483537  0.806518  1
  Si  Si20  1  0.250000  0.016836  0.305279  1
  Si  Si21  1  0.750000  0.518159  0.193829  1
  Si  Si22  1  0.750000  0.979813  0.696240  1
  Ni  Ni23  1  0.750000  0.861049  0.866485  1
