# generated using pymatgen
data_La11Nd(ThIr3)2
_symmetry_space_group_name_H-M   'P 1'
_cell_length_a   10.23909300
_cell_length_b   10.22288716
_cell_length_c   6.55623300
_cell_angle_alpha   89.91655223
_cell_angle_beta   90.00000000
_cell_angle_gamma   120.05245677
_symmetry_Int_Tables_number   1
_chemical_formula_structural   La11Nd(ThIr3)2
_chemical_formula_sum   'La11 Nd1 Th2 Ir6'
_cell_volume   594.00437693
_cell_formula_units_Z   1
loop_
 _symmetry_equiv_pos_site_id
 _symmetry_equiv_pos_as_xyz
  1  'x, y, z'
loop_
 _atom_site_type_symbol
 _atom_site_label
 _atom_site_symmetry_multiplicity
 _atom_site_fract_x
 _atom_site_fract_y
 _atom_site_fract_z
 _atom_site_occupancy
  La  La0  1  0.128011  0.872341  0.246215  1
  La  La1  1  0.744332  0.872341  0.246215  1
  La  La2  1  0.127235  0.254470  0.247140  1
  La  La3  1  0.871198  0.126912  0.746817  1
  La  La4  1  0.255712  0.126912  0.746817  1
  La  La5  1  0.873077  0.746156  0.746526  1
  La  La6  1  0.537813  0.462340  0.438563  1
  La  La7  1  0.924527  0.462340  0.438563  1
  La  La8  1  0.537851  0.075704  0.440560  1
  La  La9  1  0.462581  0.539163  0.938289  1
  La  La10  1  0.076582  0.539163  0.938289  1
  Nd  Nd11  1  0.462000  0.924000  0.942963  1
  Th  Th12  1  0.334027  0.668055  0.482565  1
  Th  Th13  1  0.666335  0.332669  0.982047  1
  Ir  Ir14  1  0.808669  0.191472  0.187887  1
  Ir  Ir15  1  0.382803  0.191472  0.187887  1
  Ir  Ir16  1  0.808632  0.617265  0.185870  1
  Ir  Ir17  1  0.189717  0.807381  0.685459  1
  Ir  Ir18  1  0.617664  0.807381  0.685459  1
  Ir  Ir19  1  0.191231  0.382460  0.687957  1
