# generated using pymatgen
data_Sc12Si12Os3Ru
_symmetry_space_group_name_H-M   'P 1'
_cell_length_a   4.00230700
_cell_length_b   10.31353302
_cell_length_c   11.71658802
_cell_angle_alpha   90.00651586
_cell_angle_beta   90.00000000
_cell_angle_gamma   90.00000000
_symmetry_Int_Tables_number   1
_chemical_formula_structural   Sc12Si12Os3Ru
_chemical_formula_sum   'Sc12 Si12 Os3 Ru1'
_cell_volume   483.63644291
_cell_formula_units_Z   1
loop_
 _symmetry_equiv_pos_site_id
 _symmetry_equiv_pos_as_xyz
  1  'x, y, z'
loop_
 _atom_site_type_symbol
 _atom_site_label
 _atom_site_symmetry_multiplicity
 _atom_site_fract_x
 _atom_site_fract_y
 _atom_site_fract_z
 _atom_site_occupancy
  Sc  Sc0  1  0.250000  0.877465  0.019396  1
  Sc  Sc1  1  0.250000  0.622822  0.518702  1
  Sc  Sc2  1  0.750000  0.122958  0.981548  1
  Sc  Sc3  1  0.750000  0.377320  0.481287  1
  Sc  Sc4  1  0.250000  0.921856  0.604209  1
  Sc  Sc5  1  0.250000  0.578164  0.104934  1
  Sc  Sc6  1  0.750000  0.078201  0.394916  1
  Sc  Sc7  1  0.750000  0.421784  0.895072  1
  Sc  Sc8  1  0.250000  0.660070  0.798180  1
  Sc  Sc9  1  0.250000  0.839912  0.297966  1
  Sc  Sc10  1  0.750000  0.339840  0.201987  1
  Sc  Sc11  1  0.750000  0.159855  0.701956  1
  Si  Si12  1  0.250000  0.015790  0.822324  1
  Si  Si13  1  0.250000  0.484128  0.322010  1
  Si  Si14  1  0.750000  0.984026  0.177677  1
  Si  Si15  1  0.750000  0.515984  0.677958  1
  Si  Si16  1  0.250000  0.251892  0.842792  1
  Si  Si17  1  0.250000  0.248014  0.343024  1
  Si  Si18  1  0.750000  0.747842  0.157106  1
  Si  Si19  1  0.750000  0.752496  0.657155  1
  Si  Si20  1  0.250000  0.194454  0.546077  1
  Si  Si21  1  0.250000  0.305717  0.046046  1
  Si  Si22  1  0.750000  0.805453  0.453863  1
  Si  Si23  1  0.750000  0.693904  0.954308  1
  Os  Os24  1  0.250000  0.390531  0.676797  1
  Os  Os25  1  0.250000  0.109578  0.176840  1
  Os  Os26  1  0.750000  0.609534  0.323175  1
  Ru  Ru27  1  0.750000  0.890410  0.822693  1
