# generated using pymatgen
data_Tl2IrRhO7
_symmetry_space_group_name_H-M   'P 1'
_cell_length_a   7.21772055
_cell_length_b   7.21881417
_cell_length_c   7.21772000
_cell_angle_alpha   59.99497831
_cell_angle_beta   59.95403228
_cell_angle_gamma   59.99497928
_symmetry_Int_Tables_number   1
_chemical_formula_structural   Tl2IrRhO7
_chemical_formula_sum   'Tl4 Ir2 Rh2 O14'
_cell_volume   265.80730647
_cell_formula_units_Z   2
loop_
 _symmetry_equiv_pos_site_id
 _symmetry_equiv_pos_as_xyz
  1  'x, y, z'
loop_
 _atom_site_type_symbol
 _atom_site_label
 _atom_site_symmetry_multiplicity
 _atom_site_fract_x
 _atom_site_fract_y
 _atom_site_fract_z
 _atom_site_occupancy
  Tl  Tl0  1  0.125000  0.125000  0.125000  1
  Tl  Tl1  1  0.125000  0.625000  0.125000  1
  Tl  Tl2  1  0.625000  0.125000  0.125000  1
  Tl  Tl3  1  0.125000  0.125000  0.625000  1
  Ir  Ir4  1  0.625000  0.625000  0.125000  1
  Ir  Ir5  1  0.125000  0.625000  0.625000  1
  Rh  Rh6  1  0.625000  0.625000  0.625000  1
  Rh  Rh7  1  0.625000  0.125000  0.625000  1
  O  O8  1  0.249109  0.250891  0.249109  1
  O  O9  1  0.299258  0.700742  0.299258  1
  O  O10  1  0.955848  0.950544  0.542741  1
  O  O11  1  0.541504  0.958496  0.541504  1
  O  O12  1  0.707259  0.699133  0.294152  1
  O  O13  1  0.955848  0.550867  0.542741  1
  O  O14  1  0.708496  0.291504  0.708496  1
  O  O15  1  0.294152  0.299456  0.707259  1
  O  O16  1  0.707259  0.299456  0.294152  1
  O  O17  1  0.294152  0.699133  0.707259  1
  O  O18  1  0.950742  0.549258  0.950742  1
  O  O19  1  0.542741  0.550867  0.955848  1
  O  O20  1  0.000891  0.999109  0.000891  1
  O  O21  1  0.542741  0.950544  0.955848  1
