# generated using pymatgen
data_Sc6Ti4Al12OsRh6
_symmetry_space_group_name_H-M   'P 1'
_cell_length_a   8.82704059
_cell_length_b   8.82705008
_cell_length_c   8.80140600
_cell_angle_alpha   60.09704284
_cell_angle_beta   60.09706819
_cell_angle_gamma   59.90279864
_symmetry_Int_Tables_number   1
_chemical_formula_structural   Sc6Ti4Al12OsRh6
_chemical_formula_sum   'Sc6 Ti4 Al12 Os1 Rh6'
_cell_volume   485.26877185
_cell_formula_units_Z   1
loop_
 _symmetry_equiv_pos_site_id
 _symmetry_equiv_pos_as_xyz
  1  'x, y, z'
loop_
 _atom_site_type_symbol
 _atom_site_label
 _atom_site_symmetry_multiplicity
 _atom_site_fract_x
 _atom_site_fract_y
 _atom_site_fract_z
 _atom_site_occupancy
  Sc  Sc0  1  0.701155  0.298702  0.291244  1
  Sc  Sc1  1  0.701101  0.298732  0.708907  1
  Sc  Sc2  1  0.708172  0.708172  0.291824  1
  Sc  Sc3  1  0.298732  0.701101  0.708906  1
  Sc  Sc4  1  0.298702  0.701155  0.291243  1
  Sc  Sc5  1  0.292852  0.292852  0.707171  1
  Ti  Ti6  1  0.640572  0.122729  0.118351  1
  Ti  Ti7  1  0.122729  0.640572  0.118351  1
  Ti  Ti8  1  0.118827  0.118828  0.641677  1
  Ti  Ti9  1  0.118843  0.118843  0.120612  1
  Al  Al10  1  0.360509  0.878981  0.880271  1
  Al  Al11  1  0.878981  0.360509  0.880271  1
  Al  Al12  1  0.880508  0.880507  0.360054  1
  Al  Al13  1  0.880490  0.880490  0.878950  1
  Al  Al14  1  0.995286  0.334235  0.335217  1
  Al  Al15  1  0.334235  0.995286  0.335216  1
  Al  Al16  1  0.331944  0.331944  0.000469  1
  Al  Al17  1  0.331972  0.331973  0.335643  1
  Al  Al18  1  0.004661  0.666101  0.664611  1
  Al  Al19  1  0.666101  0.004661  0.664612  1
  Al  Al20  1  0.668034  0.668034  0.998556  1
  Al  Al21  1  0.668049  0.668048  0.665370  1
  Os  Os22  1  0.497910  0.497910  0.002083  1
  Rh  Rh23  1  0.000125  0.000125  0.999869  1
  Rh  Rh24  1  0.497697  0.001445  0.001043  1
  Rh  Rh25  1  0.497645  0.001461  0.499836  1
  Rh  Rh26  1  0.001461  0.497645  0.499836  1
  Rh  Rh27  1  0.001445  0.497697  0.001043  1
  Rh  Rh28  1  0.001262  0.001262  0.498762  1
