# generated using pymatgen
data_Er2Al9Co2Cu
_symmetry_space_group_name_H-M   'P 1'
_cell_length_a   7.40452202
_cell_length_b   7.40451678
_cell_length_c   9.21752000
_cell_angle_alpha   90.00000000
_cell_angle_beta   90.00000000
_cell_angle_gamma   119.30220869
_symmetry_Int_Tables_number   1
_chemical_formula_structural   Er2Al9Co2Cu
_chemical_formula_sum   'Er4 Al18 Co4 Cu2'
_cell_volume   440.70647160
_cell_formula_units_Z   2
loop_
 _symmetry_equiv_pos_site_id
 _symmetry_equiv_pos_as_xyz
  1  'x, y, z'
loop_
 _atom_site_type_symbol
 _atom_site_label
 _atom_site_symmetry_multiplicity
 _atom_site_fract_x
 _atom_site_fract_y
 _atom_site_fract_z
 _atom_site_occupancy
  Er  Er0  1  0.995049  0.679758  0.250000  1
  Er  Er1  1  0.004951  0.320242  0.750000  1
  Er  Er2  1  0.679757  0.995050  0.250000  1
  Er  Er3  1  0.320243  0.004950  0.750000  1
  Al  Al4  1  0.136792  0.136792  0.250000  1
  Al  Al5  1  0.863208  0.863208  0.750000  1
  Al  Al6  1  0.998218  0.344108  0.074495  1
  Al  Al7  1  0.001782  0.655892  0.925505  1
  Al  Al8  1  0.001782  0.655892  0.574495  1
  Al  Al9  1  0.344108  0.998218  0.425505  1
  Al  Al10  1  0.998218  0.344108  0.425505  1
  Al  Al11  1  0.655892  0.001782  0.574495  1
  Al  Al12  1  0.655892  0.001782  0.925505  1
  Al  Al13  1  0.344108  0.998218  0.074495  1
  Al  Al14  1  0.338083  0.338083  0.548325  1
  Al  Al15  1  0.661917  0.661917  0.451675  1
  Al  Al16  1  0.661917  0.661917  0.048325  1
  Al  Al17  1  0.338083  0.338083  0.951675  1
  Al  Al18  1  0.339886  0.560761  0.250000  1
  Al  Al19  1  0.660114  0.439239  0.750000  1
  Al  Al20  1  0.560760  0.339887  0.250000  1
  Al  Al21  1  0.439240  0.660113  0.750000  1
  Co  Co22  1  0.671269  0.328731  0.000001  1
  Co  Co23  1  0.328731  0.671269  0.999999  1
  Co  Co24  1  0.328731  0.671269  0.500001  1
  Co  Co25  1  0.671269  0.328731  0.499999  1
  Cu  Cu26  1  0.000000  0.000000  0.000000  1
  Cu  Cu27  1  0.000000  0.000000  0.500000  1
