# generated using pymatgen
data_Nd4TmLu3(B6Os)4
_symmetry_space_group_name_H-M   'P 1'
_cell_length_a   3.67256500
_cell_length_b   9.18355002
_cell_length_c   11.61926003
_cell_angle_alpha   90.00754062
_cell_angle_beta   90.00000000
_cell_angle_gamma   90.00000000
_symmetry_Int_Tables_number   1
_chemical_formula_structural   Nd4TmLu3(B6Os)4
_chemical_formula_sum   'Nd4 Tm1 Lu3 B24 Os4'
_cell_volume   391.88492182
_cell_formula_units_Z   1
loop_
 _symmetry_equiv_pos_site_id
 _symmetry_equiv_pos_as_xyz
  1  'x, y, z'
loop_
 _atom_site_type_symbol
 _atom_site_label
 _atom_site_symmetry_multiplicity
 _atom_site_fract_x
 _atom_site_fract_y
 _atom_site_fract_z
 _atom_site_occupancy
  Nd  Nd0  1  0.000000  0.322218  0.414358  1
  Nd  Nd1  1  0.000000  0.677813  0.585817  1
  Nd  Nd2  1  0.000000  0.822028  0.085582  1
  Nd  Nd3  1  0.000000  0.177974  0.914278  1
  Tm  Tm4  1  0.000000  0.944725  0.372758  1
  Lu  Lu5  1  0.000000  0.055387  0.627517  1
  Lu  Lu6  1  0.000000  0.444730  0.127119  1
  Lu  Lu7  1  0.000000  0.555247  0.872823  1
  B  B8  1  0.500000  0.556411  0.430208  1
  B  B9  1  0.500000  0.443395  0.569873  1
  B  B10  1  0.500000  0.056594  0.069717  1
  B  B11  1  0.500000  0.943444  0.930149  1
  B  B12  1  0.500000  0.750317  0.417321  1
  B  B13  1  0.500000  0.249189  0.582711  1
  B  B14  1  0.500000  0.250959  0.082634  1
  B  B15  1  0.500000  0.749133  0.917306  1
  B  B16  1  0.500000  0.791257  0.266700  1
  B  B17  1  0.500000  0.208282  0.733200  1
  B  B18  1  0.500000  0.291939  0.233118  1
  B  B19  1  0.500000  0.708265  0.766824  1
  B  B20  1  0.500000  0.630021  0.184733  1
  B  B21  1  0.500000  0.369871  0.815164  1
  B  B22  1  0.500000  0.130582  0.314920  1
  B  B23  1  0.500000  0.869809  0.684903  1
  B  B24  1  0.500000  0.985190  0.214471  1
  B  B25  1  0.500000  0.015115  0.785176  1
  B  B26  1  0.500000  0.484732  0.285094  1
  B  B27  1  0.500000  0.515140  0.714865  1
  B  B28  1  0.500000  0.600933  0.027487  1
  B  B29  1  0.500000  0.399037  0.972484  1
  B  B30  1  0.500000  0.101591  0.472855  1
  B  B31  1  0.500000  0.898844  0.528063  1
  Os  Os32  1  0.000000  0.639195  0.318749  1
  Os  Os33  1  0.000000  0.360286  0.681264  1
  Os  Os34  1  0.000000  0.140132  0.180891  1
  Os  Os35  1  0.000000  0.860216  0.818868  1
