# generated using pymatgen
data_LaTbDy4(SbO7)2
_symmetry_space_group_name_H-M   'P 1'
_cell_length_a   6.51738023
_cell_length_b   6.51737996
_cell_length_c   7.59760715
_cell_angle_alpha   89.95410843
_cell_angle_beta   90.04589152
_cell_angle_gamma   109.07986548
_symmetry_Int_Tables_number   1
_chemical_formula_structural   LaTbDy4(SbO7)2
_chemical_formula_sum   'La1 Tb1 Dy4 Sb2 O14'
_cell_volume   304.98878593
_cell_formula_units_Z   1
loop_
 _symmetry_equiv_pos_site_id
 _symmetry_equiv_pos_as_xyz
  1  'x, y, z'
loop_
 _atom_site_type_symbol
 _atom_site_label
 _atom_site_symmetry_multiplicity
 _atom_site_fract_x
 _atom_site_fract_y
 _atom_site_fract_z
 _atom_site_occupancy
  La  La0  1  0.500000  0.500000  0.500000  1
  Tb  Tb1  1  0.500000  0.500000  0.000000  1
  Dy  Dy2  1  0.531463  0.000708  0.753076  1
  Dy  Dy3  1  0.000708  0.531463  0.246924  1
  Dy  Dy4  1  0.468537  0.999292  0.246924  1
  Dy  Dy5  1  0.999292  0.468537  0.753076  1
  Sb  Sb6  1  0.000000  0.000000  0.500000  1
  Sb  Sb7  1  0.000000  0.000000  0.000000  1
  O  O8  1  0.679807  0.934281  0.469787  1
  O  O9  1  0.934281  0.679807  0.530213  1
  O  O10  1  0.679572  0.928752  0.029661  1
  O  O11  1  0.928752  0.679572  0.970339  1
  O  O12  1  0.320193  0.065719  0.530213  1
  O  O13  1  0.065719  0.320193  0.469787  1
  O  O14  1  0.320428  0.071248  0.970339  1
  O  O15  1  0.071248  0.320428  0.029661  1
  O  O16  1  0.930897  0.069103  0.749996  1
  O  O17  1  0.069103  0.930897  0.250004  1
  O  O18  1  0.365690  0.634310  0.760197  1
  O  O19  1  0.634310  0.365690  0.239803  1
  O  O20  1  0.640274  0.359726  0.758775  1
  O  O21  1  0.359726  0.640274  0.241225  1
