# generated using pymatgen
data_Er4CrB16Ir3
_symmetry_space_group_name_H-M   'P 1'
_cell_length_a   3.52692200
_cell_length_b   5.95156539
_cell_length_c   11.53974938
_cell_angle_alpha   89.76286125
_cell_angle_beta   90.00000000
_cell_angle_gamma   90.00000000
_symmetry_Int_Tables_number   1
_chemical_formula_structural   Er4CrB16Ir3
_chemical_formula_sum   'Er4 Cr1 B16 Ir3'
_cell_volume   242.22542237
_cell_formula_units_Z   1
loop_
 _symmetry_equiv_pos_site_id
 _symmetry_equiv_pos_as_xyz
  1  'x, y, z'
loop_
 _atom_site_type_symbol
 _atom_site_label
 _atom_site_symmetry_multiplicity
 _atom_site_fract_x
 _atom_site_fract_y
 _atom_site_fract_z
 _atom_site_occupancy
  Er  Er0  1  0.500000  0.371834  0.150044  1
  Er  Er1  1  0.500000  0.628442  0.852801  1
  Er  Er2  1  0.500000  0.131398  0.647978  1
  Er  Er3  1  0.500000  0.869482  0.348093  1
  Cr  Cr4  1  0.500000  0.863544  0.090583  1
  B  B5  1  0.000000  0.112414  0.047345  1
  B  B6  1  0.000000  0.885842  0.954444  1
  B  B7  1  0.000000  0.387111  0.546959  1
  B  B8  1  0.000000  0.613233  0.451691  1
  B  B9  1  0.000000  0.135317  0.468958  1
  B  B10  1  0.000000  0.864343  0.529499  1
  B  B11  1  0.000000  0.365124  0.970104  1
  B  B12  1  0.000000  0.635752  0.031744  1
  B  B13  1  0.000000  0.022869  0.191384  1
  B  B14  1  0.000000  0.972463  0.808628  1
  B  B15  1  0.000000  0.472541  0.693343  1
  B  B16  1  0.000000  0.524561  0.306020  1
  B  B17  1  0.000000  0.209699  0.311289  1
  B  B18  1  0.000000  0.792366  0.688215  1
  B  B19  1  0.000000  0.291486  0.814231  1
  B  B20  1  0.000000  0.711776  0.185309  1
  Ir  Ir21  1  0.500000  0.357120  0.405368  1
  Ir  Ir22  1  0.500000  0.645796  0.597959  1
  Ir  Ir23  1  0.500000  0.135488  0.908009  1
