# generated using pymatgen
data_Tb4Er8InCo4Rh
_symmetry_space_group_name_H-M   'P 1'
_cell_length_a   8.25684185
_cell_length_b   8.25699477
_cell_length_c   8.25684420
_cell_angle_alpha   110.73564641
_cell_angle_beta   110.88646452
_cell_angle_gamma   106.82287849
_symmetry_Int_Tables_number   1
_chemical_formula_structural   Tb4Er8InCo4Rh
_chemical_formula_sum   'Tb4 Er8 In1 Co4 Rh1'
_cell_volume   432.65227779
_cell_formula_units_Z   1
loop_
 _symmetry_equiv_pos_site_id
 _symmetry_equiv_pos_as_xyz
  1  'x, y, z'
loop_
 _atom_site_type_symbol
 _atom_site_label
 _atom_site_symmetry_multiplicity
 _atom_site_fract_x
 _atom_site_fract_y
 _atom_site_fract_z
 _atom_site_occupancy
  Tb  Tb0  1  0.187598  0.290205  0.477803  1
  Tb  Tb1  1  0.812402  0.709795  0.522197  1
  Tb  Tb2  1  0.187598  0.709795  0.897393  1
  Tb  Tb3  1  0.812402  0.290205  0.102607  1
  Er  Er4  1  0.314434  0.620242  0.305808  1
  Er  Er5  1  0.685566  0.379758  0.694192  1
  Er  Er6  1  0.314429  0.008617  0.694189  1
  Er  Er7  1  0.685571  0.991383  0.305811  1
  Er  Er8  1  0.408342  0.213977  0.194349  1
  Er  Er9  1  0.591658  0.786023  0.805651  1
  Er  Er10  1  0.019628  0.213977  0.805635  1
  Er  Er11  1  0.980372  0.786023  0.194365  1
  In  In12  1  0.500000  0.500000  0.000000  1
  Co  Co13  1  0.112562  0.612570  0.500009  1
  Co  Co14  1  0.887438  0.387430  0.499991  1
  Co  Co15  1  0.378926  0.000000  0.378926  1
  Co  Co16  1  0.621074  0.000000  0.621074  1
  Rh  Rh17  1  0.000000  0.000000  0.000000  1
