# generated using pymatgen
data_Cr22NiC6
_symmetry_space_group_name_H-M   'P 1'
_cell_length_a   7.46692188
_cell_length_b   7.46692185
_cell_length_c   7.46692300
_cell_angle_alpha   59.99999934
_cell_angle_beta   59.99999946
_cell_angle_gamma   59.99999696
_symmetry_Int_Tables_number   1
_chemical_formula_structural   Cr22NiC6
_chemical_formula_sum   'Cr22 Ni1 C6'
_cell_volume   294.38106681
_cell_formula_units_Z   1
loop_
 _symmetry_equiv_pos_site_id
 _symmetry_equiv_pos_as_xyz
  1  'x, y, z'
loop_
 _atom_site_type_symbol
 _atom_site_label
 _atom_site_symmetry_multiplicity
 _atom_site_fract_x
 _atom_site_fract_y
 _atom_site_fract_z
 _atom_site_occupancy
  Cr  Cr0  1  0.750000  0.750000  0.750000  1
  Cr  Cr1  1  0.250000  0.250000  0.250000  1
  Cr  Cr2  1  0.619551  0.619551  0.141347  1
  Cr  Cr3  1  0.619551  0.141347  0.619551  1
  Cr  Cr4  1  0.141347  0.619551  0.619551  1
  Cr  Cr5  1  0.619551  0.619551  0.619551  1
  Cr  Cr6  1  0.380449  0.380449  0.858653  1
  Cr  Cr7  1  0.380449  0.858653  0.380449  1
  Cr  Cr8  1  0.858653  0.380449  0.380449  1
  Cr  Cr9  1  0.380449  0.380449  0.380449  1
  Cr  Cr10  1  0.000000  0.000000  0.334695  1
  Cr  Cr11  1  0.665305  0.000000  0.334695  1
  Cr  Cr12  1  0.000000  0.665305  0.334695  1
  Cr  Cr13  1  0.665305  0.334695  0.000000  1
  Cr  Cr14  1  0.000000  0.334695  0.000000  1
  Cr  Cr15  1  0.000000  0.334695  0.665305  1
  Cr  Cr16  1  0.334695  0.665305  0.000000  1
  Cr  Cr17  1  0.334695  0.000000  0.665305  1
  Cr  Cr18  1  0.334695  0.000000  0.000000  1
  Cr  Cr19  1  0.000000  0.000000  0.665305  1
  Cr  Cr20  1  0.000000  0.665305  0.000000  1
  Cr  Cr21  1  0.665305  0.000000  0.000000  1
  Ni  Ni22  1  0.000000  0.000000  0.000000  1
  C  C23  1  0.721654  0.721654  0.278346  1
  C  C24  1  0.278346  0.721654  0.278346  1
  C  C25  1  0.721654  0.278346  0.278346  1
  C  C26  1  0.278346  0.278346  0.721654  1
  C  C27  1  0.721654  0.278346  0.721654  1
  C  C28  1  0.278346  0.721654  0.721654  1
