# generated using pymatgen
data_Ho10Al2Bi3Sb
_symmetry_space_group_name_H-M   'P 1'
_cell_length_a   8.93977515
_cell_length_b   8.94888402
_cell_length_c   6.45509000
_cell_angle_alpha   90.00000000
_cell_angle_beta   90.00000000
_cell_angle_gamma   119.73496742
_symmetry_Int_Tables_number   1
_chemical_formula_structural   Ho10Al2Bi3Sb
_chemical_formula_sum   'Ho10 Al2 Bi3 Sb1'
_cell_volume   448.41700173
_cell_formula_units_Z   1
loop_
 _symmetry_equiv_pos_site_id
 _symmetry_equiv_pos_as_xyz
  1  'x, y, z'
loop_
 _atom_site_type_symbol
 _atom_site_label
 _atom_site_symmetry_multiplicity
 _atom_site_fract_x
 _atom_site_fract_y
 _atom_site_fract_z
 _atom_site_occupancy
  Ho  Ho0  1  0.338141  0.673562  0.003168  1
  Ho  Ho1  1  0.648710  0.320288  0.497727  1
  Ho  Ho2  1  0.648710  0.320288  0.002273  1
  Ho  Ho3  1  0.338141  0.673562  0.496832  1
  Ho  Ho4  1  0.754766  0.999200  0.750000  1
  Ho  Ho5  1  0.754472  0.758947  0.250000  1
  Ho  Ho6  1  0.010502  0.238805  0.250000  1
  Ho  Ho7  1  0.013578  0.771173  0.750000  1
  Ho  Ho8  1  0.243206  0.229711  0.750000  1
  Ho  Ho9  1  0.245288  0.012701  0.250000  1
  Al  Al10  1  0.396158  0.994932  0.750000  1
  Al  Al11  1  0.394143  0.398895  0.250000  1
  Bi  Bi12  1  0.996290  0.607555  0.250000  1
  Bi  Bi13  1  0.998319  0.390706  0.750000  1
  Bi  Bi14  1  0.610701  0.607578  0.750000  1
  Sb  Sb15  1  0.608879  0.002095  0.250000  1
