# generated using pymatgen
data_CoBiTeO6
_symmetry_space_group_name_H-M   'P 1'
_cell_length_a   5.12256401
_cell_length_b   8.87136904
_cell_length_c   10.12744102
_cell_angle_alpha   89.99832595
_cell_angle_beta   89.99677843
_cell_angle_gamma   90.00188363
_symmetry_Int_Tables_number   1
_chemical_formula_structural   CoBiTeO6
_chemical_formula_sum   'Co4 Bi4 Te4 O24'
_cell_volume   460.23300579
_cell_formula_units_Z   4
loop_
 _symmetry_equiv_pos_site_id
 _symmetry_equiv_pos_as_xyz
  1  'x, y, z'
loop_
 _atom_site_type_symbol
 _atom_site_label
 _atom_site_symmetry_multiplicity
 _atom_site_fract_x
 _atom_site_fract_y
 _atom_site_fract_z
 _atom_site_occupancy
  Co  Co0  1  0.500023  0.833359  0.750000  1
  Co  Co1  1  0.499977  0.166641  0.250000  1
  Co  Co2  1  0.000023  0.333359  0.750000  1
  Co  Co3  1  0.999977  0.666641  0.250000  1
  Bi  Bi4  1  0.000000  0.000000  0.500000  1
  Bi  Bi5  1  0.500000  0.500000  0.500000  1
  Bi  Bi6  1  0.000000  0.000000  0.000000  1
  Bi  Bi7  1  0.500000  0.500000  0.000000  1
  Te  Te8  1  0.500047  0.166597  0.750000  1
  Te  Te9  1  0.000047  0.666597  0.750000  1
  Te  Te10  1  0.999953  0.333403  0.250000  1
  Te  Te11  1  0.499953  0.833403  0.250000  1
  O  O12  1  0.627866  0.997957  0.643066  1
  O  O13  1  0.127866  0.497957  0.643066  1
  O  O14  1  0.689208  0.314965  0.643052  1
  O  O15  1  0.189208  0.814965  0.643052  1
  O  O16  1  0.183062  0.187123  0.643036  1
  O  O17  1  0.683062  0.687123  0.643036  1
  O  O18  1  0.189147  0.185037  0.143048  1
  O  O19  1  0.689147  0.685037  0.143048  1
  O  O20  1  0.127806  0.502052  0.143059  1
  O  O21  1  0.627806  0.002052  0.143059  1
  O  O22  1  0.683010  0.312881  0.143044  1
  O  O23  1  0.183010  0.812881  0.143044  1
  O  O24  1  0.872134  0.502043  0.356934  1
  O  O25  1  0.372134  0.002043  0.356934  1
  O  O26  1  0.810792  0.185035  0.356948  1
  O  O27  1  0.310792  0.685035  0.356948  1
  O  O28  1  0.316938  0.312877  0.356964  1
  O  O29  1  0.816938  0.812877  0.356964  1
  O  O30  1  0.310853  0.314963  0.856952  1
  O  O31  1  0.810853  0.814963  0.856952  1
  O  O32  1  0.372194  0.997948  0.856941  1
  O  O33  1  0.872194  0.497948  0.856941  1
  O  O34  1  0.816990  0.187119  0.856956  1
  O  O35  1  0.316990  0.687119  0.856956  1
