# generated using pymatgen
data_Ho8MgSc(SiB4)4
_symmetry_space_group_name_H-M   'P 1'
_cell_length_a   7.14988200
_cell_length_b   7.14988200
_cell_length_c   7.87816800
_cell_angle_alpha   90.00000000
_cell_angle_beta   90.00000000
_cell_angle_gamma   90.00000000
_symmetry_Int_Tables_number   1
_chemical_formula_structural   Ho8MgSc(SiB4)4
_chemical_formula_sum   'Ho8 Mg1 Sc1 Si4 B16'
_cell_volume   402.73835007
_cell_formula_units_Z   1
loop_
 _symmetry_equiv_pos_site_id
 _symmetry_equiv_pos_as_xyz
  1  'x, y, z'
loop_
 _atom_site_type_symbol
 _atom_site_label
 _atom_site_symmetry_multiplicity
 _atom_site_fract_x
 _atom_site_fract_y
 _atom_site_fract_z
 _atom_site_occupancy
  Ho  Ho0  1  0.680906  0.181531  0.230483  1
  Ho  Ho1  1  0.319094  0.818469  0.769517  1
  Ho  Ho2  1  0.319094  0.818469  0.230483  1
  Ho  Ho3  1  0.818469  0.680906  0.230483  1
  Ho  Ho4  1  0.818469  0.680906  0.769517  1
  Ho  Ho5  1  0.680906  0.181531  0.769517  1
  Ho  Ho6  1  0.181531  0.319094  0.769517  1
  Ho  Ho7  1  0.181531  0.319094  0.230483  1
  Mg  Mg8  1  0.500000  0.500000  0.500000  1
  Sc  Sc9  1  0.000000  0.000000  0.500000  1
  Si  Si10  1  0.112215  0.621254  0.500000  1
  Si  Si11  1  0.887785  0.378746  0.500000  1
  Si  Si12  1  0.378746  0.112215  0.500000  1
  Si  Si13  1  0.621254  0.887785  0.500000  1
  B  B14  1  0.173101  0.039413  0.000000  1
  B  B15  1  0.826899  0.960587  0.000000  1
  B  B16  1  0.960587  0.173101  0.000000  1
  B  B17  1  0.325499  0.538311  0.000000  1
  B  B18  1  0.039413  0.826899  0.000000  1
  B  B19  1  0.674501  0.461689  0.000000  1
  B  B20  1  0.538311  0.674501  0.000000  1
  B  B21  1  0.461689  0.325499  0.000000  1
  B  B22  1  0.088215  0.589016  0.000000  1
  B  B23  1  0.911785  0.410984  0.000000  1
  B  B24  1  0.410984  0.088215  0.000000  1
  B  B25  1  0.589016  0.911785  0.000000  1
  B  B26  1  0.000000  0.000000  0.166940  1
  B  B27  1  0.000000  0.000000  0.833060  1
  B  B28  1  0.500000  0.500000  0.838504  1
  B  B29  1  0.500000  0.500000  0.161496  1
