# generated using pymatgen
data_La7Ho(GeI6)2
_symmetry_space_group_name_H-M   'P 1'
_cell_length_a   4.38126700
_cell_length_b   14.63292210
_cell_length_c   15.44327500
_cell_angle_alpha   89.78284759
_cell_angle_beta   90.00000000
_cell_angle_gamma   90.00000000
_symmetry_Int_Tables_number   1
_chemical_formula_structural   La7Ho(GeI6)2
_chemical_formula_sum   'La7 Ho1 Ge2 I12'
_cell_volume   990.07265717
_cell_formula_units_Z   1
loop_
 _symmetry_equiv_pos_site_id
 _symmetry_equiv_pos_as_xyz
  1  'x, y, z'
loop_
 _atom_site_type_symbol
 _atom_site_label
 _atom_site_symmetry_multiplicity
 _atom_site_fract_x
 _atom_site_fract_y
 _atom_site_fract_z
 _atom_site_occupancy
  La  La0  1  0.500000  0.118307  0.342317  1
  La  La1  1  0.500000  0.882945  0.656297  1
  La  La2  1  0.500000  0.614686  0.156147  1
  La  La3  1  0.500000  0.382259  0.845700  1
  La  La4  1  0.000000  0.115619  0.577133  1
  La  La5  1  0.000000  0.884633  0.422201  1
  La  La6  1  0.000000  0.612288  0.924595  1
  Ho  Ho7  1  0.000000  0.389470  0.073933  1
  Ge  Ge8  1  0.500000  0.000378  0.499306  1
  Ge  Ge9  1  0.500000  0.495199  0.003107  1
  I  I10  1  0.500000  0.255146  0.158341  1
  I  I11  1  0.500000  0.755166  0.837836  1
  I  I12  1  0.500000  0.741801  0.336642  1
  I  I13  1  0.500000  0.256996  0.664235  1
  I  I14  1  0.000000  0.261574  0.414539  1
  I  I15  1  0.000000  0.738828  0.585086  1
  I  I16  1  0.000000  0.759517  0.084833  1
  I  I17  1  0.000000  0.242350  0.923781  1
  I  I18  1  0.000000  0.998948  0.237613  1
  I  I19  1  0.000000  0.002145  0.761654  1
  I  I20  1  0.000000  0.490003  0.254838  1
  I  I21  1  0.000000  0.501739  0.739864  1
