# generated using pymatgen
data_Cs2Fe(GeO3)2
_symmetry_space_group_name_H-M   'P 1'
_cell_length_a   6.27842832
_cell_length_b   6.27895036
_cell_length_c   11.23260700
_cell_angle_alpha   90.00000000
_cell_angle_beta   90.00000000
_cell_angle_gamma   68.08609595
_symmetry_Int_Tables_number   1
_chemical_formula_structural   Cs2Fe(GeO3)2
_chemical_formula_sum   'Cs4 Fe2 Ge4 O12'
_cell_volume   410.81615230
_cell_formula_units_Z   2
loop_
 _symmetry_equiv_pos_site_id
 _symmetry_equiv_pos_as_xyz
  1  'x, y, z'
loop_
 _atom_site_type_symbol
 _atom_site_label
 _atom_site_symmetry_multiplicity
 _atom_site_fract_x
 _atom_site_fract_y
 _atom_site_fract_z
 _atom_site_occupancy
  Cs  Cs0  1  0.563267  0.784419  0.173424  1
  Cs  Cs1  1  0.215582  0.436743  0.326587  1
  Cs  Cs2  1  0.436732  0.215581  0.673424  1
  Cs  Cs3  1  0.784418  0.563256  0.826587  1
  Fe  Fe4  1  0.311838  0.311813  0.999992  1
  Fe  Fe5  1  0.688163  0.688188  0.499992  1
  Ge  Ge6  1  0.868102  0.170560  0.108994  1
  Ge  Ge7  1  0.829424  0.131940  0.391009  1
  Ge  Ge8  1  0.131897  0.829439  0.608992  1
  Ge  Ge9  1  0.170575  0.868059  0.891010  1
  O  O10  1  0.942195  0.942179  0.000002  1
  O  O11  1  0.002574  0.364317  0.079774  1
  O  O12  1  0.567073  0.292102  0.115235  1
  O  O13  1  0.976918  0.023078  0.250004  1
  O  O14  1  0.707888  0.432971  0.384755  1
  O  O15  1  0.635642  0.997466  0.420226  1
  O  O16  1  0.057807  0.057823  0.500002  1
  O  O17  1  0.997427  0.635683  0.579773  1
  O  O18  1  0.432927  0.707898  0.615234  1
  O  O19  1  0.023082  0.976922  0.750005  1
  O  O20  1  0.292112  0.567029  0.884755  1
  O  O21  1  0.364358  0.002535  0.920226  1
