# generated using pymatgen
data_Ba2Mn5Fe(PO4)6
_symmetry_space_group_name_H-M   'P 1'
_cell_length_a   9.43402317
_cell_length_b   9.39799944
_cell_length_c   9.43402265
_cell_angle_alpha   137.43551804
_cell_angle_beta   111.54130822
_cell_angle_gamma   84.18810754
_symmetry_Int_Tables_number   1
_chemical_formula_structural   Ba2Mn5Fe(PO4)6
_chemical_formula_sum   'Ba2 Mn5 Fe1 P6 O24'
_cell_volume   506.88076618
_cell_formula_units_Z   1
loop_
 _symmetry_equiv_pos_site_id
 _symmetry_equiv_pos_as_xyz
  1  'x, y, z'
loop_
 _atom_site_type_symbol
 _atom_site_label
 _atom_site_symmetry_multiplicity
 _atom_site_fract_x
 _atom_site_fract_y
 _atom_site_fract_z
 _atom_site_occupancy
  Ba  Ba0  1  0.748088  0.862066  0.113978  1
  Ba  Ba1  1  0.251912  0.137934  0.886022  1
  Mn  Mn2  1  0.619513  0.618294  0.501938  1
  Mn  Mn3  1  0.883644  0.381706  0.001219  1
  Mn  Mn4  1  0.116356  0.618294  0.998781  1
  Mn  Mn5  1  0.380487  0.381706  0.498062  1
  Mn  Mn6  1  0.000000  0.500000  0.500000  1
  Fe  Fe7  1  0.500000  0.000000  0.500000  1
  P  P8  1  0.745440  0.349705  0.604265  1
  P  P9  1  0.254560  0.650295  0.395735  1
  P  P10  1  0.822111  0.820959  0.499658  1
  P  P11  1  0.678698  0.179041  0.001151  1
  P  P12  1  0.321302  0.820959  0.998849  1
  P  P13  1  0.177889  0.179041  0.500342  1
  O  O14  1  0.650856  0.134727  0.483871  1
  O  O15  1  0.349144  0.865273  0.516129  1
  O  O16  1  0.166488  0.694602  0.528113  1
  O  O17  1  0.833512  0.305398  0.471887  1
  O  O18  1  0.630632  0.491262  0.626388  1
  O  O19  1  0.135126  0.508738  0.139371  1
  O  O20  1  0.369368  0.508738  0.373612  1
  O  O21  1  0.864874  0.491262  0.860629  1
  O  O22  1  0.921497  0.059514  0.716931  1
  O  O23  1  0.657417  0.940486  0.861984  1
  O  O24  1  0.419342  0.704487  0.859760  1
  O  O25  1  0.155273  0.295513  0.714855  1
  O  O26  1  0.078503  0.940486  0.283069  1
  O  O27  1  0.342583  0.059514  0.138016  1
  O  O28  1  0.580658  0.295513  0.140240  1
  O  O29  1  0.844727  0.704487  0.285145  1
  O  O30  1  0.639063  0.797781  0.437529  1
  O  O31  1  0.639748  0.202219  0.841281  1
  O  O32  1  0.136493  0.697639  0.837805  1
  O  O33  1  0.140166  0.302361  0.438854  1
  O  O34  1  0.360937  0.202219  0.562471  1
  O  O35  1  0.360252  0.797781  0.158719  1
  O  O36  1  0.863507  0.302361  0.162195  1
  O  O37  1  0.859834  0.697639  0.561146  1
