# generated using pymatgen
data_MgZnBi3Sb3O14
_symmetry_space_group_name_H-M   'P 1'
_cell_length_a   7.32042198
_cell_length_b   7.32043017
_cell_length_c   7.32042905
_cell_angle_alpha   62.05727037
_cell_angle_beta   62.05727373
_cell_angle_gamma   62.05729130
_symmetry_Int_Tables_number   1
_chemical_formula_structural   MgZnBi3Sb3O14
_chemical_formula_sum   'Mg1 Zn1 Bi3 Sb3 O14'
_cell_volume   290.15146460
_cell_formula_units_Z   1
loop_
 _symmetry_equiv_pos_site_id
 _symmetry_equiv_pos_as_xyz
  1  'x, y, z'
loop_
 _atom_site_type_symbol
 _atom_site_label
 _atom_site_symmetry_multiplicity
 _atom_site_fract_x
 _atom_site_fract_y
 _atom_site_fract_z
 _atom_site_occupancy
  Mg  Mg0  1  0.000000  0.500000  0.000000  1
  Zn  Zn1  1  0.499991  0.999929  0.500083  1
  Bi  Bi2  1  0.000000  0.000003  0.499996  1
  Bi  Bi3  1  0.500005  0.000009  0.000001  1
  Bi  Bi4  1  0.499997  0.500001  0.499993  1
  Sb  Sb5  1  0.500000  0.500004  0.999996  1
  Sb  Sb6  1  0.000000  0.500003  0.499996  1
  Sb  Sb7  1  0.000002  0.000003  0.999997  1
  O  O8  1  0.609052  0.109047  0.609062  1
  O  O9  1  0.390947  0.890942  0.390957  1
  O  O10  1  0.077359  0.179920  0.679912  1
  O  O11  1  0.679920  0.179923  0.077335  1
  O  O12  1  0.679914  0.577373  0.679909  1
  O  O13  1  0.922644  0.820087  0.320078  1
  O  O14  1  0.320087  0.820090  0.922622  1
  O  O15  1  0.320081  0.422661  0.320076  1
  O  O16  1  0.656357  0.587194  0.087192  1
  O  O17  1  0.087194  0.587194  0.656354  1
  O  O18  1  0.087193  0.156359  0.087192  1
  O  O19  1  0.343644  0.412807  0.912805  1
  O  O20  1  0.912808  0.412806  0.343641  1
  O  O21  1  0.912806  0.843645  0.912805  1
