# generated using pymatgen
data_Tb16HoLu3Pb16
_symmetry_space_group_name_H-M   'P 1'
_cell_length_a   8.19459902
_cell_length_b   8.29271148
_cell_length_c   15.68501400
_cell_angle_alpha   90.00000000
_cell_angle_beta   90.00000000
_cell_angle_gamma   89.93799420
_symmetry_Int_Tables_number   1
_chemical_formula_structural   Tb16HoLu3Pb16
_chemical_formula_sum   'Tb16 Ho1 Lu3 Pb16'
_cell_volume   1065.88148722
_cell_formula_units_Z   1
loop_
 _symmetry_equiv_pos_site_id
 _symmetry_equiv_pos_as_xyz
  1  'x, y, z'
loop_
 _atom_site_type_symbol
 _atom_site_label
 _atom_site_symmetry_multiplicity
 _atom_site_fract_x
 _atom_site_fract_y
 _atom_site_fract_z
 _atom_site_occupancy
  Tb  Tb0  1  0.376819  0.841131  0.879381  1
  Tb  Tb1  1  0.876723  0.658806  0.620382  1
  Tb  Tb2  1  0.623718  0.159279  0.379765  1
  Tb  Tb3  1  0.122851  0.341321  0.120306  1
  Tb  Tb4  1  0.623718  0.159279  0.120235  1
  Tb  Tb5  1  0.122851  0.341321  0.379694  1
  Tb  Tb6  1  0.376819  0.841131  0.620619  1
  Tb  Tb7  1  0.876723  0.658806  0.879618  1
  Tb  Tb8  1  0.533809  0.323116  0.900014  1
  Tb  Tb9  1  0.033864  0.176875  0.600179  1
  Tb  Tb10  1  0.466481  0.676482  0.400008  1
  Tb  Tb11  1  0.965951  0.822844  0.099958  1
  Tb  Tb12  1  0.466481  0.676482  0.099992  1
  Tb  Tb13  1  0.965951  0.822844  0.400042  1
  Tb  Tb14  1  0.533809  0.323116  0.599986  1
  Tb  Tb15  1  0.033864  0.176875  0.899821  1
  Ho  Ho16  1  0.291471  0.003642  0.250000  1
  Lu  Lu17  1  0.208771  0.503849  0.750000  1
  Lu  Lu18  1  0.708763  0.995965  0.750000  1
  Lu  Lu19  1  0.791115  0.495947  0.250000  1
  Pb  Pb20  1  0.281214  0.033174  0.042989  1
  Pb  Pb21  1  0.781324  0.467133  0.456350  1
  Pb  Pb22  1  0.718693  0.967242  0.543859  1
  Pb  Pb23  1  0.218807  0.532908  0.956178  1
  Pb  Pb24  1  0.718693  0.967242  0.956141  1
  Pb  Pb25  1  0.218807  0.532908  0.543822  1
  Pb  Pb26  1  0.281214  0.033174  0.457011  1
  Pb  Pb27  1  0.781324  0.467133  0.043650  1
  Pb  Pb28  1  0.571494  0.626283  0.750000  1
  Pb  Pb29  1  0.071477  0.873524  0.750000  1
  Pb  Pb30  1  0.428768  0.374461  0.250000  1
  Pb  Pb31  1  0.926951  0.127173  0.250000  1
  Pb  Pb32  1  0.345696  0.153986  0.750000  1
  Pb  Pb33  1  0.845477  0.346536  0.750000  1
  Pb  Pb34  1  0.655120  0.846126  0.250000  1
  Pb  Pb35  1  0.154389  0.651886  0.250000  1
