# generated using pymatgen
data_ErLu4SiPb3
_symmetry_space_group_name_H-M   'P 1'
_cell_length_a   9.16676800
_cell_length_b   9.14591168
_cell_length_c   6.43403300
_cell_angle_alpha   90.00000000
_cell_angle_beta   90.00000000
_cell_angle_gamma   120.07546366
_symmetry_Int_Tables_number   1
_chemical_formula_structural   ErLu4SiPb3
_chemical_formula_sum   'Er2 Lu8 Si2 Pb6'
_cell_volume   466.79523013
_cell_formula_units_Z   2
loop_
 _symmetry_equiv_pos_site_id
 _symmetry_equiv_pos_as_xyz
  1  'x, y, z'
loop_
 _atom_site_type_symbol
 _atom_site_label
 _atom_site_symmetry_multiplicity
 _atom_site_fract_x
 _atom_site_fract_y
 _atom_site_fract_z
 _atom_site_occupancy
  Er  Er0  1  0.249458  0.000000  0.750000  1
  Er  Er1  1  0.750542  0.000000  0.250000  1
  Lu  Lu2  1  0.999822  0.248092  0.750000  1
  Lu  Lu3  1  0.000178  0.751908  0.250000  1
  Lu  Lu4  1  0.751729  0.751908  0.750000  1
  Lu  Lu5  1  0.248271  0.248092  0.250000  1
  Lu  Lu6  1  0.333322  0.666645  0.500000  1
  Lu  Lu7  1  0.666678  0.333355  0.500000  1
  Lu  Lu8  1  0.666678  0.333355  0.000000  1
  Lu  Lu9  1  0.333322  0.666645  0.000000  1
  Si  Si10  1  0.000000  0.000000  0.500000  1
  Si  Si11  1  0.000000  0.000000  0.000000  1
  Pb  Pb12  1  0.606746  0.000000  0.750000  1
  Pb  Pb13  1  0.393254  0.000000  0.250000  1
  Pb  Pb14  1  0.999299  0.605117  0.750000  1
  Pb  Pb15  1  0.000701  0.394883  0.250000  1
  Pb  Pb16  1  0.394183  0.394883  0.750000  1
  Pb  Pb17  1  0.605817  0.605117  0.250000  1
