# generated using pymatgen
data_Ba3Co2Cl2O5
_symmetry_space_group_name_H-M   'P 1'
_cell_length_a   8.72726010
_cell_length_b   8.74220654
_cell_length_c   8.71939325
_cell_angle_alpha   109.32986064
_cell_angle_beta   109.46017122
_cell_angle_gamma   109.63599668
_symmetry_Int_Tables_number   1
_chemical_formula_structural   Ba3Co2Cl2O5
_chemical_formula_sum   'Ba6 Co4 Cl4 O10'
_cell_volume   512.02918356
_cell_formula_units_Z   2
loop_
 _symmetry_equiv_pos_site_id
 _symmetry_equiv_pos_as_xyz
  1  'x, y, z'
loop_
 _atom_site_type_symbol
 _atom_site_label
 _atom_site_symmetry_multiplicity
 _atom_site_fract_x
 _atom_site_fract_y
 _atom_site_fract_z
 _atom_site_occupancy
  Ba  Ba0  1  0.647359  0.400514  0.252239  1
  Ba  Ba1  1  0.250203  0.645604  0.392876  1
  Ba  Ba2  1  0.853844  0.104347  0.756563  1
  Ba  Ba3  1  0.401518  0.245934  0.646302  1
  Ba  Ba4  1  0.103692  0.746082  0.851355  1
  Ba  Ba5  1  0.748401  0.843786  0.093850  1
  Co  Co6  1  0.506442  0.001904  0.317538  1
  Co  Co7  1  0.310942  0.498043  0.993664  1
  Co  Co8  1  0.997454  0.314793  0.495025  1
  Co  Co9  1  0.186465  0.183522  0.188091  1
  Cl  Cl10  1  0.998109  0.886828  0.499551  1
  Cl  Cl11  1  0.616293  0.618470  0.620597  1
  Cl  Cl12  1  0.879988  0.501106  0.002156  1
  Cl  Cl13  1  0.501096  0.000430  0.884167  1
  O  O14  1  0.984983  0.978758  0.977311  1
  O  O15  1  0.003829  0.524998  0.502493  1
  O  O16  1  0.516505  0.493918  0.998358  1
  O  O17  1  0.498939  0.995528  0.519150  1
  O  O18  1  0.098071  0.376445  0.753682  1
  O  O19  1  0.749417  0.110881  0.349315  1
  O  O20  1  0.142002  0.254740  0.390921  1
  O  O21  1  0.246084  0.380585  0.130990  1
  O  O22  1  0.394989  0.144636  0.265481  1
  O  O23  1  0.363375  0.748144  0.118327  1
