# generated using pymatgen
data_Er4MgZn2Sb
_symmetry_space_group_name_H-M   'P 1'
_cell_length_a   8.48770424
_cell_length_b   8.48770472
_cell_length_c   8.48770342
_cell_angle_alpha   125.96444063
_cell_angle_beta   125.96444422
_cell_angle_gamma   79.94658921
_symmetry_Int_Tables_number   1
_chemical_formula_structural   Er4MgZn2Sb
_chemical_formula_sum   'Er8 Mg2 Zn4 Sb2'
_cell_volume   386.79132084
_cell_formula_units_Z   2
loop_
 _symmetry_equiv_pos_site_id
 _symmetry_equiv_pos_as_xyz
  1  'x, y, z'
loop_
 _atom_site_type_symbol
 _atom_site_label
 _atom_site_symmetry_multiplicity
 _atom_site_fract_x
 _atom_site_fract_y
 _atom_site_fract_z
 _atom_site_occupancy
  Er  Er0  1  0.803498  0.303498  0.819247  1
  Er  Er1  1  0.196502  0.696502  0.180753  1
  Er  Er2  1  0.484251  0.984251  0.180753  1
  Er  Er3  1  0.303498  0.484251  0.500000  1
  Er  Er4  1  0.015749  0.196502  0.500000  1
  Er  Er5  1  0.515749  0.015749  0.819247  1
  Er  Er6  1  0.696502  0.515749  0.500000  1
  Er  Er7  1  0.984251  0.803498  0.500000  1
  Mg  Mg8  1  0.000000  0.000000  0.000000  1
  Mg  Mg9  1  0.500000  0.500000  0.000000  1
  Zn  Zn10  1  0.133391  0.633391  0.766783  1
  Zn  Zn11  1  0.866609  0.366609  0.233217  1
  Zn  Zn12  1  0.633391  0.866609  0.500000  1
  Zn  Zn13  1  0.366609  0.133391  0.500000  1
  Sb  Sb14  1  0.250000  0.250000  0.000000  1
  Sb  Sb15  1  0.750000  0.750000  0.000000  1
