# generated using pymatgen
data_Gd6P13Ir20
_symmetry_space_group_name_H-M   'P 1'
_cell_length_a   13.69366300
_cell_length_b   13.69366049
_cell_length_c   4.07354100
_cell_angle_alpha   90.00000000
_cell_angle_beta   90.00000000
_cell_angle_gamma   119.99999881
_symmetry_Int_Tables_number   1
_chemical_formula_structural   Gd6P13Ir20
_chemical_formula_sum   'Gd6 P13 Ir20'
_cell_volume   661.51838802
_cell_formula_units_Z   1
loop_
 _symmetry_equiv_pos_site_id
 _symmetry_equiv_pos_as_xyz
  1  'x, y, z'
loop_
 _atom_site_type_symbol
 _atom_site_label
 _atom_site_symmetry_multiplicity
 _atom_site_fract_x
 _atom_site_fract_y
 _atom_site_fract_z
 _atom_site_occupancy
  Gd  Gd0  1  0.527665  0.716372  0.247259  1
  Gd  Gd1  1  0.283628  0.811293  0.247259  1
  Gd  Gd2  1  0.188707  0.472335  0.247259  1
  Gd  Gd3  1  0.472335  0.283628  0.752741  1
  Gd  Gd4  1  0.716372  0.188707  0.752741  1
  Gd  Gd5  1  0.811293  0.527665  0.752741  1
  P  P6  1  0.524065  0.138239  0.250096  1
  P  P7  1  0.861761  0.385826  0.250096  1
  P  P8  1  0.614174  0.475935  0.250096  1
  P  P9  1  0.945552  0.712854  0.261157  1
  P  P10  1  0.287146  0.232698  0.261157  1
  P  P11  1  0.767302  0.054448  0.261157  1
  P  P12  1  0.385826  0.524065  0.749904  1
  P  P13  1  0.475935  0.861761  0.749904  1
  P  P14  1  0.138239  0.614174  0.749904  1
  P  P15  1  0.712854  0.767302  0.738843  1
  P  P16  1  0.232698  0.945552  0.738843  1
  P  P17  1  0.054448  0.287146  0.738843  1
  P  P18  1  0.000000  0.000000  0.000000  1
  Ir  Ir19  1  0.333333  0.666667  0.750983  1
  Ir  Ir20  1  0.916647  0.246538  0.255318  1
  Ir  Ir21  1  0.753462  0.670108  0.255318  1
  Ir  Ir22  1  0.329892  0.083353  0.255318  1
  Ir  Ir23  1  0.437595  0.023448  0.752271  1
  Ir  Ir24  1  0.976552  0.414147  0.752271  1
  Ir  Ir25  1  0.585853  0.562405  0.752271  1
  Ir  Ir26  1  0.666667  0.333333  0.249017  1
  Ir  Ir27  1  0.099481  0.185745  0.247107  1
  Ir  Ir28  1  0.814255  0.913736  0.247107  1
  Ir  Ir29  1  0.086264  0.900519  0.247107  1
  Ir  Ir30  1  0.023448  0.585853  0.247729  1
  Ir  Ir31  1  0.414147  0.437595  0.247729  1
  Ir  Ir32  1  0.562405  0.976552  0.247729  1
  Ir  Ir33  1  0.670108  0.916647  0.744682  1
  Ir  Ir34  1  0.083353  0.753462  0.744682  1
  Ir  Ir35  1  0.246538  0.329892  0.744682  1
  Ir  Ir36  1  0.900519  0.814255  0.752893  1
  Ir  Ir37  1  0.185745  0.086264  0.752893  1
  Ir  Ir38  1  0.913736  0.099481  0.752893  1
