# generated using pymatgen
data_La4Ga10PdRh5
_symmetry_space_group_name_H-M   'P 1'
_cell_length_a   8.75449415
_cell_length_b   8.76040232
_cell_length_c   8.76040108
_cell_angle_alpha   141.03288797
_cell_angle_beta   107.66672843
_cell_angle_gamma   85.36333395
_symmetry_Int_Tables_number   1
_chemical_formula_structural   La4Ga10PdRh5
_chemical_formula_sum   'La4 Ga10 Pd1 Rh5'
_cell_volume   388.86522817
_cell_formula_units_Z   1
loop_
 _symmetry_equiv_pos_site_id
 _symmetry_equiv_pos_as_xyz
  1  'x, y, z'
loop_
 _atom_site_type_symbol
 _atom_site_label
 _atom_site_symmetry_multiplicity
 _atom_site_fract_x
 _atom_site_fract_y
 _atom_site_fract_z
 _atom_site_occupancy
  La  La0  1  0.363342  0.136189  0.227154  1
  La  La1  1  0.635897  0.863917  0.771980  1
  La  La2  1  0.092597  0.364111  0.728485  1
  La  La3  1  0.908212  0.634906  0.273308  1
  Ga  Ga4  1  0.000080  0.253873  0.251316  1
  Ga  Ga5  1  0.000080  0.748764  0.746207  1
  Ga  Ga6  1  0.707087  0.960397  0.251083  1
  Ga  Ga7  1  0.290486  0.540879  0.250368  1
  Ga  Ga8  1  0.290486  0.040118  0.749607  1
  Ga  Ga9  1  0.707087  0.456005  0.746690  1
  Ga  Ga10  1  0.572281  0.406719  0.165562  1
  Ga  Ga11  1  0.244571  0.907134  0.337436  1
  Ga  Ga12  1  0.759323  0.093625  0.665698  1
  Ga  Ga13  1  0.427834  0.593553  0.834281  1
  Pd  Pd14  1  0.952148  0.854629  0.097519  1
  Rh  Rh15  1  0.500090  0.749834  0.249700  1
  Rh  Rh16  1  0.757664  0.354496  0.403168  1
  Rh  Rh17  1  0.242283  0.645138  0.597145  1
  Rh  Rh18  1  0.048361  0.145325  0.903037  1
  Rh  Rh19  1  0.500090  0.250389  0.750256  1
