# generated using pymatgen
data_Er2TaTi2Si3Ge
_symmetry_space_group_name_H-M   'P 1'
_cell_length_a   7.04926603
_cell_length_b   7.04941680
_cell_length_c   12.94994702
_cell_angle_alpha   89.97057753
_cell_angle_beta   90.00246628
_cell_angle_gamma   90.05006046
_symmetry_Int_Tables_number   1
_chemical_formula_structural   Er2TaTi2Si3Ge
_chemical_formula_sum   'Er8 Ta4 Ti8 Si12 Ge4'
_cell_volume   643.52416231
_cell_formula_units_Z   4
loop_
 _symmetry_equiv_pos_site_id
 _symmetry_equiv_pos_as_xyz
  1  'x, y, z'
loop_
 _atom_site_type_symbol
 _atom_site_label
 _atom_site_symmetry_multiplicity
 _atom_site_fract_x
 _atom_site_fract_y
 _atom_site_fract_z
 _atom_site_occupancy
  Er  Er0  1  0.341208  0.999895  0.466477  1
  Er  Er1  1  0.499614  0.840885  0.716775  1
  Er  Er2  1  0.499775  0.156961  0.217664  1
  Er  Er3  1  0.843547  0.500716  0.282803  1
  Er  Er4  1  0.157665  0.501153  0.781985  1
  Er  Er5  1  0.659978  0.998271  0.967338  1
  Er  Er6  1  0.000651  0.342703  0.532259  1
  Er  Er7  1  0.998734  0.659417  0.033197  1
  Ta  Ta8  1  0.322359  0.322469  0.000178  1
  Ta  Ta9  1  0.173683  0.826175  0.250165  1
  Ta  Ta10  1  0.823001  0.174293  0.750524  1
  Ta  Ta11  1  0.674132  0.676851  0.500512  1
  Ti  Ti12  1  0.151544  0.009735  0.876429  1
  Ti  Ti13  1  0.488934  0.655659  0.127603  1
  Ti  Ti14  1  0.510513  0.348623  0.626689  1
  Ti  Ti15  1  0.655971  0.489323  0.872740  1
  Ti  Ti16  1  0.344395  0.511050  0.373683  1
  Ti  Ti17  1  0.848798  0.989872  0.375531  1
  Ti  Ti18  1  0.009788  0.151650  0.124813  1
  Ti  Ti19  1  0.989737  0.844268  0.623922  1
  Si  Si20  1  0.297769  0.630372  0.566397  1
  Si  Si21  1  0.797056  0.869698  0.183778  1
  Si  Si22  1  0.130205  0.202790  0.316632  1
  Si  Si23  1  0.869698  0.797464  0.816443  1
  Si  Si24  1  0.292909  0.955840  0.065749  1
  Si  Si25  1  0.547455  0.792389  0.314584  1
  Si  Si26  1  0.455735  0.207219  0.816193  1
  Si  Si27  1  0.793239  0.546541  0.685366  1
  Si  Si28  1  0.207513  0.453092  0.185595  1
  Si  Si29  1  0.707889  0.044517  0.565531  1
  Si  Si30  1  0.956304  0.293103  0.934372  1
  Si  Si31  1  0.046774  0.707415  0.436012  1
  Ge  Ge32  1  0.202138  0.129423  0.680843  1
  Ge  Ge33  1  0.370386  0.701578  0.931085  1
  Ge  Ge34  1  0.629481  0.298159  0.430836  1
  Ge  Ge35  1  0.701422  0.370428  0.069295  1
