# generated using pymatgen
data_LaErMo2O7
_symmetry_space_group_name_H-M   'P 1'
_cell_length_a   7.45201759
_cell_length_b   7.56031748
_cell_length_c   7.45201801
_cell_angle_alpha   59.51808603
_cell_angle_beta   59.20308552
_cell_angle_gamma   59.51807864
_symmetry_Int_Tables_number   1
_chemical_formula_structural   LaErMo2O7
_chemical_formula_sum   'La2 Er2 Mo4 O14'
_cell_volume   292.90366037
_cell_formula_units_Z   2
loop_
 _symmetry_equiv_pos_site_id
 _symmetry_equiv_pos_as_xyz
  1  'x, y, z'
loop_
 _atom_site_type_symbol
 _atom_site_label
 _atom_site_symmetry_multiplicity
 _atom_site_fract_x
 _atom_site_fract_y
 _atom_site_fract_z
 _atom_site_occupancy
  La  La0  1  0.125000  0.125000  0.125000  1
  La  La1  1  0.125000  0.625000  0.125000  1
  Er  Er2  1  0.625000  0.125000  0.125000  1
  Er  Er3  1  0.125000  0.125000  0.625000  1
  Mo  Mo4  1  0.625000  0.625000  0.625000  1
  Mo  Mo5  1  0.125000  0.625000  0.625000  1
  Mo  Mo6  1  0.625000  0.625000  0.125000  1
  Mo  Mo7  1  0.625000  0.125000  0.625000  1
  O  O8  1  0.992586  0.007414  0.992586  1
  O  O9  1  0.257414  0.242586  0.257414  1
  O  O10  1  0.289179  0.289685  0.701143  1
  O  O11  1  0.548857  0.530007  0.960821  1
  O  O12  1  0.716056  0.283944  0.716056  1
  O  O13  1  0.701143  0.289685  0.289179  1
  O  O14  1  0.289179  0.719993  0.701143  1
  O  O15  1  0.291922  0.708078  0.291922  1
  O  O16  1  0.701143  0.719993  0.289179  1
  O  O17  1  0.960821  0.530007  0.548857  1
  O  O18  1  0.548857  0.960315  0.960821  1
  O  O19  1  0.960821  0.960315  0.548857  1
  O  O20  1  0.958078  0.541922  0.958078  1
  O  O21  1  0.533944  0.966056  0.533944  1
