# generated using pymatgen
data_Eu7Tm13(SnSb)8
_symmetry_space_group_name_H-M   'P 1'
_cell_length_a   8.10819746
_cell_length_b   8.13812563
_cell_length_c   15.39996600
_cell_angle_alpha   89.85637539
_cell_angle_beta   90.09202579
_cell_angle_gamma   89.49446954
_symmetry_Int_Tables_number   1
_chemical_formula_structural   Eu7Tm13(SnSb)8
_chemical_formula_sum   'Eu7 Tm13 Sn8 Sb8'
_cell_volume   1016.13081806
_cell_formula_units_Z   1
loop_
 _symmetry_equiv_pos_site_id
 _symmetry_equiv_pos_as_xyz
  1  'x, y, z'
loop_
 _atom_site_type_symbol
 _atom_site_label
 _atom_site_symmetry_multiplicity
 _atom_site_fract_x
 _atom_site_fract_y
 _atom_site_fract_z
 _atom_site_occupancy
  Eu  Eu0  1  0.969875  0.822517  0.900263  1
  Eu  Eu1  1  0.529648  0.320948  0.096800  1
  Eu  Eu2  1  0.030375  0.175490  0.403104  1
  Eu  Eu3  1  0.530220  0.320368  0.403073  1
  Eu  Eu4  1  0.029430  0.179595  0.096792  1
  Eu  Eu5  1  0.469078  0.678133  0.901429  1
  Eu  Eu6  1  0.968619  0.822234  0.598707  1
  Tm  Tm7  1  0.627453  0.156813  0.621291  1
  Tm  Tm8  1  0.127198  0.344437  0.877194  1
  Tm  Tm9  1  0.373900  0.843735  0.120586  1
  Tm  Tm10  1  0.876597  0.656490  0.379955  1
  Tm  Tm11  1  0.374593  0.841924  0.379509  1
  Tm  Tm12  1  0.873788  0.656463  0.120638  1
  Tm  Tm13  1  0.627601  0.156157  0.876287  1
  Tm  Tm14  1  0.124966  0.342709  0.621503  1
  Tm  Tm15  1  0.465307  0.676992  0.603814  1
  Tm  Tm16  1  0.793103  0.498612  0.750172  1
  Tm  Tm17  1  0.293010  0.001924  0.749295  1
  Tm  Tm18  1  0.208895  0.500655  0.250302  1
  Tm  Tm19  1  0.707361  0.998215  0.249913  1
  Sn  Sn20  1  0.429022  0.373635  0.747171  1
  Sn  Sn21  1  0.929639  0.130856  0.749443  1
  Sn  Sn22  1  0.573906  0.628883  0.250392  1
  Sn  Sn23  1  0.072483  0.868575  0.250160  1
  Sn  Sn24  1  0.655527  0.854712  0.746870  1
  Sn  Sn25  1  0.165867  0.642175  0.748210  1
  Sn  Sn26  1  0.336549  0.139337  0.250054  1
  Sn  Sn27  1  0.836566  0.361002  0.250787  1
  Sb  Sb28  1  0.708510  0.956786  0.454962  1
  Sb  Sb29  1  0.209816  0.542657  0.045336  1
  Sb  Sb30  1  0.291183  0.042523  0.953102  1
  Sb  Sb31  1  0.779741  0.468200  0.547460  1
  Sb  Sb32  1  0.292837  0.034782  0.547028  1
  Sb  Sb33  1  0.790255  0.458208  0.953612  1
  Sb  Sb34  1  0.710249  0.959271  0.045330  1
  Sb  Sb35  1  0.216830  0.543988  0.459453  1
