# generated using pymatgen
data_Hf2ZrNi8Ir
_symmetry_space_group_name_H-M   'P 1'
_cell_length_a   7.17092333
_cell_length_b   7.15065559
_cell_length_c   7.15065587
_cell_angle_alpha   44.02691168
_cell_angle_beta   43.87262024
_cell_angle_gamma   43.87262646
_symmetry_Int_Tables_number   1
_chemical_formula_structural   Hf2ZrNi8Ir
_chemical_formula_sum   'Hf2 Zr1 Ni8 Ir1'
_cell_volume   160.23554915
_cell_formula_units_Z   1
loop_
 _symmetry_equiv_pos_site_id
 _symmetry_equiv_pos_as_xyz
  1  'x, y, z'
loop_
 _atom_site_type_symbol
 _atom_site_label
 _atom_site_symmetry_multiplicity
 _atom_site_fract_x
 _atom_site_fract_y
 _atom_site_fract_z
 _atom_site_occupancy
  Hf  Hf0  1  0.781896  0.781780  0.781780  1
  Hf  Hf1  1  0.218104  0.218220  0.218220  1
  Zr  Zr2  1  0.000000  0.000000  0.000000  1
  Ni  Ni3  1  0.243777  0.711224  0.711224  1
  Ni  Ni4  1  0.704721  0.246192  0.713125  1
  Ni  Ni5  1  0.704721  0.713125  0.246192  1
  Ni  Ni6  1  0.500000  0.500000  0.000000  1
  Ni  Ni7  1  0.500000  0.000000  0.500000  1
  Ni  Ni8  1  0.295279  0.286875  0.753808  1
  Ni  Ni9  1  0.295279  0.753808  0.286875  1
  Ni  Ni10  1  0.756223  0.288776  0.288776  1
  Ir  Ir11  1  0.000000  0.500000  0.500000  1
