# generated using pymatgen
data_TmLu9CuGePb6
_symmetry_space_group_name_H-M   'P 1'
_cell_length_a   9.04722900
_cell_length_b   9.04431684
_cell_length_c   6.62311100
_cell_angle_alpha   90.00089545
_cell_angle_beta   89.99821601
_cell_angle_gamma   120.01065552
_symmetry_Int_Tables_number   1
_chemical_formula_structural   TmLu9CuGePb6
_chemical_formula_sum   'Tm1 Lu9 Cu1 Ge1 Pb6'
_cell_volume   469.28575889
_cell_formula_units_Z   1
loop_
 _symmetry_equiv_pos_site_id
 _symmetry_equiv_pos_as_xyz
  1  'x, y, z'
loop_
 _atom_site_type_symbol
 _atom_site_label
 _atom_site_symmetry_multiplicity
 _atom_site_fract_x
 _atom_site_fract_y
 _atom_site_fract_z
 _atom_site_occupancy
  Tm  Tm0  1  0.249668  0.000000  0.742864  1
  Lu  Lu1  1  0.750565  0.000000  0.257307  1
  Lu  Lu2  1  0.999966  0.249416  0.742714  1
  Lu  Lu3  1  0.999992  0.750601  0.257249  1
  Lu  Lu4  1  0.750551  0.750584  0.742714  1
  Lu  Lu5  1  0.249391  0.249399  0.257249  1
  Lu  Lu6  1  0.333359  0.666625  0.500004  1
  Lu  Lu7  1  0.666735  0.333375  0.500004  1
  Lu  Lu8  1  0.666707  0.333340  0.000047  1
  Lu  Lu9  1  0.333366  0.666660  0.000047  1
  Cu  Cu10  1  0.999857  0.000000  0.000171  1
  Ge  Ge11  1  0.999744  0.000000  0.499655  1
  Pb  Pb12  1  0.605873  0.000000  0.749051  1
  Pb  Pb13  1  0.394280  0.000000  0.250905  1
  Pb  Pb14  1  0.999858  0.605463  0.749135  1
  Pb  Pb15  1  0.000013  0.394333  0.250875  1
  Pb  Pb16  1  0.394395  0.394537  0.749135  1
  Pb  Pb17  1  0.605680  0.605667  0.250875  1
