# generated using pymatgen
data_Pu(TlCl3)2
_symmetry_space_group_name_H-M   'P 1'
_cell_length_a   7.19078960
_cell_length_b   7.70528100
_cell_length_c   12.42296600
_cell_angle_alpha   90.00000000
_cell_angle_beta   123.91714952
_cell_angle_gamma   90.00000000
_symmetry_Int_Tables_number   1
_chemical_formula_structural   Pu(TlCl3)2
_chemical_formula_sum   'Pu2 Tl4 Cl12'
_cell_volume   571.19908321
_cell_formula_units_Z   2
loop_
 _symmetry_equiv_pos_site_id
 _symmetry_equiv_pos_as_xyz
  1  'x, y, z'
loop_
 _atom_site_type_symbol
 _atom_site_label
 _atom_site_symmetry_multiplicity
 _atom_site_fract_x
 _atom_site_fract_y
 _atom_site_fract_z
 _atom_site_occupancy
  Pu  Pu0  1  0.000000  0.000000  0.000000  1
  Pu  Pu1  1  0.000000  0.500000  0.500000  1
  Tl  Tl2  1  0.724609  0.080272  0.248300  1
  Tl  Tl3  1  0.275390  0.580272  0.251700  1
  Tl  Tl4  1  0.724609  0.419728  0.748300  1
  Tl  Tl5  1  0.275391  0.919728  0.751700  1
  Cl  Cl6  1  0.220385  0.284322  0.033429  1
  Cl  Cl7  1  0.334466  0.812632  0.040224  1
  Cl  Cl8  1  0.168232  0.989032  0.246317  1
  Cl  Cl9  1  0.831767  0.489032  0.253683  1
  Cl  Cl10  1  0.665533  0.312632  0.459776  1
  Cl  Cl11  1  0.779615  0.784322  0.466571  1
  Cl  Cl12  1  0.220386  0.215677  0.533429  1
  Cl  Cl13  1  0.334466  0.687368  0.540224  1
  Cl  Cl14  1  0.168233  0.510968  0.746317  1
  Cl  Cl15  1  0.831767  0.010968  0.753683  1
  Cl  Cl16  1  0.665533  0.187368  0.959776  1
  Cl  Cl17  1  0.779614  0.715677  0.966571  1
