# generated using pymatgen
data_K8Li4TmLu3Sb8
_symmetry_space_group_name_H-M   'P 1'
_cell_length_a   10.86228562
_cell_length_b   10.86228527
_cell_length_c   7.08149010
_cell_angle_alpha   90.00037211
_cell_angle_beta   89.99962721
_cell_angle_gamma   98.77937030
_symmetry_Int_Tables_number   1
_chemical_formula_structural   K8Li4TmLu3Sb8
_chemical_formula_sum   'K8 Li4 Tm1 Lu3 Sb8'
_cell_volume   825.74998747
_cell_formula_units_Z   1
loop_
 _symmetry_equiv_pos_site_id
 _symmetry_equiv_pos_as_xyz
  1  'x, y, z'
loop_
 _atom_site_type_symbol
 _atom_site_label
 _atom_site_symmetry_multiplicity
 _atom_site_fract_x
 _atom_site_fract_y
 _atom_site_fract_z
 _atom_site_occupancy
  K  K0  1  0.570332  0.929404  0.749755  1
  K  K1  1  0.929404  0.570332  0.250245  1
  K  K2  1  0.429335  0.070736  0.250117  1
  K  K3  1  0.070736  0.429335  0.749883  1
  K  K4  1  0.676003  0.323917  0.783591  1
  K  K5  1  0.823949  0.176298  0.283715  1
  K  K6  1  0.323917  0.676003  0.216409  1
  K  K7  1  0.176298  0.823949  0.716285  1
  Li  Li8  1  0.620163  0.620163  0.000000  1
  Li  Li9  1  0.879451  0.879451  0.500000  1
  Li  Li10  1  0.379486  0.379486  0.000000  1
  Li  Li11  1  0.120790  0.120790  0.500000  1
  Tm  Tm12  1  0.870245  0.870245  0.000000  1
  Lu  Lu13  1  0.629301  0.629301  0.500000  1
  Lu  Lu14  1  0.129895  0.129895  0.000000  1
  Lu  Lu15  1  0.370478  0.370478  0.500000  1
  Sb  Sb16  1  0.349758  0.150513  0.750038  1
  Sb  Sb17  1  0.150513  0.349758  0.249962  1
  Sb  Sb18  1  0.649373  0.849554  0.251092  1
  Sb  Sb19  1  0.849554  0.649373  0.748908  1
  Sb  Sb20  1  0.902004  0.099218  0.759690  1
  Sb  Sb21  1  0.598285  0.401512  0.260275  1
  Sb  Sb22  1  0.099218  0.902004  0.240310  1
  Sb  Sb23  1  0.401512  0.598285  0.739725  1
