# generated using pymatgen
data_PrNd3(Os2I)2
_symmetry_space_group_name_H-M   'P 1'
_cell_length_a   4.31588000
_cell_length_b   4.31588024
_cell_length_c   17.82940800
_cell_angle_alpha   90.00000000
_cell_angle_beta   90.00000000
_cell_angle_gamma   119.99999814
_symmetry_Int_Tables_number   1
_chemical_formula_structural   PrNd3(Os2I)2
_chemical_formula_sum   'Pr1 Nd3 Os4 I2'
_cell_volume   287.61154126
_cell_formula_units_Z   1
loop_
 _symmetry_equiv_pos_site_id
 _symmetry_equiv_pos_as_xyz
  1  'x, y, z'
loop_
 _atom_site_type_symbol
 _atom_site_label
 _atom_site_symmetry_multiplicity
 _atom_site_fract_x
 _atom_site_fract_y
 _atom_site_fract_z
 _atom_site_occupancy
  Pr  Pr0  1  0.000000  0.000000  0.107735  1
  Nd  Nd1  1  0.000000  0.000000  0.892399  1
  Nd  Nd2  1  0.000000  0.000000  0.607177  1
  Nd  Nd3  1  0.000000  0.000000  0.393143  1
  Os  Os4  1  0.333333  0.666667  0.504076  1
  Os  Os5  1  0.666667  0.333333  0.496253  1
  Os  Os6  1  0.666667  0.333333  0.002956  1
  Os  Os7  1  0.333333  0.666667  0.995412  1
  I  I8  1  0.333333  0.666667  0.251170  1
  I  I9  1  0.666667  0.333333  0.749678  1
