# generated using pymatgen
data_La5Yb7Ru4
_symmetry_space_group_name_H-M   'P 1'
_cell_length_a   6.53875404
_cell_length_b   7.50434579
_cell_length_c   9.67518898
_cell_angle_alpha   89.82239871
_cell_angle_beta   90.37861414
_cell_angle_gamma   90.66573162
_symmetry_Int_Tables_number   1
_chemical_formula_structural   La5Yb7Ru4
_chemical_formula_sum   'La5 Yb7 Ru4'
_cell_volume   474.70795711
_cell_formula_units_Z   1
loop_
 _symmetry_equiv_pos_site_id
 _symmetry_equiv_pos_as_xyz
  1  'x, y, z'
loop_
 _atom_site_type_symbol
 _atom_site_label
 _atom_site_symmetry_multiplicity
 _atom_site_fract_x
 _atom_site_fract_y
 _atom_site_fract_z
 _atom_site_occupancy
  La  La0  1  0.165234  0.169367  0.071805  1
  La  La1  1  0.857665  0.557379  0.252760  1
  La  La2  1  0.642105  0.054342  0.252134  1
  La  La3  1  0.134439  0.443211  0.748598  1
  La  La4  1  0.368241  0.938994  0.749321  1
  Yb  Yb5  1  0.335738  0.668126  0.066974  1
  Yb  Yb6  1  0.163204  0.170514  0.434009  1
  Yb  Yb7  1  0.662121  0.330129  0.570326  1
  Yb  Yb8  1  0.836215  0.828245  0.931802  1
  Yb  Yb9  1  0.663772  0.328951  0.930706  1
  Yb  Yb10  1  0.839591  0.830106  0.571421  1
  Yb  Yb11  1  0.337648  0.669743  0.428537  1
  Ru  Ru12  1  0.012603  0.876676  0.243594  1
  Ru  Ru13  1  0.481769  0.360178  0.246636  1
  Ru  Ru14  1  0.987386  0.137195  0.754118  1
  Ru  Ru15  1  0.512268  0.636845  0.747258  1
