# generated using pymatgen
data_Dy2U(InIr)3
_symmetry_space_group_name_H-M   'P 1'
_cell_length_a   7.49547499
_cell_length_b   7.49547456
_cell_length_c   3.86730700
_cell_angle_alpha   90.00000000
_cell_angle_beta   90.00000000
_cell_angle_gamma   117.62191240
_symmetry_Int_Tables_number   1
_chemical_formula_structural   Dy2U(InIr)3
_chemical_formula_sum   'Dy2 U1 In3 Ir3'
_cell_volume   192.51012281
_cell_formula_units_Z   1
loop_
 _symmetry_equiv_pos_site_id
 _symmetry_equiv_pos_as_xyz
  1  'x, y, z'
loop_
 _atom_site_type_symbol
 _atom_site_label
 _atom_site_symmetry_multiplicity
 _atom_site_fract_x
 _atom_site_fract_y
 _atom_site_fract_z
 _atom_site_occupancy
  Dy  Dy0  1  0.404482  0.000018  0.000000  1
  Dy  Dy1  1  0.000018  0.404482  0.000000  1
  U  U2  1  0.585016  0.585016  0.000000  1
  In  In3  1  0.011866  0.740865  0.500000  1
  In  In4  1  0.243363  0.243363  0.500000  1
  In  In5  1  0.740865  0.011866  0.500000  1
  Ir  Ir6  1  0.986102  0.986102  0.000000  1
  Ir  Ir7  1  0.661447  0.366840  0.500000  1
  Ir  Ir8  1  0.366840  0.661447  0.500000  1
