# generated using pymatgen
data_Tb3Dy4Th(ReB6)4
_symmetry_space_group_name_H-M   'P 1'
_cell_length_a   3.71497900
_cell_length_b   9.20790042
_cell_length_c   11.60958401
_cell_angle_alpha   90.03462528
_cell_angle_beta   90.00000000
_cell_angle_gamma   90.00000000
_symmetry_Int_Tables_number   1
_chemical_formula_structural   Tb3Dy4Th(ReB6)4
_chemical_formula_sum   'Tb3 Dy4 Th1 Re4 B24'
_cell_volume   397.13078718
_cell_formula_units_Z   1
loop_
 _symmetry_equiv_pos_site_id
 _symmetry_equiv_pos_as_xyz
  1  'x, y, z'
loop_
 _atom_site_type_symbol
 _atom_site_label
 _atom_site_symmetry_multiplicity
 _atom_site_fract_x
 _atom_site_fract_y
 _atom_site_fract_z
 _atom_site_occupancy
  Tb  Tb0  1  0.000000  0.677825  0.587154  1
  Tb  Tb1  1  0.000000  0.823246  0.085112  1
  Tb  Tb2  1  0.000000  0.176138  0.914002  1
  Dy  Dy3  1  0.000000  0.941542  0.369308  1
  Dy  Dy4  1  0.000000  0.056577  0.631399  1
  Dy  Dy5  1  0.000000  0.443020  0.128516  1
  Dy  Dy6  1  0.000000  0.557848  0.870383  1
  Th  Th7  1  0.000000  0.322328  0.414148  1
  Re  Re8  1  0.000000  0.638459  0.320538  1
  Re  Re9  1  0.000000  0.362199  0.680065  1
  Re  Re10  1  0.000000  0.138122  0.178540  1
  Re  Re11  1  0.000000  0.861869  0.820929  1
  B  B12  1  0.500000  0.555437  0.431960  1
  B  B13  1  0.500000  0.446994  0.569654  1
  B  B14  1  0.500000  0.052990  0.066657  1
  B  B15  1  0.500000  0.946586  0.932655  1
  B  B16  1  0.500000  0.749446  0.417707  1
  B  B17  1  0.500000  0.251533  0.585265  1
  B  B18  1  0.500000  0.248194  0.080681  1
  B  B19  1  0.500000  0.751449  0.918024  1
  B  B20  1  0.500000  0.791245  0.265159  1
  B  B21  1  0.500000  0.208973  0.735940  1
  B  B22  1  0.500000  0.289720  0.232159  1
  B  B23  1  0.500000  0.708926  0.765925  1
  B  B24  1  0.500000  0.631521  0.184815  1
  B  B25  1  0.500000  0.370055  0.814953  1
  B  B26  1  0.500000  0.128970  0.312069  1
  B  B27  1  0.500000  0.869374  0.686430  1
  B  B28  1  0.500000  0.982110  0.210960  1
  B  B29  1  0.500000  0.017028  0.788608  1
  B  B30  1  0.500000  0.485312  0.286347  1
  B  B31  1  0.500000  0.517991  0.713498  1
  B  B32  1  0.500000  0.601110  0.027731  1
  B  B33  1  0.500000  0.399589  0.971509  1
  B  B34  1  0.500000  0.097131  0.472821  1
  B  B35  1  0.500000  0.899146  0.528378  1
