# generated using pymatgen
data_SmEr(Sb5O13)2
_symmetry_space_group_name_H-M   'P 1'
_cell_length_a   7.43572622
_cell_length_b   7.36855031
_cell_length_c   10.31066122
_cell_angle_alpha   88.88209362
_cell_angle_beta   89.80302239
_cell_angle_gamma   89.84747364
_symmetry_Int_Tables_number   1
_chemical_formula_structural   SmEr(Sb5O13)2
_chemical_formula_sum   'Sm1 Er1 Sb10 O26'
_cell_volume   564.81375167
_cell_formula_units_Z   1
loop_
 _symmetry_equiv_pos_site_id
 _symmetry_equiv_pos_as_xyz
  1  'x, y, z'
loop_
 _atom_site_type_symbol
 _atom_site_label
 _atom_site_symmetry_multiplicity
 _atom_site_fract_x
 _atom_site_fract_y
 _atom_site_fract_z
 _atom_site_occupancy
  Sm  Sm0  1  0.000000  0.500000  0.000000  1
  Er  Er1  1  0.500000  0.500000  0.000000  1
  Sb  Sb2  1  0.256200  0.730192  0.729687  1
  Sb  Sb3  1  0.743800  0.269808  0.270313  1
  Sb  Sb4  1  0.500000  0.000000  0.000000  1
  Sb  Sb5  1  0.750147  0.758223  0.748531  1
  Sb  Sb6  1  0.251510  0.748211  0.252271  1
  Sb  Sb7  1  0.500000  0.500000  0.500000  1
  Sb  Sb8  1  0.000000  0.500000  0.500000  1
  Sb  Sb9  1  0.748490  0.251789  0.747729  1
  Sb  Sb10  1  0.249853  0.241777  0.251469  1
  Sb  Sb11  1  0.000000  0.000000  0.000000  1
  O  O12  1  0.448934  0.690192  0.372359  1
  O  O13  1  0.741119  0.454372  0.129223  1
  O  O14  1  0.254353  0.493235  0.161504  1
  O  O15  1  0.455668  0.308252  0.365893  1
  O  O16  1  0.557130  0.216953  0.886153  1
  O  O17  1  0.941488  0.213146  0.883838  1
  O  O18  1  0.447774  0.207047  0.120625  1
  O  O19  1  0.749691  0.999344  0.072714  1
  O  O20  1  0.250309  0.000656  0.927286  1
  O  O21  1  0.747748  0.004220  0.683621  1
  O  O22  1  0.552226  0.792953  0.879375  1
  O  O23  1  0.948412  0.793932  0.878338  1
  O  O24  1  0.442870  0.783047  0.113847  1
  O  O25  1  0.052382  0.689505  0.371535  1
  O  O26  1  0.544332  0.691748  0.634107  1
  O  O27  1  0.952694  0.690644  0.633237  1
  O  O28  1  0.250007  0.519590  0.580576  1
  O  O29  1  0.745647  0.506765  0.838496  1
  O  O30  1  0.749993  0.480410  0.419424  1
  O  O31  1  0.047306  0.309356  0.366763  1
  O  O32  1  0.551066  0.309808  0.627641  1
  O  O33  1  0.947618  0.310495  0.628465  1
  O  O34  1  0.051588  0.206068  0.121662  1
  O  O35  1  0.252252  0.995780  0.316379  1
  O  O36  1  0.058512  0.786854  0.116162  1
  O  O37  1  0.258881  0.545628  0.870777  1
