# generated using pymatgen
data_Sm3Cr(P3Rh4)2
_symmetry_space_group_name_H-M   'P 1'
_cell_length_a   3.93517800
_cell_length_b   11.23713100
_cell_length_c   12.84630800
_cell_angle_alpha   90.00000000
_cell_angle_beta   90.00000000
_cell_angle_gamma   90.00000000
_symmetry_Int_Tables_number   1
_chemical_formula_structural   Sm3Cr(P3Rh4)2
_chemical_formula_sum   'Sm6 Cr2 P12 Rh16'
_cell_volume   568.06516177
_cell_formula_units_Z   2
loop_
 _symmetry_equiv_pos_site_id
 _symmetry_equiv_pos_as_xyz
  1  'x, y, z'
loop_
 _atom_site_type_symbol
 _atom_site_label
 _atom_site_symmetry_multiplicity
 _atom_site_fract_x
 _atom_site_fract_y
 _atom_site_fract_z
 _atom_site_occupancy
  Sm  Sm0  1  0.000000  0.500000  0.519270  1
  Sm  Sm1  1  0.500000  0.000000  0.480730  1
  Sm  Sm2  1  0.500000  0.817166  0.203768  1
  Sm  Sm3  1  0.500000  0.182834  0.203768  1
  Sm  Sm4  1  0.000000  0.682834  0.796232  1
  Sm  Sm5  1  0.000000  0.317166  0.796232  1
  Cr  Cr6  1  0.500000  0.500000  0.161063  1
  Cr  Cr7  1  0.000000  0.000000  0.838937  1
  P  P8  1  0.500000  0.500000  0.881076  1
  P  P9  1  0.000000  0.000000  0.118924  1
  P  P10  1  0.500000  0.500000  0.344792  1
  P  P11  1  0.000000  0.000000  0.655208  1
  P  P12  1  0.500000  0.312830  0.617288  1
  P  P13  1  0.500000  0.687170  0.617288  1
  P  P14  1  0.000000  0.187170  0.382712  1
  P  P15  1  0.000000  0.812830  0.382712  1
  P  P16  1  0.500000  0.847567  0.890731  1
  P  P17  1  0.500000  0.152433  0.890731  1
  P  P18  1  0.000000  0.652433  0.109269  1
  P  P19  1  0.000000  0.347567  0.109269  1
  Rh  Rh20  1  0.500000  0.500000  0.701817  1
  Rh  Rh21  1  0.000000  0.000000  0.298183  1
  Rh  Rh22  1  0.000000  0.500000  0.986456  1
  Rh  Rh23  1  0.500000  0.000000  0.013544  1
  Rh  Rh24  1  0.500000  0.333054  0.993334  1
  Rh  Rh25  1  0.500000  0.666946  0.993334  1
  Rh  Rh26  1  0.000000  0.166946  0.006666  1
  Rh  Rh27  1  0.000000  0.833054  0.006666  1
  Rh  Rh28  1  0.500000  0.293313  0.430718  1
  Rh  Rh29  1  0.500000  0.706687  0.430718  1
  Rh  Rh30  1  0.000000  0.206687  0.569282  1
  Rh  Rh31  1  0.000000  0.793313  0.569282  1
  Rh  Rh32  1  0.500000  0.876133  0.711061  1
  Rh  Rh33  1  0.500000  0.123867  0.711061  1
  Rh  Rh34  1  0.000000  0.623867  0.288939  1
  Rh  Rh35  1  0.000000  0.376133  0.288939  1
