# generated using pymatgen
data_Sc6Ti2Al12Mo2Os7
_symmetry_space_group_name_H-M   'P 1'
_cell_length_a   8.82117506
_cell_length_b   8.81704939
_cell_length_c   8.81705010
_cell_angle_alpha   60.03492821
_cell_angle_beta   59.98452145
_cell_angle_gamma   59.98452373
_symmetry_Int_Tables_number   1
_chemical_formula_structural   Sc6Ti2Al12Mo2Os7
_chemical_formula_sum   'Sc6 Ti2 Al12 Mo2 Os7'
_cell_volume   484.92083235
_cell_formula_units_Z   1
loop_
 _symmetry_equiv_pos_site_id
 _symmetry_equiv_pos_as_xyz
  1  'x, y, z'
loop_
 _atom_site_type_symbol
 _atom_site_label
 _atom_site_symmetry_multiplicity
 _atom_site_fract_x
 _atom_site_fract_y
 _atom_site_fract_z
 _atom_site_occupancy
  Sc  Sc0  1  0.712448  0.710280  0.287290  1
  Sc  Sc1  1  0.289981  0.710280  0.287290  1
  Sc  Sc2  1  0.710858  0.289142  0.289142  1
  Sc  Sc3  1  0.289981  0.287290  0.710280  1
  Sc  Sc4  1  0.712448  0.287290  0.710280  1
  Sc  Sc5  1  0.289599  0.710401  0.710401  1
  Ti  Ti6  1  0.358756  0.879435  0.879435  1
  Ti  Ti7  1  0.882372  0.879435  0.879435  1
  Al  Al8  1  0.121739  0.117721  0.638800  1
  Al  Al9  1  0.121739  0.638800  0.117721  1
  Al  Al10  1  0.636922  0.119708  0.119708  1
  Al  Al11  1  0.123663  0.119708  0.119708  1
  Al  Al12  1  0.662610  0.666991  0.007790  1
  Al  Al13  1  0.662610  0.007790  0.666991  1
  Al  Al14  1  0.010150  0.664803  0.664803  1
  Al  Al15  1  0.660245  0.664803  0.664803  1
  Al  Al16  1  0.334700  0.335650  0.994950  1
  Al  Al17  1  0.334700  0.994950  0.335650  1
  Al  Al18  1  0.994289  0.335475  0.335475  1
  Al  Al19  1  0.334761  0.335475  0.335475  1
  Mo  Mo20  1  0.879826  0.877099  0.363247  1
  Mo  Mo21  1  0.879826  0.363247  0.877099  1
  Os  Os22  1  0.995106  0.004894  0.004894  1
  Os  Os23  1  0.997001  0.998208  0.499903  1
  Os  Os24  1  0.504887  0.998208  0.499903  1
  Os  Os25  1  0.995961  0.504039  0.504039  1
  Os  Os26  1  0.504887  0.499903  0.998208  1
  Os  Os27  1  0.997001  0.499903  0.998208  1
  Os  Os28  1  0.500931  0.999069  0.999069  1
