# generated using pymatgen
data_Ho5In4RuAu
_symmetry_space_group_name_H-M   'P 1'
_cell_length_a   8.25455147
_cell_length_b   18.42490838
_cell_length_c   3.54790600
_cell_angle_alpha   90.00000000
_cell_angle_beta   90.00000000
_cell_angle_gamma   89.97747874
_symmetry_Int_Tables_number   1
_chemical_formula_structural   Ho5In4RuAu
_chemical_formula_sum   'Ho10 In8 Ru2 Au2'
_cell_volume   539.59869192
_cell_formula_units_Z   2
loop_
 _symmetry_equiv_pos_site_id
 _symmetry_equiv_pos_as_xyz
  1  'x, y, z'
loop_
 _atom_site_type_symbol
 _atom_site_label
 _atom_site_symmetry_multiplicity
 _atom_site_fract_x
 _atom_site_fract_y
 _atom_site_fract_z
 _atom_site_occupancy
  Ho  Ho0  1  0.500000  0.500000  0.000000  1
  Ho  Ho1  1  0.000000  0.000000  0.000000  1
  Ho  Ho2  1  0.763350  0.280878  0.000000  1
  Ho  Ho3  1  0.236650  0.719122  0.000000  1
  Ho  Ho4  1  0.774145  0.776104  0.000000  1
  Ho  Ho5  1  0.225855  0.223896  0.000000  1
  Ho  Ho6  1  0.624232  0.080938  0.000000  1
  Ho  Ho7  1  0.375768  0.919062  0.000000  1
  Ho  Ho8  1  0.880942  0.584984  0.000000  1
  Ho  Ho9  1  0.119058  0.415016  0.000000  1
  In  In10  1  0.708073  0.932485  0.500000  1
  In  In11  1  0.291927  0.067515  0.500000  1
  In  In12  1  0.794674  0.430828  0.500000  1
  In  In13  1  0.205326  0.569172  0.500000  1
  In  In14  1  0.576136  0.647637  0.500000  1
  In  In15  1  0.423864  0.352363  0.500000  1
  In  In16  1  0.930975  0.149097  0.500000  1
  In  In17  1  0.069025  0.850903  0.500000  1
  Ru  Ru18  1  0.977128  0.694663  0.500000  1
  Ru  Ru19  1  0.022872  0.305337  0.500000  1
  Au  Au20  1  0.524211  0.198486  0.500000  1
  Au  Au21  1  0.475789  0.801514  0.500000  1
