# generated using pymatgen
data_NdPa3(HgPt2)2
_symmetry_space_group_name_H-M   'P 1'
_cell_length_a   7.91498253
_cell_length_b   7.91498253
_cell_length_c   3.65042700
_cell_angle_alpha   90.00000000
_cell_angle_beta   90.00000000
_cell_angle_gamma   91.71898508
_symmetry_Int_Tables_number   1
_chemical_formula_structural   NdPa3(HgPt2)2
_chemical_formula_sum   'Nd1 Pa3 Hg2 Pt4'
_cell_volume   228.58519705
_cell_formula_units_Z   1
loop_
 _symmetry_equiv_pos_site_id
 _symmetry_equiv_pos_as_xyz
  1  'x, y, z'
loop_
 _atom_site_type_symbol
 _atom_site_label
 _atom_site_symmetry_multiplicity
 _atom_site_fract_x
 _atom_site_fract_y
 _atom_site_fract_z
 _atom_site_occupancy
  Nd  Nd0  1  0.674488  0.825513  0.500000  1
  Pa  Pa1  1  0.328336  0.171665  0.500000  1
  Pa  Pa2  1  0.828747  0.327047  0.500000  1
  Pa  Pa3  1  0.172954  0.671254  0.500000  1
  Hg  Hg4  1  0.993603  0.998968  0.000000  1
  Hg  Hg5  1  0.501032  0.506397  0.000000  1
  Pt  Pt6  1  0.621298  0.144678  0.000000  1
  Pt  Pt7  1  0.136826  0.363175  0.000000  1
  Pt  Pt8  1  0.887397  0.612603  0.000000  1
  Pt  Pt9  1  0.355323  0.878702  0.000000  1
