# generated using pymatgen
data_Y4Er12Cd4Ir3Pd
_symmetry_space_group_name_H-M   'P 1'
_cell_length_a   9.58645505
_cell_length_b   9.58146430
_cell_length_c   9.58146374
_cell_angle_alpha   60.17926476
_cell_angle_beta   60.11433039
_cell_angle_gamma   60.11432925
_symmetry_Int_Tables_number   1
_chemical_formula_structural   Y4Er12Cd4Ir3Pd
_chemical_formula_sum   'Y4 Er12 Cd4 Ir3 Pd1'
_cell_volume   624.22634149
_cell_formula_units_Z   1
loop_
 _symmetry_equiv_pos_site_id
 _symmetry_equiv_pos_as_xyz
  1  'x, y, z'
loop_
 _atom_site_type_symbol
 _atom_site_label
 _atom_site_symmetry_multiplicity
 _atom_site_fract_x
 _atom_site_fract_y
 _atom_site_fract_z
 _atom_site_occupancy
  Y  Y0  1  0.563002  0.938588  0.563022  1
  Y  Y1  1  0.937453  0.564119  0.937376  1
  Y  Y2  1  0.563002  0.563022  0.938588  1
  Y  Y3  1  0.937453  0.937376  0.564119  1
  Er  Er4  1  0.347419  0.347245  0.347245  1
  Er  Er5  1  0.353563  0.353637  0.948083  1
  Er  Er6  1  0.353563  0.948083  0.353637  1
  Er  Er7  1  0.947692  0.353776  0.353776  1
  Er  Er8  1  0.804715  0.190233  0.190233  1
  Er  Er9  1  0.188014  0.810699  0.810699  1
  Er  Er10  1  0.190436  0.804860  0.190360  1
  Er  Er11  1  0.810637  0.187984  0.810610  1
  Er  Er12  1  0.190436  0.190360  0.804860  1
  Er  Er13  1  0.810637  0.810610  0.187984  1
  Er  Er14  1  0.940579  0.561188  0.561188  1
  Er  Er15  1  0.562956  0.938899  0.938899  1
  Cd  Cd16  1  0.580868  0.580233  0.580233  1
  Cd  Cd17  1  0.580458  0.581001  0.256728  1
  Cd  Cd18  1  0.580458  0.256728  0.581001  1
  Cd  Cd19  1  0.256702  0.580481  0.580481  1
  Ir  Ir20  1  0.141155  0.142417  0.574174  1
  Ir  Ir21  1  0.141155  0.574174  0.142417  1
  Ir  Ir22  1  0.574079  0.141194  0.141194  1
  Pd  Pd23  1  0.143569  0.143095  0.143095  1
