# generated using pymatgen
data_Pr2RuPtF14
_symmetry_space_group_name_H-M   'P 1'
_cell_length_a   5.70679600
_cell_length_b   9.26000463
_cell_length_c   12.35661300
_cell_angle_alpha   62.09643752
_cell_angle_beta   90.00000000
_cell_angle_gamma   90.00000000
_symmetry_Int_Tables_number   1
_chemical_formula_structural   Pr2RuPtF14
_chemical_formula_sum   'Pr4 Ru2 Pt2 F28'
_cell_volume   577.06642416
_cell_formula_units_Z   2
loop_
 _symmetry_equiv_pos_site_id
 _symmetry_equiv_pos_as_xyz
  1  'x, y, z'
loop_
 _atom_site_type_symbol
 _atom_site_label
 _atom_site_symmetry_multiplicity
 _atom_site_fract_x
 _atom_site_fract_y
 _atom_site_fract_z
 _atom_site_occupancy
  Pr  Pr0  1  0.759398  0.811543  0.763851  1
  Pr  Pr1  1  0.259398  0.188457  0.736149  1
  Pr  Pr2  1  0.240322  0.192236  0.231841  1
  Pr  Pr3  1  0.740322  0.807764  0.268159  1
  Ru  Ru4  1  0.754882  0.273735  0.956436  1
  Ru  Ru5  1  0.254882  0.726265  0.543564  1
  Pt  Pt6  1  0.243787  0.727357  0.042414  1
  Pt  Pt7  1  0.743787  0.272643  0.457586  1
  F  F8  1  0.433675  0.705994  0.917462  1
  F  F9  1  0.933675  0.294006  0.582538  1
  F  F10  1  0.562525  0.290107  0.082383  1
  F  F11  1  0.062525  0.709893  0.417617  1
  F  F12  1  0.452433  0.283884  0.539607  1
  F  F13  1  0.952433  0.716116  0.960393  1
  F  F14  1  0.544276  0.717916  0.458723  1
  F  F15  1  0.044276  0.282084  0.041277  1
  F  F16  1  0.763189  0.507407  0.864092  1
  F  F17  1  0.263189  0.492593  0.635908  1
  F  F18  1  0.235479  0.487491  0.139070  1
  F  F19  1  0.735479  0.512509  0.360930  1
  F  F20  1  0.758368  0.040956  0.047212  1
  F  F21  1  0.258368  0.959044  0.452788  1
  F  F22  1  0.241910  0.967607  0.951023  1
  F  F23  1  0.741910  0.032393  0.548977  1
  F  F24  1  0.971558  0.728854  0.633403  1
  F  F25  1  0.471558  0.271146  0.866597  1
  F  F26  1  0.030798  0.268106  0.370787  1
  F  F27  1  0.530798  0.731894  0.129213  1
  F  F28  1  0.057462  0.744444  0.170110  1
  F  F29  1  0.557462  0.255556  0.329890  1
  F  F30  1  0.945238  0.257929  0.828907  1
  F  F31  1  0.445238  0.742071  0.671093  1
  F  F32  1  0.411059  0.968971  0.230857  1
  F  F33  1  0.911059  0.031029  0.269143  1
  F  F34  1  0.593641  0.032961  0.769084  1
  F  F35  1  0.093641  0.967039  0.730916  1
