# generated using pymatgen
data_RbPu2(AsO4)3
_symmetry_space_group_name_H-M   'P 1'
_cell_length_a   10.27336089
_cell_length_b   10.27336062
_cell_length_c   10.27336068
_cell_angle_alpha   55.01175101
_cell_angle_beta   55.01174937
_cell_angle_gamma   55.01174577
_symmetry_Int_Tables_number   1
_chemical_formula_structural   RbPu2(AsO4)3
_chemical_formula_sum   'Rb2 Pu4 As6 O24'
_cell_volume   677.71541105
_cell_formula_units_Z   2
loop_
 _symmetry_equiv_pos_site_id
 _symmetry_equiv_pos_as_xyz
  1  'x, y, z'
loop_
 _atom_site_type_symbol
 _atom_site_label
 _atom_site_symmetry_multiplicity
 _atom_site_fract_x
 _atom_site_fract_y
 _atom_site_fract_z
 _atom_site_occupancy
  Rb  Rb0  1  0.500000  0.500000  0.500000  1
  Rb  Rb1  1  0.000000  0.000000  0.000000  1
  Pu  Pu2  1  0.349600  0.349600  0.349600  1
  Pu  Pu3  1  0.849600  0.849600  0.849600  1
  Pu  Pu4  1  0.650400  0.650400  0.650400  1
  Pu  Pu5  1  0.150400  0.150400  0.150400  1
  As  As6  1  0.961625  0.538375  0.250000  1
  As  As7  1  0.250000  0.961625  0.538375  1
  As  As8  1  0.538375  0.250000  0.961625  1
  As  As9  1  0.750000  0.038375  0.461625  1
  As  As10  1  0.461625  0.750000  0.038375  1
  As  As11  1  0.038375  0.461625  0.750000  1
  O  O12  1  0.139171  0.516078  0.253038  1
  O  O13  1  0.253038  0.139171  0.516078  1
  O  O14  1  0.516078  0.253038  0.139171  1
  O  O15  1  0.753038  0.016078  0.639171  1
  O  O16  1  0.639171  0.753038  0.016078  1
  O  O17  1  0.016078  0.639171  0.753038  1
  O  O18  1  0.860829  0.483922  0.746962  1
  O  O19  1  0.746962  0.860829  0.483922  1
  O  O20  1  0.483922  0.746962  0.860829  1
  O  O21  1  0.246962  0.983922  0.360829  1
  O  O22  1  0.360829  0.246962  0.983922  1
  O  O23  1  0.983922  0.360829  0.246962  1
  O  O24  1  0.213531  0.428070  0.572472  1
  O  O25  1  0.572472  0.213531  0.428070  1
  O  O26  1  0.428070  0.572472  0.213531  1
  O  O27  1  0.072472  0.928070  0.713531  1
  O  O28  1  0.713531  0.072472  0.928070  1
  O  O29  1  0.928070  0.713531  0.072472  1
  O  O30  1  0.786469  0.571930  0.427528  1
  O  O31  1  0.427528  0.786469  0.571930  1
  O  O32  1  0.571930  0.427528  0.786469  1
  O  O33  1  0.927528  0.071930  0.286469  1
  O  O34  1  0.286469  0.927528  0.071930  1
  O  O35  1  0.071930  0.286469  0.927528  1
