# generated using pymatgen
data_Sr3LaMg2(RuO6)2
_symmetry_space_group_name_H-M   'P 1'
_cell_length_a   5.62329619
_cell_length_b   5.65077778
_cell_length_c   7.93835586
_cell_angle_alpha   90.07639764
_cell_angle_beta   90.14562445
_cell_angle_gamma   90.18007469
_symmetry_Int_Tables_number   1
_chemical_formula_structural   Sr3LaMg2(RuO6)2
_chemical_formula_sum   'Sr3 La1 Mg2 Ru2 O12'
_cell_volume   252.24688604
_cell_formula_units_Z   1
loop_
 _symmetry_equiv_pos_site_id
 _symmetry_equiv_pos_as_xyz
  1  'x, y, z'
loop_
 _atom_site_type_symbol
 _atom_site_label
 _atom_site_symmetry_multiplicity
 _atom_site_fract_x
 _atom_site_fract_y
 _atom_site_fract_z
 _atom_site_occupancy
  Sr  Sr0  1  0.008240  0.029150  0.250148  1
  Sr  Sr1  1  0.495669  0.526006  0.250602  1
  Sr  Sr2  1  0.994735  0.971794  0.749805  1
  La  La3  1  0.504329  0.464155  0.750299  1
  Mg  Mg4  1  0.999377  0.500597  0.499147  1
  Mg  Mg5  1  0.501021  0.997271  0.001424  1
  Ru  Ru6  1  0.001950  0.500642  0.000480  1
  Ru  Ru7  1  0.497958  0.999042  0.499448  1
  O  O8  1  0.765476  0.219410  0.535939  1
  O  O9  1  0.273891  0.287600  0.026764  1
  O  O10  1  0.228333  0.786597  0.471685  1
  O  O11  1  0.723356  0.708192  0.960227  1
  O  O12  1  0.289645  0.275309  0.472625  1
  O  O13  1  0.781930  0.233812  0.962685  1
  O  O14  1  0.705843  0.721122  0.539322  1
  O  O15  1  0.211133  0.772959  0.029430  1
  O  O16  1  0.942631  0.491444  0.241062  1
  O  O17  1  0.441349  0.018662  0.743928  1
  O  O18  1  0.072319  0.507585  0.755771  1
  O  O19  1  0.560816  0.988650  0.259209  1
