# generated using pymatgen
data_Lu2FeAuO7
_symmetry_space_group_name_H-M   'P 1'
_cell_length_a   7.19387394
_cell_length_b   7.25215792
_cell_length_c   7.19384010
_cell_angle_alpha   59.73137105
_cell_angle_beta   59.51062496
_cell_angle_gamma   59.73116501
_symmetry_Int_Tables_number   1
_chemical_formula_structural   Lu2FeAuO7
_chemical_formula_sum   'Lu4 Fe2 Au2 O14'
_cell_volume   263.31819779
_cell_formula_units_Z   2
loop_
 _symmetry_equiv_pos_site_id
 _symmetry_equiv_pos_as_xyz
  1  'x, y, z'
loop_
 _atom_site_type_symbol
 _atom_site_label
 _atom_site_symmetry_multiplicity
 _atom_site_fract_x
 _atom_site_fract_y
 _atom_site_fract_z
 _atom_site_occupancy
  Lu  Lu0  1  0.499997  0.000002  0.499993  1
  Lu  Lu1  1  0.000001  0.499990  0.500006  1
  Lu  Lu2  1  0.499996  0.500006  0.000003  1
  Lu  Lu3  1  0.499996  0.499997  0.500000  1
  Fe  Fe4  1  0.000006  0.500004  0.999996  1
  Fe  Fe5  1  0.999997  0.000000  0.000000  1
  Au  Au6  1  0.500006  0.999991  0.000009  1
  Au  Au7  1  0.000010  0.999999  0.500001  1
  O  O8  1  0.621962  0.628033  0.621960  1
  O  O9  1  0.378034  0.371965  0.378045  1
  O  O10  1  0.344079  0.909266  0.903901  1
  O  O11  1  0.096100  0.657244  0.655919  1
  O  O12  1  0.911134  0.338879  0.911120  1
  O  O13  1  0.903891  0.909288  0.344073  1
  O  O14  1  0.344076  0.342764  0.903886  1
  O  O15  1  0.344390  0.905629  0.344393  1
  O  O16  1  0.903898  0.342757  0.344088  1
  O  O17  1  0.655921  0.657242  0.096107  1
  O  O18  1  0.096107  0.090715  0.655933  1
  O  O19  1  0.655922  0.090735  0.096094  1
  O  O20  1  0.655605  0.094370  0.655609  1
  O  O21  1  0.088874  0.661131  0.088865  1
