# generated using pymatgen
data_Nd6Mg2Cd21Ge
_symmetry_space_group_name_H-M   'P 1'
_cell_length_a   10.08011472
_cell_length_b   10.08011457
_cell_length_c   10.11046900
_cell_angle_alpha   59.90033303
_cell_angle_beta   59.90033353
_cell_angle_gamma   60.12846976
_symmetry_Int_Tables_number   1
_chemical_formula_structural   Nd6Mg2Cd21Ge
_chemical_formula_sum   'Nd6 Mg2 Cd21 Ge1'
_cell_volume   726.02230379
_cell_formula_units_Z   1
loop_
 _symmetry_equiv_pos_site_id
 _symmetry_equiv_pos_as_xyz
  1  'x, y, z'
loop_
 _atom_site_type_symbol
 _atom_site_label
 _atom_site_symmetry_multiplicity
 _atom_site_fract_x
 _atom_site_fract_y
 _atom_site_fract_z
 _atom_site_occupancy
  Nd  Nd0  1  0.791738  0.791738  0.208262  1
  Nd  Nd1  1  0.208291  0.791709  0.207553  1
  Nd  Nd2  1  0.791709  0.208291  0.207553  1
  Nd  Nd3  1  0.208262  0.208262  0.791738  1
  Nd  Nd4  1  0.791709  0.208291  0.792447  1
  Nd  Nd5  1  0.208291  0.791709  0.792447  1
  Mg  Mg6  1  0.000000  0.000000  0.500000  1
  Mg  Mg7  1  0.500000  0.500000  0.500000  1
  Cd  Cd8  1  0.834636  0.834636  0.498060  1
  Cd  Cd9  1  0.834107  0.498098  0.833897  1
  Cd  Cd10  1  0.498098  0.834107  0.833897  1
  Cd  Cd11  1  0.834636  0.834636  0.832667  1
  Cd  Cd12  1  0.165364  0.165364  0.501940  1
  Cd  Cd13  1  0.165893  0.501902  0.166103  1
  Cd  Cd14  1  0.501902  0.165893  0.166103  1
  Cd  Cd15  1  0.165364  0.165364  0.167333  1
  Cd  Cd16  1  0.621421  0.621421  0.136209  1
  Cd  Cd17  1  0.623284  0.135397  0.620660  1
  Cd  Cd18  1  0.135397  0.623284  0.620660  1
  Cd  Cd19  1  0.621421  0.621421  0.620949  1
  Cd  Cd20  1  0.378579  0.378579  0.863791  1
  Cd  Cd21  1  0.376716  0.864603  0.379340  1
  Cd  Cd22  1  0.864603  0.376716  0.379340  1
  Cd  Cd23  1  0.378579  0.378579  0.379051  1
  Cd  Cd24  1  0.500000  0.000000  0.500000  1
  Cd  Cd25  1  0.000000  0.500000  0.500000  1
  Cd  Cd26  1  0.500000  0.500000  0.000000  1
  Cd  Cd27  1  0.000000  0.500000  0.000000  1
  Cd  Cd28  1  0.500000  0.000000  0.000000  1
  Ge  Ge29  1  0.000000  0.000000  0.000000  1
