# generated using pymatgen
data_Ca2GeIrI
_symmetry_space_group_name_H-M   'P 1'
_cell_length_a   4.28359700
_cell_length_b   4.28359827
_cell_length_c   17.19792800
_cell_angle_alpha   90.00000000
_cell_angle_beta   90.00000000
_cell_angle_gamma   119.99999791
_symmetry_Int_Tables_number   1
_chemical_formula_structural   Ca2GeIrI
_chemical_formula_sum   'Ca4 Ge2 Ir2 I2'
_cell_volume   273.29023089
_cell_formula_units_Z   2
loop_
 _symmetry_equiv_pos_site_id
 _symmetry_equiv_pos_as_xyz
  1  'x, y, z'
loop_
 _atom_site_type_symbol
 _atom_site_label
 _atom_site_symmetry_multiplicity
 _atom_site_fract_x
 _atom_site_fract_y
 _atom_site_fract_z
 _atom_site_occupancy
  Ca  Ca0  1  0.000000  0.000000  0.610113  1
  Ca  Ca1  1  0.000000  0.000000  0.390224  1
  Ca  Ca2  1  0.000000  0.000000  0.110113  1
  Ca  Ca3  1  0.000000  0.000000  0.890224  1
  Ge  Ge4  1  0.666667  0.333333  0.999297  1
  Ge  Ge5  1  0.333333  0.666667  0.499297  1
  Ir  Ir6  1  0.666667  0.333333  0.500501  1
  Ir  Ir7  1  0.333333  0.666667  0.000501  1
  I  I8  1  0.666667  0.333333  0.249864  1
  I  I9  1  0.333333  0.666667  0.749864  1
