# generated using pymatgen
data_Pr6Nd10Cd4Ir3Pd
_symmetry_space_group_name_H-M   'P 1'
_cell_length_a   9.99813329
_cell_length_b   9.99813260
_cell_length_c   9.99813264
_cell_angle_alpha   60.23263133
_cell_angle_beta   60.23264353
_cell_angle_gamma   60.23262908
_symmetry_Int_Tables_number   1
_chemical_formula_structural   Pr6Nd10Cd4Ir3Pd
_chemical_formula_sum   'Pr6 Nd10 Cd4 Ir3 Pd1'
_cell_volume   710.43274744
_cell_formula_units_Z   1
loop_
 _symmetry_equiv_pos_site_id
 _symmetry_equiv_pos_as_xyz
  1  'x, y, z'
loop_
 _atom_site_type_symbol
 _atom_site_label
 _atom_site_symmetry_multiplicity
 _atom_site_fract_x
 _atom_site_fract_y
 _atom_site_fract_z
 _atom_site_occupancy
  Pr  Pr0  1  0.940195  0.561943  0.561943  1
  Pr  Pr1  1  0.562625  0.938561  0.938561  1
  Pr  Pr2  1  0.561943  0.940195  0.561943  1
  Pr  Pr3  1  0.938561  0.562625  0.938561  1
  Pr  Pr4  1  0.561943  0.561943  0.940195  1
  Pr  Pr5  1  0.938561  0.938561  0.562625  1
  Nd  Nd6  1  0.346978  0.346978  0.346978  1
  Nd  Nd7  1  0.352325  0.352325  0.950502  1
  Nd  Nd8  1  0.352325  0.950502  0.352325  1
  Nd  Nd9  1  0.950502  0.352325  0.352325  1
  Nd  Nd10  1  0.804162  0.190781  0.190781  1
  Nd  Nd11  1  0.188935  0.809549  0.809549  1
  Nd  Nd12  1  0.190781  0.804162  0.190781  1
  Nd  Nd13  1  0.809549  0.188935  0.809549  1
  Nd  Nd14  1  0.190781  0.190781  0.804162  1
  Nd  Nd15  1  0.809549  0.809549  0.188935  1
  Cd  Cd16  1  0.580018  0.580018  0.580018  1
  Cd  Cd17  1  0.579938  0.579938  0.260021  1
  Cd  Cd18  1  0.579938  0.260021  0.579938  1
  Cd  Cd19  1  0.260021  0.579938  0.579938  1
  Ir  Ir20  1  0.141951  0.141951  0.573870  1
  Ir  Ir21  1  0.141951  0.573870  0.141951  1
  Ir  Ir22  1  0.573870  0.141951  0.141951  1
  Pd  Pd23  1  0.142591  0.142591  0.142591  1
