# generated using pymatgen
data_Ca11Pr8TmSn16
_symmetry_space_group_name_H-M   'P 1'
_cell_length_a   7.98545545
_cell_length_b   8.54337683
_cell_length_c   16.13176386
_cell_angle_alpha   90.07695014
_cell_angle_beta   90.04462552
_cell_angle_gamma   89.94726862
_symmetry_Int_Tables_number   1
_chemical_formula_structural   Ca11Pr8TmSn16
_chemical_formula_sum   'Ca11 Pr8 Tm1 Sn16'
_cell_volume   1100.55158312
_cell_formula_units_Z   1
loop_
 _symmetry_equiv_pos_site_id
 _symmetry_equiv_pos_as_xyz
  1  'x, y, z'
loop_
 _atom_site_type_symbol
 _atom_site_label
 _atom_site_symmetry_multiplicity
 _atom_site_fract_x
 _atom_site_fract_y
 _atom_site_fract_z
 _atom_site_occupancy
  Ca  Ca0  1  0.832158  0.672953  0.623666  1
  Ca  Ca1  1  0.666915  0.173170  0.376411  1
  Ca  Ca2  1  0.166408  0.327534  0.122295  1
  Ca  Ca3  1  0.667236  0.172339  0.122699  1
  Ca  Ca4  1  0.166809  0.327069  0.376466  1
  Ca  Ca5  1  0.333585  0.827165  0.623406  1
  Ca  Ca6  1  0.833497  0.673389  0.877881  1
  Ca  Ca7  1  0.161131  0.501277  0.749590  1
  Ca  Ca8  1  0.664269  0.998130  0.749591  1
  Ca  Ca9  1  0.837905  0.497272  0.250205  1
  Ca  Ca10  1  0.338044  0.002122  0.249680  1
  Pr  Pr11  1  0.494949  0.317346  0.904280  1
  Pr  Pr12  1  0.993582  0.185445  0.595398  1
  Pr  Pr13  1  0.506124  0.685636  0.403491  1
  Pr  Pr14  1  0.005316  0.813716  0.096728  1
  Pr  Pr15  1  0.506803  0.684672  0.096033  1
  Pr  Pr16  1  0.006045  0.814133  0.403857  1
  Pr  Pr17  1  0.493846  0.315542  0.596128  1
  Pr  Pr18  1  0.993832  0.186087  0.905743  1
  Tm  Tm19  1  0.334521  0.825508  0.875287  1
  Sn  Sn20  1  0.324879  0.031442  0.034452  1
  Sn  Sn21  1  0.828652  0.466021  0.461772  1
  Sn  Sn22  1  0.670723  0.966571  0.538554  1
  Sn  Sn23  1  0.177387  0.540143  0.959949  1
  Sn  Sn24  1  0.663230  0.963947  0.958832  1
  Sn  Sn25  1  0.171042  0.533833  0.538796  1
  Sn  Sn26  1  0.329560  0.034006  0.461715  1
  Sn  Sn27  1  0.829358  0.465685  0.037966  1
  Sn  Sn28  1  0.531665  0.606532  0.752588  1
  Sn  Sn29  1  0.038702  0.893999  0.754588  1
  Sn  Sn30  1  0.465458  0.397643  0.249562  1
  Sn  Sn31  1  0.965869  0.101307  0.250004  1
  Sn  Sn32  1  0.290029  0.139310  0.752759  1
  Sn  Sn33  1  0.787596  0.359125  0.750645  1
  Sn  Sn34  1  0.711717  0.857422  0.249487  1
  Sn  Sn35  1  0.211155  0.642511  0.249496  1
