# generated using pymatgen
data_La3Pr5InPd24
_symmetry_space_group_name_H-M   'P 1'
_cell_length_a   8.58665023
_cell_length_b   8.58665012
_cell_length_c   8.58661000
_cell_angle_alpha   89.98668137
_cell_angle_beta   90.01331863
_cell_angle_gamma   90.03801056
_symmetry_Int_Tables_number   1
_chemical_formula_structural   La3Pr5InPd24
_chemical_formula_sum   'La3 Pr5 In1 Pd24'
_cell_volume   633.09540108
_cell_formula_units_Z   1
loop_
 _symmetry_equiv_pos_site_id
 _symmetry_equiv_pos_as_xyz
  1  'x, y, z'
loop_
 _atom_site_type_symbol
 _atom_site_label
 _atom_site_symmetry_multiplicity
 _atom_site_fract_x
 _atom_site_fract_y
 _atom_site_fract_z
 _atom_site_occupancy
  La  La0  1  0.252922  0.747078  0.252129  1
  La  La1  1  0.252521  0.747479  0.747586  1
  La  La2  1  0.746955  0.253045  0.252511  1
  Pr  Pr3  1  0.251516  0.251495  0.251757  1
  Pr  Pr4  1  0.748293  0.748092  0.748176  1
  Pr  Pr5  1  0.748505  0.748484  0.251757  1
  Pr  Pr6  1  0.748173  0.251827  0.748493  1
  Pr  Pr7  1  0.251908  0.251707  0.748176  1
  In  In8  1  0.999452  0.000548  0.999367  1
  Pd  Pd9  1  0.267024  0.499996  0.000024  1
  Pd  Pd10  1  0.732804  0.500069  0.000134  1
  Pd  Pd11  1  0.999793  0.267145  0.500065  1
  Pd  Pd12  1  0.499931  0.267196  0.000134  1
  Pd  Pd13  1  0.000350  0.732973  0.499934  1
  Pd  Pd14  1  0.500004  0.732976  0.000024  1
  Pd  Pd15  1  0.499942  0.999981  0.267166  1
  Pd  Pd16  1  0.267027  0.999650  0.499934  1
  Pd  Pd17  1  0.500018  0.999888  0.732818  1
  Pd  Pd18  1  0.732855  0.000207  0.500065  1
  Pd  Pd19  1  0.000019  0.500058  0.267166  1
  Pd  Pd20  1  0.000112  0.499982  0.732818  1
  Pd  Pd21  1  0.255223  0.499825  0.499918  1
  Pd  Pd22  1  0.744966  0.500063  0.500172  1
  Pd  Pd23  1  0.499937  0.255034  0.500172  1
  Pd  Pd24  1  0.500175  0.744777  0.499918  1
  Pd  Pd25  1  0.499944  0.500056  0.255228  1
  Pd  Pd26  1  0.500170  0.499830  0.744886  1
  Pd  Pd27  1  0.313522  0.000309  0.000030  1
  Pd  Pd28  1  0.686043  0.999714  0.999859  1
  Pd  Pd29  1  0.000286  0.313957  0.999859  1
  Pd  Pd30  1  0.999691  0.686478  0.000030  1
  Pd  Pd31  1  0.000118  0.999882  0.313577  1
  Pd  Pd32  1  0.999806  0.000194  0.686115  1
