# generated using pymatgen
data_CaFe3NiAs12
_symmetry_space_group_name_H-M   'P 1'
_cell_length_a   7.23816145
_cell_length_b   7.23816121
_cell_length_c   7.23816200
_cell_angle_alpha   109.43148116
_cell_angle_beta   109.43148655
_cell_angle_gamma   109.43147983
_symmetry_Int_Tables_number   1
_chemical_formula_structural   CaFe3NiAs12
_chemical_formula_sum   'Ca1 Fe3 Ni1 As12'
_cell_volume   292.34808074
_cell_formula_units_Z   1
loop_
 _symmetry_equiv_pos_site_id
 _symmetry_equiv_pos_as_xyz
  1  'x, y, z'
loop_
 _atom_site_type_symbol
 _atom_site_label
 _atom_site_symmetry_multiplicity
 _atom_site_fract_x
 _atom_site_fract_y
 _atom_site_fract_z
 _atom_site_occupancy
  Ca  Ca0  1  0.000000  0.000000  0.000000  1
  Fe  Fe1  1  0.500000  0.000000  0.000000  1
  Fe  Fe2  1  0.000000  0.500000  0.000000  1
  Fe  Fe3  1  0.000000  0.000000  0.500000  1
  Ni  Ni4  1  0.500000  0.500000  0.500000  1
  As  As5  1  0.851585  0.658944  0.501565  1
  As  As6  1  0.148415  0.341056  0.498435  1
  As  As7  1  0.156349  0.658857  0.814291  1
  As  As8  1  0.843651  0.341143  0.185709  1
  As  As9  1  0.658944  0.501565  0.851585  1
  As  As10  1  0.341056  0.498435  0.148415  1
  As  As11  1  0.658857  0.814291  0.156349  1
  As  As12  1  0.341143  0.185709  0.843651  1
  As  As13  1  0.501565  0.851585  0.658944  1
  As  As14  1  0.498435  0.148415  0.341056  1
  As  As15  1  0.185709  0.843651  0.341143  1
  As  As16  1  0.814291  0.156349  0.658857  1
