# generated using pymatgen
data_Ho12FeCoNi2BiRh
_symmetry_space_group_name_H-M   'P 1'
_cell_length_a   8.32319483
_cell_length_b   8.32319012
_cell_length_c   8.32319435
_cell_angle_alpha   111.00831832
_cell_angle_beta   109.59718564
_cell_angle_gamma   107.82383958
_symmetry_Int_Tables_number   1
_chemical_formula_structural   Ho12FeCoNi2BiRh
_chemical_formula_sum   'Ho12 Fe1 Co1 Ni2 Bi1 Rh1'
_cell_volume   443.51837846
_cell_formula_units_Z   1
loop_
 _symmetry_equiv_pos_site_id
 _symmetry_equiv_pos_as_xyz
  1  'x, y, z'
loop_
 _atom_site_type_symbol
 _atom_site_label
 _atom_site_symmetry_multiplicity
 _atom_site_fract_x
 _atom_site_fract_y
 _atom_site_fract_z
 _atom_site_occupancy
  Ho  Ho0  1  0.819927  0.710571  0.527776  1
  Ho  Ho1  1  0.182790  0.292146  0.472224  1
  Ho  Ho2  1  0.182797  0.710571  0.890645  1
  Ho  Ho3  1  0.819920  0.292146  0.109355  1
  Ho  Ho4  1  0.686240  0.378332  0.692092  1
  Ho  Ho5  1  0.311911  0.621507  0.309596  1
  Ho  Ho6  1  0.686238  0.994144  0.307908  1
  Ho  Ho7  1  0.311913  0.002317  0.690404  1
  Ho  Ho8  1  0.593453  0.789862  0.803587  1
  Ho  Ho9  1  0.407220  0.211572  0.195652  1
  Ho  Ho10  1  0.986276  0.789862  0.196410  1
  Ho  Ho11  1  0.015919  0.211572  0.804351  1
  Fe  Fe12  1  0.106943  0.606942  0.500000  1
  Co  Co13  1  0.884129  0.384130  0.500000  1
  Ni  Ni14  1  0.631956  0.001477  0.630479  1
  Ni  Ni15  1  0.370998  0.001477  0.369521  1
  Bi  Bi16  1  0.500643  0.500643  0.000000  1
  Rh  Rh17  1  0.000728  0.000728  0.000000  1
