# generated using pymatgen
data_Er2Al9NiRh2
_symmetry_space_group_name_H-M   'P 1'
_cell_length_a   7.52950642
_cell_length_b   7.52950600
_cell_length_c   9.38851900
_cell_angle_alpha   90.00000000
_cell_angle_beta   90.00000000
_cell_angle_gamma   119.87889282
_symmetry_Int_Tables_number   1
_chemical_formula_structural   Er2Al9NiRh2
_chemical_formula_sum   'Er4 Al18 Ni2 Rh4'
_cell_volume   461.51881822
_cell_formula_units_Z   2
loop_
 _symmetry_equiv_pos_site_id
 _symmetry_equiv_pos_as_xyz
  1  'x, y, z'
loop_
 _atom_site_type_symbol
 _atom_site_label
 _atom_site_symmetry_multiplicity
 _atom_site_fract_x
 _atom_site_fract_y
 _atom_site_fract_z
 _atom_site_occupancy
  Er  Er0  1  0.994393  0.668245  0.750000  1
  Er  Er1  1  0.005607  0.331755  0.250000  1
  Er  Er2  1  0.668245  0.994393  0.750000  1
  Er  Er3  1  0.331755  0.005607  0.250000  1
  Al  Al4  1  0.120924  0.120924  0.750000  1
  Al  Al5  1  0.879076  0.879076  0.250000  1
  Al  Al6  1  0.999091  0.331658  0.574849  1
  Al  Al7  1  0.000909  0.668342  0.425151  1
  Al  Al8  1  0.000909  0.668342  0.074849  1
  Al  Al9  1  0.331658  0.999091  0.925151  1
  Al  Al10  1  0.999091  0.331658  0.925151  1
  Al  Al11  1  0.668342  0.000909  0.074849  1
  Al  Al12  1  0.668342  0.000909  0.425151  1
  Al  Al13  1  0.331658  0.999091  0.574849  1
  Al  Al14  1  0.330158  0.330158  0.050224  1
  Al  Al15  1  0.669842  0.669842  0.949776  1
  Al  Al16  1  0.669842  0.669842  0.550224  1
  Al  Al17  1  0.330158  0.330158  0.449776  1
  Al  Al18  1  0.338608  0.547406  0.750000  1
  Al  Al19  1  0.661392  0.452594  0.250000  1
  Al  Al20  1  0.547406  0.338608  0.750000  1
  Al  Al21  1  0.452594  0.661392  0.250000  1
  Ni  Ni22  1  0.000000  0.000000  0.500000  1
  Ni  Ni23  1  0.000000  0.000000  0.000000  1
  Rh  Rh24  1  0.672166  0.327834  0.500000  1
  Rh  Rh25  1  0.327834  0.672166  0.500000  1
  Rh  Rh26  1  0.327834  0.672166  0.000000  1
  Rh  Rh27  1  0.672166  0.327834  0.000000  1
