# generated using pymatgen
data_LiYbGaF6
_symmetry_space_group_name_H-M   'P 1'
_cell_length_a   5.10385100
_cell_length_b   5.10385058
_cell_length_c   9.73542700
_cell_angle_alpha   90.00000000
_cell_angle_beta   90.00000000
_cell_angle_gamma   119.99998330
_symmetry_Int_Tables_number   1
_chemical_formula_structural   LiYbGaF6
_chemical_formula_sum   'Li2 Yb2 Ga2 F12'
_cell_volume   219.62493596
_cell_formula_units_Z   2
loop_
 _symmetry_equiv_pos_site_id
 _symmetry_equiv_pos_as_xyz
  1  'x, y, z'
loop_
 _atom_site_type_symbol
 _atom_site_label
 _atom_site_symmetry_multiplicity
 _atom_site_fract_x
 _atom_site_fract_y
 _atom_site_fract_z
 _atom_site_occupancy
  Li  Li0  1  0.333333  0.666667  0.250000  1
  Li  Li1  1  0.666667  0.333333  0.750000  1
  Yb  Yb2  1  0.000000  0.000000  0.000000  1
  Yb  Yb3  1  0.000000  0.000000  0.500000  1
  Ga  Ga4  1  0.666667  0.333333  0.250000  1
  Ga  Ga5  1  0.333333  0.666667  0.750000  1
  F  F6  1  0.984006  0.346310  0.138635  1
  F  F7  1  0.015994  0.362304  0.638635  1
  F  F8  1  0.637696  0.653690  0.638635  1
  F  F9  1  0.346310  0.984006  0.638635  1
  F  F10  1  0.653690  0.015994  0.361365  1
  F  F11  1  0.653690  0.637696  0.138635  1
  F  F12  1  0.362304  0.015994  0.138635  1
  F  F13  1  0.362304  0.346310  0.361365  1
  F  F14  1  0.346310  0.362304  0.861365  1
  F  F15  1  0.984006  0.637696  0.361365  1
  F  F16  1  0.015994  0.653690  0.861365  1
  F  F17  1  0.637696  0.984006  0.861365  1
