# generated using pymatgen
data_TmMgNi3Ir
_symmetry_space_group_name_H-M   'P 1'
_cell_length_a   5.08166287
_cell_length_b   5.08166290
_cell_length_c   5.08166279
_cell_angle_alpha   58.18393267
_cell_angle_beta   58.18393588
_cell_angle_gamma   58.18392428
_symmetry_Int_Tables_number   1
_chemical_formula_structural   TmMgNi3Ir
_chemical_formula_sum   'Tm1 Mg1 Ni3 Ir1'
_cell_volume   88.92864259
_cell_formula_units_Z   1
loop_
 _symmetry_equiv_pos_site_id
 _symmetry_equiv_pos_as_xyz
  1  'x, y, z'
loop_
 _atom_site_type_symbol
 _atom_site_label
 _atom_site_symmetry_multiplicity
 _atom_site_fract_x
 _atom_site_fract_y
 _atom_site_fract_z
 _atom_site_occupancy
  Tm  Tm0  1  0.000293  0.000293  0.000293  1
  Mg  Mg1  1  0.247954  0.247954  0.247954  1
  Ni  Ni2  1  0.625262  0.625262  0.126605  1
  Ni  Ni3  1  0.625262  0.126605  0.625262  1
  Ni  Ni4  1  0.126605  0.625262  0.625262  1
  Ir  Ir5  1  0.624624  0.624624  0.624624  1
