# generated using pymatgen
data_ThFeNiGeP
_symmetry_space_group_name_H-M   'P 1'
_cell_length_a   3.99838400
_cell_length_b   3.99838400
_cell_length_c   9.75349900
_cell_angle_alpha   90.00000000
_cell_angle_beta   90.00000000
_cell_angle_gamma   90.00000000
_symmetry_Int_Tables_number   1
_chemical_formula_structural   ThFeNiGeP
_chemical_formula_sum   'Th2 Fe2 Ni2 Ge2 P2'
_cell_volume   155.92991624
_cell_formula_units_Z   2
loop_
 _symmetry_equiv_pos_site_id
 _symmetry_equiv_pos_as_xyz
  1  'x, y, z'
loop_
 _atom_site_type_symbol
 _atom_site_label
 _atom_site_symmetry_multiplicity
 _atom_site_fract_x
 _atom_site_fract_y
 _atom_site_fract_z
 _atom_site_occupancy
  Th  Th0  1  0.000000  0.500000  0.764080  1
  Th  Th1  1  0.500000  0.000000  0.235920  1
  Fe  Fe2  1  0.500000  0.500000  0.000000  1
  Fe  Fe3  1  0.000000  0.000000  0.000000  1
  Ni  Ni4  1  0.000000  0.500000  0.356962  1
  Ni  Ni5  1  0.500000  0.000000  0.643038  1
  Ge  Ge6  1  0.000000  0.000000  0.500000  1
  Ge  Ge7  1  0.500000  0.500000  0.500000  1
  P  P8  1  0.500000  0.000000  0.880763  1
  P  P9  1  0.000000  0.500000  0.119237  1
