# generated using pymatgen
data_Tb2Ho3GaCo5
_symmetry_space_group_name_H-M   'P 1'
_cell_length_a   5.47441338
_cell_length_b   5.47441334
_cell_length_c   20.52917900
_cell_angle_alpha   90.00000000
_cell_angle_beta   90.00000000
_cell_angle_gamma   136.96675315
_symmetry_Int_Tables_number   1
_chemical_formula_structural   Tb2Ho3GaCo5
_chemical_formula_sum   'Tb4 Ho6 Ga2 Co10'
_cell_volume   419.85581502
_cell_formula_units_Z   2
loop_
 _symmetry_equiv_pos_site_id
 _symmetry_equiv_pos_as_xyz
  1  'x, y, z'
loop_
 _atom_site_type_symbol
 _atom_site_label
 _atom_site_symmetry_multiplicity
 _atom_site_fract_x
 _atom_site_fract_y
 _atom_site_fract_z
 _atom_site_occupancy
  Tb  Tb0  1  0.998467  0.001533  0.657058  1
  Tb  Tb1  1  0.708407  0.291593  0.934127  1
  Tb  Tb2  1  0.001533  0.998467  0.157058  1
  Tb  Tb3  1  0.291593  0.708407  0.434127  1
  Ho  Ho4  1  0.288535  0.711465  0.250260  1
  Ho  Ho5  1  0.291074  0.708926  0.065941  1
  Ho  Ho6  1  0.997266  0.002734  0.842816  1
  Ho  Ho7  1  0.711465  0.288535  0.750260  1
  Ho  Ho8  1  0.708926  0.291074  0.565941  1
  Ho  Ho9  1  0.002734  0.997266  0.342816  1
  Ga  Ga10  1  0.000427  0.999573  0.500000  1
  Ga  Ga11  1  0.999573  0.000427  0.000000  1
  Co  Co12  1  0.293924  0.706076  0.654064  1
  Co  Co13  1  0.581547  0.418453  0.441630  1
  Co  Co14  1  0.412917  0.587083  0.750177  1
  Co  Co15  1  0.418453  0.581547  0.941630  1
  Co  Co16  1  0.587083  0.412917  0.250177  1
  Co  Co17  1  0.417964  0.582036  0.558476  1
  Co  Co18  1  0.705605  0.294395  0.345451  1
  Co  Co19  1  0.706076  0.293924  0.154064  1
  Co  Co20  1  0.582036  0.417964  0.058476  1
  Co  Co21  1  0.294395  0.705605  0.845451  1
