# generated using pymatgen
data_BaZnCdSn2
_symmetry_space_group_name_H-M   'P 1'
_cell_length_a   4.86409800
_cell_length_b   4.86409800
_cell_length_c   11.89408000
_cell_angle_alpha   90.00000000
_cell_angle_beta   90.00000000
_cell_angle_gamma   90.00000000
_symmetry_Int_Tables_number   1
_chemical_formula_structural   BaZnCdSn2
_chemical_formula_sum   'Ba2 Zn2 Cd2 Sn4'
_cell_volume   281.40738337
_cell_formula_units_Z   2
loop_
 _symmetry_equiv_pos_site_id
 _symmetry_equiv_pos_as_xyz
  1  'x, y, z'
loop_
 _atom_site_type_symbol
 _atom_site_label
 _atom_site_symmetry_multiplicity
 _atom_site_fract_x
 _atom_site_fract_y
 _atom_site_fract_z
 _atom_site_occupancy
  Ba  Ba0  1  0.000000  0.500000  0.746151  1
  Ba  Ba1  1  0.500000  0.000000  0.253849  1
  Zn  Zn2  1  0.000000  0.500000  0.371421  1
  Zn  Zn3  1  0.500000  0.000000  0.628579  1
  Cd  Cd4  1  0.500000  0.500000  0.000000  1
  Cd  Cd5  1  0.000000  0.000000  0.000000  1
  Sn  Sn6  1  0.500000  0.000000  0.855566  1
  Sn  Sn7  1  0.000000  0.500000  0.144434  1
  Sn  Sn8  1  0.500000  0.500000  0.500000  1
  Sn  Sn9  1  0.000000  0.000000  0.500000  1
