# generated using pymatgen
data_Y2Mg3PaIr3
_symmetry_space_group_name_H-M   'P 1'
_cell_length_a   7.53726900
_cell_length_b   7.26480619
_cell_length_c   4.00992400
_cell_angle_alpha   90.00000000
_cell_angle_beta   90.00000000
_cell_angle_gamma   121.24858691
_symmetry_Int_Tables_number   1
_chemical_formula_structural   Y2Mg3PaIr3
_chemical_formula_sum   'Y2 Mg3 Pa1 Ir3'
_cell_volume   187.71632206
_cell_formula_units_Z   1
loop_
 _symmetry_equiv_pos_site_id
 _symmetry_equiv_pos_as_xyz
  1  'x, y, z'
loop_
 _atom_site_type_symbol
 _atom_site_label
 _atom_site_symmetry_multiplicity
 _atom_site_fract_x
 _atom_site_fract_y
 _atom_site_fract_z
 _atom_site_occupancy
  Y  Y0  1  0.997706  0.406830  0.499999  1
  Y  Y1  1  0.590874  0.593170  0.499999  1
  Mg  Mg2  1  0.767825  0.000000  0.000000  1
  Mg  Mg3  1  0.245707  0.251382  0.000000  1
  Mg  Mg4  1  0.994326  0.748619  0.000000  1
  Pa  Pa5  1  0.415053  0.000000  0.499999  1
  Ir  Ir6  1  0.639017  0.302692  0.000000  1
  Ir  Ir7  1  0.336324  0.697307  0.000000  1
  Ir  Ir8  1  0.013168  0.000000  0.499999  1
