# generated using pymatgen
data_Tb6Co16ReNiP12
_symmetry_space_group_name_H-M   'P 1'
_cell_length_a   3.72335400
_cell_length_b   10.52837100
_cell_length_c   12.25596700
_cell_angle_alpha   90.00000000
_cell_angle_beta   90.00000000
_cell_angle_gamma   90.00000000
_symmetry_Int_Tables_number   1
_chemical_formula_structural   Tb6Co16ReNiP12
_chemical_formula_sum   'Tb6 Co16 Re1 Ni1 P12'
_cell_volume   480.44435187
_cell_formula_units_Z   1
loop_
 _symmetry_equiv_pos_site_id
 _symmetry_equiv_pos_as_xyz
  1  'x, y, z'
loop_
 _atom_site_type_symbol
 _atom_site_label
 _atom_site_symmetry_multiplicity
 _atom_site_fract_x
 _atom_site_fract_y
 _atom_site_fract_z
 _atom_site_occupancy
  Tb  Tb0  1  0.000000  0.500000  0.522316  1
  Tb  Tb1  1  0.500000  0.000000  0.478518  1
  Tb  Tb2  1  0.500000  0.817580  0.207130  1
  Tb  Tb3  1  0.500000  0.182420  0.207130  1
  Tb  Tb4  1  0.000000  0.684728  0.795790  1
  Tb  Tb5  1  0.000000  0.315272  0.795790  1
  Co  Co6  1  0.000000  0.000000  0.839954  1
  Co  Co7  1  0.000000  0.000000  0.296127  1
  Co  Co8  1  0.000000  0.500000  0.988363  1
  Co  Co9  1  0.500000  0.000000  0.015157  1
  Co  Co10  1  0.500000  0.332186  0.991228  1
  Co  Co11  1  0.500000  0.667814  0.991228  1
  Co  Co12  1  0.000000  0.166279  0.005889  1
  Co  Co13  1  0.000000  0.833721  0.005889  1
  Co  Co14  1  0.500000  0.297363  0.430522  1
  Co  Co15  1  0.500000  0.702637  0.430522  1
  Co  Co16  1  0.000000  0.202650  0.568818  1
  Co  Co17  1  0.000000  0.797350  0.568818  1
  Co  Co18  1  0.500000  0.879342  0.709550  1
  Co  Co19  1  0.500000  0.120658  0.709550  1
  Co  Co20  1  0.000000  0.620191  0.290484  1
  Co  Co21  1  0.000000  0.379809  0.290484  1
  Re  Re22  1  0.500000  0.500000  0.156043  1
  Ni  Ni23  1  0.500000  0.500000  0.702516  1
  P  P24  1  0.500000  0.500000  0.882276  1
  P  P25  1  0.000000  0.000000  0.117382  1
  P  P26  1  0.500000  0.500000  0.348101  1
  P  P27  1  0.000000  0.000000  0.656445  1
  P  P28  1  0.500000  0.309674  0.615627  1
  P  P29  1  0.500000  0.690326  0.615627  1
  P  P30  1  0.000000  0.189127  0.384605  1
  P  P31  1  0.000000  0.810873  0.384605  1
  P  P32  1  0.500000  0.850429  0.892615  1
  P  P33  1  0.500000  0.149571  0.892615  1
  P  P34  1  0.000000  0.655986  0.106145  1
  P  P35  1  0.000000  0.344014  0.106145  1
