# generated using pymatgen
data_Li4TbY7(ScSi2)8
_symmetry_space_group_name_H-M   'P 1'
_cell_length_a   6.90674301
_cell_length_b   7.40499303
_cell_length_c   14.08288404
_cell_angle_alpha   90.00789258
_cell_angle_beta   89.99749407
_cell_angle_gamma   90.00585320
_symmetry_Int_Tables_number   1
_chemical_formula_structural   Li4TbY7(ScSi2)8
_chemical_formula_sum   'Li4 Tb1 Y7 Sc8 Si16'
_cell_volume   720.26041540
_cell_formula_units_Z   1
loop_
 _symmetry_equiv_pos_site_id
 _symmetry_equiv_pos_as_xyz
  1  'x, y, z'
loop_
 _atom_site_type_symbol
 _atom_site_label
 _atom_site_symmetry_multiplicity
 _atom_site_fract_x
 _atom_site_fract_y
 _atom_site_fract_z
 _atom_site_occupancy
  Li  Li0  1  0.159211  0.504398  0.750011  1
  Li  Li1  1  0.840776  0.495585  0.250003  1
  Li  Li2  1  0.340769  0.004417  0.250000  1
  Li  Li3  1  0.659243  0.995609  0.750008  1
  Tb  Tb4  1  0.485939  0.681330  0.599538  1
  Y  Y5  1  0.014052  0.181339  0.099547  1
  Y  Y6  1  0.985945  0.818661  0.900456  1
  Y  Y7  1  0.485964  0.681329  0.900426  1
  Y  Y8  1  0.985933  0.818675  0.599536  1
  Y  Y9  1  0.514069  0.318651  0.099549  1
  Y  Y10  1  0.014042  0.181356  0.400443  1
  Y  Y11  1  0.514050  0.318653  0.400440  1
  Sc  Sc12  1  0.330338  0.179225  0.626315  1
  Sc  Sc13  1  0.669650  0.820737  0.373700  1
  Sc  Sc14  1  0.169617  0.679258  0.373704  1
  Sc  Sc15  1  0.669653  0.820727  0.126312  1
  Sc  Sc16  1  0.830378  0.320733  0.626319  1
  Sc  Sc17  1  0.330352  0.179255  0.873685  1
  Sc  Sc18  1  0.830357  0.320743  0.873692  1
  Sc  Sc19  1  0.169651  0.679273  0.126308  1
  Si  Si20  1  0.032275  0.105734  0.750016  1
  Si  Si21  1  0.967719  0.894305  0.249999  1
  Si  Si22  1  0.467708  0.605713  0.249992  1
  Si  Si23  1  0.532299  0.394268  0.750023  1
  Si  Si24  1  0.282210  0.883043  0.749991  1
  Si  Si25  1  0.717782  0.116963  0.249995  1
  Si  Si26  1  0.217791  0.383026  0.249998  1
  Si  Si27  1  0.782254  0.616901  0.750036  1
  Si  Si28  1  0.157388  0.462962  0.535259  1
  Si  Si29  1  0.842610  0.537024  0.464723  1
  Si  Si30  1  0.342570  0.963031  0.464708  1
  Si  Si31  1  0.842578  0.537028  0.035281  1
  Si  Si32  1  0.657410  0.037059  0.535263  1
  Si  Si33  1  0.157422  0.462988  0.964720  1
  Si  Si34  1  0.657424  0.037030  0.964723  1
  Si  Si35  1  0.342570  0.962969  0.035282  1
