# generated using pymatgen
data_Ti18VSi16W
_symmetry_space_group_name_H-M   'P 1'
_cell_length_a   6.67178912
_cell_length_b   6.67144264
_cell_length_c   12.17196939
_cell_angle_alpha   89.95019310
_cell_angle_beta   90.03612379
_cell_angle_gamma   89.99287642
_symmetry_Int_Tables_number   1
_chemical_formula_structural   Ti18VSi16W
_chemical_formula_sum   'Ti18 V1 Si16 W1'
_cell_volume   541.77962111
_cell_formula_units_Z   1
loop_
 _symmetry_equiv_pos_site_id
 _symmetry_equiv_pos_as_xyz
  1  'x, y, z'
loop_
 _atom_site_type_symbol
 _atom_site_label
 _atom_site_symmetry_multiplicity
 _atom_site_fract_x
 _atom_site_fract_y
 _atom_site_fract_z
 _atom_site_occupancy
  Ti  Ti0  1  0.995813  0.149365  0.622431  1
  Ti  Ti1  1  0.350575  0.495620  0.872621  1
  Ti  Ti2  1  0.648938  0.505615  0.371026  1
  Ti  Ti3  1  0.494512  0.350801  0.128183  1
  Ti  Ti4  1  0.504307  0.648778  0.627920  1
  Ti  Ti5  1  0.005699  0.850865  0.120595  1
  Ti  Ti6  1  0.149936  0.995605  0.377447  1
  Ti  Ti7  1  0.850990  0.005773  0.879644  1
  Ti  Ti8  1  0.003488  0.343427  0.219347  1
  Ti  Ti9  1  0.154974  0.503428  0.468762  1
  Ti  Ti10  1  0.842523  0.496342  0.969667  1
  Ti  Ti11  1  0.502831  0.156703  0.530766  1
  Ti  Ti12  1  0.496061  0.844310  0.030695  1
  Ti  Ti13  1  0.997283  0.655555  0.719385  1
  Ti  Ti14  1  0.344824  0.003402  0.781503  1
  Ti  Ti15  1  0.657057  0.996863  0.279900  1
  Ti  Ti16  1  0.671696  0.328348  0.750806  1
  Ti  Ti17  1  0.829095  0.828686  0.499670  1
  V  V18  1  0.171306  0.170798  0.000547  1
  Si  Si19  1  0.046447  0.299748  0.815532  1
  Si  Si20  1  0.197174  0.540859  0.062475  1
  Si  Si21  1  0.801758  0.455225  0.563944  1
  Si  Si22  1  0.541050  0.197549  0.936716  1
  Si  Si23  1  0.455643  0.801670  0.436768  1
  Si  Si24  1  0.955907  0.699108  0.313567  1
  Si  Si25  1  0.299783  0.046078  0.184369  1
  Si  Si26  1  0.698762  0.955271  0.686682  1
  Si  Si27  1  0.294525  0.357215  0.673907  1
  Si  Si28  1  0.143533  0.797018  0.923166  1
  Si  Si29  1  0.857468  0.205272  0.423193  1
  Si  Si30  1  0.796551  0.143481  0.076885  1
  Si  Si31  1  0.204880  0.857280  0.576736  1
  Si  Si32  1  0.705761  0.642124  0.171628  1
  Si  Si33  1  0.357773  0.294507  0.327513  1
  Si  Si34  1  0.642791  0.705526  0.826977  1
  W  W35  1  0.328286  0.671785  0.249031  1
