# generated using pymatgen
data_CeGd3(TcB4)4
_symmetry_space_group_name_H-M   'P 1'
_cell_length_a   3.63630800
_cell_length_b   6.00163212
_cell_length_c   11.61805797
_cell_angle_alpha   90.02203505
_cell_angle_beta   90.00000000
_cell_angle_gamma   90.00000000
_symmetry_Int_Tables_number   1
_chemical_formula_structural   CeGd3(TcB4)4
_chemical_formula_sum   'Ce1 Gd3 Tc4 B16'
_cell_volume   253.54995586
_cell_formula_units_Z   1
loop_
 _symmetry_equiv_pos_site_id
 _symmetry_equiv_pos_as_xyz
  1  'x, y, z'
loop_
 _atom_site_type_symbol
 _atom_site_label
 _atom_site_symmetry_multiplicity
 _atom_site_fract_x
 _atom_site_fract_y
 _atom_site_fract_z
 _atom_site_occupancy
  Ce  Ce0  1  0.000000  0.873686  0.849451  1
  Gd  Gd1  1  0.000000  0.626405  0.349389  1
  Gd  Gd2  1  0.000000  0.373380  0.649827  1
  Gd  Gd3  1  0.000000  0.127148  0.150748  1
  Tc  Tc4  1  0.000000  0.633915  0.087858  1
  Tc  Tc5  1  0.000000  0.365699  0.911234  1
  Tc  Tc6  1  0.000000  0.133029  0.412572  1
  Tc  Tc7  1  0.000000  0.868029  0.587881  1
  B  B8  1  0.500000  0.785581  0.185280  1
  B  B9  1  0.500000  0.213849  0.815324  1
  B  B10  1  0.500000  0.286173  0.315486  1
  B  B11  1  0.500000  0.713928  0.684371  1
  B  B12  1  0.500000  0.862680  0.031790  1
  B  B13  1  0.500000  0.137047  0.968387  1
  B  B14  1  0.500000  0.363380  0.468344  1
  B  B15  1  0.500000  0.636908  0.531661  1
  B  B16  1  0.500000  0.887372  0.453305  1
  B  B17  1  0.500000  0.113279  0.546437  1
  B  B18  1  0.500000  0.386846  0.047037  1
  B  B19  1  0.500000  0.611590  0.953704  1
  B  B20  1  0.500000  0.976728  0.308490  1
  B  B21  1  0.500000  0.022706  0.691089  1
  B  B22  1  0.500000  0.476634  0.191716  1
  B  B23  1  0.500000  0.524010  0.808618  1
