# generated using pymatgen
data_Tm6Al6NiAu5
_symmetry_space_group_name_H-M   'P 1'
_cell_length_a   7.23053600
_cell_length_b   7.23053562
_cell_length_c   7.97719400
_cell_angle_alpha   90.00000000
_cell_angle_beta   90.00000000
_cell_angle_gamma   119.99999258
_symmetry_Int_Tables_number   1
_chemical_formula_structural   Tm6Al6NiAu5
_chemical_formula_sum   'Tm6 Al6 Ni1 Au5'
_cell_volume   361.17840928
_cell_formula_units_Z   1
loop_
 _symmetry_equiv_pos_site_id
 _symmetry_equiv_pos_as_xyz
  1  'x, y, z'
loop_
 _atom_site_type_symbol
 _atom_site_label
 _atom_site_symmetry_multiplicity
 _atom_site_fract_x
 _atom_site_fract_y
 _atom_site_fract_z
 _atom_site_occupancy
  Tm  Tm0  1  0.594376  0.995651  0.750000  1
  Tm  Tm1  1  0.004349  0.598723  0.750000  1
  Tm  Tm2  1  0.401277  0.405624  0.750000  1
  Tm  Tm3  1  0.996282  0.582255  0.250000  1
  Tm  Tm4  1  0.585973  0.003718  0.250000  1
  Tm  Tm5  1  0.417745  0.414027  0.250000  1
  Al  Al6  1  0.765914  0.764870  0.986535  1
  Al  Al7  1  0.235130  0.001045  0.986535  1
  Al  Al8  1  0.998955  0.234086  0.986535  1
  Al  Al9  1  0.765914  0.764870  0.513465  1
  Al  Al10  1  0.235130  0.001045  0.513465  1
  Al  Al11  1  0.998955  0.234086  0.513465  1
  Ni  Ni12  1  0.000000  0.000000  0.750000  1
  Au  Au13  1  0.000000  0.000000  0.250000  1
  Au  Au14  1  0.666667  0.333333  0.993782  1
  Au  Au15  1  0.666667  0.333333  0.506218  1
  Au  Au16  1  0.333333  0.666667  0.496245  1
  Au  Au17  1  0.333333  0.666667  0.003755  1
