# generated using pymatgen
data_Lu8Ti12Si15Se
_symmetry_space_group_name_H-M   'P 1'
_cell_length_a   6.99372832
_cell_length_b   6.97684492
_cell_length_c   12.82763320
_cell_angle_alpha   89.90336279
_cell_angle_beta   89.65896361
_cell_angle_gamma   89.92340146
_symmetry_Int_Tables_number   1
_chemical_formula_structural   Lu8Ti12Si15Se
_chemical_formula_sum   'Lu8 Ti12 Si15 Se1'
_cell_volume   625.90103062
_cell_formula_units_Z   1
loop_
 _symmetry_equiv_pos_site_id
 _symmetry_equiv_pos_as_xyz
  1  'x, y, z'
loop_
 _atom_site_type_symbol
 _atom_site_label
 _atom_site_symmetry_multiplicity
 _atom_site_fract_x
 _atom_site_fract_y
 _atom_site_fract_z
 _atom_site_occupancy
  Lu  Lu0  1  0.342663  0.000213  0.464991  1
  Lu  Lu1  1  0.498687  0.843600  0.718064  1
  Lu  Lu2  1  0.501322  0.158209  0.216584  1
  Lu  Lu3  1  0.840791  0.497635  0.283083  1
  Lu  Lu4  1  0.158540  0.500767  0.783211  1
  Lu  Lu5  1  0.661610  0.994280  0.968670  1
  Lu  Lu6  1  0.996493  0.345554  0.530591  1
  Lu  Lu7  1  0.999233  0.658926  0.033326  1
  Ti  Ti8  1  0.326047  0.326930  0.999811  1
  Ti  Ti9  1  0.172919  0.827261  0.249965  1
  Ti  Ti10  1  0.822607  0.173323  0.750028  1
  Ti  Ti11  1  0.672702  0.671936  0.500290  1
  Ti  Ti12  1  0.155225  0.008891  0.874067  1
  Ti  Ti13  1  0.492804  0.651472  0.125092  1
  Ti  Ti14  1  0.507811  0.347755  0.627114  1
  Ti  Ti15  1  0.655725  0.497835  0.876360  1
  Ti  Ti16  1  0.347511  0.505957  0.374740  1
  Ti  Ti17  1  0.847655  0.993401  0.375019  1
  Ti  Ti18  1  0.006850  0.151117  0.124872  1
  Ti  Ti19  1  0.988862  0.842291  0.622842  1
  Si  Si20  1  0.366889  0.703981  0.932146  1
  Si  Si21  1  0.630615  0.297549  0.433207  1
  Si  Si22  1  0.704091  0.368048  0.068237  1
  Si  Si23  1  0.296963  0.632081  0.567818  1
  Si  Si24  1  0.796212  0.867889  0.182834  1
  Si  Si25  1  0.132249  0.203467  0.317844  1
  Si  Si26  1  0.869336  0.797806  0.816800  1
  Si  Si27  1  0.293047  0.953647  0.064220  1
  Si  Si28  1  0.546598  0.791746  0.314420  1
  Si  Si29  1  0.468725  0.211406  0.823124  1
  Si  Si30  1  0.792212  0.545528  0.685326  1
  Si  Si31  1  0.206919  0.453368  0.185601  1
  Si  Si32  1  0.705845  0.045629  0.563948  1
  Si  Si33  1  0.954282  0.292745  0.935397  1
  Si  Si34  1  0.046192  0.707819  0.434461  1
  Se  Se35  1  0.193770  0.129942  0.675897  1
