# generated using pymatgen
data_Tb2SiNiSe
_symmetry_space_group_name_H-M   'P 1'
_cell_length_a   4.05646100
_cell_length_b   4.05645841
_cell_length_c   14.67942000
_cell_angle_alpha   90.00000000
_cell_angle_beta   90.00000000
_cell_angle_gamma   120.00002925
_symmetry_Int_Tables_number   1
_chemical_formula_structural   Tb2SiNiSe
_chemical_formula_sum   'Tb4 Si2 Ni2 Se2'
_cell_volume   209.18653826
_cell_formula_units_Z   2
loop_
 _symmetry_equiv_pos_site_id
 _symmetry_equiv_pos_as_xyz
  1  'x, y, z'
loop_
 _atom_site_type_symbol
 _atom_site_label
 _atom_site_symmetry_multiplicity
 _atom_site_fract_x
 _atom_site_fract_y
 _atom_site_fract_z
 _atom_site_occupancy
  Tb  Tb0  1  0.333333  0.666667  0.374540  1
  Tb  Tb1  1  0.666667  0.333333  0.625460  1
  Tb  Tb2  1  0.666667  0.333333  0.874540  1
  Tb  Tb3  1  0.333333  0.666667  0.125460  1
  Si  Si4  1  0.333333  0.666667  0.750000  1
  Si  Si5  1  0.666667  0.333333  0.250000  1
  Ni  Ni6  1  0.000000  0.000000  0.250000  1
  Ni  Ni7  1  0.000000  0.000000  0.750000  1
  Se  Se8  1  0.000000  0.000000  0.500000  1
  Se  Se9  1  0.000000  0.000000  0.000000  1
