# generated using pymatgen
data_Tb16MgTl2Co4Ag
_symmetry_space_group_name_H-M   'P 1'
_cell_length_a   9.58317781
_cell_length_b   9.54934543
_cell_length_c   9.59451900
_cell_angle_alpha   59.84339468
_cell_angle_beta   59.96084760
_cell_angle_gamma   59.81982393
_symmetry_Int_Tables_number   1
_chemical_formula_structural   Tb16MgTl2Co4Ag
_chemical_formula_sum   'Tb16 Mg1 Tl2 Co4 Ag1'
_cell_volume   619.08920598
_cell_formula_units_Z   1
loop_
 _symmetry_equiv_pos_site_id
 _symmetry_equiv_pos_as_xyz
  1  'x, y, z'
loop_
 _atom_site_type_symbol
 _atom_site_label
 _atom_site_symmetry_multiplicity
 _atom_site_fract_x
 _atom_site_fract_y
 _atom_site_fract_z
 _atom_site_occupancy
  Tb  Tb0  1  0.809255  0.188001  0.190798  1
  Tb  Tb1  1  0.185046  0.811635  0.813946  1
  Tb  Tb2  1  0.185046  0.811635  0.189374  1
  Tb  Tb3  1  0.809255  0.188001  0.811946  1
  Tb  Tb4  1  0.184841  0.186505  0.814328  1
  Tb  Tb5  1  0.808286  0.809944  0.190885  1
  Tb  Tb6  1  0.940059  0.562555  0.561537  1
  Tb  Tb7  1  0.560488  0.944950  0.933079  1
  Tb  Tb8  1  0.560489  0.944950  0.561483  1
  Tb  Tb9  1  0.940059  0.562555  0.935848  1
  Tb  Tb10  1  0.560929  0.563047  0.938012  1
  Tb  Tb11  1  0.937178  0.942004  0.560408  1
  Tb  Tb12  1  0.345900  0.346386  0.343135  1
  Tb  Tb13  1  0.345900  0.346386  0.964579  1
  Tb  Tb14  1  0.348513  0.961235  0.345126  1
  Tb  Tb15  1  0.955623  0.349924  0.347226  1
  Mg  Mg16  1  0.279292  0.568503  0.576102  1
  Tl  Tl17  1  0.583138  0.580638  0.587176  1
  Tl  Tl18  1  0.583138  0.580638  0.249050  1
  Co  Co19  1  0.139481  0.141734  0.141377  1
  Co  Co20  1  0.139481  0.141734  0.577408  1
  Co  Co21  1  0.140078  0.577942  0.140991  1
  Co  Co22  1  0.576977  0.141561  0.140731  1
  Ag  Ag23  1  0.581553  0.247536  0.585456  1
