# generated using pymatgen
data_TbErGa(AsRh2)6
_symmetry_space_group_name_H-M   'P 1'
_cell_length_a   9.96799700
_cell_length_b   9.96799571
_cell_length_c   3.95341700
_cell_angle_alpha   90.00000000
_cell_angle_beta   90.00000000
_cell_angle_gamma   119.99999433
_symmetry_Int_Tables_number   1
_chemical_formula_structural   TbErGa(AsRh2)6
_chemical_formula_sum   'Tb1 Er1 Ga1 As6 Rh12'
_cell_volume   340.18802572
_cell_formula_units_Z   1
loop_
 _symmetry_equiv_pos_site_id
 _symmetry_equiv_pos_as_xyz
  1  'x, y, z'
loop_
 _atom_site_type_symbol
 _atom_site_label
 _atom_site_symmetry_multiplicity
 _atom_site_fract_x
 _atom_site_fract_y
 _atom_site_fract_z
 _atom_site_occupancy
  Tb  Tb0  1  0.666667  0.333333  0.751316  1
  Er  Er1  1  0.333333  0.666667  0.249171  1
  Ga  Ga2  1  0.000000  0.000000  0.585027  1
  As  As3  1  0.286428  0.882862  0.750613  1
  As  As4  1  0.117138  0.403565  0.750613  1
  As  As5  1  0.596435  0.713572  0.750613  1
  As  As6  1  0.712579  0.114995  0.251038  1
  As  As7  1  0.885005  0.597583  0.251038  1
  As  As8  1  0.402417  0.287421  0.251038  1
  Rh  Rh9  1  0.067375  0.618148  0.751403  1
  Rh  Rh10  1  0.381852  0.449227  0.751403  1
  Rh  Rh11  1  0.550773  0.932625  0.751403  1
  Rh  Rh12  1  0.936632  0.384569  0.250311  1
  Rh  Rh13  1  0.615431  0.552062  0.250311  1
  Rh  Rh14  1  0.447938  0.063368  0.250311  1
  Rh  Rh15  1  0.278774  0.123456  0.751723  1
  Rh  Rh16  1  0.876544  0.155321  0.751723  1
  Rh  Rh17  1  0.844679  0.721226  0.751723  1
  Rh  Rh18  1  0.733472  0.880470  0.250950  1
  Rh  Rh19  1  0.119530  0.853003  0.250950  1
  Rh  Rh20  1  0.146997  0.266528  0.250950  1
