# generated using pymatgen
data_Lu10RuRh3
_symmetry_space_group_name_H-M   'P 1'
_cell_length_a   6.29684602
_cell_length_b   7.14391803
_cell_length_c   8.28203200
_cell_angle_alpha   96.75304043
_cell_angle_beta   112.10389638
_cell_angle_gamma   89.93298121
_symmetry_Int_Tables_number   1
_chemical_formula_structural   Lu10RuRh3
_chemical_formula_sum   'Lu10 Ru1 Rh3'
_cell_volume   342.40745802
_cell_formula_units_Z   1
loop_
 _symmetry_equiv_pos_site_id
 _symmetry_equiv_pos_as_xyz
  1  'x, y, z'
loop_
 _atom_site_type_symbol
 _atom_site_label
 _atom_site_symmetry_multiplicity
 _atom_site_fract_x
 _atom_site_fract_y
 _atom_site_fract_z
 _atom_site_occupancy
  Lu  Lu0  1  0.522217  0.082468  0.813358  1
  Lu  Lu1  1  0.475691  0.918014  0.188540  1
  Lu  Lu2  1  0.710641  0.417831  0.187712  1
  Lu  Lu3  1  0.291940  0.582489  0.820082  1
  Lu  Lu4  1  0.291537  0.318575  0.437708  1
  Lu  Lu5  1  0.705472  0.683833  0.558347  1
  Lu  Lu6  1  0.853964  0.184433  0.561964  1
  Lu  Lu7  1  0.149310  0.812453  0.436979  1
  Lu  Lu8  1  0.078003  0.250925  0.000922  1
  Lu  Lu9  1  0.922545  0.749173  0.999964  1
  Ru  Ru10  1  0.323666  0.574997  0.214748  1
  Rh  Rh11  1  0.677253  0.424343  0.780953  1
  Rh  Rh12  1  0.102106  0.926090  0.778984  1
  Rh  Rh13  1  0.895654  0.074374  0.219737  1
