# generated using pymatgen
data_Pr2Th(RhPb)3
_symmetry_space_group_name_H-M   'P 1'
_cell_length_a   7.83854208
_cell_length_b   7.94474850
_cell_length_c   4.02517900
_cell_angle_alpha   90.00000000
_cell_angle_beta   90.00000000
_cell_angle_gamma   120.44921370
_symmetry_Int_Tables_number   1
_chemical_formula_structural   Pr2Th(RhPb)3
_chemical_formula_sum   'Pr2 Th1 Rh3 Pb3'
_cell_volume   216.09641380
_cell_formula_units_Z   1
loop_
 _symmetry_equiv_pos_site_id
 _symmetry_equiv_pos_as_xyz
  1  'x, y, z'
loop_
 _atom_site_type_symbol
 _atom_site_label
 _atom_site_symmetry_multiplicity
 _atom_site_fract_x
 _atom_site_fract_y
 _atom_site_fract_z
 _atom_site_occupancy
  Pr  Pr0  1  0.407161  0.407973  0.500000  1
  Pr  Pr1  1  0.592839  0.000812  0.500000  1
  Th  Th2  1  0.000000  0.586783  0.500000  1
  Rh  Rh3  1  0.000000  0.988220  0.500000  1
  Rh  Rh4  1  0.691863  0.354954  0.000000  1
  Rh  Rh5  1  0.308137  0.663092  0.000000  1
  Pb  Pb6  1  0.734490  0.742004  0.000000  1
  Pb  Pb7  1  0.265510  0.007515  0.000000  1
  Pb  Pb8  1  0.000000  0.248646  0.000000  1
