# generated using pymatgen
data_Na4ThZrI12
_symmetry_space_group_name_H-M   'P 1'
_cell_length_a   7.93276300
_cell_length_b   7.93276337
_cell_length_c   14.94289800
_cell_angle_alpha   90.00000000
_cell_angle_beta   90.00000000
_cell_angle_gamma   119.99999427
_symmetry_Int_Tables_number   1
_chemical_formula_structural   Na4ThZrI12
_chemical_formula_sum   'Na4 Th1 Zr1 I12'
_cell_volume   814.35631422
_cell_formula_units_Z   1
loop_
 _symmetry_equiv_pos_site_id
 _symmetry_equiv_pos_as_xyz
  1  'x, y, z'
loop_
 _atom_site_type_symbol
 _atom_site_label
 _atom_site_symmetry_multiplicity
 _atom_site_fract_x
 _atom_site_fract_y
 _atom_site_fract_z
 _atom_site_occupancy
  Na  Na0  1  0.000000  0.000000  0.750000  1
  Na  Na1  1  0.666667  0.333333  0.750000  1
  Na  Na2  1  0.333333  0.666667  0.250000  1
  Na  Na3  1  0.000000  0.000000  0.250000  1
  Th  Th4  1  0.666667  0.333333  0.250000  1
  Zr  Zr5  1  0.333333  0.666667  0.750000  1
  I  I6  1  0.036023  0.369247  0.637230  1
  I  I7  1  0.333225  0.963977  0.637230  1
  I  I8  1  0.630753  0.666775  0.637230  1
  I  I9  1  0.630753  0.963977  0.862770  1
  I  I10  1  0.333225  0.369247  0.862770  1
  I  I11  1  0.036023  0.666775  0.862770  1
  I  I12  1  0.985309  0.333108  0.130931  1
  I  I13  1  0.347797  0.014691  0.130931  1
  I  I14  1  0.666892  0.652203  0.130931  1
  I  I15  1  0.666892  0.014691  0.369069  1
  I  I16  1  0.347797  0.333108  0.369069  1
  I  I17  1  0.985309  0.652203  0.369069  1
