# generated using pymatgen
data_Sm2ErSi3P3Pd20
_symmetry_space_group_name_H-M   'P 1'
_cell_length_a   8.70728550
_cell_length_b   8.71096492
_cell_length_c   8.71566675
_cell_angle_alpha   59.95472048
_cell_angle_beta   59.99575999
_cell_angle_gamma   60.04965503
_symmetry_Int_Tables_number   1
_chemical_formula_structural   Sm2ErSi3P3Pd20
_chemical_formula_sum   'Sm2 Er1 Si3 P3 Pd20'
_cell_volume   467.44929885
_cell_formula_units_Z   1
loop_
 _symmetry_equiv_pos_site_id
 _symmetry_equiv_pos_as_xyz
  1  'x, y, z'
loop_
 _atom_site_type_symbol
 _atom_site_label
 _atom_site_symmetry_multiplicity
 _atom_site_fract_x
 _atom_site_fract_y
 _atom_site_fract_z
 _atom_site_occupancy
  Sm  Sm0  1  0.250337  0.249660  0.250338  1
  Sm  Sm1  1  0.750339  0.749659  0.750340  1
  Er  Er2  1  0.999339  0.000662  0.999348  1
  Si  Si3  1  0.733877  0.266123  0.733876  1
  Si  Si4  1  0.266076  0.264850  0.735150  1
  Si  Si5  1  0.735150  0.733925  0.266075  1
  P  P6  1  0.736065  0.263936  0.265460  1
  P  P7  1  0.265461  0.734540  0.736064  1
  P  P8  1  0.264503  0.735498  0.264499  1
  Pd  Pd9  1  0.345904  0.998420  0.001579  1
  Pd  Pd10  1  0.654214  0.999842  0.000161  1
  Pd  Pd11  1  0.000159  0.345785  0.654215  1
  Pd  Pd12  1  0.001578  0.654097  0.345904  1
  Pd  Pd13  1  0.998492  0.345533  0.000276  1
  Pd  Pd14  1  0.654465  0.001510  0.344300  1
  Pd  Pd15  1  0.000278  0.655700  0.998490  1
  Pd  Pd16  1  0.344301  0.999722  0.654469  1
  Pd  Pd17  1  0.000661  0.999335  0.343873  1
  Pd  Pd18  1  0.000914  0.999087  0.655762  1
  Pd  Pd19  1  0.655760  0.344237  0.000916  1
  Pd  Pd20  1  0.343869  0.656131  0.000660  1
  Pd  Pd21  1  0.385746  0.385851  0.383987  1
  Pd  Pd22  1  0.613686  0.616113  0.615706  1
  Pd  Pd23  1  0.383883  0.386319  0.845506  1
  Pd  Pd24  1  0.383987  0.844416  0.385747  1
  Pd  Pd25  1  0.614151  0.614253  0.155585  1
  Pd  Pd26  1  0.615710  0.154491  0.613683  1
  Pd  Pd27  1  0.845506  0.384290  0.383882  1
  Pd  Pd28  1  0.155587  0.616015  0.614150  1
