# generated using pymatgen
data_Dy2Tm4TcRu
_symmetry_space_group_name_H-M   'P 1'
_cell_length_a   6.26557500
_cell_length_b   7.33210200
_cell_length_c   9.01088700
_cell_angle_alpha   90.00000000
_cell_angle_beta   90.00000000
_cell_angle_gamma   90.00000000
_symmetry_Int_Tables_number   1
_chemical_formula_structural   Dy2Tm4TcRu
_chemical_formula_sum   'Dy4 Tm8 Tc2 Ru2'
_cell_volume   413.95866188
_cell_formula_units_Z   2
loop_
 _symmetry_equiv_pos_site_id
 _symmetry_equiv_pos_as_xyz
  1  'x, y, z'
loop_
 _atom_site_type_symbol
 _atom_site_label
 _atom_site_symmetry_multiplicity
 _atom_site_fract_x
 _atom_site_fract_y
 _atom_site_fract_z
 _atom_site_occupancy
  Dy  Dy0  1  0.876440  0.539152  0.250000  1
  Dy  Dy1  1  0.623560  0.039152  0.250000  1
  Dy  Dy2  1  0.129834  0.457317  0.750000  1
  Dy  Dy3  1  0.370166  0.957317  0.750000  1
  Tm  Tm4  1  0.335936  0.676618  0.064232  1
  Tm  Tm5  1  0.164064  0.176618  0.435768  1
  Tm  Tm6  1  0.662544  0.324319  0.562876  1
  Tm  Tm7  1  0.837456  0.824319  0.937124  1
  Tm  Tm8  1  0.662544  0.324319  0.937124  1
  Tm  Tm9  1  0.837456  0.824319  0.562876  1
  Tm  Tm10  1  0.335936  0.676618  0.435768  1
  Tm  Tm11  1  0.164064  0.176618  0.064232  1
  Tc  Tc12  1  0.039015  0.886131  0.250000  1
  Tc  Tc13  1  0.460985  0.386131  0.250000  1
  Ru  Ru14  1  0.958310  0.115524  0.750000  1
  Ru  Ru15  1  0.541690  0.615524  0.750000  1
