# generated using pymatgen
data_Y12Co4BiRh
_symmetry_space_group_name_H-M   'P 1'
_cell_length_a   8.38539650
_cell_length_b   8.38539633
_cell_length_c   8.38539611
_cell_angle_alpha   110.58993981
_cell_angle_beta   110.92634113
_cell_angle_gamma   106.92713013
_symmetry_Int_Tables_number   1
_chemical_formula_structural   Y12Co4BiRh
_chemical_formula_sum   'Y12 Co4 Bi1 Rh1'
_cell_volume   453.21669277
_cell_formula_units_Z   1
loop_
 _symmetry_equiv_pos_site_id
 _symmetry_equiv_pos_as_xyz
  1  'x, y, z'
loop_
 _atom_site_type_symbol
 _atom_site_label
 _atom_site_symmetry_multiplicity
 _atom_site_fract_x
 _atom_site_fract_y
 _atom_site_fract_z
 _atom_site_occupancy
  Y  Y0  1  0.290025  0.183845  0.473871  1
  Y  Y1  1  0.709975  0.816155  0.526129  1
  Y  Y2  1  0.290025  0.816155  0.106181  1
  Y  Y3  1  0.709975  0.183845  0.893819  1
  Y  Y4  1  0.620306  0.311394  0.308912  1
  Y  Y5  1  0.379694  0.688606  0.691088  1
  Y  Y6  1  0.002481  0.311394  0.691088  1
  Y  Y7  1  0.997519  0.688606  0.308912  1
  Y  Y8  1  0.208618  0.405530  0.196912  1
  Y  Y9  1  0.791382  0.594470  0.803088  1
  Y  Y10  1  0.208618  0.011707  0.803088  1
  Y  Y11  1  0.791382  0.988293  0.196912  1
  Co  Co12  1  0.000000  0.379537  0.379537  1
  Co  Co13  1  0.000000  0.620463  0.620463  1
  Co  Co14  1  0.390180  0.890180  0.500000  1
  Co  Co15  1  0.609820  0.109820  0.500000  1
  Bi  Bi16  1  0.500000  0.500000  0.000000  1
  Rh  Rh17  1  0.000000  0.000000  0.000000  1
