# generated using pymatgen
data_Ho8Er12Fe3CoBi8
_symmetry_space_group_name_H-M   'P 1'
_cell_length_a   7.90956714
_cell_length_b   8.89097500
_cell_length_c   12.37548632
_cell_angle_alpha   90.00000000
_cell_angle_beta   90.02369900
_cell_angle_gamma   90.00000000
_symmetry_Int_Tables_number   1
_chemical_formula_structural   Ho8Er12Fe3CoBi8
_chemical_formula_sum   'Ho8 Er12 Fe3 Co1 Bi8'
_cell_volume   870.29070090
_cell_formula_units_Z   1
loop_
 _symmetry_equiv_pos_site_id
 _symmetry_equiv_pos_as_xyz
  1  'x, y, z'
loop_
 _atom_site_type_symbol
 _atom_site_label
 _atom_site_symmetry_multiplicity
 _atom_site_fract_x
 _atom_site_fract_y
 _atom_site_fract_z
 _atom_site_occupancy
  Ho  Ho0  1  0.654561  0.750000  0.701165  1
  Ho  Ho1  1  0.345026  0.250000  0.300093  1
  Ho  Ho2  1  0.154747  0.250000  0.797737  1
  Ho  Ho3  1  0.847186  0.750000  0.198079  1
  Ho  Ho4  1  0.119155  0.750000  0.814399  1
  Ho  Ho5  1  0.882815  0.250000  0.185886  1
  Ho  Ho6  1  0.619942  0.250000  0.686143  1
  Ho  Ho7  1  0.382122  0.750000  0.316242  1
  Er  Er8  1  0.555559  0.750000  0.995338  1
  Er  Er9  1  0.440914  0.250000  0.005109  1
  Er  Er10  1  0.053436  0.250000  0.504178  1
  Er  Er11  1  0.941346  0.750000  0.495184  1
  Er  Er12  1  0.828089  0.463626  0.936386  1
  Er  Er13  1  0.172672  0.536595  0.063278  1
  Er  Er14  1  0.328323  0.532770  0.563661  1
  Er  Er15  1  0.172672  0.963405  0.063278  1
  Er  Er16  1  0.674413  0.458685  0.435333  1
  Er  Er17  1  0.828089  0.036374  0.936386  1
  Er  Er18  1  0.674413  0.041315  0.435333  1
  Er  Er19  1  0.328323  0.967230  0.563661  1
  Fe  Fe20  1  0.930181  0.750000  0.990486  1
  Fe  Fe21  1  0.069423  0.250000  0.007390  1
  Fe  Fe22  1  0.430627  0.250000  0.508898  1
  Co  Co23  1  0.565179  0.750000  0.494416  1
  Bi  Bi24  1  0.932616  0.005917  0.672962  1
  Bi  Bi25  1  0.067367  0.992141  0.327076  1
  Bi  Bi26  1  0.433028  0.993553  0.827212  1
  Bi  Bi27  1  0.067367  0.507859  0.327076  1
  Bi  Bi28  1  0.567382  0.006701  0.173722  1
  Bi  Bi29  1  0.932616  0.494083  0.672962  1
  Bi  Bi30  1  0.567382  0.493299  0.173722  1
  Bi  Bi31  1  0.433028  0.506447  0.827212  1
