# generated using pymatgen
data_YbLuCo5B4
_symmetry_space_group_name_H-M   'P 1'
_cell_length_a   6.98216738
_cell_length_b   5.87812884
_cell_length_c   5.18305292
_cell_angle_alpha   78.00288181
_cell_angle_beta   55.43560526
_cell_angle_gamma   46.56153505
_symmetry_Int_Tables_number   1
_chemical_formula_structural   YbLuCo5B4
_chemical_formula_sum   'Yb1 Lu1 Co5 B4'
_cell_volume   121.14685065
_cell_formula_units_Z   1
loop_
 _symmetry_equiv_pos_site_id
 _symmetry_equiv_pos_as_xyz
  1  'x, y, z'
loop_
 _atom_site_type_symbol
 _atom_site_label
 _atom_site_symmetry_multiplicity
 _atom_site_fract_x
 _atom_site_fract_y
 _atom_site_fract_z
 _atom_site_occupancy
  Yb  Yb0  1  0.143371  0.143370  0.856630  1
  Lu  Lu1  1  0.858116  0.858114  0.141885  1
  Co  Co2  1  0.500189  0.500191  0.999810  1
  Co  Co3  1  0.249772  0.249774  0.250227  1
  Co  Co4  1  0.000190  0.000190  0.499811  1
  Co  Co5  1  0.498936  0.498934  0.501065  1
  Co  Co6  1  0.749773  0.749774  0.750227  1
  B  B7  1  0.473665  0.787725  0.212274  1
  B  B8  1  0.211789  0.526473  0.473526  1
  B  B9  1  0.787727  0.473663  0.526336  1
  B  B10  1  0.526474  0.211788  0.788212  1
