# generated using pymatgen
data_Ca2Sm3Ho(Si3Ru)8
_symmetry_space_group_name_H-M   'P 1'
_cell_length_a   10.18490425
_cell_length_b   10.18490423
_cell_length_c   8.19329226
_cell_angle_alpha   90.00160238
_cell_angle_beta   90.00159852
_cell_angle_gamma   132.57009630
_symmetry_Int_Tables_number   1
_chemical_formula_structural   Ca2Sm3Ho(Si3Ru)8
_chemical_formula_sum   'Ca2 Sm3 Ho1 Si24 Ru8'
_cell_volume   625.91558604
_cell_formula_units_Z   1
loop_
 _symmetry_equiv_pos_site_id
 _symmetry_equiv_pos_as_xyz
  1  'x, y, z'
loop_
 _atom_site_type_symbol
 _atom_site_label
 _atom_site_symmetry_multiplicity
 _atom_site_fract_x
 _atom_site_fract_y
 _atom_site_fract_z
 _atom_site_occupancy
  Ca  Ca0  1  0.498749  0.998765  0.250002  1
  Ca  Ca1  1  0.001235  0.501251  0.749998  1
  Sm  Sm2  1  0.500051  0.499949  0.500000  1
  Sm  Sm3  1  0.502812  0.002797  0.749965  1
  Sm  Sm4  1  0.997203  0.497188  0.250035  1
  Ho  Ho5  1  0.999872  0.000128  0.000000  1
  Si  Si6  1  0.794126  0.205874  0.500000  1
  Si  Si7  1  0.294274  0.705726  0.000000  1
  Si  Si8  1  0.205447  0.794553  0.500000  1
  Si  Si9  1  0.706151  0.293849  0.000000  1
  Si  Si10  1  0.335995  0.329017  0.833817  1
  Si  Si11  1  0.670983  0.664005  0.166183  1
  Si  Si12  1  0.162650  0.169708  0.332493  1
  Si  Si13  1  0.830292  0.837350  0.667507  1
  Si  Si14  1  0.122409  0.889856  0.727648  1
  Si  Si15  1  0.110144  0.877591  0.272352  1
  Si  Si16  1  0.611770  0.377353  0.226986  1
  Si  Si17  1  0.622647  0.388230  0.773014  1
  Si  Si18  1  0.877363  0.110728  0.272023  1
  Si  Si19  1  0.889272  0.122637  0.727977  1
  Si  Si20  1  0.388651  0.622353  0.773506  1
  Si  Si21  1  0.377647  0.611349  0.226494  1
  Si  Si22  1  0.343127  0.110054  0.504442  1
  Si  Si23  1  0.889946  0.656873  0.495558  1
  Si  Si24  1  0.388736  0.155616  0.004544  1
  Si  Si25  1  0.844384  0.611264  0.995456  1
  Si  Si26  1  0.656118  0.890030  0.495961  1
  Si  Si27  1  0.109970  0.343882  0.504039  1
  Si  Si28  1  0.611477  0.843587  0.995142  1
  Si  Si29  1  0.156413  0.388523  0.004858  1
  Ru  Ru30  1  0.668646  0.331354  0.500000  1
  Ru  Ru31  1  0.168746  0.831254  0.000000  1
  Ru  Ru32  1  0.330487  0.669513  0.500000  1
  Ru  Ru33  1  0.832131  0.167869  0.000000  1
  Ru  Ru34  1  0.125838  0.124956  0.626532  1
  Ru  Ru35  1  0.875044  0.874162  0.373468  1
  Ru  Ru36  1  0.373097  0.373902  0.125422  1
  Ru  Ru37  1  0.626098  0.626903  0.874578  1
