# generated using pymatgen
data_TbEu(SeO4)3
_symmetry_space_group_name_H-M   'P 1'
_cell_length_a   10.05541770
_cell_length_b   10.05541822
_cell_length_c   10.05541699
_cell_angle_alpha   58.23669000
_cell_angle_beta   58.23668764
_cell_angle_gamma   58.23669623
_symmetry_Int_Tables_number   1
_chemical_formula_structural   TbEu(SeO4)3
_chemical_formula_sum   'Tb2 Eu2 Se6 O24'
_cell_volume   689.88593242
_cell_formula_units_Z   2
loop_
 _symmetry_equiv_pos_site_id
 _symmetry_equiv_pos_as_xyz
  1  'x, y, z'
loop_
 _atom_site_type_symbol
 _atom_site_label
 _atom_site_symmetry_multiplicity
 _atom_site_fract_x
 _atom_site_fract_y
 _atom_site_fract_z
 _atom_site_occupancy
  Tb  Tb0  1  0.143905  0.143905  0.143905  1
  Tb  Tb1  1  0.856095  0.856095  0.856095  1
  Eu  Eu2  1  0.642878  0.642878  0.642878  1
  Eu  Eu3  1  0.357122  0.357122  0.357122  1
  Se  Se4  1  0.754060  0.035782  0.462302  1
  Se  Se5  1  0.964217  0.537699  0.245940  1
  Se  Se6  1  0.537699  0.245940  0.964218  1
  Se  Se7  1  0.462301  0.754060  0.035783  1
  Se  Se8  1  0.035783  0.462301  0.754060  1
  Se  Se9  1  0.245940  0.964217  0.537699  1
  O  O10  1  0.919475  0.064660  0.293205  1
  O  O11  1  0.780438  0.003755  0.628124  1
  O  O12  1  0.996245  0.371876  0.219562  1
  O  O13  1  0.706795  0.080525  0.935340  1
  O  O14  1  0.587448  0.205634  0.439255  1
  O  O15  1  0.871604  0.486928  0.730382  1
  O  O16  1  0.513072  0.269618  0.128396  1
  O  O17  1  0.794366  0.560745  0.412552  1
  O  O18  1  0.935340  0.706795  0.080525  1
  O  O19  1  0.560745  0.412552  0.794366  1
  O  O20  1  0.371876  0.219562  0.996245  1
  O  O21  1  0.269618  0.128396  0.513072  1
  O  O22  1  0.730382  0.871604  0.486928  1
  O  O23  1  0.628124  0.780438  0.003755  1
  O  O24  1  0.439255  0.587448  0.205634  1
  O  O25  1  0.064660  0.293205  0.919475  1
  O  O26  1  0.205634  0.439255  0.587448  1
  O  O27  1  0.486928  0.730382  0.871604  1
  O  O28  1  0.128396  0.513072  0.269618  1
  O  O29  1  0.412552  0.794366  0.560745  1
  O  O30  1  0.293205  0.919475  0.064660  1
  O  O31  1  0.003755  0.628124  0.780438  1
  O  O32  1  0.219562  0.996245  0.371876  1
  O  O33  1  0.080525  0.935340  0.706795  1
