# generated using pymatgen
data_Pr3Ag2Hg3Pd
_symmetry_space_group_name_H-M   'P 1'
_cell_length_a   8.14035900
_cell_length_b   8.14035902
_cell_length_c   3.89345300
_cell_angle_alpha   90.00000000
_cell_angle_beta   90.00000000
_cell_angle_gamma   119.99999586
_symmetry_Int_Tables_number   1
_chemical_formula_structural   Pr3Ag2Hg3Pd
_chemical_formula_sum   'Pr3 Ag2 Hg3 Pd1'
_cell_volume   223.43577147
_cell_formula_units_Z   1
loop_
 _symmetry_equiv_pos_site_id
 _symmetry_equiv_pos_as_xyz
  1  'x, y, z'
loop_
 _atom_site_type_symbol
 _atom_site_label
 _atom_site_symmetry_multiplicity
 _atom_site_fract_x
 _atom_site_fract_y
 _atom_site_fract_z
 _atom_site_occupancy
  Pr  Pr0  1  0.393256  0.409544  0.500000  1
  Pr  Pr1  1  0.590456  0.983712  0.500000  1
  Pr  Pr2  1  0.016288  0.606744  0.500000  1
  Ag  Ag3  1  0.666667  0.333333  0.000000  1
  Ag  Ag4  1  0.000000  0.000000  0.500000  1
  Hg  Hg5  1  0.728484  0.725221  0.000000  1
  Hg  Hg6  1  0.274779  0.003263  0.000000  1
  Hg  Hg7  1  0.996737  0.271516  0.000000  1
  Pd  Pd8  1  0.333333  0.666667  0.000000  1
