# generated using pymatgen
data_EuEr2Hf(Co4P3)2
_symmetry_space_group_name_H-M   'P 1'
_cell_length_a   3.72986400
_cell_length_b   10.70937600
_cell_length_c   12.41341900
_cell_angle_alpha   90.00000000
_cell_angle_beta   90.00000000
_cell_angle_gamma   90.00000000
_symmetry_Int_Tables_number   1
_chemical_formula_structural   EuEr2Hf(Co4P3)2
_chemical_formula_sum   'Eu2 Er4 Hf2 Co16 P12'
_cell_volume   495.84801392
_cell_formula_units_Z   2
loop_
 _symmetry_equiv_pos_site_id
 _symmetry_equiv_pos_as_xyz
  1  'x, y, z'
loop_
 _atom_site_type_symbol
 _atom_site_label
 _atom_site_symmetry_multiplicity
 _atom_site_fract_x
 _atom_site_fract_y
 _atom_site_fract_z
 _atom_site_occupancy
  Eu  Eu0  1  0.750000  0.250000  0.470171  1
  Eu  Eu1  1  0.250000  0.750000  0.529829  1
  Er  Er2  1  0.250000  0.927117  0.796072  1
  Er  Er3  1  0.250000  0.572883  0.796072  1
  Er  Er4  1  0.750000  0.072883  0.203928  1
  Er  Er5  1  0.750000  0.427117  0.203928  1
  Hf  Hf6  1  0.250000  0.250000  0.844176  1
  Hf  Hf7  1  0.750000  0.750000  0.155824  1
  Co  Co8  1  0.250000  0.250000  0.293796  1
  Co  Co9  1  0.750000  0.750000  0.706204  1
  Co  Co10  1  0.750000  0.250000  0.013104  1
  Co  Co11  1  0.250000  0.750000  0.986896  1
  Co  Co12  1  0.250000  0.418438  0.006747  1
  Co  Co13  1  0.250000  0.081562  0.006747  1
  Co  Co14  1  0.750000  0.581562  0.993253  1
  Co  Co15  1  0.750000  0.918438  0.993253  1
  Co  Co16  1  0.250000  0.455670  0.568052  1
  Co  Co17  1  0.250000  0.044330  0.568052  1
  Co  Co18  1  0.750000  0.544330  0.431948  1
  Co  Co19  1  0.750000  0.955670  0.431948  1
  Co  Co20  1  0.250000  0.872050  0.294918  1
  Co  Co21  1  0.250000  0.627950  0.294918  1
  Co  Co22  1  0.750000  0.127950  0.705082  1
  Co  Co23  1  0.750000  0.372050  0.705082  1
  P  P24  1  0.250000  0.250000  0.115673  1
  P  P25  1  0.750000  0.750000  0.884327  1
  P  P26  1  0.250000  0.250000  0.640093  1
  P  P27  1  0.750000  0.750000  0.359907  1
  P  P28  1  0.250000  0.442831  0.383135  1
  P  P29  1  0.250000  0.057169  0.383135  1
  P  P30  1  0.750000  0.557169  0.616865  1
  P  P31  1  0.750000  0.942831  0.616865  1
  P  P32  1  0.250000  0.911684  0.107061  1
  P  P33  1  0.250000  0.588316  0.107061  1
  P  P34  1  0.750000  0.088316  0.892939  1
  P  P35  1  0.750000  0.411684  0.892939  1
