# generated using pymatgen
data_Tb20Cd6CoTc
_symmetry_space_group_name_H-M   'P 1'
_cell_length_a   9.60740800
_cell_length_b   9.60740853
_cell_length_c   9.91958700
_cell_angle_alpha   90.00000000
_cell_angle_beta   90.00000000
_cell_angle_gamma   119.99999819
_symmetry_Int_Tables_number   1
_chemical_formula_structural   Tb20Cd6CoTc
_chemical_formula_sum   'Tb20 Cd6 Co1 Tc1'
_cell_volume   792.93342064
_cell_formula_units_Z   1
loop_
 _symmetry_equiv_pos_site_id
 _symmetry_equiv_pos_as_xyz
  1  'x, y, z'
loop_
 _atom_site_type_symbol
 _atom_site_label
 _atom_site_symmetry_multiplicity
 _atom_site_fract_x
 _atom_site_fract_y
 _atom_site_fract_z
 _atom_site_occupancy
  Tb  Tb0  1  0.000000  0.000000  0.499325  1
  Tb  Tb1  1  0.000000  0.000000  0.000675  1
  Tb  Tb2  1  0.541306  0.458694  0.250000  1
  Tb  Tb3  1  0.541306  0.082611  0.250000  1
  Tb  Tb4  1  0.917389  0.458694  0.250000  1
  Tb  Tb5  1  0.457733  0.542267  0.750000  1
  Tb  Tb6  1  0.457733  0.915465  0.750000  1
  Tb  Tb7  1  0.084535  0.542267  0.750000  1
  Tb  Tb8  1  0.209333  0.790667  0.439313  1
  Tb  Tb9  1  0.209333  0.418669  0.439313  1
  Tb  Tb10  1  0.581331  0.790667  0.439313  1
  Tb  Tb11  1  0.787654  0.212346  0.564231  1
  Tb  Tb12  1  0.787654  0.575306  0.564231  1
  Tb  Tb13  1  0.424694  0.212346  0.564231  1
  Tb  Tb14  1  0.787654  0.212346  0.935769  1
  Tb  Tb15  1  0.787654  0.575306  0.935769  1
  Tb  Tb16  1  0.424694  0.212346  0.935769  1
  Tb  Tb17  1  0.209333  0.790667  0.060687  1
  Tb  Tb18  1  0.209333  0.418669  0.060687  1
  Tb  Tb19  1  0.581331  0.790667  0.060687  1
  Cd  Cd20  1  0.885657  0.114343  0.250000  1
  Cd  Cd21  1  0.885657  0.771314  0.250000  1
  Cd  Cd22  1  0.228686  0.114343  0.250000  1
  Cd  Cd23  1  0.113992  0.886008  0.750000  1
  Cd  Cd24  1  0.113992  0.227984  0.750000  1
  Cd  Cd25  1  0.772016  0.886008  0.750000  1
  Co  Co26  1  0.666667  0.333333  0.750000  1
  Tc  Tc27  1  0.333333  0.666667  0.250000  1
