# generated using pymatgen
data_Nd2Si7(NiRu)6
_symmetry_space_group_name_H-M   'P 1'
_cell_length_a   9.52723862
_cell_length_b   3.77535500
_cell_length_c   9.52575602
_cell_angle_alpha   90.00000000
_cell_angle_beta   119.96440648
_cell_angle_gamma   90.00000000
_symmetry_Int_Tables_number   1
_chemical_formula_structural   Nd2Si7(NiRu)6
_chemical_formula_sum   'Nd2 Si7 Ni6 Ru6'
_cell_volume   296.83190367
_cell_formula_units_Z   1
loop_
 _symmetry_equiv_pos_site_id
 _symmetry_equiv_pos_as_xyz
  1  'x, y, z'
loop_
 _atom_site_type_symbol
 _atom_site_label
 _atom_site_symmetry_multiplicity
 _atom_site_fract_x
 _atom_site_fract_y
 _atom_site_fract_z
 _atom_site_occupancy
  Nd  Nd0  1  0.666604  0.000000  0.333420  1
  Nd  Nd1  1  0.333173  0.500000  0.666440  1
  Si  Si2  1  0.109242  0.000000  0.395982  1
  Si  Si3  1  0.286733  0.000000  0.890701  1
  Si  Si4  1  0.604065  0.000000  0.713278  1
  Si  Si5  1  0.712640  0.500000  0.106082  1
  Si  Si6  1  0.393157  0.500000  0.287371  1
  Si  Si7  1  0.894249  0.500000  0.606842  1
  Si  Si8  1  0.000087  0.000000  0.999961  1
  Ni  Ni9  1  0.370745  0.000000  0.430599  1
  Ni  Ni10  1  0.059765  0.000000  0.629334  1
  Ni  Ni11  1  0.569690  0.000000  0.940273  1
  Ni  Ni12  1  0.873057  0.000000  0.150491  1
  Ni  Ni13  1  0.277267  0.000000  0.126921  1
  Ni  Ni14  1  0.849676  0.000000  0.722706  1
  Ru  Ru15  1  0.948908  0.500000  0.385579  1
  Ru  Ru16  1  0.436679  0.500000  0.051039  1
  Ru  Ru17  1  0.614420  0.500000  0.563204  1
  Ru  Ru18  1  0.111316  0.500000  0.208318  1
  Ru  Ru19  1  0.096969  0.500000  0.888455  1
  Ru  Ru20  1  0.791559  0.500000  0.903004  1
