# generated using pymatgen
data_PrSm2WO7
_symmetry_space_group_name_H-M   'P 1'
_cell_length_a   6.62901918
_cell_length_b   6.62901997
_cell_length_c   7.71725700
_cell_angle_alpha   90.00000000
_cell_angle_beta   90.00000000
_cell_angle_gamma   109.28821716
_symmetry_Int_Tables_number   1
_chemical_formula_structural   PrSm2WO7
_chemical_formula_sum   'Pr2 Sm4 W2 O14'
_cell_volume   320.09083814
_cell_formula_units_Z   2
loop_
 _symmetry_equiv_pos_site_id
 _symmetry_equiv_pos_as_xyz
  1  'x, y, z'
loop_
 _atom_site_type_symbol
 _atom_site_label
 _atom_site_symmetry_multiplicity
 _atom_site_fract_x
 _atom_site_fract_y
 _atom_site_fract_z
 _atom_site_occupancy
  Pr  Pr0  1  0.500000  0.500000  0.500000  1
  Pr  Pr1  1  0.500000  0.500000  0.000000  1
  Sm  Sm2  1  0.000291  0.534063  0.250000  1
  Sm  Sm3  1  0.999709  0.465937  0.750000  1
  Sm  Sm4  1  0.534063  0.000291  0.750000  1
  Sm  Sm5  1  0.465937  0.999709  0.250000  1
  W  W6  1  0.000000  0.000000  0.500000  1
  W  W7  1  0.000000  0.000000  0.000000  1
  O  O8  1  0.933043  0.066957  0.750000  1
  O  O9  1  0.066957  0.933043  0.250000  1
  O  O10  1  0.361550  0.638450  0.250000  1
  O  O11  1  0.638450  0.361550  0.750000  1
  O  O12  1  0.365977  0.634023  0.750000  1
  O  O13  1  0.634023  0.365977  0.250000  1
  O  O14  1  0.316654  0.071247  0.972201  1
  O  O15  1  0.683346  0.928753  0.472201  1
  O  O16  1  0.316654  0.071247  0.527799  1
  O  O17  1  0.683346  0.928753  0.027799  1
  O  O18  1  0.071247  0.316654  0.472201  1
  O  O19  1  0.928753  0.683346  0.972201  1
  O  O20  1  0.928753  0.683346  0.527799  1
  O  O21  1  0.071247  0.316654  0.027799  1
