# generated using pymatgen
data_Cs2FeMoS4
_symmetry_space_group_name_H-M   'P 1'
_cell_length_a   7.68737454
_cell_length_b   7.68735940
_cell_length_c   7.68737401
_cell_angle_alpha   138.15440283
_cell_angle_beta   123.49948826
_cell_angle_gamma   72.73005855
_symmetry_Int_Tables_number   1
_chemical_formula_structural   Cs2FeMoS4
_chemical_formula_sum   'Cs2 Fe1 Mo1 S4'
_cell_volume   247.33576607
_cell_formula_units_Z   1
loop_
 _symmetry_equiv_pos_site_id
 _symmetry_equiv_pos_as_xyz
  1  'x, y, z'
loop_
 _atom_site_type_symbol
 _atom_site_label
 _atom_site_symmetry_multiplicity
 _atom_site_fract_x
 _atom_site_fract_y
 _atom_site_fract_z
 _atom_site_occupancy
  Cs  Cs0  1  0.328684  0.828016  0.499332  1
  Cs  Cs1  1  0.671316  0.170647  0.499331  1
  Fe  Fe2  1  0.000000  0.249548  0.249548  1
  Mo  Mo3  1  0.000000  0.750536  0.750536  1
  S  S4  1  0.244942  0.495592  0.740534  1
  S  S5  1  0.755058  0.495592  0.250650  1
  S  S6  1  0.146219  0.151254  0.005035  1
  S  S7  1  0.853781  0.858816  0.005034  1
