# generated using pymatgen
data_Sm4Ho4Tc3B24Os
_symmetry_space_group_name_H-M   'P 1'
_cell_length_a   3.70580200
_cell_length_b   9.19972143
_cell_length_c   11.62404700
_cell_angle_alpha   89.95212082
_cell_angle_beta   90.00000000
_cell_angle_gamma   90.00000000
_symmetry_Int_Tables_number   1
_chemical_formula_structural   Sm4Ho4Tc3B24Os
_chemical_formula_sum   'Sm4 Ho4 Tc3 B24 Os1'
_cell_volume   396.29089478
_cell_formula_units_Z   1
loop_
 _symmetry_equiv_pos_site_id
 _symmetry_equiv_pos_as_xyz
  1  'x, y, z'
loop_
 _atom_site_type_symbol
 _atom_site_label
 _atom_site_symmetry_multiplicity
 _atom_site_fract_x
 _atom_site_fract_y
 _atom_site_fract_z
 _atom_site_occupancy
  Sm  Sm0  1  0.000000  0.323243  0.414004  1
  Sm  Sm1  1  0.000000  0.675798  0.584588  1
  Sm  Sm2  1  0.000000  0.822815  0.087084  1
  Sm  Sm3  1  0.000000  0.178085  0.914580  1
  Ho  Ho4  1  0.000000  0.942533  0.369736  1
  Ho  Ho5  1  0.000000  0.058373  0.630385  1
  Ho  Ho6  1  0.000000  0.442843  0.130544  1
  Ho  Ho7  1  0.000000  0.556937  0.869059  1
  Tc  Tc8  1  0.000000  0.639198  0.319567  1
  Tc  Tc9  1  0.000000  0.360903  0.680857  1
  Tc  Tc10  1  0.000000  0.138605  0.179287  1
  B  B11  1  0.500000  0.554012  0.431557  1
  B  B12  1  0.500000  0.445943  0.568192  1
  B  B13  1  0.500000  0.054000  0.068376  1
  B  B14  1  0.500000  0.945451  0.931547  1
  B  B15  1  0.500000  0.749072  0.417246  1
  B  B16  1  0.500000  0.250569  0.582834  1
  B  B17  1  0.500000  0.249619  0.082808  1
  B  B18  1  0.500000  0.750788  0.916913  1
  B  B19  1  0.500000  0.791368  0.266101  1
  B  B20  1  0.500000  0.208943  0.734350  1
  B  B21  1  0.500000  0.291255  0.234133  1
  B  B22  1  0.500000  0.709402  0.765788  1
  B  B23  1  0.500000  0.630228  0.186000  1
  B  B24  1  0.500000  0.369700  0.814501  1
  B  B25  1  0.500000  0.129810  0.313719  1
  B  B26  1  0.500000  0.869759  0.686063  1
  B  B27  1  0.500000  0.982866  0.212584  1
  B  B28  1  0.500000  0.015999  0.787540  1
  B  B29  1  0.500000  0.483193  0.287267  1
  B  B30  1  0.500000  0.516545  0.712504  1
  B  B31  1  0.500000  0.599263  0.027265  1
  B  B32  1  0.500000  0.401717  0.972506  1
  B  B33  1  0.500000  0.098954  0.472726  1
  B  B34  1  0.500000  0.901184  0.527777  1
  Os  Os35  1  0.000000  0.861029  0.820010  1
