# generated using pymatgen
data_Nd2TaRh3
_symmetry_space_group_name_H-M   'P 1'
_cell_length_a   5.28709813
_cell_length_b   5.28709828
_cell_length_c   5.28709745
_cell_angle_alpha   66.71695750
_cell_angle_beta   66.71695597
_cell_angle_gamma   66.71693676
_symmetry_Int_Tables_number   1
_chemical_formula_structural   Nd2TaRh3
_chemical_formula_sum   'Nd2 Ta1 Rh3'
_cell_volume   119.59246048
_cell_formula_units_Z   1
loop_
 _symmetry_equiv_pos_site_id
 _symmetry_equiv_pos_as_xyz
  1  'x, y, z'
loop_
 _atom_site_type_symbol
 _atom_site_label
 _atom_site_symmetry_multiplicity
 _atom_site_fract_x
 _atom_site_fract_y
 _atom_site_fract_z
 _atom_site_occupancy
  Nd  Nd0  1  0.873226  0.873226  0.873226  1
  Nd  Nd1  1  0.126774  0.126774  0.126774  1
  Ta  Ta2  1  0.500000  0.500000  0.500000  1
  Rh  Rh3  1  0.000000  0.500000  0.500000  1
  Rh  Rh4  1  0.500000  0.500000  0.000000  1
  Rh  Rh5  1  0.500000  0.000000  0.500000  1
