# generated using pymatgen
data_Tm20Si12Cl
_symmetry_space_group_name_H-M   'P 1'
_cell_length_a   14.50693900
_cell_length_b   6.23411721
_cell_length_c   8.32924717
_cell_angle_alpha   89.97367639
_cell_angle_beta   90.00000000
_cell_angle_gamma   90.00000000
_symmetry_Int_Tables_number   1
_chemical_formula_structural   Tm20Si12Cl
_chemical_formula_sum   'Tm20 Si12 Cl1'
_cell_volume   753.28002652
_cell_formula_units_Z   1
loop_
 _symmetry_equiv_pos_site_id
 _symmetry_equiv_pos_as_xyz
  1  'x, y, z'
loop_
 _atom_site_type_symbol
 _atom_site_label
 _atom_site_symmetry_multiplicity
 _atom_site_fract_x
 _atom_site_fract_y
 _atom_site_fract_z
 _atom_site_occupancy
  Tm  Tm0  1  0.668324  0.500000  0.500000  1
  Tm  Tm1  1  0.166999  0.500000  0.000000  1
  Tm  Tm2  1  0.833001  0.500000  0.000000  1
  Tm  Tm3  1  0.331676  0.500000  0.500000  1
  Tm  Tm4  1  0.829852  0.000000  0.000000  1
  Tm  Tm5  1  0.337490  0.000000  0.500000  1
  Tm  Tm6  1  0.662510  0.000000  0.500000  1
  Tm  Tm7  1  0.170148  0.000000  0.000000  1
  Tm  Tm8  1  0.500000  0.253787  0.757069  1
  Tm  Tm9  1  0.000000  0.234443  0.243721  1
  Tm  Tm10  1  0.620095  0.249913  0.122346  1
  Tm  Tm11  1  0.127658  0.233898  0.627760  1
  Tm  Tm12  1  0.872342  0.233898  0.627760  1
  Tm  Tm13  1  0.379905  0.249913  0.122346  1
  Tm  Tm14  1  0.000000  0.765557  0.756279  1
  Tm  Tm15  1  0.500000  0.746213  0.242931  1
  Tm  Tm16  1  0.872342  0.766102  0.372240  1
  Tm  Tm17  1  0.379905  0.750087  0.877654  1
  Tm  Tm18  1  0.620095  0.750087  0.877654  1
  Tm  Tm19  1  0.127658  0.766102  0.372240  1
  Si  Si20  1  0.000000  0.243075  0.891548  1
  Si  Si21  1  0.500000  0.257005  0.394358  1
  Si  Si22  1  0.802725  0.244471  0.304026  1
  Si  Si23  1  0.304418  0.249743  0.804506  1
  Si  Si24  1  0.695582  0.249743  0.804506  1
  Si  Si25  1  0.197275  0.244471  0.304026  1
  Si  Si26  1  0.500000  0.742995  0.605642  1
  Si  Si27  1  0.000000  0.756925  0.108452  1
  Si  Si28  1  0.695582  0.750257  0.195494  1
  Si  Si29  1  0.197275  0.755529  0.695974  1
  Si  Si30  1  0.802725  0.755529  0.695974  1
  Si  Si31  1  0.304418  0.750257  0.195494  1
  Cl  Cl32  1  0.000000  0.500000  0.500000  1
