# generated using pymatgen
data_U4Si2(TcNi)3
_symmetry_space_group_name_H-M   'P 1'
_cell_length_a   5.21080666
_cell_length_b   5.32400792
_cell_length_c   7.67264600
_cell_angle_alpha   90.00000000
_cell_angle_beta   90.00000000
_cell_angle_gamma   116.65439876
_symmetry_Int_Tables_number   1
_chemical_formula_structural   U4Si2(TcNi)3
_chemical_formula_sum   'U4 Si2 Tc3 Ni3'
_cell_volume   190.23679711
_cell_formula_units_Z   1
loop_
 _symmetry_equiv_pos_site_id
 _symmetry_equiv_pos_as_xyz
  1  'x, y, z'
loop_
 _atom_site_type_symbol
 _atom_site_label
 _atom_site_symmetry_multiplicity
 _atom_site_fract_x
 _atom_site_fract_y
 _atom_site_fract_z
 _atom_site_occupancy
  U  U0  1  0.658851  0.341277  0.420323  1
  U  U1  1  0.341994  0.660728  0.576839  1
  U  U2  1  0.341994  0.660728  0.923161  1
  U  U3  1  0.658851  0.341277  0.079677  1
  Si  Si4  1  0.007196  0.003643  0.996657  1
  Si  Si5  1  0.007196  0.003643  0.503343  1
  Tc  Tc6  1  0.653513  0.837956  0.250000  1
  Tc  Tc7  1  0.845270  0.651832  0.750000  1
  Tc  Tc8  1  0.155584  0.342985  0.250000  1
  Ni  Ni9  1  0.831827  0.157105  0.750000  1
  Ni  Ni10  1  0.158970  0.839837  0.250000  1
  Ni  Ni11  1  0.338753  0.158986  0.750000  1
