# generated using pymatgen
data_Ac8Tb9Tm3Si16
_symmetry_space_group_name_H-M   'P 1'
_cell_length_a   7.97283818
_cell_length_b   7.97283828
_cell_length_c   14.75627400
_cell_angle_alpha   90.01226714
_cell_angle_beta   89.98773286
_cell_angle_gamma   90.00873407
_symmetry_Int_Tables_number   1
_chemical_formula_structural   Ac8Tb9Tm3Si16
_chemical_formula_sum   'Ac8 Tb9 Tm3 Si16'
_cell_volume   937.99946417
_cell_formula_units_Z   1
loop_
 _symmetry_equiv_pos_site_id
 _symmetry_equiv_pos_as_xyz
  1  'x, y, z'
loop_
 _atom_site_type_symbol
 _atom_site_label
 _atom_site_symmetry_multiplicity
 _atom_site_fract_x
 _atom_site_fract_y
 _atom_site_fract_z
 _atom_site_occupancy
  Ac  Ac0  1  0.643323  0.990631  0.459157  1
  Ac  Ac1  1  0.356449  0.009701  0.959067  1
  Ac  Ac2  1  0.990631  0.643323  0.540843  1
  Ac  Ac3  1  0.490550  0.856052  0.208871  1
  Ac  Ac4  1  0.509840  0.143496  0.709466  1
  Ac  Ac5  1  0.856052  0.490550  0.791129  1
  Ac  Ac6  1  0.143496  0.509840  0.290534  1
  Ac  Ac7  1  0.009701  0.356449  0.040933  1
  Tb  Tb8  1  0.494245  0.361108  0.125071  1
  Tb  Tb9  1  0.993737  0.138744  0.624970  1
  Tb  Tb10  1  0.861250  0.006165  0.875427  1
  Tb  Tb11  1  0.138744  0.993737  0.375030  1
  Tb  Tb12  1  0.506386  0.639057  0.625669  1
  Tb  Tb13  1  0.361108  0.494245  0.874929  1
  Tb  Tb14  1  0.639057  0.506386  0.374331  1
  Tb  Tb15  1  0.006165  0.861250  0.124573  1
  Tb  Tb16  1  0.316463  0.316463  0.500000  1
  Tm  Tm17  1  0.182960  0.816007  0.750088  1
  Tm  Tm18  1  0.816007  0.182960  0.249912  1
  Tm  Tm19  1  0.683212  0.683212  0.000000  1
  Si  Si20  1  0.285384  0.933344  0.563143  1
  Si  Si21  1  0.714526  0.065356  0.063055  1
  Si  Si22  1  0.933344  0.285384  0.436857  1
  Si  Si23  1  0.435223  0.214189  0.311697  1
  Si  Si24  1  0.565482  0.785938  0.813335  1
  Si  Si25  1  0.214189  0.435223  0.688303  1
  Si  Si26  1  0.785938  0.565482  0.186665  1
  Si  Si27  1  0.065356  0.714526  0.936945  1
  Si  Si28  1  0.796854  0.849212  0.693260  1
  Si  Si29  1  0.203978  0.150238  0.192726  1
  Si  Si30  1  0.849212  0.796854  0.306740  1
  Si  Si31  1  0.349480  0.704011  0.443074  1
  Si  Si32  1  0.650675  0.296733  0.943098  1
  Si  Si33  1  0.704011  0.349480  0.556926  1
  Si  Si34  1  0.296733  0.650675  0.056902  1
  Si  Si35  1  0.150238  0.203978  0.807274  1
