# generated using pymatgen
data_TbYb2BiO6
_symmetry_space_group_name_H-M   'P 1'
_cell_length_a   6.74307925
_cell_length_b   6.74847463
_cell_length_c   6.72340300
_cell_angle_alpha   91.66975427
_cell_angle_beta   91.37663399
_cell_angle_gamma   91.29177616
_symmetry_Int_Tables_number   1
_chemical_formula_structural   TbYb2BiO6
_chemical_formula_sum   'Tb2 Yb4 Bi2 O12'
_cell_volume   305.65090842
_cell_formula_units_Z   2
loop_
 _symmetry_equiv_pos_site_id
 _symmetry_equiv_pos_as_xyz
  1  'x, y, z'
loop_
 _atom_site_type_symbol
 _atom_site_label
 _atom_site_symmetry_multiplicity
 _atom_site_fract_x
 _atom_site_fract_y
 _atom_site_fract_z
 _atom_site_occupancy
  Tb  Tb0  1  0.936266  0.441737  0.749205  1
  Tb  Tb1  1  0.747421  0.936439  0.439514  1
  Yb  Yb2  1  0.553862  0.251244  0.061703  1
  Yb  Yb3  1  0.253305  0.062249  0.560523  1
  Yb  Yb4  1  0.067418  0.558933  0.250167  1
  Yb  Yb5  1  0.441948  0.748753  0.937187  1
  Bi  Bi6  1  0.001388  0.999813  0.001757  1
  Bi  Bi7  1  0.496459  0.499050  0.498689  1
  O  O8  1  0.297111  0.064782  0.919871  1
  O  O9  1  0.063120  0.918951  0.304902  1
  O  O10  1  0.920985  0.304152  0.060916  1
  O  O11  1  0.700359  0.933288  0.086494  1
  O  O12  1  0.926417  0.083704  0.693298  1
  O  O13  1  0.075082  0.694805  0.926951  1
  O  O14  1  0.194396  0.407891  0.543797  1
  O  O15  1  0.410792  0.539708  0.199164  1
  O  O16  1  0.468145  0.804941  0.589290  1
  O  O17  1  0.596360  0.459266  0.799496  1
  O  O18  1  0.806224  0.595142  0.466393  1
  O  O19  1  0.542941  0.195153  0.410683  1
