# generated using pymatgen
data_Zr4Ta5NbGe8
_symmetry_space_group_name_H-M   'P 1'
_cell_length_a   6.86128600
_cell_length_b   6.97221000
_cell_length_c   13.32452200
_cell_angle_alpha   89.99880240
_cell_angle_beta   90.00000000
_cell_angle_gamma   90.00000000
_symmetry_Int_Tables_number   1
_chemical_formula_structural   Zr4Ta5NbGe8
_chemical_formula_sum   'Zr8 Ta10 Nb2 Ge16'
_cell_volume   637.42283865
_cell_formula_units_Z   2
loop_
 _symmetry_equiv_pos_site_id
 _symmetry_equiv_pos_as_xyz
  1  'x, y, z'
loop_
 _atom_site_type_symbol
 _atom_site_label
 _atom_site_symmetry_multiplicity
 _atom_site_fract_x
 _atom_site_fract_y
 _atom_site_fract_z
 _atom_site_occupancy
  Zr  Zr0  1  0.488937  0.673525  0.591370  1
  Zr  Zr1  1  0.988937  0.826475  0.908630  1
  Zr  Zr2  1  0.511096  0.326715  0.091438  1
  Zr  Zr3  1  0.011096  0.173285  0.408562  1
  Zr  Zr4  1  0.511159  0.326578  0.408328  1
  Zr  Zr5  1  0.011159  0.173422  0.091672  1
  Zr  Zr6  1  0.489018  0.673845  0.908622  1
  Zr  Zr7  1  0.989018  0.826155  0.591378  1
  Ta  Ta8  1  0.340725  0.834775  0.124831  1
  Ta  Ta9  1  0.840725  0.665225  0.375169  1
  Ta  Ta10  1  0.340575  0.834779  0.375229  1
  Ta  Ta11  1  0.840575  0.665221  0.124771  1
  Ta  Ta12  1  0.659234  0.165333  0.875089  1
  Ta  Ta13  1  0.159234  0.334667  0.624911  1
  Ta  Ta14  1  0.835856  0.490187  0.749904  1
  Ta  Ta15  1  0.335856  0.009813  0.750096  1
  Ta  Ta16  1  0.163989  0.510268  0.249964  1
  Ta  Ta17  1  0.663989  0.989732  0.250036  1
  Nb  Nb18  1  0.659361  0.165056  0.624592  1
  Nb  Nb19  1  0.159361  0.334944  0.875408  1
  Ge  Ge20  1  0.681696  0.960858  0.459636  1
  Ge  Ge21  1  0.181696  0.539142  0.040364  1
  Ge  Ge22  1  0.318478  0.038959  0.959774  1
  Ge  Ge23  1  0.818478  0.461041  0.540226  1
  Ge  Ge24  1  0.317940  0.039205  0.540139  1
  Ge  Ge25  1  0.817940  0.460795  0.959861  1
  Ge  Ge26  1  0.681840  0.960759  0.040161  1
  Ge  Ge27  1  0.181840  0.539241  0.459839  1
  Ge  Ge28  1  0.461852  0.386992  0.749935  1
  Ge  Ge29  1  0.961852  0.113008  0.750065  1
  Ge  Ge30  1  0.538190  0.612989  0.249980  1
  Ge  Ge31  1  0.038190  0.887011  0.250020  1
  Ge  Ge32  1  0.692834  0.849707  0.750040  1
  Ge  Ge33  1  0.192834  0.650293  0.749960  1
  Ge  Ge34  1  0.307221  0.150294  0.249990  1
  Ge  Ge35  1  0.807221  0.349706  0.250010  1
