# generated using pymatgen
data_Tb3Nd(AuBr6)4
_symmetry_space_group_name_H-M   'P 1'
_cell_length_a   8.39295180
_cell_length_b   10.49626727
_cell_length_c   14.95807261
_cell_angle_alpha   103.26337590
_cell_angle_beta   96.35605773
_cell_angle_gamma   112.83453723
_symmetry_Int_Tables_number   1
_chemical_formula_structural   Tb3Nd(AuBr6)4
_chemical_formula_sum   'Tb3 Nd1 Au4 Br24'
_cell_volume   1152.38495293
_cell_formula_units_Z   1
loop_
 _symmetry_equiv_pos_site_id
 _symmetry_equiv_pos_as_xyz
  1  'x, y, z'
loop_
 _atom_site_type_symbol
 _atom_site_label
 _atom_site_symmetry_multiplicity
 _atom_site_fract_x
 _atom_site_fract_y
 _atom_site_fract_z
 _atom_site_occupancy
  Tb  Tb0  1  0.419474  0.075521  0.376772  1
  Tb  Tb1  1  0.976159  0.314216  0.872193  1
  Tb  Tb2  1  0.025030  0.687314  0.129154  1
  Nd  Nd3  1  0.579671  0.923415  0.622047  1
  Au  Au4  1  0.293950  0.631388  0.763761  1
  Au  Au5  1  0.705729  0.368694  0.236809  1
  Au  Au6  1  0.499222  0.498489  0.499222  1
  Au  Au7  1  0.000271  0.000205  0.000264  1
  Br  Br8  1  0.607615  0.733793  0.750754  1
  Br  Br9  1  0.393117  0.263061  0.251373  1
  Br  Br10  1  0.275595  0.848117  0.733864  1
  Br  Br11  1  0.720910  0.151591  0.267299  1
  Br  Br12  1  0.978035  0.528008  0.772117  1
  Br  Br13  1  0.021409  0.471343  0.227409  1
  Br  Br14  1  0.307383  0.410999  0.790090  1
  Br  Br15  1  0.692613  0.589435  0.210290  1
  Br  Br16  1  0.683437  0.362964  0.505432  1
  Br  Br17  1  0.310177  0.629980  0.491564  1
  Br  Br18  1  0.762866  0.730168  0.527178  1
  Br  Br19  1  0.237659  0.266162  0.470810  1
  Br  Br20  1  0.793312  0.112722  0.977169  1
  Br  Br21  1  0.206789  0.887243  0.022930  1
  Br  Br22  1  0.771594  0.793171  0.034108  1
  Br  Br23  1  0.229746  0.207873  0.967460  1
  Br  Br24  1  0.624573  0.198531  0.749472  1
  Br  Br25  1  0.377156  0.807495  0.253332  1
  Br  Br26  1  0.949887  0.060497  0.730245  1
  Br  Br27  1  0.056573  0.943211  0.271646  1
  Br  Br28  1  0.721920  0.049319  0.477247  1
  Br  Br29  1  0.276262  0.953282  0.516382  1
  Br  Br30  1  0.770629  0.438575  0.978029  1
  Br  Br31  1  0.231238  0.563217  0.023579  1
