# generated using pymatgen
data_Ho2Er3Co19(Si2P)4
_symmetry_space_group_name_H-M   'P 1'
_cell_length_a   12.06911000
_cell_length_b   12.06838383
_cell_length_c   3.67365700
_cell_angle_alpha   90.00000000
_cell_angle_beta   90.00000000
_cell_angle_gamma   119.97781161
_symmetry_Int_Tables_number   1
_chemical_formula_structural   Ho2Er3Co19(Si2P)4
_chemical_formula_sum   'Ho2 Er3 Co19 Si8 P4'
_cell_volume   463.50097786
_cell_formula_units_Z   1
loop_
 _symmetry_equiv_pos_site_id
 _symmetry_equiv_pos_as_xyz
  1  'x, y, z'
loop_
 _atom_site_type_symbol
 _atom_site_label
 _atom_site_symmetry_multiplicity
 _atom_site_fract_x
 _atom_site_fract_y
 _atom_site_fract_z
 _atom_site_occupancy
  Ho  Ho0  1  0.001099  0.183786  0.500000  1
  Ho  Ho1  1  0.815589  0.816803  0.500000  1
  Er  Er2  1  0.333000  0.666258  0.000000  1
  Er  Er3  1  0.667035  0.331996  0.000000  1
  Er  Er4  1  0.184764  0.999783  0.500000  1
  Co  Co5  1  0.627852  0.825456  0.000000  1
  Co  Co6  1  0.175790  0.802966  0.000000  1
  Co  Co7  1  0.196652  0.371983  0.000000  1
  Co  Co8  1  0.374491  0.196614  0.000000  1
  Co  Co9  1  0.823811  0.627020  0.000000  1
  Co  Co10  1  0.798057  0.175715  0.000000  1
  Co  Co11  1  0.999011  0.556772  0.000000  1
  Co  Co12  1  0.441829  0.442170  0.000000  1
  Co  Co13  1  0.555487  0.997120  0.000000  1
  Co  Co14  1  0.520891  0.645333  0.500000  1
  Co  Co15  1  0.354582  0.875532  0.500000  1
  Co  Co16  1  0.123185  0.478198  0.500000  1
  Co  Co17  1  0.486052  0.124567  0.500000  1
  Co  Co18  1  0.644480  0.520513  0.500000  1
  Co  Co19  1  0.874121  0.353277  0.500000  1
  Co  Co20  1  0.999689  0.722768  0.500000  1
  Co  Co21  1  0.278015  0.276786  0.500000  1
  Co  Co22  1  0.721545  0.004731  0.500000  1
  Co  Co23  1  0.999508  0.000186  0.000000  1
  Si  Si24  1  0.999574  0.368935  0.000000  1
  Si  Si25  1  0.630192  0.630461  0.000000  1
  Si  Si26  1  0.369573  0.000239  0.000000  1
  Si  Si27  1  0.521683  0.840081  0.500000  1
  Si  Si28  1  0.158741  0.680660  0.500000  1
  Si  Si29  1  0.318507  0.477742  0.500000  1
  Si  Si30  1  0.478891  0.317960  0.500000  1
  Si  Si31  1  0.839878  0.521795  0.500000  1
  P  P32  1  0.685775  0.165129  0.500000  1
  P  P33  1  0.999842  0.819536  0.000000  1
  P  P34  1  0.181579  0.179889  0.000000  1
  P  P35  1  0.819226  0.001239  0.000000  1
