# generated using pymatgen
data_Yb12Ga12Sb7RuO48
_symmetry_space_group_name_H-M   'P 1'
_cell_length_a   10.91161113
_cell_length_b   10.87674757
_cell_length_c   10.91161196
_cell_angle_alpha   109.40651142
_cell_angle_beta   109.53586147
_cell_angle_gamma   109.40650342
_symmetry_Int_Tables_number   1
_chemical_formula_structural   Yb12Ga12Sb7RuO48
_chemical_formula_sum   'Yb12 Ga12 Sb7 Ru1 O48'
_cell_volume   997.70270436
_cell_formula_units_Z   1
loop_
 _symmetry_equiv_pos_site_id
 _symmetry_equiv_pos_as_xyz
  1  'x, y, z'
loop_
 _atom_site_type_symbol
 _atom_site_label
 _atom_site_symmetry_multiplicity
 _atom_site_fract_x
 _atom_site_fract_y
 _atom_site_fract_z
 _atom_site_occupancy
  Yb  Yb0  1  0.249746  0.374512  0.124284  1
  Yb  Yb1  1  0.375716  0.750228  0.125460  1
  Yb  Yb2  1  0.374539  0.124766  0.250254  1
  Yb  Yb3  1  0.881773  0.618994  0.259091  1
  Yb  Yb4  1  0.122684  0.262780  0.381774  1
  Yb  Yb5  1  0.759091  0.140096  0.377316  1
  Yb  Yb6  1  0.240909  0.859902  0.622684  1
  Yb  Yb7  1  0.877316  0.737220  0.618226  1
  Yb  Yb8  1  0.118225  0.381006  0.740909  1
  Yb  Yb9  1  0.625461  0.875234  0.749746  1
  Yb  Yb10  1  0.624284  0.249772  0.874538  1
  Yb  Yb11  1  0.750254  0.625488  0.875716  1
  Ga  Ga12  1  0.750001  0.875585  0.126562  1
  Ga  Ga13  1  0.874112  0.249827  0.127606  1
  Ga  Ga14  1  0.627606  0.377780  0.253494  1
  Ga  Ga15  1  0.123439  0.874416  0.250002  1
  Ga  Ga16  1  0.626562  0.750977  0.376561  1
  Ga  Ga17  1  0.246506  0.624286  0.374112  1
  Ga  Ga18  1  0.753494  0.375714  0.625888  1
  Ga  Ga19  1  0.373438  0.249023  0.623439  1
  Ga  Ga20  1  0.876561  0.125584  0.749999  1
  Ga  Ga21  1  0.372394  0.622220  0.746506  1
  Ga  Ga22  1  0.250000  0.124415  0.873438  1
  Ga  Ga23  1  0.125888  0.750174  0.872394  1
  Sb  Sb24  1  0.000000  0.000000  0.000000  1
  Sb  Sb25  1  0.499999  0.000000  0.000000  1
  Sb  Sb26  1  0.500000  0.500000  0.000000  1
  Sb  Sb27  1  0.000000  0.499999  0.000000  1
  Sb  Sb28  1  0.500000  0.000000  0.500000  1
  Sb  Sb29  1  0.000000  0.000000  0.499999  1
  Sb  Sb30  1  0.499999  0.499999  0.499999  1
  Ru  Ru31  1  0.000000  0.500000  0.500000  1
  O  O32  1  0.323493  0.903832  0.026774  1
  O  O33  1  0.202672  0.120283  0.023019  1
  O  O34  1  0.702322  0.678121  0.080751  1
  O  O35  1  0.876910  0.400534  0.077905  1
  O  O36  1  0.974969  0.677359  0.097685  1
  O  O37  1  0.619273  0.415452  0.093971  1
  O  O38  1  0.597685  0.920326  0.122716  1
  O  O39  1  0.025302  0.203821  0.119273  1
  O  O40  1  0.476980  0.597263  0.179653  1
  O  O41  1  0.203281  0.580339  0.176507  1
  O  O42  1  0.121570  0.024200  0.202321  1
  O  O43  1  0.577905  0.177371  0.200995  1
  O  O44  1  0.473226  0.377058  0.296719  1
  O  O45  1  0.320347  0.917609  0.297327  1
  O  O46  1  0.903037  0.024603  0.322935  1
  O  O47  1  0.910954  0.287760  0.315539  1
  O  O48  1  0.299005  0.476376  0.376910  1
  O  O49  1  0.580751  0.902629  0.378429  1
  O  O50  1  0.815538  0.527779  0.404584  1
  O  O51  1  0.080102  0.878434  0.403037  1
  O  O52  1  0.822935  0.798332  0.419898  1
  O  O53  1  0.095415  0.623194  0.410955  1
  O  O54  1  0.593970  0.178519  0.474697  1
  O  O55  1  0.377284  0.297610  0.474969  1
  O  O56  1  0.622716  0.702390  0.525031  1
  O  O57  1  0.406028  0.821480  0.525302  1
  O  O58  1  0.904585  0.376805  0.589045  1
  O  O59  1  0.177065  0.201668  0.580102  1
  O  O60  1  0.919898  0.121566  0.596963  1
  O  O61  1  0.184461  0.472220  0.595414  1
  O  O62  1  0.419249  0.097371  0.621570  1
  O  O63  1  0.700995  0.523624  0.623090  1
  O  O64  1  0.089045  0.712240  0.684461  1
  O  O65  1  0.096963  0.975397  0.677065  1
  O  O66  1  0.679653  0.082390  0.702673  1
  O  O67  1  0.526774  0.622942  0.703281  1
  O  O68  1  0.422095  0.822629  0.799005  1
  O  O69  1  0.878429  0.975799  0.797677  1
  O  O70  1  0.796719  0.419661  0.823493  1
  O  O71  1  0.523019  0.402735  0.820346  1
  O  O72  1  0.974697  0.796177  0.880726  1
  O  O73  1  0.402315  0.079674  0.877284  1
  O  O74  1  0.380726  0.584548  0.906029  1
  O  O75  1  0.025031  0.322641  0.902315  1
  O  O76  1  0.123090  0.599466  0.922095  1
  O  O77  1  0.297678  0.321879  0.919248  1
  O  O78  1  0.676507  0.096168  0.973226  1
  O  O79  1  0.797326  0.879716  0.976980  1
