# generated using pymatgen
data_YHo3(Lu3Ir2)2
_symmetry_space_group_name_H-M   'P 1'
_cell_length_a   6.43028780
_cell_length_b   7.17485526
_cell_length_c   8.41769500
_cell_angle_alpha   96.76380069
_cell_angle_beta   112.35675184
_cell_angle_gamma   89.80709155
_symmetry_Int_Tables_number   1
_chemical_formula_structural   YHo3(Lu3Ir2)2
_chemical_formula_sum   'Y1 Ho3 Lu6 Ir4'
_cell_volume   356.30724355
_cell_formula_units_Z   1
loop_
 _symmetry_equiv_pos_site_id
 _symmetry_equiv_pos_as_xyz
  1  'x, y, z'
loop_
 _atom_site_type_symbol
 _atom_site_label
 _atom_site_symmetry_multiplicity
 _atom_site_fract_x
 _atom_site_fract_y
 _atom_site_fract_z
 _atom_site_occupancy
  Y  Y0  1  0.972897  0.920945  0.187226  1
  Ho  Ho1  1  0.787260  0.581454  0.813981  1
  Ho  Ho2  1  0.026017  0.080999  0.812871  1
  Ho  Ho3  1  0.212794  0.418101  0.185894  1
  Lu  Lu4  1  0.646959  0.816596  0.439125  1
  Lu  Lu5  1  0.209445  0.681229  0.560451  1
  Lu  Lu6  1  0.353346  0.183626  0.561102  1
  Lu  Lu7  1  0.790574  0.318326  0.439757  1
  Lu  Lu8  1  0.428114  0.749632  0.000014  1
  Lu  Lu9  1  0.571193  0.250194  0.999467  1
  Ir  Ir10  1  0.821531  0.572647  0.221444  1
  Ir  Ir11  1  0.599348  0.925586  0.778126  1
  Ir  Ir12  1  0.177703  0.425836  0.779294  1
  Ir  Ir13  1  0.402821  0.074828  0.221250  1
