# generated using pymatgen
data_LaPr(BeAs)6
_symmetry_space_group_name_H-M   'P 1'
_cell_length_a   3.86410600
_cell_length_b   10.93736000
_cell_length_c   11.89633500
_cell_angle_alpha   90.00000000
_cell_angle_beta   90.00000000
_cell_angle_gamma   90.00000000
_symmetry_Int_Tables_number   1
_chemical_formula_structural   LaPr(BeAs)6
_chemical_formula_sum   'La2 Pr2 Be12 As12'
_cell_volume   502.77621463
_cell_formula_units_Z   2
loop_
 _symmetry_equiv_pos_site_id
 _symmetry_equiv_pos_as_xyz
  1  'x, y, z'
loop_
 _atom_site_type_symbol
 _atom_site_label
 _atom_site_symmetry_multiplicity
 _atom_site_fract_x
 _atom_site_fract_y
 _atom_site_fract_z
 _atom_site_occupancy
  La  La0  1  0.750000  0.555532  0.837157  1
  La  La1  1  0.250000  0.055532  0.662843  1
  Pr  Pr2  1  0.750000  0.944296  0.337046  1
  Pr  Pr3  1  0.250000  0.444296  0.162954  1
  Be  Be4  1  0.750000  0.242650  0.455372  1
  Be  Be5  1  0.250000  0.742650  0.044628  1
  Be  Be6  1  0.750000  0.257046  0.954997  1
  Be  Be7  1  0.250000  0.757046  0.545003  1
  Be  Be8  1  0.750000  0.645814  0.286071  1
  Be  Be9  1  0.250000  0.145814  0.213929  1
  Be  Be10  1  0.750000  0.855429  0.786777  1
  Be  Be11  1  0.250000  0.355429  0.713223  1
  Be  Be12  1  0.750000  0.036714  0.063394  1
  Be  Be13  1  0.250000  0.536714  0.436606  1
  Be  Be14  1  0.750000  0.463673  0.563202  1
  Be  Be15  1  0.250000  0.963673  0.936798  1
  As  As16  1  0.750000  0.438336  0.370950  1
  As  As17  1  0.250000  0.938336  0.129050  1
  As  As18  1  0.750000  0.060790  0.871341  1
  As  As19  1  0.250000  0.560790  0.628659  1
  As  As20  1  0.750000  0.226568  0.145322  1
  As  As21  1  0.250000  0.726568  0.354678  1
  As  As22  1  0.750000  0.274445  0.646016  1
  As  As23  1  0.250000  0.774445  0.853984  1
  As  As24  1  0.750000  0.641526  0.092348  1
  As  As25  1  0.250000  0.141526  0.407652  1
  As  As26  1  0.750000  0.857181  0.591543  1
  As  As27  1  0.250000  0.357181  0.908457  1
