# generated using pymatgen
data_Tb5Co9(P6Ru5)2
_symmetry_space_group_name_H-M   'P 1'
_cell_length_a   12.33867318
_cell_length_b   12.29777902
_cell_length_c   3.76519100
_cell_angle_alpha   90.00000000
_cell_angle_beta   90.00000000
_cell_angle_gamma   119.85480116
_symmetry_Int_Tables_number   1
_chemical_formula_structural   Tb5Co9(P6Ru5)2
_chemical_formula_sum   'Tb5 Co9 P12 Ru10'
_cell_volume   495.50307826
_cell_formula_units_Z   1
loop_
 _symmetry_equiv_pos_site_id
 _symmetry_equiv_pos_as_xyz
  1  'x, y, z'
loop_
 _atom_site_type_symbol
 _atom_site_label
 _atom_site_symmetry_multiplicity
 _atom_site_fract_x
 _atom_site_fract_y
 _atom_site_fract_z
 _atom_site_occupancy
  Tb  Tb0  1  0.663865  0.333444  0.000000  1
  Tb  Tb1  1  0.333404  0.667281  0.000000  1
  Tb  Tb2  1  0.183391  0.182066  0.500000  1
  Tb  Tb3  1  0.817719  0.998317  0.500000  1
  Tb  Tb4  1  0.999527  0.818380  0.500000  1
  Co  Co5  1  0.802221  0.629809  0.000000  1
  Co  Co6  1  0.368649  0.171117  0.000000  1
  Co  Co7  1  0.195559  0.827915  0.000000  1
  Co  Co8  1  0.629075  0.800414  0.000000  1
  Co  Co9  1  0.176487  0.370751  0.000000  1
  Co  Co10  1  0.718510  0.718384  0.500000  1
  Co  Co11  1  0.279567  0.999594  0.500000  1
  Co  Co12  1  0.006975  0.285253  0.500000  1
  Co  Co13  1  0.999722  0.999203  0.000000  1
  P  P14  1  0.363589  0.363578  0.000000  1
  P  P15  1  0.633300  0.997414  0.000000  1
  P  P16  1  0.000575  0.637426  0.000000  1
  P  P17  1  0.838087  0.315682  0.500000  1
  P  P18  1  0.685026  0.524025  0.500000  1
  P  P19  1  0.473073  0.159553  0.500000  1
  P  P20  1  0.315428  0.840323  0.500000  1
  P  P21  1  0.524446  0.683955  0.500000  1
  P  P22  1  0.162306  0.478130  0.500000  1
  P  P23  1  0.820031  0.820220  0.000000  1
  P  P24  1  0.178411  0.999682  0.000000  1
  P  P25  1  0.005653  0.181355  0.000000  1
  Ru  Ru26  1  0.555550  0.554104  0.000000  1
  Ru  Ru27  1  0.440120  0.995454  0.000000  1
  Ru  Ru28  1  0.008370  0.450397  0.000000  1
  Ru  Ru29  1  0.826985  0.197947  0.000000  1
  Ru  Ru30  1  0.639755  0.125104  0.500000  1
  Ru  Ru31  1  0.872906  0.519154  0.500000  1
  Ru  Ru32  1  0.480191  0.352399  0.500000  1
  Ru  Ru33  1  0.129545  0.649865  0.500000  1
  Ru  Ru34  1  0.518267  0.870335  0.500000  1
  Ru  Ru35  1  0.353713  0.481967  0.500000  1
