# generated using pymatgen
data_ZrSc2Ti4Nb3Al12Ir7
_symmetry_space_group_name_H-M   'P 1'
_cell_length_a   8.72573007
_cell_length_b   8.72572963
_cell_length_c   8.72100100
_cell_angle_alpha   59.98206528
_cell_angle_beta   59.98206695
_cell_angle_gamma   59.99999588
_symmetry_Int_Tables_number   1
_chemical_formula_structural   ZrSc2Ti4Nb3Al12Ir7
_chemical_formula_sum   'Zr1 Sc2 Ti4 Nb3 Al12 Ir7'
_cell_volume   469.39350219
_cell_formula_units_Z   1
loop_
 _symmetry_equiv_pos_site_id
 _symmetry_equiv_pos_as_xyz
  1  'x, y, z'
loop_
 _atom_site_type_symbol
 _atom_site_label
 _atom_site_symmetry_multiplicity
 _atom_site_fract_x
 _atom_site_fract_y
 _atom_site_fract_z
 _atom_site_occupancy
  Zr  Zr0  1  0.307864  0.698859  0.685414  1
  Sc  Sc1  1  0.305764  0.305300  0.689908  1
  Sc  Sc2  1  0.699028  0.305300  0.689908  1
  Ti  Ti3  1  0.879958  0.879706  0.360377  1
  Ti  Ti4  1  0.877874  0.359803  0.884451  1
  Ti  Ti5  1  0.361196  0.877419  0.883136  1
  Ti  Ti6  1  0.878250  0.877419  0.883136  1
  Nb  Nb7  1  0.682838  0.687473  0.313607  1
  Nb  Nb8  1  0.316083  0.687473  0.313607  1
  Nb  Nb9  1  0.686325  0.315626  0.311724  1
  Al  Al10  1  0.121032  0.121511  0.636421  1
  Al  Al11  1  0.118867  0.639204  0.123061  1
  Al  Al12  1  0.639829  0.118365  0.123281  1
  Al  Al13  1  0.118524  0.118365  0.123281  1
  Al  Al14  1  0.661384  0.660150  0.017081  1
  Al  Al15  1  0.661296  0.019956  0.657452  1
  Al  Al16  1  0.017194  0.661530  0.657892  1
  Al  Al17  1  0.663383  0.661530  0.657892  1
  Al  Al18  1  0.335098  0.334025  0.995779  1
  Al  Al19  1  0.339436  0.987674  0.333455  1
  Al  Al20  1  0.982626  0.341041  0.335408  1
  Al  Al21  1  0.340926  0.341041  0.335408  1
  Ir  Ir22  1  0.000380  0.999054  0.000186  1
  Ir  Ir23  1  0.999359  0.999546  0.499757  1
  Ir  Ir24  1  0.501338  0.999546  0.499757  1
  Ir  Ir25  1  0.999283  0.501579  0.499856  1
  Ir  Ir26  1  0.502699  0.502198  0.995492  1
  Ir  Ir27  1  0.999611  0.502198  0.995492  1
  Ir  Ir28  1  0.502556  0.997109  0.997778  1
