# generated using pymatgen
data_Ba4Fe3Co(IrN3)2
_symmetry_space_group_name_H-M   'P 1'
_cell_length_a   6.83022237
_cell_length_b   6.81219285
_cell_length_c   6.73824907
_cell_angle_alpha   88.68344436
_cell_angle_beta   88.93455205
_cell_angle_gamma   117.46614563
_symmetry_Int_Tables_number   1
_chemical_formula_structural   Ba4Fe3Co(IrN3)2
_chemical_formula_sum   'Ba4 Fe3 Co1 Ir2 N6'
_cell_volume   277.95935159
_cell_formula_units_Z   1
loop_
 _symmetry_equiv_pos_site_id
 _symmetry_equiv_pos_as_xyz
  1  'x, y, z'
loop_
 _atom_site_type_symbol
 _atom_site_label
 _atom_site_symmetry_multiplicity
 _atom_site_fract_x
 _atom_site_fract_y
 _atom_site_fract_z
 _atom_site_occupancy
  Ba  Ba0  1  0.832500  0.667884  0.898672  1
  Ba  Ba1  1  0.326277  0.160576  0.600370  1
  Ba  Ba2  1  0.165871  0.326246  0.101404  1
  Ba  Ba3  1  0.670628  0.837175  0.398047  1
  Fe  Fe4  1  0.443540  0.848643  0.900654  1
  Fe  Fe5  1  0.847188  0.446571  0.390403  1
  Fe  Fe6  1  0.152428  0.554893  0.606679  1
  Co  Co7  1  0.563007  0.157624  0.106020  1
  Ir  Ir8  1  0.807385  0.194673  0.750091  1
  Ir  Ir9  1  0.191328  0.803718  0.246032  1
  N  N10  1  0.385205  0.616629  0.752763  1
  N  N11  1  0.611393  0.388714  0.256073  1
  N  N12  1  0.017782  0.716908  0.502196  1
  N  N13  1  0.719178  0.011755  0.998516  1
  N  N14  1  0.983248  0.283561  0.495703  1
  N  N15  1  0.283043  0.984430  0.996377  1
