# generated using pymatgen
data_Hf3TiAu16
_symmetry_space_group_name_H-M   'P 1'
_cell_length_a   5.07946624
_cell_length_b   4.90145000
_cell_length_c   14.57937711
_cell_angle_alpha   90.00000000
_cell_angle_beta   89.85214109
_cell_angle_gamma   90.00000000
_symmetry_Int_Tables_number   1
_chemical_formula_structural   Hf3TiAu16
_chemical_formula_sum   'Hf3 Ti1 Au16'
_cell_volume   362.97789536
_cell_formula_units_Z   1
loop_
 _symmetry_equiv_pos_site_id
 _symmetry_equiv_pos_as_xyz
  1  'x, y, z'
loop_
 _atom_site_type_symbol
 _atom_site_label
 _atom_site_symmetry_multiplicity
 _atom_site_fract_x
 _atom_site_fract_y
 _atom_site_fract_z
 _atom_site_occupancy
  Hf  Hf0  1  0.158768  0.250000  0.400435  1
  Hf  Hf1  1  0.841308  0.750001  0.598072  1
  Hf  Hf2  1  0.339967  0.750001  0.902688  1
  Ti  Ti3  1  0.657010  0.250000  0.098380  1
  Au  Au4  1  0.160666  0.250000  0.003879  1
  Au  Au5  1  0.347394  0.750001  0.098782  1
  Au  Au6  1  0.824995  0.750001  0.194204  1
  Au  Au7  1  0.158522  0.250000  0.200019  1
  Au  Au8  1  0.659181  0.250000  0.294183  1
  Au  Au9  1  0.325942  0.750001  0.303154  1
  Au  Au10  1  0.844697  0.750001  0.400162  1
  Au  Au11  1  0.659992  0.250000  0.498270  1
  Au  Au12  1  0.340058  0.750001  0.500667  1
  Au  Au13  1  0.155460  0.250000  0.598666  1
  Au  Au14  1  0.674617  0.250000  0.696529  1
  Au  Au15  1  0.341252  0.750001  0.702646  1
  Au  Au16  1  0.840809  0.750001  0.798608  1
  Au  Au17  1  0.175242  0.250000  0.805690  1
  Au  Au18  1  0.656210  0.250000  0.904787  1
  Au  Au19  1  0.837908  0.750001  0.000180  1
