# generated using pymatgen
data_TmHf(SiMo)2
_symmetry_space_group_name_H-M   'P 1'
_cell_length_a   3.56584100
_cell_length_b   7.10888374
_cell_length_c   8.30882750
_cell_angle_alpha   90.18094324
_cell_angle_beta   90.00000000
_cell_angle_gamma   90.00000000
_symmetry_Int_Tables_number   1
_chemical_formula_structural   TmHf(SiMo)2
_chemical_formula_sum   'Tm2 Hf2 Si4 Mo4'
_cell_volume   210.62065694
_cell_formula_units_Z   2
loop_
 _symmetry_equiv_pos_site_id
 _symmetry_equiv_pos_as_xyz
  1  'x, y, z'
loop_
 _atom_site_type_symbol
 _atom_site_label
 _atom_site_symmetry_multiplicity
 _atom_site_fract_x
 _atom_site_fract_y
 _atom_site_fract_z
 _atom_site_occupancy
  Tm  Tm0  1  0.250000  0.043099  0.331825  1
  Tm  Tm1  1  0.750000  0.956901  0.668175  1
  Hf  Hf2  1  0.250000  0.542359  0.164751  1
  Hf  Hf3  1  0.750000  0.457641  0.835249  1
  Si  Si4  1  0.250000  0.267166  0.639993  1
  Si  Si5  1  0.750000  0.732834  0.360007  1
  Si  Si6  1  0.250000  0.752964  0.867118  1
  Si  Si7  1  0.750000  0.247036  0.132882  1
  Mo  Mo8  1  0.750000  0.374371  0.440088  1
  Mo  Mo9  1  0.250000  0.625629  0.559912  1
  Mo  Mo10  1  0.750000  0.867493  0.060811  1
  Mo  Mo11  1  0.250000  0.132507  0.939189  1
