# generated using pymatgen
data_Tb2Sm3Pb3Br
_symmetry_space_group_name_H-M   'P 1'
_cell_length_a   9.42742500
_cell_length_b   9.42742465
_cell_length_c   6.75988500
_cell_angle_alpha   90.00000000
_cell_angle_beta   90.00000000
_cell_angle_gamma   119.99999071
_symmetry_Int_Tables_number   1
_chemical_formula_structural   Tb2Sm3Pb3Br
_chemical_formula_sum   'Tb4 Sm6 Pb6 Br2'
_cell_volume   520.30276746
_cell_formula_units_Z   2
loop_
 _symmetry_equiv_pos_site_id
 _symmetry_equiv_pos_as_xyz
  1  'x, y, z'
loop_
 _atom_site_type_symbol
 _atom_site_label
 _atom_site_symmetry_multiplicity
 _atom_site_fract_x
 _atom_site_fract_y
 _atom_site_fract_z
 _atom_site_occupancy
  Tb  Tb0  1  0.333333  0.666667  0.000000  1
  Tb  Tb1  1  0.666667  0.333333  0.000000  1
  Tb  Tb2  1  0.666667  0.333333  0.500000  1
  Tb  Tb3  1  0.333333  0.666667  0.500000  1
  Sm  Sm4  1  0.267230  0.000000  0.250000  1
  Sm  Sm5  1  0.732770  0.000000  0.750000  1
  Sm  Sm6  1  0.000000  0.267230  0.250000  1
  Sm  Sm7  1  0.000000  0.732770  0.750000  1
  Sm  Sm8  1  0.732770  0.732770  0.250000  1
  Sm  Sm9  1  0.267230  0.267230  0.750000  1
  Pb  Pb10  1  0.612194  0.000000  0.250000  1
  Pb  Pb11  1  0.387806  0.000000  0.750000  1
  Pb  Pb12  1  0.000000  0.612194  0.250000  1
  Pb  Pb13  1  0.000000  0.387806  0.750000  1
  Pb  Pb14  1  0.387806  0.387806  0.250000  1
  Pb  Pb15  1  0.612194  0.612194  0.750000  1
  Br  Br16  1  0.000000  0.000000  0.000000  1
  Br  Br17  1  0.000000  0.000000  0.500000  1
