# generated using pymatgen
data_Tb6Sc5Al11Ir7
_symmetry_space_group_name_H-M   'P 1'
_cell_length_a   9.16548681
_cell_length_b   9.16548707
_cell_length_c   9.15746959
_cell_angle_alpha   59.97103111
_cell_angle_beta   59.97103061
_cell_angle_gamma   59.99999313
_symmetry_Int_Tables_number   1
_chemical_formula_structural   Tb6Sc5Al11Ir7
_chemical_formula_sum   'Tb6 Sc5 Al11 Ir7'
_cell_volume   543.72743709
_cell_formula_units_Z   1
loop_
 _symmetry_equiv_pos_site_id
 _symmetry_equiv_pos_as_xyz
  1  'x, y, z'
loop_
 _atom_site_type_symbol
 _atom_site_label
 _atom_site_symmetry_multiplicity
 _atom_site_fract_x
 _atom_site_fract_y
 _atom_site_fract_z
 _atom_site_occupancy
  Tb  Tb0  1  0.702327  0.702327  0.299751  1
  Tb  Tb1  1  0.295595  0.702327  0.299751  1
  Tb  Tb2  1  0.702327  0.295595  0.299751  1
  Tb  Tb3  1  0.302450  0.302450  0.704181  1
  Tb  Tb4  1  0.690919  0.302450  0.704181  1
  Tb  Tb5  1  0.302450  0.690919  0.704181  1
  Sc  Sc6  1  0.881178  0.881178  0.356466  1
  Sc  Sc7  1  0.878053  0.359670  0.884224  1
  Sc  Sc8  1  0.359670  0.878053  0.884224  1
  Sc  Sc9  1  0.878053  0.878053  0.884224  1
  Sc  Sc10  1  0.121650  0.121650  0.635049  1
  Al  Al11  1  0.119994  0.641628  0.118383  1
  Al  Al12  1  0.641628  0.119994  0.118383  1
  Al  Al13  1  0.119994  0.119994  0.118383  1
  Al  Al14  1  0.668709  0.668709  0.993870  1
  Al  Al15  1  0.669517  0.990955  0.670011  1
  Al  Al16  1  0.990955  0.669517  0.670011  1
  Al  Al17  1  0.669517  0.669517  0.670011  1
  Al  Al18  1  0.329324  0.329324  0.012029  1
  Al  Al19  1  0.331915  0.011832  0.324339  1
  Al  Al20  1  0.011832  0.331915  0.324339  1
  Al  Al21  1  0.331915  0.331915  0.324339  1
  Ir  Ir22  1  0.999997  0.999997  0.000008  1
  Ir  Ir23  1  0.001204  0.001204  0.496203  1
  Ir  Ir24  1  0.501390  0.001204  0.496203  1
  Ir  Ir25  1  0.001204  0.501390  0.496203  1
  Ir  Ir26  1  0.498069  0.498069  0.003769  1
  Ir  Ir27  1  0.000092  0.498069  0.003769  1
  Ir  Ir28  1  0.498069  0.000092  0.003769  1
