# generated using pymatgen
data_Dy3Ho(Al8Pt3)3
_symmetry_space_group_name_H-M   'P 1'
_cell_length_a   7.52700331
_cell_length_b   7.54736263
_cell_length_c   13.16744851
_cell_angle_alpha   84.56904411
_cell_angle_beta   79.10821591
_cell_angle_gamma   59.97695620
_symmetry_Int_Tables_number   1
_chemical_formula_structural   Dy3Ho(Al8Pt3)3
_chemical_formula_sum   'Dy3 Ho1 Al24 Pt9'
_cell_volume   635.99529793
_cell_formula_units_Z   1
loop_
 _symmetry_equiv_pos_site_id
 _symmetry_equiv_pos_as_xyz
  1  'x, y, z'
loop_
 _atom_site_type_symbol
 _atom_site_label
 _atom_site_symmetry_multiplicity
 _atom_site_fract_x
 _atom_site_fract_y
 _atom_site_fract_z
 _atom_site_occupancy
  Dy  Dy0  1  0.606632  0.831545  0.192115  1
  Dy  Dy1  1  0.734167  0.498448  0.807554  1
  Dy  Dy2  1  0.265865  0.501516  0.192443  1
  Ho  Ho3  1  0.393371  0.168504  0.807761  1
  Al  Al4  1  0.684390  0.833780  0.944465  1
  Al  Al5  1  0.315533  0.166343  0.055412  1
  Al  Al6  1  0.146929  0.832321  0.561203  1
  Al  Al7  1  0.853061  0.167680  0.438804  1
  Al  Al8  1  0.479718  0.166838  0.558690  1
  Al  Al9  1  0.520274  0.833168  0.441354  1
  Al  Al10  1  0.217127  0.165263  0.330019  1
  Al  Al11  1  0.782734  0.834856  0.670037  1
  Al  Al12  1  0.437918  0.506032  0.670045  1
  Al  Al13  1  0.562063  0.493845  0.330015  1
  Al  Al14  1  0.109861  0.160035  0.669297  1
  Al  Al15  1  0.890233  0.839968  0.330776  1
  Al  Al16  1  0.353248  0.498896  0.944612  1
  Al  Al17  1  0.646757  0.500984  0.055333  1
  Al  Al18  1  0.014996  0.167861  0.953059  1
  Al  Al19  1  0.985144  0.832127  0.046876  1
  Al  Al20  1  0.186767  0.498878  0.441279  1
  Al  Al21  1  0.813237  0.501117  0.558726  1
  Al  Al22  1  0.734307  0.163918  0.183305  1
  Al  Al23  1  0.265716  0.836226  0.816693  1
  Al  Al24  1  0.061978  0.631389  0.815448  1
  Al  Al25  1  0.938152  0.368455  0.184554  1
  Al  Al26  1  0.854691  0.041698  0.815961  1
  Al  Al27  1  0.145158  0.958336  0.184034  1
  Pt  Pt28  1  0.120200  0.492049  0.638869  1
  Pt  Pt29  1  0.879897  0.507815  0.361210  1
  Pt  Pt30  1  0.657241  0.171159  0.999907  1
  Pt  Pt31  1  0.342744  0.828862  0.000037  1
  Pt  Pt32  1  0.538105  0.166715  0.361214  1
  Pt  Pt33  1  0.461883  0.833404  0.638853  1
  Pt  Pt34  1  0.778930  0.174871  0.637323  1
  Pt  Pt35  1  0.220940  0.825132  0.362746  1
  Pt  Pt36  1  0.000033  0.499963  0.999971  1
