# generated using pymatgen
data_Cs2Zr2Ti5CI18
_symmetry_space_group_name_H-M   'P 1'
_cell_length_a   11.72641918
_cell_length_b   11.87418457
_cell_length_c   11.78506842
_cell_angle_alpha   55.15236201
_cell_angle_beta   55.85273544
_cell_angle_gamma   54.93696665
_symmetry_Int_Tables_number   1
_chemical_formula_structural   Cs2Zr2Ti5CI18
_chemical_formula_sum   'Cs2 Zr2 Ti5 C1 I18'
_cell_volume   1033.82897420
_cell_formula_units_Z   1
loop_
 _symmetry_equiv_pos_site_id
 _symmetry_equiv_pos_as_xyz
  1  'x, y, z'
loop_
 _atom_site_type_symbol
 _atom_site_label
 _atom_site_symmetry_multiplicity
 _atom_site_fract_x
 _atom_site_fract_y
 _atom_site_fract_z
 _atom_site_occupancy
  Cs  Cs0  1  0.223433  0.224058  0.222429  1
  Cs  Cs1  1  0.776640  0.777579  0.775174  1
  Zr  Zr2  1  0.502742  0.499825  0.496879  1
  Zr  Zr3  1  0.806014  0.148408  0.910394  1
  Ti  Ti4  1  0.079248  0.174812  0.866820  1
  Ti  Ti5  1  0.866889  0.079797  0.174509  1
  Ti  Ti6  1  0.176169  0.865694  0.080522  1
  Ti  Ti7  1  0.920492  0.825623  0.132995  1
  Ti  Ti8  1  0.132751  0.920692  0.825305  1
  C  C9  1  0.996675  0.002551  0.998549  1
  I  I10  1  0.329683  0.051902  0.934396  1
  I  I11  1  0.932688  0.326913  0.054423  1
  I  I12  1  0.057607  0.930255  0.328256  1
  I  I13  1  0.665077  0.936413  0.074591  1
  I  I14  1  0.067456  0.672950  0.945792  1
  I  I15  1  0.951261  0.064224  0.659795  1
  I  I16  1  0.215984  0.479457  0.643620  1
  I  I17  1  0.641708  0.211779  0.483614  1
  I  I18  1  0.480128  0.640281  0.212585  1
  I  I19  1  0.790088  0.515290  0.361701  1
  I  I20  1  0.362996  0.782554  0.521218  1
  I  I21  1  0.527263  0.352379  0.793602  1
  I  I22  1  0.397613  0.725301  0.879365  1
  I  I23  1  0.879682  0.409157  0.717066  1
  I  I24  1  0.728023  0.877579  0.394736  1
  I  I25  1  0.593277  0.279382  0.132669  1
  I  I26  1  0.125840  0.603114  0.273525  1
  I  I27  1  0.272568  0.122032  0.605470  1
