# generated using pymatgen
data_Yb3Y(HgPd5)2
_symmetry_space_group_name_H-M   'P 1'
_cell_length_a   4.29176100
_cell_length_b   5.82615979
_cell_length_c   11.47654800
_cell_angle_alpha   89.97008428
_cell_angle_beta   90.00000000
_cell_angle_gamma   90.00000000
_symmetry_Int_Tables_number   1
_chemical_formula_structural   Yb3Y(HgPd5)2
_chemical_formula_sum   'Yb3 Y1 Hg2 Pd10'
_cell_volume   286.96513761
_cell_formula_units_Z   1
loop_
 _symmetry_equiv_pos_site_id
 _symmetry_equiv_pos_as_xyz
  1  'x, y, z'
loop_
 _atom_site_type_symbol
 _atom_site_label
 _atom_site_symmetry_multiplicity
 _atom_site_fract_x
 _atom_site_fract_y
 _atom_site_fract_z
 _atom_site_occupancy
  Yb  Yb0  1  0.500000  0.782246  0.630518  1
  Yb  Yb1  1  0.500000  0.717691  0.135731  1
  Yb  Yb2  1  0.500000  0.216615  0.366316  1
  Y  Y3  1  0.500000  0.284378  0.865880  1
  Hg  Hg4  1  0.000000  0.500543  0.497974  1
  Hg  Hg5  1  0.000000  0.996314  0.003854  1
  Pd  Pd6  1  0.500000  0.729054  0.378670  1
  Pd  Pd7  1  0.500000  0.270188  0.620017  1
  Pd  Pd8  1  0.000000  0.027505  0.749666  1
  Pd  Pd9  1  0.500000  0.773524  0.878001  1
  Pd  Pd10  1  0.000000  0.469558  0.248966  1
  Pd  Pd11  1  0.000000  0.969601  0.251937  1
  Pd  Pd12  1  0.000000  0.531202  0.749616  1
  Pd  Pd13  1  0.000000  0.500483  0.000811  1
  Pd  Pd14  1  0.000000  0.000836  0.500438  1
  Pd  Pd15  1  0.500000  0.230263  0.121608  1
