# generated using pymatgen
data_Th3CoSn(RhPb)2
_symmetry_space_group_name_H-M   'P 1'
_cell_length_a   7.67346773
_cell_length_b   7.63175277
_cell_length_c   4.08122800
_cell_angle_alpha   90.00000000
_cell_angle_beta   90.00000000
_cell_angle_gamma   119.82033168
_symmetry_Int_Tables_number   1
_chemical_formula_structural   Th3CoSn(RhPb)2
_chemical_formula_sum   'Th3 Co1 Sn1 Rh2 Pb2'
_cell_volume   207.35804097
_cell_formula_units_Z   1
loop_
 _symmetry_equiv_pos_site_id
 _symmetry_equiv_pos_as_xyz
  1  'x, y, z'
loop_
 _atom_site_type_symbol
 _atom_site_label
 _atom_site_symmetry_multiplicity
 _atom_site_fract_x
 _atom_site_fract_y
 _atom_site_fract_z
 _atom_site_occupancy
  Th  Th0  1  0.402181  0.410159  0.500000  1
  Th  Th1  1  0.597819  0.007979  0.500000  1
  Th  Th2  1  0.000000  0.586048  0.500000  1
  Co  Co3  1  0.000000  0.016679  0.500000  1
  Sn  Sn4  1  0.000000  0.246120  0.000000  1
  Rh  Rh5  1  0.674546  0.327294  0.000000  1
  Rh  Rh6  1  0.325454  0.652749  0.000000  1
  Pb  Pb7  1  0.752153  0.752562  0.000000  1
  Pb  Pb8  1  0.247847  0.000410  0.000000  1
