# generated using pymatgen
data_Cs3P5RuSe10
_symmetry_space_group_name_H-M   'P 1'
_cell_length_a   7.52450900
_cell_length_b   12.09926263
_cell_length_c   13.33109546
_cell_angle_alpha   90.91082307
_cell_angle_beta   90.00000000
_cell_angle_gamma   90.00000000
_symmetry_Int_Tables_number   1
_chemical_formula_structural   Cs3P5RuSe10
_chemical_formula_sum   'Cs6 P10 Ru2 Se20'
_cell_volume   1213.52305223
_cell_formula_units_Z   2
loop_
 _symmetry_equiv_pos_site_id
 _symmetry_equiv_pos_as_xyz
  1  'x, y, z'
loop_
 _atom_site_type_symbol
 _atom_site_label
 _atom_site_symmetry_multiplicity
 _atom_site_fract_x
 _atom_site_fract_y
 _atom_site_fract_z
 _atom_site_occupancy
  Cs  Cs0  1  0.250000  0.991352  0.618233  1
  Cs  Cs1  1  0.750000  0.008648  0.381767  1
  Cs  Cs2  1  0.250000  0.099522  0.070740  1
  Cs  Cs3  1  0.250000  0.493831  0.616940  1
  Cs  Cs4  1  0.750000  0.900478  0.929260  1
  Cs  Cs5  1  0.750000  0.506169  0.383060  1
  P  P6  1  0.750000  0.272921  0.605097  1
  P  P7  1  0.518786  0.471812  0.920316  1
  P  P8  1  0.481214  0.528188  0.079684  1
  P  P9  1  0.250000  0.853682  0.269731  1
  P  P10  1  0.250000  0.727079  0.394903  1
  P  P11  1  0.750000  0.146318  0.730269  1
  P  P12  1  0.250000  0.705536  0.948096  1
  P  P13  1  0.981214  0.471812  0.920316  1
  P  P14  1  0.018786  0.528188  0.079684  1
  P  P15  1  0.750000  0.294464  0.051904  1
  Ru  Ru16  1  0.250000  0.647215  0.111047  1
  Ru  Ru17  1  0.750000  0.352785  0.888953  1
  Se  Se18  1  0.250000  0.873286  0.889060  1
  Se  Se19  1  0.750000  0.981270  0.667552  1
  Se  Se20  1  0.250000  0.378531  0.883472  1
  Se  Se21  1  0.992544  0.252143  0.518302  1
  Se  Se22  1  0.472460  0.803220  0.166647  1
  Se  Se23  1  0.488398  0.640126  0.849333  1
  Se  Se24  1  0.011602  0.640126  0.849333  1
  Se  Se25  1  0.507456  0.252143  0.518302  1
  Se  Se26  1  0.250000  0.018730  0.332448  1
  Se  Se27  1  0.511602  0.359874  0.150667  1
  Se  Se28  1  0.750000  0.621469  0.116528  1
  Se  Se29  1  0.527540  0.196780  0.833353  1
  Se  Se30  1  0.250000  0.571853  0.296654  1
  Se  Se31  1  0.972460  0.196780  0.833353  1
  Se  Se32  1  0.492544  0.747857  0.481698  1
  Se  Se33  1  0.988398  0.359874  0.150667  1
  Se  Se34  1  0.750000  0.126714  0.110940  1
  Se  Se35  1  0.027540  0.803220  0.166647  1
  Se  Se36  1  0.007456  0.747857  0.481698  1
  Se  Se37  1  0.750000  0.428147  0.703346  1
