# generated using pymatgen
data_CaTcF6
_symmetry_space_group_name_H-M   'P 1'
_cell_length_a   5.92952632
_cell_length_b   5.92952612
_cell_length_c   5.92952618
_cell_angle_alpha   56.93570471
_cell_angle_beta   56.93569943
_cell_angle_gamma   56.93570908
_symmetry_Int_Tables_number   1
_chemical_formula_structural   CaTcF6
_chemical_formula_sum   'Ca1 Tc1 F6'
_cell_volume   136.99703876
_cell_formula_units_Z   1
loop_
 _symmetry_equiv_pos_site_id
 _symmetry_equiv_pos_as_xyz
  1  'x, y, z'
loop_
 _atom_site_type_symbol
 _atom_site_label
 _atom_site_symmetry_multiplicity
 _atom_site_fract_x
 _atom_site_fract_y
 _atom_site_fract_z
 _atom_site_occupancy
  Ca  Ca0  1  0.500000  0.500000  0.500000  1
  Tc  Tc1  1  0.000000  0.000000  0.000000  1
  F  F2  1  0.868499  0.227134  0.671551  1
  F  F3  1  0.227134  0.671551  0.868499  1
  F  F4  1  0.328449  0.131501  0.772866  1
  F  F5  1  0.772866  0.328449  0.131501  1
  F  F6  1  0.131501  0.772866  0.328449  1
  F  F7  1  0.671551  0.868499  0.227134  1
