# generated using pymatgen
data_Nd4Zn4IrPtRh2
_symmetry_space_group_name_H-M   'P 1'
_cell_length_a   4.03208200
_cell_length_b   7.36929592
_cell_length_c   16.67657369
_cell_angle_alpha   90.24457379
_cell_angle_beta   90.00000000
_cell_angle_gamma   90.00000000
_symmetry_Int_Tables_number   1
_chemical_formula_structural   Nd4Zn4IrPtRh2
_chemical_formula_sum   'Nd8 Zn8 Ir2 Pt2 Rh4'
_cell_volume   495.51661610
_cell_formula_units_Z   2
loop_
 _symmetry_equiv_pos_site_id
 _symmetry_equiv_pos_as_xyz
  1  'x, y, z'
loop_
 _atom_site_type_symbol
 _atom_site_label
 _atom_site_symmetry_multiplicity
 _atom_site_fract_x
 _atom_site_fract_y
 _atom_site_fract_z
 _atom_site_occupancy
  Nd  Nd0  1  0.250000  0.167668  0.941887  1
  Nd  Nd1  1  0.250000  0.667099  0.563537  1
  Nd  Nd2  1  0.750000  0.329982  0.438746  1
  Nd  Nd3  1  0.750000  0.955202  0.281671  1
  Nd  Nd4  1  0.750000  0.830302  0.061168  1
  Nd  Nd5  1  0.750000  0.450369  0.215980  1
  Nd  Nd6  1  0.250000  0.045958  0.713872  1
  Nd  Nd7  1  0.250000  0.553825  0.784568  1
  Zn  Zn8  1  0.750000  0.003056  0.561732  1
  Zn  Zn9  1  0.250000  0.619438  0.347067  1
  Zn  Zn10  1  0.750000  0.378246  0.650333  1
  Zn  Zn11  1  0.250000  0.498420  0.060547  1
  Zn  Zn12  1  0.750000  0.503454  0.940373  1
  Zn  Zn13  1  0.250000  0.001546  0.439287  1
  Zn  Zn14  1  0.250000  0.124383  0.150776  1
  Zn  Zn15  1  0.750000  0.873500  0.848848  1
  Ir  Ir16  1  0.250000  0.245329  0.313601  1
  Ir  Ir17  1  0.750000  0.753766  0.685974  1
  Pt  Pt18  1  0.750000  0.755399  0.434075  1
  Pt  Pt19  1  0.750000  0.253756  0.813909  1
  Rh  Rh20  1  0.250000  0.243052  0.564929  1
  Rh  Rh21  1  0.250000  0.746407  0.186604  1
  Rh  Rh22  1  0.750000  0.254393  0.064787  1
  Rh  Rh23  1  0.250000  0.745445  0.935731  1
