# generated using pymatgen
data_Li3Ni6P7Ru5
_symmetry_space_group_name_H-M   'P 1'
_cell_length_a   3.65045700
_cell_length_b   9.25672592
_cell_length_c   9.22898737
_cell_angle_alpha   120.59537881
_cell_angle_beta   90.00000000
_cell_angle_gamma   90.00000000
_symmetry_Int_Tables_number   1
_chemical_formula_structural   Li3Ni6P7Ru5
_chemical_formula_sum   'Li3 Ni6 P7 Ru5'
_cell_volume   268.44320517
_cell_formula_units_Z   1
loop_
 _symmetry_equiv_pos_site_id
 _symmetry_equiv_pos_as_xyz
  1  'x, y, z'
loop_
 _atom_site_type_symbol
 _atom_site_label
 _atom_site_symmetry_multiplicity
 _atom_site_fract_x
 _atom_site_fract_y
 _atom_site_fract_z
 _atom_site_occupancy
  Li  Li0  1  0.500000  0.330582  0.665816  1
  Li  Li1  1  0.000000  0.667556  0.334889  1
  Li  Li2  1  0.500000  0.122780  0.906018  1
  Ni  Ni3  1  0.000000  0.886877  0.725715  1
  Ni  Ni4  1  0.000000  0.271228  0.151398  1
  Ni  Ni5  1  0.000000  0.837324  0.120482  1
  Ni  Ni6  1  0.000000  0.366344  0.936558  1
  Ni  Ni7  1  0.000000  0.066380  0.430526  1
  Ni  Ni8  1  0.000000  0.569255  0.637335  1
  P  P9  1  0.500000  0.717360  0.591044  1
  P  P10  1  0.500000  0.411241  0.125391  1
  P  P11  1  0.500000  0.878813  0.287973  1
  P  P12  1  0.000000  0.993355  0.003700  1
  P  P13  1  0.000000  0.125201  0.698403  1
  P  P14  1  0.000000  0.295663  0.413467  1
  P  P15  1  0.000000  0.578345  0.880087  1
  Ru  Ru16  1  0.500000  0.957521  0.566258  1
  Ru  Ru17  1  0.500000  0.439634  0.392375  1
  Ru  Ru18  1  0.500000  0.609608  0.049641  1
  Ru  Ru19  1  0.500000  0.082611  0.208994  1
  Ru  Ru20  1  0.500000  0.792323  0.873928  1
