# generated using pymatgen
data_Pr7Dy9(CdCo)4
_symmetry_space_group_name_H-M   'P 1'
_cell_length_a   9.67111142
_cell_length_b   9.67419189
_cell_length_c   9.67419181
_cell_angle_alpha   59.82548714
_cell_angle_beta   60.01053349
_cell_angle_gamma   60.01053392
_symmetry_Int_Tables_number   1
_chemical_formula_structural   Pr7Dy9(CdCo)4
_chemical_formula_sum   'Pr7 Dy9 Cd4 Co4'
_cell_volume   639.26903635
_cell_formula_units_Z   1
loop_
 _symmetry_equiv_pos_site_id
 _symmetry_equiv_pos_as_xyz
  1  'x, y, z'
loop_
 _atom_site_type_symbol
 _atom_site_label
 _atom_site_symmetry_multiplicity
 _atom_site_fract_x
 _atom_site_fract_y
 _atom_site_fract_z
 _atom_site_occupancy
  Pr  Pr0  1  0.941019  0.558981  0.558981  1
  Pr  Pr1  1  0.558128  0.941872  0.941872  1
  Pr  Pr2  1  0.557447  0.940504  0.559589  1
  Pr  Pr3  1  0.557447  0.559589  0.940504  1
  Pr  Pr4  1  0.942461  0.559589  0.940504  1
  Pr  Pr5  1  0.942461  0.940504  0.559589  1
  Pr  Pr6  1  0.814186  0.185814  0.185814  1
  Dy  Dy7  1  0.186204  0.813796  0.813796  1
  Dy  Dy8  1  0.189807  0.810277  0.185591  1
  Dy  Dy9  1  0.189807  0.185591  0.810277  1
  Dy  Dy10  1  0.814326  0.185591  0.810277  1
  Dy  Dy11  1  0.814326  0.810277  0.185591  1
  Dy  Dy12  1  0.341664  0.346097  0.346097  1
  Dy  Dy13  1  0.344809  0.345686  0.964697  1
  Dy  Dy14  1  0.966142  0.346097  0.346097  1
  Dy  Dy15  1  0.344809  0.964697  0.345686  1
  Cd  Cd16  1  0.578936  0.579023  0.579023  1
  Cd  Cd17  1  0.577934  0.581202  0.262932  1
  Cd  Cd18  1  0.263020  0.579023  0.579023  1
  Cd  Cd19  1  0.577934  0.262932  0.581202  1
  Co  Co20  1  0.141026  0.141264  0.141264  1
  Co  Co21  1  0.139832  0.141939  0.578396  1
  Co  Co22  1  0.576446  0.141264  0.141264  1
  Co  Co23  1  0.139832  0.578396  0.141939  1
