# generated using pymatgen
data_La4Th4Al8Ru7Rh
_symmetry_space_group_name_H-M   'P 1'
_cell_length_a   4.18487500
_cell_length_b   7.24176355
_cell_length_c   16.38768354
_cell_angle_alpha   90.14180971
_cell_angle_beta   90.00000000
_cell_angle_gamma   90.00000000
_symmetry_Int_Tables_number   1
_chemical_formula_structural   La4Th4Al8Ru7Rh
_chemical_formula_sum   'La4 Th4 Al8 Ru7 Rh1'
_cell_volume   496.64157153
_cell_formula_units_Z   1
loop_
 _symmetry_equiv_pos_site_id
 _symmetry_equiv_pos_as_xyz
  1  'x, y, z'
loop_
 _atom_site_type_symbol
 _atom_site_label
 _atom_site_symmetry_multiplicity
 _atom_site_fract_x
 _atom_site_fract_y
 _atom_site_fract_z
 _atom_site_occupancy
  La  La0  1  0.250000  0.659249  0.560019  1
  La  La1  1  0.750000  0.343627  0.438630  1
  La  La2  1  0.750000  0.839317  0.060692  1
  La  La3  1  0.250000  0.161007  0.940606  1
  Th  Th4  1  0.250000  0.520137  0.780606  1
  Th  Th5  1  0.750000  0.479660  0.218854  1
  Th  Th6  1  0.750000  0.979246  0.281308  1
  Th  Th7  1  0.250000  0.019382  0.721354  1
  Al  Al8  1  0.250000  0.651939  0.349149  1
  Al  Al9  1  0.750000  0.347776  0.649620  1
  Al  Al10  1  0.750000  0.847436  0.850018  1
  Al  Al11  1  0.250000  0.151943  0.150891  1
  Al  Al12  1  0.250000  0.504510  0.062593  1
  Al  Al13  1  0.750000  0.494608  0.937546  1
  Al  Al14  1  0.750000  0.996393  0.562109  1
  Al  Al15  1  0.250000  0.005166  0.437954  1
  Ru  Ru16  1  0.250000  0.762355  0.188863  1
  Ru  Ru17  1  0.750000  0.236586  0.809760  1
  Ru  Ru18  1  0.750000  0.738721  0.688154  1
  Ru  Ru19  1  0.250000  0.261140  0.311868  1
  Ru  Ru20  1  0.250000  0.717166  0.927324  1
  Ru  Ru21  1  0.750000  0.282952  0.072476  1
  Ru  Ru22  1  0.750000  0.782218  0.427371  1
  Rh  Rh23  1  0.250000  0.217464  0.572236  1
