# generated using pymatgen
data_Dy2TmLu7(SiSb)4
_symmetry_space_group_name_H-M   'P 1'
_cell_length_a   8.26666013
_cell_length_b   8.49420601
_cell_length_c   7.72580645
_cell_angle_alpha   89.91231523
_cell_angle_beta   89.68763054
_cell_angle_gamma   125.30210894
_symmetry_Int_Tables_number   1
_chemical_formula_structural   Dy2TmLu7(SiSb)4
_chemical_formula_sum   'Dy2 Tm1 Lu7 Si4 Sb4'
_cell_volume   442.72613562
_cell_formula_units_Z   1
loop_
 _symmetry_equiv_pos_site_id
 _symmetry_equiv_pos_as_xyz
  1  'x, y, z'
loop_
 _atom_site_type_symbol
 _atom_site_label
 _atom_site_symmetry_multiplicity
 _atom_site_fract_x
 _atom_site_fract_y
 _atom_site_fract_z
 _atom_site_occupancy
  Dy  Dy0  1  0.695035  0.954114  0.669945  1
  Dy  Dy1  1  0.308989  0.047445  0.329598  1
  Tm  Tm2  1  0.195477  0.452580  0.831272  1
  Lu  Lu3  1  0.037251  0.280706  0.336858  1
  Lu  Lu4  1  0.965313  0.721169  0.662495  1
  Lu  Lu5  1  0.463403  0.218949  0.836448  1
  Lu  Lu6  1  0.798439  0.546459  0.167046  1
  Lu  Lu7  1  0.535669  0.779094  0.163106  1
  Lu  Lu8  1  0.999188  0.999508  0.000518  1
  Lu  Lu9  1  0.501052  0.500281  0.500110  1
  Si  Si10  1  0.368216  0.368595  0.129835  1
  Si  Si11  1  0.631073  0.630572  0.869161  1
  Si  Si12  1  0.133453  0.133944  0.632593  1
  Si  Si13  1  0.868374  0.866456  0.366447  1
  Sb  Sb14  1  0.781367  0.197544  0.016905  1
  Sb  Sb15  1  0.213156  0.799331  0.987099  1
  Sb  Sb16  1  0.720990  0.308725  0.512737  1
  Sb  Sb17  1  0.283558  0.694527  0.487830  1
