# generated using pymatgen
data_SrNdIr2O7
_symmetry_space_group_name_H-M   'P 1'
_cell_length_a   7.43274767
_cell_length_b   7.45145035
_cell_length_c   7.43274865
_cell_angle_alpha   59.91673409
_cell_angle_beta   59.72177737
_cell_angle_gamma   59.91673497
_symmetry_Int_Tables_number   1
_chemical_formula_structural   SrNdIr2O7
_chemical_formula_sum   'Sr2 Nd2 Ir4 O14'
_cell_volume   290.10666532
_cell_formula_units_Z   2
loop_
 _symmetry_equiv_pos_site_id
 _symmetry_equiv_pos_as_xyz
  1  'x, y, z'
loop_
 _atom_site_type_symbol
 _atom_site_label
 _atom_site_symmetry_multiplicity
 _atom_site_fract_x
 _atom_site_fract_y
 _atom_site_fract_z
 _atom_site_occupancy
  Sr  Sr0  1  0.625000  0.125000  0.125000  1
  Sr  Sr1  1  0.125000  0.125000  0.625000  1
  Nd  Nd2  1  0.125000  0.625000  0.125000  1
  Nd  Nd3  1  0.125000  0.125000  0.125000  1
  Ir  Ir4  1  0.125000  0.625000  0.625000  1
  Ir  Ir5  1  0.625000  0.125000  0.625000  1
  Ir  Ir6  1  0.625000  0.625000  0.125000  1
  Ir  Ir7  1  0.625000  0.625000  0.625000  1
  O  O8  1  0.705523  0.693559  0.299621  1
  O  O9  1  0.299621  0.301297  0.705523  1
  O  O10  1  0.695605  0.304395  0.695605  1
  O  O11  1  0.297312  0.702688  0.297312  1
  O  O12  1  0.299621  0.693559  0.705523  1
  O  O13  1  0.705523  0.301297  0.299621  1
  O  O14  1  0.544477  0.556441  0.950379  1
  O  O15  1  0.950379  0.948703  0.544477  1
  O  O16  1  0.554395  0.945605  0.554395  1
  O  O17  1  0.952688  0.547312  0.952688  1
  O  O18  1  0.950379  0.556441  0.544477  1
  O  O19  1  0.544477  0.948703  0.950379  1
  O  O20  1  0.241633  0.258367  0.241633  1
  O  O21  1  0.008367  0.991633  0.008367  1
