# generated using pymatgen
data_Lu12TlFe2TcSb
_symmetry_space_group_name_H-M   'P 1'
_cell_length_a   8.19620711
_cell_length_b   8.19890077
_cell_length_c   8.19620700
_cell_angle_alpha   109.08859615
_cell_angle_beta   108.56872547
_cell_angle_gamma   110.75080559
_symmetry_Int_Tables_number   1
_chemical_formula_structural   Lu12TlFe2TcSb
_chemical_formula_sum   'Lu12 Tl1 Fe2 Tc1 Sb1'
_cell_volume   423.89645236
_cell_formula_units_Z   1
loop_
 _symmetry_equiv_pos_site_id
 _symmetry_equiv_pos_as_xyz
  1  'x, y, z'
loop_
 _atom_site_type_symbol
 _atom_site_label
 _atom_site_symmetry_multiplicity
 _atom_site_fract_x
 _atom_site_fract_y
 _atom_site_fract_z
 _atom_site_occupancy
  Lu  Lu0  1  0.306531  0.309510  0.616268  1
  Lu  Lu1  1  0.693469  0.690490  0.383732  1
  Lu  Lu2  1  0.693243  0.309510  0.002979  1
  Lu  Lu3  1  0.306757  0.690490  0.997021  1
  Lu  Lu4  1  0.192234  0.430197  0.237963  1
  Lu  Lu5  1  0.807766  0.569803  0.762037  1
  Lu  Lu6  1  0.192395  0.954248  0.761853  1
  Lu  Lu7  1  0.959530  0.195226  0.764305  1
  Lu  Lu8  1  0.807605  0.045752  0.238147  1
  Lu  Lu9  1  0.040470  0.804774  0.235695  1
  Lu  Lu10  1  0.430921  0.195226  0.235695  1
  Lu  Lu11  1  0.569079  0.804774  0.764305  1
  Tl  Tl12  1  0.000000  0.500000  0.500000  1
  Fe  Fe13  1  0.383638  0.383269  0.999631  1
  Fe  Fe14  1  0.616362  0.616731  0.000369  1
  Tc  Tc15  1  0.000000  0.000000  0.000000  1
  Sb  Sb16  1  0.500000  0.000000  0.500000  1
