# generated using pymatgen
data_Sc8Ti12Si15Ge
_symmetry_space_group_name_H-M   'P 1'
_cell_length_a   6.71307341
_cell_length_b   6.84783053
_cell_length_c   13.03147306
_cell_angle_alpha   89.99540665
_cell_angle_beta   90.10792292
_cell_angle_gamma   89.97937572
_symmetry_Int_Tables_number   1
_chemical_formula_structural   Sc8Ti12Si15Ge
_chemical_formula_sum   'Sc8 Ti12 Si15 Ge1'
_cell_volume   599.05557059
_cell_formula_units_Z   1
loop_
 _symmetry_equiv_pos_site_id
 _symmetry_equiv_pos_as_xyz
  1  'x, y, z'
loop_
 _atom_site_type_symbol
 _atom_site_label
 _atom_site_symmetry_multiplicity
 _atom_site_fract_x
 _atom_site_fract_y
 _atom_site_fract_z
 _atom_site_occupancy
  Sc  Sc0  1  0.998132  0.174300  0.094765  1
  Sc  Sc1  1  0.497373  0.324567  0.403832  1
  Sc  Sc2  1  0.501671  0.673872  0.905296  1
  Sc  Sc3  1  0.002118  0.827198  0.595490  1
  Sc  Sc4  1  0.002170  0.825968  0.905271  1
  Sc  Sc5  1  0.497892  0.676634  0.596070  1
  Sc  Sc6  1  0.498620  0.325895  0.095023  1
  Sc  Sc7  1  0.999742  0.173103  0.404229  1
  Ti  Ti8  1  0.664688  0.994429  0.249935  1
  Ti  Ti9  1  0.164641  0.506013  0.249982  1
  Ti  Ti10  1  0.835614  0.493837  0.752248  1
  Ti  Ti11  1  0.335673  0.005581  0.749943  1
  Ti  Ti12  1  0.837252  0.674025  0.127099  1
  Ti  Ti13  1  0.337634  0.826691  0.372257  1
  Ti  Ti14  1  0.663064  0.174211  0.872919  1
  Ti  Ti15  1  0.164785  0.325873  0.627271  1
  Ti  Ti16  1  0.162579  0.326053  0.873040  1
  Ti  Ti17  1  0.659300  0.169906  0.628601  1
  Ti  Ti18  1  0.338107  0.825846  0.126747  1
  Ti  Ti19  1  0.839778  0.675838  0.371576  1
  Si  Si20  1  0.798850  0.363531  0.249805  1
  Si  Si21  1  0.298835  0.136422  0.249220  1
  Si  Si22  1  0.701876  0.862499  0.750782  1
  Si  Si23  1  0.200456  0.636371  0.750266  1
  Si  Si24  1  0.039967  0.884938  0.248934  1
  Si  Si25  1  0.539831  0.616121  0.249913  1
  Si  Si26  1  0.460724  0.384195  0.750471  1
  Si  Si27  1  0.960914  0.115762  0.750065  1
  Si  Si28  1  0.834629  0.464477  0.960350  1
  Si  Si29  1  0.333599  0.036218  0.539366  1
  Si  Si30  1  0.665209  0.964654  0.040007  1
  Si  Si31  1  0.169863  0.536360  0.459184  1
  Si  Si32  1  0.165635  0.535399  0.040151  1
  Si  Si33  1  0.665755  0.964227  0.459937  1
  Si  Si34  1  0.335565  0.035504  0.959660  1
  Ge  Ge35  1  0.827452  0.463477  0.540299  1
