# generated using pymatgen
data_DyLu5(IrO6)3
_symmetry_space_group_name_H-M   'P 1'
_cell_length_a   9.00254200
_cell_length_b   9.00162327
_cell_length_c   5.10108819
_cell_angle_alpha   90.00264771
_cell_angle_beta   90.00000000
_cell_angle_gamma   120.00337628
_symmetry_Int_Tables_number   1
_chemical_formula_structural   DyLu5(IrO6)3
_chemical_formula_sum   'Dy1 Lu5 Ir3 O18'
_cell_volume   357.98487339
_cell_formula_units_Z   1
loop_
 _symmetry_equiv_pos_site_id
 _symmetry_equiv_pos_as_xyz
  1  'x, y, z'
loop_
 _atom_site_type_symbol
 _atom_site_label
 _atom_site_symmetry_multiplicity
 _atom_site_fract_x
 _atom_site_fract_y
 _atom_site_fract_z
 _atom_site_occupancy
  Dy  Dy0  1  0.624186  0.000000  0.000000  1
  Lu  Lu1  1  0.000572  0.628007  0.000215  1
  Lu  Lu2  1  0.000398  0.291869  0.499685  1
  Lu  Lu3  1  0.372565  0.371993  0.999785  1
  Lu  Lu4  1  0.289995  0.000000  0.500000  1
  Lu  Lu5  1  0.708530  0.708131  0.500315  1
  Ir  Ir6  1  0.331661  0.664727  0.497378  1
  Ir  Ir7  1  0.001401  0.000000  0.000000  1
  Ir  Ir8  1  0.666935  0.335273  0.502622  1
  O  O9  1  0.088536  0.879587  0.788860  1
  O  O10  1  0.223166  0.762570  0.276861  1
  O  O11  1  0.126145  0.543254  0.715865  1
  O  O12  1  0.411413  0.869672  0.711634  1
  O  O13  1  0.236983  0.458736  0.278854  1
  O  O14  1  0.121086  0.207676  0.786161  1
  O  O15  1  0.208951  0.120413  0.211140  1
  O  O16  1  0.538887  0.773592  0.283351  1
  O  O17  1  0.455054  0.583591  0.718677  1
  O  O18  1  0.796386  0.912882  0.784603  1
  O  O19  1  0.460597  0.237430  0.723139  1
  O  O20  1  0.582891  0.456746  0.284135  1
  O  O21  1  0.541742  0.130328  0.288366  1
  O  O22  1  0.778248  0.541264  0.721146  1
  O  O23  1  0.913412  0.792324  0.213839  1
  O  O24  1  0.765295  0.226408  0.716649  1
  O  O25  1  0.871461  0.416409  0.281323  1
  O  O26  1  0.883506  0.087118  0.215397  1
