# generated using pymatgen
data_KYUSe4
_symmetry_space_group_name_H-M   'P 1'
_cell_length_a   4.19995600
_cell_length_b   7.09107363
_cell_length_c   8.35866500
_cell_angle_alpha   73.69953950
_cell_angle_beta   90.00000000
_cell_angle_gamma   90.00000000
_symmetry_Int_Tables_number   1
_chemical_formula_structural   KYUSe4
_chemical_formula_sum   'K1 Y1 U1 Se4'
_cell_volume   238.93280124
_cell_formula_units_Z   1
loop_
 _symmetry_equiv_pos_site_id
 _symmetry_equiv_pos_as_xyz
  1  'x, y, z'
loop_
 _atom_site_type_symbol
 _atom_site_label
 _atom_site_symmetry_multiplicity
 _atom_site_fract_x
 _atom_site_fract_y
 _atom_site_fract_z
 _atom_site_occupancy
  K  K0  1  0.000000  0.500000  0.500000  1
  Y  Y1  1  0.500000  0.500000  0.000000  1
  U  U2  1  0.000000  0.000000  0.000000  1
  Se  Se3  1  0.500000  0.773588  0.198169  1
  Se  Se4  1  0.000000  0.263670  0.194251  1
  Se  Se5  1  0.500000  0.226412  0.801831  1
  Se  Se6  1  0.000000  0.736330  0.805749  1
