# generated using pymatgen
data_Li(AcGe)4
_symmetry_space_group_name_H-M   'P 1'
_cell_length_a   7.86652000
_cell_length_b   8.44261900
_cell_length_c   16.17715700
_cell_angle_alpha   90.00000000
_cell_angle_beta   90.00000000
_cell_angle_gamma   90.00000000
_symmetry_Int_Tables_number   1
_chemical_formula_structural   Li(AcGe)4
_chemical_formula_sum   'Li4 Ac16 Ge16'
_cell_volume   1074.39020998
_cell_formula_units_Z   4
loop_
 _symmetry_equiv_pos_site_id
 _symmetry_equiv_pos_as_xyz
  1  'x, y, z'
loop_
 _atom_site_type_symbol
 _atom_site_label
 _atom_site_symmetry_multiplicity
 _atom_site_fract_x
 _atom_site_fract_y
 _atom_site_fract_z
 _atom_site_occupancy
  Li  Li0  1  0.665364  0.964015  0.750000  1
  Li  Li1  1  0.165364  0.535985  0.750000  1
  Li  Li2  1  0.334636  0.035985  0.250000  1
  Li  Li3  1  0.834636  0.464015  0.250000  1
  Ac  Ac4  1  0.524853  0.308796  0.102418  1
  Ac  Ac5  1  0.024853  0.191204  0.397582  1
  Ac  Ac6  1  0.475147  0.691204  0.602418  1
  Ac  Ac7  1  0.975147  0.808796  0.897582  1
  Ac  Ac8  1  0.475147  0.691204  0.897582  1
  Ac  Ac9  1  0.975147  0.808796  0.602418  1
  Ac  Ac10  1  0.524853  0.308796  0.397582  1
  Ac  Ac11  1  0.024853  0.191204  0.102418  1
  Ac  Ac12  1  0.824768  0.321094  0.628515  1
  Ac  Ac13  1  0.324768  0.178906  0.871485  1
  Ac  Ac14  1  0.175232  0.678906  0.128515  1
  Ac  Ac15  1  0.675232  0.821094  0.371485  1
  Ac  Ac16  1  0.175232  0.678906  0.371485  1
  Ac  Ac17  1  0.675232  0.821094  0.128515  1
  Ac  Ac18  1  0.824768  0.321094  0.871485  1
  Ac  Ac19  1  0.324768  0.178906  0.628515  1
  Ge  Ge20  1  0.653588  0.031088  0.535208  1
  Ge  Ge21  1  0.153588  0.468912  0.964792  1
  Ge  Ge22  1  0.346412  0.968912  0.035208  1
  Ge  Ge23  1  0.846412  0.531088  0.464792  1
  Ge  Ge24  1  0.346412  0.968912  0.464792  1
  Ge  Ge25  1  0.846412  0.531088  0.035208  1
  Ge  Ge26  1  0.653588  0.031088  0.964792  1
  Ge  Ge27  1  0.153588  0.468912  0.535208  1
  Ge  Ge28  1  0.513848  0.426011  0.750000  1
  Ge  Ge29  1  0.013848  0.073989  0.750000  1
  Ge  Ge30  1  0.486152  0.573989  0.250000  1
  Ge  Ge31  1  0.986152  0.926011  0.250000  1
  Ge  Ge32  1  0.765822  0.631683  0.750000  1
  Ge  Ge33  1  0.265822  0.868317  0.750000  1
  Ge  Ge34  1  0.234178  0.368317  0.250000  1
  Ge  Ge35  1  0.734178  0.131683  0.250000  1
