# generated using pymatgen
data_Y4ErP12Pd2Ru17
_symmetry_space_group_name_H-M   'P 1'
_cell_length_a   12.65310402
_cell_length_b   12.54534664
_cell_length_c   3.97538400
_cell_angle_alpha   90.00000000
_cell_angle_beta   90.00000000
_cell_angle_gamma   120.29038529
_symmetry_Int_Tables_number   1
_chemical_formula_structural   Y4ErP12Pd2Ru17
_chemical_formula_sum   'Y4 Er1 P12 Pd2 Ru17'
_cell_volume   544.89298174
_cell_formula_units_Z   1
loop_
 _symmetry_equiv_pos_site_id
 _symmetry_equiv_pos_as_xyz
  1  'x, y, z'
loop_
 _atom_site_type_symbol
 _atom_site_label
 _atom_site_symmetry_multiplicity
 _atom_site_fract_x
 _atom_site_fract_y
 _atom_site_fract_z
 _atom_site_occupancy
  Y  Y0  1  0.000769  0.182416  0.500000  1
  Y  Y1  1  0.818370  0.817581  0.500000  1
  Y  Y2  1  0.183426  0.000023  0.500000  1
  Y  Y3  1  0.336393  0.672409  0.000000  1
  Er  Er4  1  0.664020  0.327434  0.000000  1
  P  P5  1  0.997960  0.811813  0.000000  1
  P  P6  1  0.186285  0.188066  0.000000  1
  P  P7  1  0.817893  0.000126  0.000000  1
  P  P8  1  0.692624  0.170127  0.500000  1
  P  P9  1  0.817734  0.516313  0.500000  1
  P  P10  1  0.477675  0.299945  0.500000  1
  P  P11  1  0.177209  0.700289  0.500000  1
  P  P12  1  0.523149  0.830452  0.500000  1
  P  P13  1  0.301259  0.482890  0.500000  1
  P  P14  1  0.000599  0.366454  0.000000  1
  P  P15  1  0.634072  0.633608  0.000000  1
  P  P16  1  0.374233  0.999974  0.000000  1
  Pd  Pd17  1  0.998965  0.552072  0.000000  1
  Pd  Pd18  1  0.446927  0.447865  0.000000  1
  Ru  Ru19  1  0.555541  0.000068  0.000000  1
  Ru  Ru20  1  0.997616  0.711465  0.500000  1
  Ru  Ru21  1  0.286365  0.288298  0.500000  1
  Ru  Ru22  1  0.718333  0.000281  0.500000  1
  Ru  Ru23  1  0.808383  0.185141  0.000000  1
  Ru  Ru24  1  0.812206  0.617559  0.000000  1
  Ru  Ru25  1  0.376720  0.191912  0.000000  1
  Ru  Ru26  1  0.184387  0.808284  0.000000  1
  Ru  Ru27  1  0.623861  0.815286  0.000000  1
  Ru  Ru28  1  0.194420  0.381780  0.000000  1
  Ru  Ru29  1  0.870795  0.365045  0.500000  1
  Ru  Ru30  1  0.629716  0.506512  0.500000  1
  Ru  Ru31  1  0.492585  0.124653  0.500000  1
  Ru  Ru32  1  0.367947  0.876292  0.500000  1
  Ru  Ru33  1  0.506651  0.634898  0.500000  1
  Ru  Ru34  1  0.122403  0.492660  0.500000  1
  Ru  Ru35  1  0.002510  0.000010  0.000000  1
