# generated using pymatgen
data_Ba4NiRhO8
_symmetry_space_group_name_H-M   'P 1'
_cell_length_a   5.71846206
_cell_length_b   5.71846181
_cell_length_c   13.74776100
_cell_angle_alpha   101.99011475
_cell_angle_beta   101.99011423
_cell_angle_gamma   89.99632866
_symmetry_Int_Tables_number   1
_chemical_formula_structural   Ba4NiRhO8
_chemical_formula_sum   'Ba8 Ni2 Rh2 O16'
_cell_volume   429.72456798
_cell_formula_units_Z   2
loop_
 _symmetry_equiv_pos_site_id
 _symmetry_equiv_pos_as_xyz
  1  'x, y, z'
loop_
 _atom_site_type_symbol
 _atom_site_label
 _atom_site_symmetry_multiplicity
 _atom_site_fract_x
 _atom_site_fract_y
 _atom_site_fract_z
 _atom_site_occupancy
  Ba  Ba0  1  0.822658  0.822992  0.645718  1
  Ba  Ba1  1  0.072992  0.572658  0.145718  1
  Ba  Ba2  1  0.177019  0.177288  0.354213  1
  Ba  Ba3  1  0.427288  0.927019  0.854213  1
  Ba  Ba4  1  0.321161  0.320923  0.643128  1
  Ba  Ba5  1  0.570923  0.071161  0.143128  1
  Ba  Ba6  1  0.678848  0.678770  0.356822  1
  Ba  Ba7  1  0.928770  0.428848  0.856822  1
  Ni  Ni8  1  0.999849  0.000558  0.000150  1
  Ni  Ni9  1  0.250558  0.749849  0.500150  1
  Rh  Rh10  1  0.500352  0.500000  0.000048  1
  Rh  Rh11  1  0.750000  0.250352  0.500048  1
  O  O12  1  0.990914  0.490352  0.499959  1
  O  O13  1  0.921078  0.922036  0.843147  1
  O  O14  1  0.078709  0.077550  0.157007  1
  O  O15  1  0.172036  0.671078  0.343147  1
  O  O16  1  0.327550  0.828709  0.657007  1
  O  O17  1  0.258994  0.739959  0.999773  1
  O  O18  1  0.260014  0.258758  0.999904  1
  O  O19  1  0.508758  0.010014  0.499904  1
  O  O20  1  0.509940  0.491248  0.500246  1
  O  O21  1  0.423389  0.422699  0.845177  1
  O  O22  1  0.576580  0.577364  0.154706  1
  O  O23  1  0.672699  0.173389  0.345177  1
  O  O24  1  0.827364  0.326580  0.654706  1
  O  O25  1  0.740352  0.740914  0.999959  1
  O  O26  1  0.741248  0.259940  0.000246  1
  O  O27  1  0.989959  0.008994  0.499773  1
