# generated using pymatgen
data_Tb2U(GaPt)3
_symmetry_space_group_name_H-M   'P 1'
_cell_length_a   7.30014983
_cell_length_b   7.30015040
_cell_length_c   3.89121000
_cell_angle_alpha   90.00000000
_cell_angle_beta   90.00000000
_cell_angle_gamma   120.17819497
_symmetry_Int_Tables_number   1
_chemical_formula_structural   Tb2U(GaPt)3
_chemical_formula_sum   'Tb2 U1 Ga3 Pt3'
_cell_volume   179.26530922
_cell_formula_units_Z   1
loop_
 _symmetry_equiv_pos_site_id
 _symmetry_equiv_pos_as_xyz
  1  'x, y, z'
loop_
 _atom_site_type_symbol
 _atom_site_label
 _atom_site_symmetry_multiplicity
 _atom_site_fract_x
 _atom_site_fract_y
 _atom_site_fract_z
 _atom_site_occupancy
  Tb  Tb0  1  0.408178  0.000007  0.500000  1
  Tb  Tb1  1  0.000007  0.408178  0.500000  1
  U  U2  1  0.585434  0.585434  0.500000  1
  Ga  Ga3  1  0.750023  0.010887  0.000000  1
  Ga  Ga4  1  0.010887  0.750023  0.000000  1
  Ga  Ga5  1  0.241267  0.241267  0.000000  1
  Pt  Pt6  1  0.354943  0.664815  0.000000  1
  Pt  Pt7  1  0.664815  0.354943  0.000000  1
  Pt  Pt8  1  0.984446  0.984446  0.500000  1
