# generated using pymatgen
data_Co3Ni(BrO3)8
_symmetry_space_group_name_H-M   'P 1'
_cell_length_a   5.70561102
_cell_length_b   10.54481066
_cell_length_c   10.58608211
_cell_angle_alpha   119.08861100
_cell_angle_beta   90.06629127
_cell_angle_gamma   90.03954361
_symmetry_Int_Tables_number   1
_chemical_formula_structural   Co3Ni(BrO3)8
_chemical_formula_sum   'Co3 Ni1 Br8 O24'
_cell_volume   556.57249474
_cell_formula_units_Z   1
loop_
 _symmetry_equiv_pos_site_id
 _symmetry_equiv_pos_as_xyz
  1  'x, y, z'
loop_
 _atom_site_type_symbol
 _atom_site_label
 _atom_site_symmetry_multiplicity
 _atom_site_fract_x
 _atom_site_fract_y
 _atom_site_fract_z
 _atom_site_occupancy
  Co  Co0  1  0.639945  0.237535  0.493177  1
  Co  Co1  1  0.140206  0.262168  0.006617  1
  Co  Co2  1  0.638501  0.737695  0.993677  1
  Ni  Ni3  1  0.141786  0.761278  0.506671  1
  Br  Br4  1  0.260304  0.417328  0.350018  1
  Br  Br5  1  0.761748  0.585025  0.649807  1
  Br  Br6  1  0.259526  0.914631  0.847400  1
  Br  Br7  1  0.757375  0.084860  0.149561  1
  Br  Br8  1  0.788760  0.084558  0.688001  1
  Br  Br9  1  0.287296  0.912737  0.312231  1
  Br  Br10  1  0.288144  0.412516  0.809335  1
  Br  Br11  1  0.788598  0.588463  0.192230  1
  O  O12  1  0.429655  0.883866  0.960830  1
  O  O13  1  0.930787  0.114592  0.036800  1
  O  O14  1  0.367923  0.802939  0.679763  1
  O  O15  1  0.861840  0.198885  0.317702  1
  O  O16  1  0.365513  0.303779  0.181994  1
  O  O17  1  0.864726  0.698489  0.818364  1
  O  O18  1  0.933726  0.225374  0.824894  1
  O  O19  1  0.430821  0.772601  0.174486  1
  O  O20  1  0.930809  0.931412  0.658074  1
  O  O21  1  0.428483  0.066698  0.341635  1
  O  O22  1  0.352902  0.080998  0.879884  1
  O  O23  1  0.849249  0.919350  0.120194  1
  O  O24  1  0.434426  0.271856  0.673726  1
  O  O25  1  0.936230  0.728591  0.327665  1
  O  O26  1  0.347432  0.396093  0.958028  1
  O  O27  1  0.847926  0.605723  0.044040  1
  O  O28  1  0.431078  0.566161  0.839797  1
  O  O29  1  0.931445  0.434931  0.161482  1
  O  O30  1  0.356200  0.583287  0.382137  1
  O  O31  1  0.852098  0.418941  0.619766  1
  O  O32  1  0.431570  0.386269  0.462812  1
  O  O33  1  0.938405  0.613888  0.538173  1
  O  O34  1  0.849706  0.102697  0.540480  1
  O  O35  1  0.354458  0.893789  0.458550  1
