# generated using pymatgen
data_Y2Tm10IrOs3
_symmetry_space_group_name_H-M   'P 1'
_cell_length_a   6.27915536
_cell_length_b   7.33075230
_cell_length_c   8.92548400
_cell_angle_alpha   90.00000000
_cell_angle_beta   90.00000000
_cell_angle_gamma   89.99690582
_symmetry_Int_Tables_number   1
_chemical_formula_structural   Y2Tm10IrOs3
_chemical_formula_sum   'Y2 Tm10 Ir1 Os3'
_cell_volume   410.84835182
_cell_formula_units_Z   1
loop_
 _symmetry_equiv_pos_site_id
 _symmetry_equiv_pos_as_xyz
  1  'x, y, z'
loop_
 _atom_site_type_symbol
 _atom_site_label
 _atom_site_symmetry_multiplicity
 _atom_site_fract_x
 _atom_site_fract_y
 _atom_site_fract_z
 _atom_site_occupancy
  Y  Y0  1  0.872791  0.537339  0.250000  1
  Y  Y1  1  0.627492  0.038487  0.250000  1
  Tm  Tm2  1  0.332527  0.673247  0.060578  1
  Tm  Tm3  1  0.169221  0.176500  0.439603  1
  Tm  Tm4  1  0.669015  0.325014  0.564046  1
  Tm  Tm5  1  0.828505  0.824490  0.934128  1
  Tm  Tm6  1  0.669015  0.325014  0.935954  1
  Tm  Tm7  1  0.828505  0.824490  0.565872  1
  Tm  Tm8  1  0.332527  0.673247  0.439422  1
  Tm  Tm9  1  0.169221  0.176500  0.060397  1
  Tm  Tm10  1  0.128864  0.461053  0.750000  1
  Tm  Tm11  1  0.370191  0.960866  0.750000  1
  Ir  Ir12  1  0.046559  0.885056  0.250000  1
  Os  Os13  1  0.455519  0.383953  0.250000  1
  Os  Os14  1  0.963821  0.116971  0.750000  1
  Os  Os15  1  0.536225  0.617777  0.750000  1
