# generated using pymatgen
data_Pu4TcB16Os3
_symmetry_space_group_name_H-M   'P 1'
_cell_length_a   3.54505700
_cell_length_b   5.99367113
_cell_length_c   11.59318826
_cell_angle_alpha   89.97588173
_cell_angle_beta   90.00000000
_cell_angle_gamma   90.00000000
_symmetry_Int_Tables_number   1
_chemical_formula_structural   Pu4TcB16Os3
_chemical_formula_sum   'Pu4 Tc1 B16 Os3'
_cell_volume   246.33095023
_cell_formula_units_Z   1
loop_
 _symmetry_equiv_pos_site_id
 _symmetry_equiv_pos_as_xyz
  1  'x, y, z'
loop_
 _atom_site_type_symbol
 _atom_site_label
 _atom_site_symmetry_multiplicity
 _atom_site_fract_x
 _atom_site_fract_y
 _atom_site_fract_z
 _atom_site_occupancy
  Pu  Pu0  1  0.000000  0.627235  0.350461  1
  Pu  Pu1  1  0.000000  0.373091  0.649929  1
  Pu  Pu2  1  0.000000  0.127192  0.149894  1
  Pu  Pu3  1  0.000000  0.872924  0.849443  1
  Tc  Tc4  1  0.000000  0.863104  0.591362  1
  B  B5  1  0.500000  0.787406  0.186677  1
  B  B6  1  0.500000  0.213095  0.813129  1
  B  B7  1  0.500000  0.286881  0.313415  1
  B  B8  1  0.500000  0.712389  0.687049  1
  B  B9  1  0.500000  0.864726  0.030984  1
  B  B10  1  0.500000  0.135375  0.968501  1
  B  B11  1  0.500000  0.364519  0.468765  1
  B  B12  1  0.500000  0.634798  0.531497  1
  B  B13  1  0.500000  0.886053  0.453622  1
  B  B14  1  0.500000  0.114009  0.546944  1
  B  B15  1  0.500000  0.386090  0.046789  1
  B  B16  1  0.500000  0.613931  0.952866  1
  B  B17  1  0.500000  0.973314  0.308549  1
  B  B18  1  0.500000  0.026643  0.692014  1
  B  B19  1  0.500000  0.472654  0.191699  1
  B  B20  1  0.500000  0.526679  0.808111  1
  Os  Os21  1  0.000000  0.638708  0.092540  1
  Os  Os22  1  0.000000  0.361712  0.907781  1
  Os  Os23  1  0.000000  0.137471  0.407980  1
