# generated using pymatgen
data_Y19ErBiPb15
_symmetry_space_group_name_H-M   'P 1'
_cell_length_a   8.24527288
_cell_length_b   8.29463428
_cell_length_c   15.65741446
_cell_angle_alpha   90.04974492
_cell_angle_beta   90.26578992
_cell_angle_gamma   90.19943786
_symmetry_Int_Tables_number   1
_chemical_formula_structural   Y19ErBiPb15
_chemical_formula_sum   'Y19 Er1 Bi1 Pb15'
_cell_volume   1070.81599477
_cell_formula_units_Z   1
loop_
 _symmetry_equiv_pos_site_id
 _symmetry_equiv_pos_as_xyz
  1  'x, y, z'
loop_
 _atom_site_type_symbol
 _atom_site_label
 _atom_site_symmetry_multiplicity
 _atom_site_fract_x
 _atom_site_fract_y
 _atom_site_fract_z
 _atom_site_occupancy
  Y  Y0  1  0.379742  0.840464  0.879093  1
  Y  Y1  1  0.877600  0.658401  0.621150  1
  Y  Y2  1  0.622741  0.157661  0.378386  1
  Y  Y3  1  0.120810  0.344362  0.121177  1
  Y  Y4  1  0.623853  0.158373  0.120860  1
  Y  Y5  1  0.123384  0.341987  0.378399  1
  Y  Y6  1  0.376847  0.842495  0.620892  1
  Y  Y7  1  0.878393  0.658240  0.879098  1
  Y  Y8  1  0.542727  0.330045  0.897217  1
  Y  Y9  1  0.037594  0.174068  0.600345  1
  Y  Y10  1  0.462229  0.674278  0.399259  1
  Y  Y11  1  0.955935  0.824590  0.102800  1
  Y  Y12  1  0.460418  0.670207  0.101659  1
  Y  Y13  1  0.962646  0.825936  0.399252  1
  Y  Y14  1  0.536917  0.325044  0.600457  1
  Y  Y15  1  0.036890  0.175823  0.897974  1
  Y  Y16  1  0.209699  0.503101  0.749582  1
  Y  Y17  1  0.709779  0.997115  0.749890  1
  Y  Y18  1  0.790331  0.497052  0.250768  1
  Er  Er19  1  0.290189  0.002990  0.252265  1
  Bi  Bi20  1  0.277402  0.028721  0.045082  1
  Pb  Pb21  1  0.780663  0.466869  0.456931  1
  Pb  Pb22  1  0.719412  0.966284  0.542583  1
  Pb  Pb23  1  0.220925  0.529950  0.956678  1
  Pb  Pb24  1  0.721941  0.969156  0.957038  1
  Pb  Pb25  1  0.218781  0.533490  0.542972  1
  Pb  Pb26  1  0.281242  0.033147  0.456635  1
  Pb  Pb27  1  0.779925  0.468288  0.043172  1
  Pb  Pb28  1  0.572428  0.626686  0.749652  1
  Pb  Pb29  1  0.072985  0.874645  0.751199  1
  Pb  Pb30  1  0.428156  0.372392  0.249053  1
  Pb  Pb31  1  0.929216  0.125720  0.248956  1
  Pb  Pb32  1  0.350676  0.152988  0.750028  1
  Pb  Pb33  1  0.850473  0.347472  0.748980  1
  Pb  Pb34  1  0.647334  0.847134  0.250011  1
  Pb  Pb35  1  0.149715  0.654827  0.250509  1
