# generated using pymatgen
data_Pr3Nd2CoPd2
_symmetry_space_group_name_H-M   'P 1'
_cell_length_a   8.64359800
_cell_length_b   8.31398000
_cell_length_c   12.02931100
_cell_angle_alpha   90.00000000
_cell_angle_beta   90.00000000
_cell_angle_gamma   90.00000000
_symmetry_Int_Tables_number   1
_chemical_formula_structural   Pr3Nd2CoPd2
_chemical_formula_sum   'Pr12 Nd8 Co4 Pd8'
_cell_volume   864.45877843
_cell_formula_units_Z   4
loop_
 _symmetry_equiv_pos_site_id
 _symmetry_equiv_pos_as_xyz
  1  'x, y, z'
loop_
 _atom_site_type_symbol
 _atom_site_label
 _atom_site_symmetry_multiplicity
 _atom_site_fract_x
 _atom_site_fract_y
 _atom_site_fract_z
 _atom_site_occupancy
  Pr  Pr0  1  0.834330  0.750000  0.794143  1
  Pr  Pr1  1  0.165670  0.250000  0.205857  1
  Pr  Pr2  1  0.334330  0.250000  0.705857  1
  Pr  Pr3  1  0.665670  0.750000  0.294143  1
  Pr  Pr4  1  0.376155  0.750000  0.694660  1
  Pr  Pr5  1  0.623845  0.250000  0.305340  1
  Pr  Pr6  1  0.876155  0.250000  0.805340  1
  Pr  Pr7  1  0.123845  0.750000  0.194660  1
  Pr  Pr8  1  0.964824  0.750000  0.495245  1
  Pr  Pr9  1  0.035176  0.250000  0.504755  1
  Pr  Pr10  1  0.464824  0.250000  0.004755  1
  Pr  Pr11  1  0.535176  0.750000  0.995245  1
  Nd  Nd12  1  0.670980  0.034732  0.582447  1
  Nd  Nd13  1  0.329020  0.965268  0.417553  1
  Nd  Nd14  1  0.170980  0.965268  0.917553  1
  Nd  Nd15  1  0.329020  0.534732  0.417553  1
  Nd  Nd16  1  0.829020  0.034732  0.082447  1
  Nd  Nd17  1  0.670980  0.465268  0.582447  1
  Nd  Nd18  1  0.829020  0.465268  0.082447  1
  Nd  Nd19  1  0.170980  0.534732  0.917553  1
  Co  Co20  1  0.561378  0.750000  0.509219  1
  Co  Co21  1  0.438622  0.250000  0.490781  1
  Co  Co22  1  0.061378  0.250000  0.990781  1
  Co  Co23  1  0.938622  0.750000  0.009219  1
  Pd  Pd24  1  0.562031  0.476652  0.825313  1
  Pd  Pd25  1  0.437969  0.523348  0.174687  1
  Pd  Pd26  1  0.062031  0.523348  0.674687  1
  Pd  Pd27  1  0.437969  0.976652  0.174687  1
  Pd  Pd28  1  0.937969  0.476652  0.325313  1
  Pd  Pd29  1  0.562031  0.023348  0.825313  1
  Pd  Pd30  1  0.937969  0.023348  0.325313  1
  Pd  Pd31  1  0.062031  0.976652  0.674687  1
