# generated using pymatgen
data_LiYb20Cd3Ag8
_symmetry_space_group_name_H-M   'P 1'
_cell_length_a   8.09774900
_cell_length_b   8.09774900
_cell_length_c   14.62671000
_cell_angle_alpha   90.00000000
_cell_angle_beta   90.00000000
_cell_angle_gamma   90.00000000
_symmetry_Int_Tables_number   1
_chemical_formula_structural   LiYb20Cd3Ag8
_chemical_formula_sum   'Li1 Yb20 Cd3 Ag8'
_cell_volume   959.12513668
_cell_formula_units_Z   1
loop_
 _symmetry_equiv_pos_site_id
 _symmetry_equiv_pos_as_xyz
  1  'x, y, z'
loop_
 _atom_site_type_symbol
 _atom_site_label
 _atom_site_symmetry_multiplicity
 _atom_site_fract_x
 _atom_site_fract_y
 _atom_site_fract_z
 _atom_site_occupancy
  Li  Li0  1  0.500000  0.500000  0.000000  1
  Yb  Yb1  1  0.000000  0.000000  0.750639  1
  Yb  Yb2  1  0.500000  0.500000  0.251573  1
  Yb  Yb3  1  0.000000  0.000000  0.249361  1
  Yb  Yb4  1  0.500000  0.500000  0.748427  1
  Yb  Yb5  1  0.161756  0.668471  0.109390  1
  Yb  Yb6  1  0.667084  0.164913  0.609134  1
  Yb  Yb7  1  0.838244  0.331529  0.109390  1
  Yb  Yb8  1  0.332916  0.835087  0.609134  1
  Yb  Yb9  1  0.331529  0.161756  0.109390  1
  Yb  Yb10  1  0.835087  0.667084  0.609134  1
  Yb  Yb11  1  0.668471  0.838244  0.109390  1
  Yb  Yb12  1  0.164913  0.332916  0.609134  1
  Yb  Yb13  1  0.331529  0.838244  0.890610  1
  Yb  Yb14  1  0.835087  0.332916  0.390866  1
  Yb  Yb15  1  0.668471  0.161756  0.890610  1
  Yb  Yb16  1  0.164913  0.667084  0.390866  1
  Yb  Yb17  1  0.161756  0.331529  0.890610  1
  Yb  Yb18  1  0.667084  0.835087  0.390866  1
  Yb  Yb19  1  0.838244  0.668471  0.890610  1
  Yb  Yb20  1  0.332916  0.164913  0.390866  1
  Cd  Cd21  1  0.000000  0.000000  0.500000  1
  Cd  Cd22  1  0.000000  0.000000  0.000000  1
  Cd  Cd23  1  0.500000  0.500000  0.500000  1
  Ag  Ag24  1  0.627796  0.128964  0.250005  1
  Ag  Ag25  1  0.128964  0.627796  0.749995  1
  Ag  Ag26  1  0.871036  0.372204  0.749995  1
  Ag  Ag27  1  0.372204  0.871036  0.250005  1
  Ag  Ag28  1  0.372204  0.128964  0.749995  1
  Ag  Ag29  1  0.871036  0.627796  0.250005  1
  Ag  Ag30  1  0.128964  0.372204  0.250005  1
  Ag  Ag31  1  0.627796  0.871036  0.749995  1
