# generated using pymatgen
data_AcCrTeO6
_symmetry_space_group_name_H-M   'P 1'
_cell_length_a   5.27664202
_cell_length_b   9.13899619
_cell_length_c   10.78324200
_cell_angle_alpha   89.99450917
_cell_angle_beta   90.00517548
_cell_angle_gamma   90.01333682
_symmetry_Int_Tables_number   1
_chemical_formula_structural   AcCrTeO6
_chemical_formula_sum   'Ac4 Cr4 Te4 O24'
_cell_volume   520.00253907
_cell_formula_units_Z   4
loop_
 _symmetry_equiv_pos_site_id
 _symmetry_equiv_pos_as_xyz
  1  'x, y, z'
loop_
 _atom_site_type_symbol
 _atom_site_label
 _atom_site_symmetry_multiplicity
 _atom_site_fract_x
 _atom_site_fract_y
 _atom_site_fract_z
 _atom_site_occupancy
  Ac  Ac0  1  0.000000  0.000000  0.500000  1
  Ac  Ac1  1  0.500000  0.500000  0.500000  1
  Ac  Ac2  1  0.000000  0.000000  0.000000  1
  Ac  Ac3  1  0.500000  0.500000  0.000000  1
  Cr  Cr4  1  0.500202  0.833237  0.749937  1
  Cr  Cr5  1  0.499798  0.166763  0.250063  1
  Cr  Cr6  1  0.000202  0.333237  0.749937  1
  Cr  Cr7  1  0.999798  0.666763  0.250063  1
  Te  Te8  1  0.500191  0.166597  0.750029  1
  Te  Te9  1  0.000191  0.666597  0.750029  1
  Te  Te10  1  0.999809  0.333403  0.249971  1
  Te  Te11  1  0.499809  0.833403  0.249971  1
  O  O12  1  0.624214  0.004956  0.647384  1
  O  O13  1  0.124214  0.504956  0.647384  1
  O  O14  1  0.680540  0.309573  0.647419  1
  O  O15  1  0.180540  0.809573  0.647419  1
  O  O16  1  0.195414  0.185399  0.647373  1
  O  O17  1  0.695414  0.685399  0.647373  1
  O  O18  1  0.180394  0.190435  0.147444  1
  O  O19  1  0.680394  0.690435  0.147444  1
  O  O20  1  0.124029  0.495072  0.147459  1
  O  O21  1  0.624029  0.995072  0.147459  1
  O  O22  1  0.695221  0.314573  0.147435  1
  O  O23  1  0.195221  0.814573  0.147435  1
  O  O24  1  0.875786  0.495044  0.352616  1
  O  O25  1  0.375786  0.995044  0.352616  1
  O  O26  1  0.819460  0.190427  0.352581  1
  O  O27  1  0.319460  0.690427  0.352581  1
  O  O28  1  0.304586  0.314601  0.352627  1
  O  O29  1  0.804586  0.814601  0.352627  1
  O  O30  1  0.319606  0.309565  0.852556  1
  O  O31  1  0.819606  0.809565  0.852556  1
  O  O32  1  0.375971  0.004928  0.852541  1
  O  O33  1  0.875971  0.504928  0.852541  1
  O  O34  1  0.804779  0.185427  0.852565  1
  O  O35  1  0.304779  0.685427  0.852565  1
