# generated using pymatgen
data_BiCl15
_symmetry_space_group_name_H-M   'P 1'
_cell_length_a   8.91746110
_cell_length_b   12.82246035
_cell_length_c   14.86027158
_cell_angle_alpha   70.83772972
_cell_angle_beta   124.05619607
_cell_angle_gamma   110.90675581
_symmetry_Int_Tables_number   1
_chemical_formula_structural   BiCl15
_chemical_formula_sum   'Bi2 Cl30'
_cell_volume   1296.84185915
_cell_formula_units_Z   2
loop_
 _symmetry_equiv_pos_site_id
 _symmetry_equiv_pos_as_xyz
  1  'x, y, z'
loop_
 _atom_site_type_symbol
 _atom_site_label
 _atom_site_symmetry_multiplicity
 _atom_site_fract_x
 _atom_site_fract_y
 _atom_site_fract_z
 _atom_site_occupancy
  Bi  Bi0  1  0.128910  0.149910  0.913939  1
  Bi  Bi1  1  0.871090  0.850090  0.086061  1
  Cl  Cl2  1  0.138368  0.340819  0.933761  1
  Cl  Cl3  1  0.861632  0.659181  0.066239  1
  Cl  Cl4  1  0.154224  0.925292  0.041627  1
  Cl  Cl5  1  0.845776  0.074708  0.958373  1
  Cl  Cl6  1  0.140815  0.694246  0.288963  1
  Cl  Cl7  1  0.859185  0.305754  0.711037  1
  Cl  Cl8  1  0.336885  0.732042  0.441532  1
  Cl  Cl9  1  0.663115  0.267958  0.558468  1
  Cl  Cl10  1  0.202099  0.599997  0.687367  1
  Cl  Cl11  1  0.797901  0.400003  0.312633  1
  Cl  Cl12  1  0.015103  0.361330  0.459832  1
  Cl  Cl13  1  0.984897  0.638670  0.540168  1
  Cl  Cl14  1  0.409429  0.235330  0.828264  1
  Cl  Cl15  1  0.590571  0.764670  0.171736  1
  Cl  Cl16  1  0.288718  0.984881  0.523808  1
  Cl  Cl17  1  0.711282  0.015119  0.476192  1
  Cl  Cl18  1  0.287659  0.427168  0.299038  1
  Cl  Cl19  1  0.712341  0.572832  0.700962  1
  Cl  Cl20  1  0.034857  0.919474  0.679479  1
  Cl  Cl21  1  0.965143  0.080526  0.320521  1
  Cl  Cl22  1  0.749414  0.601788  0.837385  1
  Cl  Cl23  1  0.250586  0.398212  0.162615  1
  Cl  Cl24  1  0.653752  0.740817  0.330861  1
  Cl  Cl25  1  0.346248  0.259183  0.669139  1
  Cl  Cl26  1  0.488556  0.921064  0.667289  1
  Cl  Cl27  1  0.511444  0.078936  0.332711  1
  Cl  Cl28  1  0.067866  0.914231  0.827187  1
  Cl  Cl29  1  0.932134  0.085769  0.172813  1
  Cl  Cl30  1  0.526076  0.815922  0.952054  1
  Cl  Cl31  1  0.473924  0.184078  0.047946  1
