# generated using pymatgen
data_Er5Ni16(As4Pd)3
_symmetry_space_group_name_H-M   'P 1'
_cell_length_a   12.61269600
_cell_length_b   12.61269637
_cell_length_c   3.88266400
_cell_angle_alpha   90.00000000
_cell_angle_beta   90.00000000
_cell_angle_gamma   120.00000427
_symmetry_Int_Tables_number   1
_chemical_formula_structural   Er5Ni16(As4Pd)3
_chemical_formula_sum   'Er5 Ni16 As12 Pd3'
_cell_volume   534.90454893
_cell_formula_units_Z   1
loop_
 _symmetry_equiv_pos_site_id
 _symmetry_equiv_pos_as_xyz
  1  'x, y, z'
loop_
 _atom_site_type_symbol
 _atom_site_label
 _atom_site_symmetry_multiplicity
 _atom_site_fract_x
 _atom_site_fract_y
 _atom_site_fract_z
 _atom_site_occupancy
  Er  Er0  1  0.184583  0.184583  0.500000  1
  Er  Er1  1  0.815417  0.000000  0.500000  1
  Er  Er2  1  0.000000  0.815417  0.500000  1
  Er  Er3  1  0.333333  0.666667  0.000000  1
  Er  Er4  1  0.666667  0.333333  0.000000  1
  Ni  Ni5  1  0.716635  0.716635  0.500000  1
  Ni  Ni6  1  0.283365  0.000000  0.500000  1
  Ni  Ni7  1  0.000000  0.283365  0.500000  1
  Ni  Ni8  1  0.182779  0.377885  0.000000  1
  Ni  Ni9  1  0.622115  0.804895  0.000000  1
  Ni  Ni10  1  0.195105  0.817221  0.000000  1
  Ni  Ni11  1  0.804895  0.622115  0.000000  1
  Ni  Ni12  1  0.817221  0.195105  0.000000  1
  Ni  Ni13  1  0.377885  0.182779  0.000000  1
  Ni  Ni14  1  0.359530  0.482954  0.500000  1
  Ni  Ni15  1  0.517046  0.876576  0.500000  1
  Ni  Ni16  1  0.123424  0.640470  0.500000  1
  Ni  Ni17  1  0.876576  0.517046  0.500000  1
  Ni  Ni18  1  0.640470  0.123424  0.500000  1
  Ni  Ni19  1  0.482954  0.359530  0.500000  1
  Ni  Ni20  1  0.000000  0.000000  0.000000  1
  As  As21  1  0.822362  0.822362  0.000000  1
  As  As22  1  0.177638  0.000000  0.000000  1
  As  As23  1  0.000000  0.177638  0.000000  1
  As  As24  1  0.171739  0.481826  0.500000  1
  As  As25  1  0.518174  0.689915  0.500000  1
  As  As26  1  0.310085  0.828261  0.500000  1
  As  As27  1  0.689915  0.518174  0.500000  1
  As  As28  1  0.828261  0.310085  0.500000  1
  As  As29  1  0.481826  0.171739  0.500000  1
  As  As30  1  0.359689  0.359689  0.000000  1
  As  As31  1  0.640311  0.000000  0.000000  1
  As  As32  1  0.000000  0.640311  0.000000  1
  Pd  Pd33  1  0.556767  0.556767  0.000000  1
  Pd  Pd34  1  0.443233  0.000000  0.000000  1
  Pd  Pd35  1  0.000000  0.443233  0.000000  1
