# generated using pymatgen
data_Tm20CoBi8Ru3
_symmetry_space_group_name_H-M   'P 1'
_cell_length_a   7.88648573
_cell_length_b   8.94805700
_cell_length_c   12.32370613
_cell_angle_alpha   90.00000000
_cell_angle_beta   90.20216547
_cell_angle_gamma   90.00000000
_symmetry_Int_Tables_number   1
_chemical_formula_structural   Tm20CoBi8Ru3
_chemical_formula_sum   'Tm20 Co1 Bi8 Ru3'
_cell_volume   869.66280110
_cell_formula_units_Z   1
loop_
 _symmetry_equiv_pos_site_id
 _symmetry_equiv_pos_as_xyz
  1  'x, y, z'
loop_
 _atom_site_type_symbol
 _atom_site_label
 _atom_site_symmetry_multiplicity
 _atom_site_fract_x
 _atom_site_fract_y
 _atom_site_fract_z
 _atom_site_occupancy
  Tm  Tm0  1  0.843416  0.750000  0.798227  1
  Tm  Tm1  1  0.158474  0.250000  0.207181  1
  Tm  Tm2  1  0.341285  0.250000  0.708014  1
  Tm  Tm3  1  0.656787  0.750000  0.293937  1
  Tm  Tm4  1  0.379229  0.750000  0.692000  1
  Tm  Tm5  1  0.620488  0.250000  0.308907  1
  Tm  Tm6  1  0.878871  0.250000  0.809443  1
  Tm  Tm7  1  0.117205  0.750000  0.186083  1
  Tm  Tm8  1  0.942795  0.750000  0.504567  1
  Tm  Tm9  1  0.056386  0.250000  0.496193  1
  Tm  Tm10  1  0.444872  0.250000  0.996678  1
  Tm  Tm11  1  0.557941  0.750000  0.002975  1
  Tm  Tm12  1  0.673636  0.043098  0.564451  1
  Tm  Tm13  1  0.324956  0.956097  0.435434  1
  Tm  Tm14  1  0.174337  0.955299  0.935897  1
  Tm  Tm15  1  0.324956  0.543903  0.435434  1
  Tm  Tm16  1  0.827304  0.038533  0.063100  1
  Tm  Tm17  1  0.673636  0.456902  0.564451  1
  Tm  Tm18  1  0.827304  0.461467  0.063100  1
  Tm  Tm19  1  0.174337  0.544701  0.935897  1
  Co  Co20  1  0.929005  0.750000  0.008366  1
  Bi  Bi21  1  0.569543  0.491978  0.827839  1
  Bi  Bi22  1  0.431595  0.508261  0.171629  1
  Bi  Bi23  1  0.068280  0.508001  0.672835  1
  Bi  Bi24  1  0.431595  0.991739  0.171629  1
  Bi  Bi25  1  0.931092  0.492851  0.327026  1
  Bi  Bi26  1  0.569543  0.008022  0.827839  1
  Bi  Bi27  1  0.931092  0.007149  0.327026  1
  Bi  Bi28  1  0.068280  0.991999  0.672835  1
  Ru  Ru29  1  0.573831  0.750000  0.510472  1
  Ru  Ru30  1  0.424790  0.250000  0.490040  1
  Ru  Ru31  1  0.073140  0.250000  0.990493  1
