# generated using pymatgen
data_Rb2CaCd(H6Ir)2
_symmetry_space_group_name_H-M   'P 1'
_cell_length_a   7.69518200
_cell_length_b   7.69518200
_cell_length_c   7.82892400
_cell_angle_alpha   90.00000000
_cell_angle_beta   90.00000000
_cell_angle_gamma   90.00000000
_symmetry_Int_Tables_number   1
_chemical_formula_structural   Rb2CaCd(H6Ir)2
_chemical_formula_sum   'Rb4 Ca2 Cd2 H24 Ir4'
_cell_volume   463.59620145
_cell_formula_units_Z   2
loop_
 _symmetry_equiv_pos_site_id
 _symmetry_equiv_pos_as_xyz
  1  'x, y, z'
loop_
 _atom_site_type_symbol
 _atom_site_label
 _atom_site_symmetry_multiplicity
 _atom_site_fract_x
 _atom_site_fract_y
 _atom_site_fract_z
 _atom_site_occupancy
  Rb  Rb0  1  0.000000  0.000000  0.500000  1
  Rb  Rb1  1  0.000000  0.500000  0.000000  1
  Rb  Rb2  1  0.500000  0.000000  0.000000  1
  Rb  Rb3  1  0.000000  0.000000  0.000000  1
  Ca  Ca4  1  0.000000  0.500000  0.500000  1
  Ca  Ca5  1  0.500000  0.000000  0.500000  1
  Cd  Cd6  1  0.500000  0.500000  0.500000  1
  Cd  Cd7  1  0.500000  0.500000  0.000000  1
  H  H8  1  0.739640  0.739640  0.489943  1
  H  H9  1  0.260360  0.260360  0.489943  1
  H  H10  1  0.064646  0.717796  0.732201  1
  H  H11  1  0.282204  0.935354  0.732201  1
  H  H12  1  0.717796  0.064646  0.732201  1
  H  H13  1  0.935354  0.282204  0.732201  1
  H  H14  1  0.734538  0.500172  0.712593  1
  H  H15  1  0.500172  0.734538  0.712593  1
  H  H16  1  0.499828  0.265462  0.712593  1
  H  H17  1  0.265462  0.499828  0.712593  1
  H  H18  1  0.295492  0.704508  0.937136  1
  H  H19  1  0.704508  0.295492  0.937136  1
  H  H20  1  0.704508  0.704508  0.062864  1
  H  H21  1  0.295492  0.295492  0.062864  1
  H  H22  1  0.265462  0.500172  0.287407  1
  H  H23  1  0.499828  0.734538  0.287407  1
  H  H24  1  0.500172  0.265462  0.287407  1
  H  H25  1  0.734538  0.499828  0.287407  1
  H  H26  1  0.935354  0.717796  0.267799  1
  H  H27  1  0.717796  0.935354  0.267799  1
  H  H28  1  0.282204  0.064646  0.267799  1
  H  H29  1  0.064646  0.282204  0.267799  1
  H  H30  1  0.260360  0.739640  0.510057  1
  H  H31  1  0.739640  0.260360  0.510057  1
  Ir  Ir32  1  0.284619  0.715381  0.719643  1
  Ir  Ir33  1  0.715381  0.284619  0.719643  1
  Ir  Ir34  1  0.715381  0.715381  0.280357  1
  Ir  Ir35  1  0.284619  0.284619  0.280357  1
