# generated using pymatgen
data_Cs2LuAgCl6
_symmetry_space_group_name_H-M   'P 1'
_cell_length_a   7.60678967
_cell_length_b   7.60678912
_cell_length_c   7.60679100
_cell_angle_alpha   59.99999619
_cell_angle_beta   59.99999856
_cell_angle_gamma   89.99999834
_symmetry_Int_Tables_number   1
_chemical_formula_structural   Cs2LuAgCl6
_chemical_formula_sum   'Cs2 Lu1 Ag1 Cl6'
_cell_volume   311.23558281
_cell_formula_units_Z   1
loop_
 _symmetry_equiv_pos_site_id
 _symmetry_equiv_pos_as_xyz
  1  'x, y, z'
loop_
 _atom_site_type_symbol
 _atom_site_label
 _atom_site_symmetry_multiplicity
 _atom_site_fract_x
 _atom_site_fract_y
 _atom_site_fract_z
 _atom_site_occupancy
  Cs  Cs0  1  0.250001  0.749999  0.500000  1
  Cs  Cs1  1  0.750000  0.249999  0.500002  1
  Lu  Lu2  1  0.000000  0.000000  0.000000  1
  Ag  Ag3  1  0.500000  0.500000  0.000000  1
  Cl  Cl4  1  0.241136  0.241136  0.000000  1
  Cl  Cl5  1  0.758864  0.241136  0.000000  1
  Cl  Cl6  1  0.241136  0.758865  0.000000  1
  Cl  Cl7  1  0.758865  0.758865  0.000000  1
  Cl  Cl8  1  0.758865  0.758865  0.482269  1
  Cl  Cl9  1  0.241134  0.241134  0.517732  1
