# generated using pymatgen
data_Tb18HoErPb16
_symmetry_space_group_name_H-M   'P 1'
_cell_length_a   8.23341901
_cell_length_b   8.31993038
_cell_length_c   15.71504000
_cell_angle_alpha   90.00000000
_cell_angle_beta   90.00000000
_cell_angle_gamma   90.01454333
_symmetry_Int_Tables_number   1
_chemical_formula_structural   Tb18HoErPb16
_chemical_formula_sum   'Tb18 Ho1 Er1 Pb16'
_cell_volume   1076.50335267
_cell_formula_units_Z   1
loop_
 _symmetry_equiv_pos_site_id
 _symmetry_equiv_pos_as_xyz
  1  'x, y, z'
loop_
 _atom_site_type_symbol
 _atom_site_label
 _atom_site_symmetry_multiplicity
 _atom_site_fract_x
 _atom_site_fract_y
 _atom_site_fract_z
 _atom_site_occupancy
  Tb  Tb0  1  0.377336  0.840473  0.879708  1
  Tb  Tb1  1  0.877556  0.659383  0.620407  1
  Tb  Tb2  1  0.622279  0.159238  0.379537  1
  Tb  Tb3  1  0.122781  0.340416  0.120419  1
  Tb  Tb4  1  0.622279  0.159238  0.120463  1
  Tb  Tb5  1  0.122781  0.340416  0.379581  1
  Tb  Tb6  1  0.377336  0.840473  0.620292  1
  Tb  Tb7  1  0.877556  0.659383  0.879593  1
  Tb  Tb8  1  0.534413  0.323306  0.899800  1
  Tb  Tb9  1  0.034488  0.176812  0.600099  1
  Tb  Tb10  1  0.465417  0.676970  0.399831  1
  Tb  Tb11  1  0.965690  0.823415  0.100205  1
  Tb  Tb12  1  0.465417  0.676970  0.100169  1
  Tb  Tb13  1  0.965690  0.823415  0.399795  1
  Tb  Tb14  1  0.534413  0.323306  0.600200  1
  Tb  Tb15  1  0.034488  0.176812  0.899901  1
  Tb  Tb16  1  0.708916  0.996438  0.750000  1
  Tb  Tb17  1  0.791095  0.496452  0.250000  1
  Ho  Ho18  1  0.209037  0.503724  0.750000  1
  Er  Er19  1  0.290840  0.003820  0.250000  1
  Pb  Pb20  1  0.280896  0.032705  0.043110  1
  Pb  Pb21  1  0.780854  0.467133  0.457310  1
  Pb  Pb22  1  0.719140  0.967088  0.542554  1
  Pb  Pb23  1  0.219105  0.532832  0.957315  1
  Pb  Pb24  1  0.719140  0.967088  0.957446  1
  Pb  Pb25  1  0.219105  0.532832  0.542685  1
  Pb  Pb26  1  0.280896  0.032705  0.456890  1
  Pb  Pb27  1  0.780854  0.467133  0.042690  1
  Pb  Pb28  1  0.572844  0.625916  0.750000  1
  Pb  Pb29  1  0.073204  0.873783  0.750000  1
  Pb  Pb30  1  0.426641  0.373429  0.250000  1
  Pb  Pb31  1  0.927740  0.125523  0.250000  1
  Pb  Pb32  1  0.345692  0.152106  0.750000  1
  Pb  Pb33  1  0.845923  0.348023  0.750000  1
  Pb  Pb34  1  0.653807  0.848253  0.250000  1
  Pb  Pb35  1  0.154350  0.652991  0.250000  1
