# generated using pymatgen
data_SrPr7(RuO6)4
_symmetry_space_group_name_H-M   'P 1'
_cell_length_a   10.25784226
_cell_length_b   10.25784222
_cell_length_c   5.67906213
_cell_angle_alpha   74.95009602
_cell_angle_beta   74.95009165
_cell_angle_gamma   69.63664596
_symmetry_Int_Tables_number   1
_chemical_formula_structural   SrPr7(RuO6)4
_chemical_formula_sum   'Sr1 Pr7 Ru4 O24'
_cell_volume   531.46477501
_cell_formula_units_Z   1
loop_
 _symmetry_equiv_pos_site_id
 _symmetry_equiv_pos_as_xyz
  1  'x, y, z'
loop_
 _atom_site_type_symbol
 _atom_site_label
 _atom_site_symmetry_multiplicity
 _atom_site_fract_x
 _atom_site_fract_y
 _atom_site_fract_z
 _atom_site_occupancy
  Sr  Sr0  1  0.630546  0.369454  0.750000  1
  Pr  Pr1  1  0.369346  0.630654  0.250000  1
  Pr  Pr2  1  0.108217  0.891783  0.750000  1
  Pr  Pr3  1  0.891133  0.108867  0.250000  1
  Pr  Pr4  1  0.711907  0.933335  0.871392  1
  Pr  Pr5  1  0.287233  0.068144  0.128265  1
  Pr  Pr6  1  0.066665  0.288093  0.628608  1
  Pr  Pr7  1  0.931856  0.712767  0.371735  1
  Ru  Ru8  1  0.499574  0.800741  0.547023  1
  Ru  Ru9  1  0.501307  0.198565  0.452625  1
  Ru  Ru10  1  0.199259  0.500426  0.952977  1
  Ru  Ru11  1  0.801435  0.498693  0.047375  1
  O  O12  1  0.687152  0.155862  0.578707  1
  O  O13  1  0.310540  0.837912  0.411445  1
  O  O14  1  0.844138  0.312848  0.921293  1
  O  O15  1  0.162088  0.689460  0.088555  1
  O  O16  1  0.386637  0.826985  0.847168  1
  O  O17  1  0.612002  0.165535  0.158251  1
  O  O18  1  0.173015  0.613363  0.652832  1
  O  O19  1  0.834465  0.387998  0.341749  1
  O  O20  1  0.671402  0.787226  0.623762  1
  O  O21  1  0.327517  0.211722  0.378434  1
  O  O22  1  0.212774  0.328598  0.876238  1
  O  O23  1  0.788278  0.672483  0.121566  1
  O  O24  1  0.470232  0.072376  0.740219  1
  O  O25  1  0.526303  0.927664  0.261327  1
  O  O26  1  0.927624  0.529768  0.759781  1
  O  O27  1  0.072336  0.473697  0.238673  1
  O  O28  1  0.539469  0.621870  0.511554  1
  O  O29  1  0.457967  0.381526  0.474259  1
  O  O30  1  0.378130  0.460531  0.988446  1
  O  O31  1  0.618474  0.542033  0.025741  1
  O  O32  1  0.888561  0.924585  0.069952  1
  O  O33  1  0.112524  0.075522  0.928310  1
  O  O34  1  0.075415  0.111439  0.430048  1
  O  O35  1  0.924478  0.887476  0.571690  1
