# generated using pymatgen
data_Ti3BeO
_symmetry_space_group_name_H-M   'P 1'
_cell_length_a   5.32049283
_cell_length_b   5.32049210
_cell_length_c   7.97248200
_cell_angle_alpha   90.00000000
_cell_angle_beta   90.00000000
_cell_angle_gamma   146.25489758
_symmetry_Int_Tables_number   1
_chemical_formula_structural   Ti3BeO
_chemical_formula_sum   'Ti6 Be2 O2'
_cell_volume   125.36624499
_cell_formula_units_Z   2
loop_
 _symmetry_equiv_pos_site_id
 _symmetry_equiv_pos_as_xyz
  1  'x, y, z'
loop_
 _atom_site_type_symbol
 _atom_site_label
 _atom_site_symmetry_multiplicity
 _atom_site_fract_x
 _atom_site_fract_y
 _atom_site_fract_z
 _atom_site_occupancy
  Ti  Ti0  1  0.942026  0.057974  0.250000  1
  Ti  Ti1  1  0.057974  0.942026  0.750000  1
  Ti  Ti2  1  0.635724  0.364276  0.448158  1
  Ti  Ti3  1  0.364276  0.635724  0.551842  1
  Ti  Ti4  1  0.635724  0.364276  0.051842  1
  Ti  Ti5  1  0.364276  0.635724  0.948158  1
  Be  Be6  1  0.255733  0.744267  0.250000  1
  Be  Be7  1  0.744267  0.255733  0.750000  1
  O  O8  1  0.000000  0.000000  0.500000  1
  O  O9  1  0.000000  0.000000  0.000000  1
