# generated using pymatgen
data_TbPrSe2
_symmetry_space_group_name_H-M   'P 1'
_cell_length_a   7.36585935
_cell_length_b   7.36585996
_cell_length_c   7.36585991
_cell_angle_alpha   32.61744118
_cell_angle_beta   32.61743591
_cell_angle_gamma   32.61743193
_symmetry_Int_Tables_number   1
_chemical_formula_structural   TbPrSe2
_chemical_formula_sum   'Tb1 Pr1 Se2'
_cell_volume   103.26945683
_cell_formula_units_Z   1
loop_
 _symmetry_equiv_pos_site_id
 _symmetry_equiv_pos_as_xyz
  1  'x, y, z'
loop_
 _atom_site_type_symbol
 _atom_site_label
 _atom_site_symmetry_multiplicity
 _atom_site_fract_x
 _atom_site_fract_y
 _atom_site_fract_z
 _atom_site_occupancy
  Tb  Tb0  1  0.500000  0.500000  0.500000  1
  Pr  Pr1  1  0.000000  0.000000  0.000000  1
  Se  Se2  1  0.244653  0.244653  0.244653  1
  Se  Se3  1  0.755347  0.755347  0.755347  1
