# generated using pymatgen
data_La4PrNd7(PtBr3)4
_symmetry_space_group_name_H-M   'P 1'
_cell_length_a   10.61904476
_cell_length_b   10.61411355
_cell_length_c   10.60337470
_cell_angle_alpha   109.55521715
_cell_angle_beta   109.30593683
_cell_angle_gamma   109.36714216
_symmetry_Int_Tables_number   1
_chemical_formula_structural   La4PrNd7(PtBr3)4
_chemical_formula_sum   'La4 Pr1 Nd7 Pt4 Br12'
_cell_volume   922.10266759
_cell_formula_units_Z   1
loop_
 _symmetry_equiv_pos_site_id
 _symmetry_equiv_pos_as_xyz
  1  'x, y, z'
loop_
 _atom_site_type_symbol
 _atom_site_label
 _atom_site_symmetry_multiplicity
 _atom_site_fract_x
 _atom_site_fract_y
 _atom_site_fract_z
 _atom_site_occupancy
  La  La0  1  0.487867  0.751590  0.015799  1
  La  La1  1  0.486759  0.235248  0.473030  1
  La  La2  1  0.013680  0.485323  0.749700  1
  La  La3  1  0.262415  0.015703  0.027152  1
  Pr  Pr4  1  0.234696  0.263202  0.748602  1
  Nd  Nd5  1  0.468447  0.485929  0.234020  1
  Nd  Nd6  1  0.752061  0.234843  0.266319  1
  Nd  Nd7  1  0.750223  0.014370  0.484851  1
  Nd  Nd8  1  0.233979  0.467575  0.481256  1
  Nd  Nd9  1  0.264849  0.749292  0.236358  1
  Nd  Nd10  1  0.031280  0.266450  0.016414  1
  Nd  Nd11  1  0.014151  0.031013  0.266511  1
  Pt  Pt12  1  0.250257  0.248897  0.249749  1
  Pt  Pt13  1  0.499133  0.999780  0.250050  1
  Pt  Pt14  1  0.999962  0.250190  0.500629  1
  Pt  Pt15  1  0.249826  0.500819  0.999780  1
  Br  Br16  1  0.250471  0.752299  0.742353  1
  Br  Br17  1  0.507376  0.504458  0.752516  1
  Br  Br18  1  0.992136  0.747793  0.001973  1
  Br  Br19  1  0.747508  0.245778  0.756052  1
  Br  Br20  1  0.992247  0.992628  0.744217  1
  Br  Br21  1  0.245834  0.992033  0.500422  1
  Br  Br22  1  0.752256  0.507672  0.498363  1
  Br  Br23  1  0.507511  0.253962  0.999841  1
  Br  Br24  1  0.755316  0.746859  0.253669  1
  Br  Br25  1  0.750030  0.000136  0.993784  1
  Br  Br26  1  0.996827  0.503040  0.250246  1
  Br  Br27  1  0.502905  0.753115  0.506341  1
