# generated using pymatgen
data_SmEuDy6Cu3Si12Rh
_symmetry_space_group_name_H-M   'P 1'
_cell_length_a   8.06421400
_cell_length_b   8.06421507
_cell_length_c   8.22347700
_cell_angle_alpha   90.00000000
_cell_angle_beta   90.00000000
_cell_angle_gamma   119.99998740
_symmetry_Int_Tables_number   1
_chemical_formula_structural   SmEuDy6Cu3Si12Rh
_chemical_formula_sum   'Sm1 Eu1 Dy6 Cu3 Si12 Rh1'
_cell_volume   463.13789229
_cell_formula_units_Z   1
loop_
 _symmetry_equiv_pos_site_id
 _symmetry_equiv_pos_as_xyz
  1  'x, y, z'
loop_
 _atom_site_type_symbol
 _atom_site_label
 _atom_site_symmetry_multiplicity
 _atom_site_fract_x
 _atom_site_fract_y
 _atom_site_fract_z
 _atom_site_occupancy
  Sm  Sm0  1  0.000000  0.000000  0.750280  1
  Eu  Eu1  1  0.000000  0.000000  0.249148  1
  Dy  Dy2  1  0.998798  0.499398  0.252116  1
  Dy  Dy3  1  0.500602  0.499398  0.252116  1
  Dy  Dy4  1  0.501283  0.002565  0.747770  1
  Dy  Dy5  1  0.500602  0.001202  0.252116  1
  Dy  Dy6  1  0.501283  0.498717  0.747770  1
  Dy  Dy7  1  0.997435  0.498717  0.747770  1
  Cu  Cu8  1  0.333333  0.666667  0.998883  1
  Cu  Cu9  1  0.333333  0.666667  0.500877  1
  Cu  Cu10  1  0.666667  0.333333  0.000507  1
  Si  Si11  1  0.169426  0.338850  0.000336  1
  Si  Si12  1  0.661150  0.830574  0.000336  1
  Si  Si13  1  0.168478  0.336954  0.499857  1
  Si  Si14  1  0.339800  0.169900  0.000446  1
  Si  Si15  1  0.169426  0.830574  0.000336  1
  Si  Si16  1  0.663046  0.831522  0.499857  1
  Si  Si17  1  0.830100  0.660200  0.000446  1
  Si  Si18  1  0.336843  0.168421  0.499348  1
  Si  Si19  1  0.168478  0.831522  0.499857  1
  Si  Si20  1  0.831579  0.663157  0.499348  1
  Si  Si21  1  0.830100  0.169900  0.000446  1
  Si  Si22  1  0.831579  0.168421  0.499348  1
  Rh  Rh23  1  0.666667  0.333333  0.500683  1
