# generated using pymatgen
data_Sc4NiTe2
_symmetry_space_group_name_H-M   'P 1'
_cell_length_a   14.53729000
_cell_length_b   3.91365400
_cell_length_c   10.91811400
_cell_angle_alpha   90.00000000
_cell_angle_beta   90.00000000
_cell_angle_gamma   90.00000000
_symmetry_Int_Tables_number   1
_chemical_formula_structural   Sc4NiTe2
_chemical_formula_sum   'Sc16 Ni4 Te8'
_cell_volume   621.17433894
_cell_formula_units_Z   4
loop_
 _symmetry_equiv_pos_site_id
 _symmetry_equiv_pos_as_xyz
  1  'x, y, z'
loop_
 _atom_site_type_symbol
 _atom_site_label
 _atom_site_symmetry_multiplicity
 _atom_site_fract_x
 _atom_site_fract_y
 _atom_site_fract_z
 _atom_site_occupancy
  Sc  Sc0  1  0.896090  0.249999  0.034745  1
  Sc  Sc1  1  0.603909  0.750000  0.534745  1
  Sc  Sc2  1  0.396091  0.249999  0.465256  1
  Sc  Sc3  1  0.223404  0.750000  0.624710  1
  Sc  Sc4  1  0.276596  0.249999  0.124710  1
  Sc  Sc5  1  0.954356  0.750000  0.305926  1
  Sc  Sc6  1  0.545645  0.249999  0.805926  1
  Sc  Sc7  1  0.454356  0.750000  0.194074  1
  Sc  Sc8  1  0.045644  0.249999  0.694074  1
  Sc  Sc9  1  0.867613  0.750000  0.577046  1
  Sc  Sc10  1  0.632386  0.249999  0.077046  1
  Sc  Sc11  1  0.367614  0.750000  0.922954  1
  Sc  Sc12  1  0.132386  0.249999  0.422954  1
  Sc  Sc13  1  0.103910  0.750000  0.965256  1
  Sc  Sc14  1  0.723404  0.750000  0.875290  1
  Sc  Sc15  1  0.776596  0.249999  0.375290  1
  Ni  Ni16  1  0.948527  0.249999  0.470169  1
  Ni  Ni17  1  0.551473  0.750000  0.970169  1
  Ni  Ni18  1  0.448527  0.249999  0.029831  1
  Ni  Ni19  1  0.051473  0.750000  0.529831  1
  Te  Te20  1  0.721056  0.249999  0.659036  1
  Te  Te21  1  0.778944  0.750000  0.159036  1
  Te  Te22  1  0.221056  0.249999  0.840963  1
  Te  Te23  1  0.278945  0.750000  0.340964  1
  Te  Te24  1  0.926696  0.750000  0.841046  1
  Te  Te25  1  0.573305  0.249999  0.341047  1
  Te  Te26  1  0.426696  0.750000  0.658954  1
  Te  Te27  1  0.073304  0.249999  0.158954  1
