# generated using pymatgen
data_Rb8Li4YHo3As8
_symmetry_space_group_name_H-M   'P 1'
_cell_length_a   10.61672373
_cell_length_b   10.61672339
_cell_length_c   6.84397022
_cell_angle_alpha   90.00649951
_cell_angle_beta   89.99350322
_cell_angle_gamma   99.69793635
_symmetry_Int_Tables_number   1
_chemical_formula_structural   Rb8Li4YHo3As8
_chemical_formula_sum   'Rb8 Li4 Y1 Ho3 As8'
_cell_volume   760.39295281
_cell_formula_units_Z   1
loop_
 _symmetry_equiv_pos_site_id
 _symmetry_equiv_pos_as_xyz
  1  'x, y, z'
loop_
 _atom_site_type_symbol
 _atom_site_label
 _atom_site_symmetry_multiplicity
 _atom_site_fract_x
 _atom_site_fract_y
 _atom_site_fract_z
 _atom_site_occupancy
  Rb  Rb0  1  0.568070  0.932061  0.750154  1
  Rb  Rb1  1  0.932061  0.568070  0.249846  1
  Rb  Rb2  1  0.432180  0.067320  0.249713  1
  Rb  Rb3  1  0.067320  0.432180  0.750287  1
  Rb  Rb4  1  0.678474  0.321989  0.788289  1
  Rb  Rb5  1  0.821920  0.177928  0.288140  1
  Rb  Rb6  1  0.321989  0.678474  0.211711  1
  Rb  Rb7  1  0.177928  0.821920  0.711860  1
  Li  Li8  1  0.618382  0.618382  0.000000  1
  Li  Li9  1  0.881899  0.881899  0.500000  1
  Li  Li10  1  0.381946  0.381946  0.000000  1
  Li  Li11  1  0.117455  0.117455  0.500000  1
  Y  Y12  1  0.367533  0.367533  0.500000  1
  Ho  Ho13  1  0.867855  0.867855  0.000000  1
  Ho  Ho14  1  0.632579  0.632579  0.500000  1
  Ho  Ho15  1  0.131553  0.131553  0.000000  1
  As  As16  1  0.342806  0.155712  0.751741  1
  As  As17  1  0.155712  0.342806  0.248259  1
  As  As18  1  0.657565  0.842820  0.250092  1
  As  As19  1  0.842820  0.657565  0.749908  1
  As  As20  1  0.910123  0.089545  0.765429  1
  As  As21  1  0.591240  0.411047  0.264656  1
  As  As22  1  0.089545  0.910123  0.234571  1
  As  As23  1  0.411047  0.591240  0.735344  1
