# generated using pymatgen
data_VPH8
_symmetry_space_group_name_H-M   'P 1'
_cell_length_a   3.01734182
_cell_length_b   3.01855268
_cell_length_c   10.70891505
_cell_angle_alpha   97.01406042
_cell_angle_beta   88.79981655
_cell_angle_gamma   89.91176121
_symmetry_Int_Tables_number   1
_chemical_formula_structural   VPH8
_chemical_formula_sum   'V1 P1 H8'
_cell_volume   96.78484662
_cell_formula_units_Z   1
loop_
 _symmetry_equiv_pos_site_id
 _symmetry_equiv_pos_as_xyz
  1  'x, y, z'
loop_
 _atom_site_type_symbol
 _atom_site_label
 _atom_site_symmetry_multiplicity
 _atom_site_fract_x
 _atom_site_fract_y
 _atom_site_fract_z
 _atom_site_occupancy
  V  V0  1  0.303108  0.500840  0.334394  1
  P  P1  1  0.795467  0.046856  0.440713  1
  H  H2  1  0.648508  0.870116  0.006772  1
  H  H3  1  0.310743  0.961626  0.243110  1
  H  H4  1  0.288990  0.136013  0.819171  1
  H  H5  1  0.795093  0.733552  0.959323  1
  H  H6  1  0.311124  0.434246  0.182671  1
  H  H7  1  0.781436  0.105537  0.574883  1
  H  H8  1  0.810373  0.463416  0.242303  1
  H  H9  1  0.197181  0.263515  0.769653  1
