# generated using pymatgen
data_Tb4Nd2(Ir5Rh)3
_symmetry_space_group_name_H-M   'P 1'
_cell_length_a   5.34225600
_cell_length_b   5.34225701
_cell_length_c   17.50934800
_cell_angle_alpha   90.00000000
_cell_angle_beta   90.00000000
_cell_angle_gamma   120.00000612
_symmetry_Int_Tables_number   1
_chemical_formula_structural   Tb4Nd2(Ir5Rh)3
_chemical_formula_sum   'Tb4 Nd2 Ir15 Rh3'
_cell_volume   432.76293008
_cell_formula_units_Z   1
loop_
 _symmetry_equiv_pos_site_id
 _symmetry_equiv_pos_as_xyz
  1  'x, y, z'
loop_
 _atom_site_type_symbol
 _atom_site_label
 _atom_site_symmetry_multiplicity
 _atom_site_fract_x
 _atom_site_fract_y
 _atom_site_fract_z
 _atom_site_occupancy
  Tb  Tb0  1  0.333333  0.666667  0.540807  1
  Tb  Tb1  1  0.666667  0.333333  0.040729  1
  Tb  Tb2  1  0.666667  0.333333  0.459271  1
  Tb  Tb3  1  0.333333  0.666667  0.959193  1
  Nd  Nd4  1  0.333333  0.666667  0.750000  1
  Nd  Nd5  1  0.666667  0.333333  0.250000  1
  Ir  Ir6  1  0.167495  0.334988  0.125751  1
  Ir  Ir7  1  0.832416  0.664833  0.625419  1
  Ir  Ir8  1  0.665012  0.832505  0.125751  1
  Ir  Ir9  1  0.167495  0.832505  0.125751  1
  Ir  Ir10  1  0.832416  0.167584  0.625419  1
  Ir  Ir11  1  0.335167  0.167584  0.625419  1
  Ir  Ir12  1  0.832416  0.664833  0.874581  1
  Ir  Ir13  1  0.832416  0.167584  0.874581  1
  Ir  Ir14  1  0.335167  0.167584  0.874581  1
  Ir  Ir15  1  0.665012  0.832505  0.374249  1
  Ir  Ir16  1  0.167495  0.832505  0.374249  1
  Ir  Ir17  1  0.167495  0.334988  0.374249  1
  Ir  Ir18  1  0.000000  0.000000  0.250000  1
  Ir  Ir19  1  0.000000  0.000000  0.999918  1
  Ir  Ir20  1  0.000000  0.000000  0.500082  1
  Rh  Rh21  1  0.000000  0.000000  0.750000  1
  Rh  Rh22  1  0.333333  0.666667  0.250000  1
  Rh  Rh23  1  0.666667  0.333333  0.750000  1
