# generated using pymatgen
data_Nd2B3Ru4C
_symmetry_space_group_name_H-M   'P 1'
_cell_length_a   6.74934360
_cell_length_b   5.92241448
_cell_length_c   5.59052481
_cell_angle_alpha   71.71538759
_cell_angle_beta   57.10330762
_cell_angle_gamma   51.85823359
_symmetry_Int_Tables_number   1
_chemical_formula_structural   Nd2B3Ru4C
_chemical_formula_sum   'Nd2 B3 Ru4 C1'
_cell_volume   147.49172114
_cell_formula_units_Z   1
loop_
 _symmetry_equiv_pos_site_id
 _symmetry_equiv_pos_as_xyz
  1  'x, y, z'
loop_
 _atom_site_type_symbol
 _atom_site_label
 _atom_site_symmetry_multiplicity
 _atom_site_fract_x
 _atom_site_fract_y
 _atom_site_fract_z
 _atom_site_occupancy
  Nd  Nd0  1  0.998898  0.001102  0.998898  1
  Nd  Nd1  1  0.250138  0.249862  0.250138  1
  B  B2  1  0.317479  0.682521  0.317479  1
  B  B3  1  0.931553  0.568447  0.931553  1
  B  B4  1  0.566767  0.933233  0.566767  1
  Ru  Ru5  1  0.615485  0.606241  0.881916  1
  Ru  Ru6  1  0.641158  0.627106  0.364943  1
  Ru  Ru7  1  0.364943  0.366793  0.641158  1
  Ru  Ru8  1  0.881916  0.896358  0.615485  1
  C  C9  1  0.681661  0.318339  0.681661  1
