# generated using pymatgen
data_HoTh9(In2Ir)4
_symmetry_space_group_name_H-M   'P 1'
_cell_length_a   8.22622928
_cell_length_b   18.55738444
_cell_length_c   3.81225000
_cell_angle_alpha   90.00000000
_cell_angle_beta   90.00000000
_cell_angle_gamma   90.48524381
_symmetry_Int_Tables_number   1
_chemical_formula_structural   HoTh9(In2Ir)4
_chemical_formula_sum   'Ho1 Th9 In8 Ir4'
_cell_volume   581.94691852
_cell_formula_units_Z   1
loop_
 _symmetry_equiv_pos_site_id
 _symmetry_equiv_pos_as_xyz
  1  'x, y, z'
loop_
 _atom_site_type_symbol
 _atom_site_label
 _atom_site_symmetry_multiplicity
 _atom_site_fract_x
 _atom_site_fract_y
 _atom_site_fract_z
 _atom_site_occupancy
  Ho  Ho0  1  0.000000  0.000000  0.000000  1
  Th  Th1  1  0.500000  0.500000  0.000000  1
  Th  Th2  1  0.753556  0.274932  0.000000  1
  Th  Th3  1  0.246444  0.725068  0.000000  1
  Th  Th4  1  0.748766  0.778076  0.000000  1
  Th  Th5  1  0.251234  0.221924  0.000000  1
  Th  Th6  1  0.617861  0.084530  0.000000  1
  Th  Th7  1  0.382139  0.915470  0.000000  1
  Th  Th8  1  0.874436  0.585787  0.000000  1
  Th  Th9  1  0.125564  0.414213  0.000000  1
  In  In10  1  0.715381  0.933256  0.500000  1
  In  In11  1  0.284619  0.066744  0.500000  1
  In  In12  1  0.793357  0.430872  0.500000  1
  In  In13  1  0.206643  0.569128  0.500000  1
  In  In14  1  0.557424  0.649134  0.500000  1
  In  In15  1  0.442576  0.350866  0.500000  1
  In  In16  1  0.941314  0.145187  0.500000  1
  In  In17  1  0.058686  0.854813  0.500000  1
  Ir  Ir18  1  0.527214  0.195671  0.500000  1
  Ir  Ir19  1  0.472786  0.804329  0.500000  1
  Ir  Ir20  1  0.973072  0.696113  0.500000  1
  Ir  Ir21  1  0.026928  0.303887  0.500000  1
