# generated using pymatgen
data_Lu10TeAs9
_symmetry_space_group_name_H-M   'P 1'
_cell_length_a   7.04496999
_cell_length_b   8.16061619
_cell_length_c   9.09802900
_cell_angle_alpha   102.95363414
_cell_angle_beta   97.39226544
_cell_angle_gamma   106.85603334
_symmetry_Int_Tables_number   1
_chemical_formula_structural   Lu10TeAs9
_chemical_formula_sum   'Lu10 Te1 As9'
_cell_volume   477.21362395
_cell_formula_units_Z   1
loop_
 _symmetry_equiv_pos_site_id
 _symmetry_equiv_pos_as_xyz
  1  'x, y, z'
loop_
 _atom_site_type_symbol
 _atom_site_label
 _atom_site_symmetry_multiplicity
 _atom_site_fract_x
 _atom_site_fract_y
 _atom_site_fract_z
 _atom_site_occupancy
  Lu  Lu0  1  0.902535  0.548543  0.800067  1
  Lu  Lu1  1  0.684991  0.156849  0.396631  1
  Lu  Lu2  1  0.500505  0.749493  0.001847  1
  Lu  Lu3  1  0.687261  0.633746  0.393586  1
  Lu  Lu4  1  0.312739  0.366254  0.606414  1
  Lu  Lu5  1  0.102889  0.944398  0.184744  1
  Lu  Lu6  1  0.499495  0.250507  0.998153  1
  Lu  Lu7  1  0.315009  0.843151  0.603369  1
  Lu  Lu8  1  0.097465  0.451457  0.199933  1
  Lu  Lu9  1  0.897111  0.055602  0.815256  1
  Te  Te10  1  0.000000  0.000000  0.500000  1
  As  As11  1  0.799334  0.599915  0.099682  1
  As  As12  1  0.599562  0.199815  0.700034  1
  As  As13  1  0.400438  0.800185  0.299966  1
  As  As14  1  0.798573  0.100474  0.104808  1
  As  As15  1  0.200666  0.400085  0.900318  1
  As  As16  1  0.609741  0.703174  0.702540  1
  As  As17  1  0.390259  0.296826  0.297460  1
  As  As18  1  0.201427  0.899526  0.895192  1
  As  As19  1  0.000000  0.500000  0.500000  1
