# generated using pymatgen
data_Pr2ThBi3
_symmetry_space_group_name_H-M   'P 1'
_cell_length_a   8.02931761
_cell_length_b   8.02931760
_cell_length_c   8.02931870
_cell_angle_alpha   146.51104917
_cell_angle_beta   132.05659775
_cell_angle_gamma   59.74451837
_symmetry_Int_Tables_number   1
_chemical_formula_structural   Pr2ThBi3
_chemical_formula_sum   'Pr2 Th1 Bi3'
_cell_volume   210.16702250
_cell_formula_units_Z   1
loop_
 _symmetry_equiv_pos_site_id
 _symmetry_equiv_pos_as_xyz
  1  'x, y, z'
loop_
 _atom_site_type_symbol
 _atom_site_label
 _atom_site_symmetry_multiplicity
 _atom_site_fract_x
 _atom_site_fract_y
 _atom_site_fract_z
 _atom_site_occupancy
  Pr  Pr0  1  0.667771  0.667771  0.000000  1
  Pr  Pr1  1  0.332229  0.332229  0.000000  1
  Th  Th2  1  0.000000  0.000000  0.000000  1
  Bi  Bi3  1  0.500000  0.000000  0.500000  1
  Bi  Bi4  1  0.164157  0.664157  0.500000  1
  Bi  Bi5  1  0.835843  0.335843  0.500000  1
