# generated using pymatgen
data_LiTb7(IO6)4
_symmetry_space_group_name_H-M   'P 1'
_cell_length_a   5.44502022
_cell_length_b   7.78151126
_cell_length_c   11.55865000
_cell_angle_alpha   76.36374101
_cell_angle_beta   89.48703736
_cell_angle_gamma   89.87577574
_symmetry_Int_Tables_number   1
_chemical_formula_structural   LiTb7(IO6)4
_chemical_formula_sum   'Li1 Tb7 I4 O24'
_cell_volume   475.92159468
_cell_formula_units_Z   1
loop_
 _symmetry_equiv_pos_site_id
 _symmetry_equiv_pos_as_xyz
  1  'x, y, z'
loop_
 _atom_site_type_symbol
 _atom_site_label
 _atom_site_symmetry_multiplicity
 _atom_site_fract_x
 _atom_site_fract_y
 _atom_site_fract_z
 _atom_site_occupancy
  Li  Li0  1  0.231530  0.732530  0.077506  1
  Tb  Tb1  1  0.250793  0.014206  0.754846  1
  Tb  Tb2  1  0.744475  0.987438  0.238864  1
  Tb  Tb3  1  0.317027  0.498490  0.765421  1
  Tb  Tb4  1  0.179290  0.206782  0.426516  1
  Tb  Tb5  1  0.695979  0.499992  0.247811  1
  Tb  Tb6  1  0.824682  0.220340  0.919202  1
  Tb  Tb7  1  0.807522  0.800039  0.577989  1
  I  I8  1  0.739376  0.736658  0.890908  1
  I  I9  1  0.247774  0.727901  0.375163  1
  I  I10  1  0.732786  0.290623  0.611527  1
  I  I11  1  0.261147  0.265993  0.119775  1
  O  O12  1  0.824490  0.350500  0.434850  1
  O  O13  1  0.449490  0.828700  0.940313  1
  O  O14  1  0.871545  0.665112  0.043533  1
  O  O15  1  0.060643  0.286898  0.755050  1
  O  O16  1  0.984067  0.292663  0.223687  1
  O  O17  1  0.152648  0.370960  0.965829  1
  O  O18  1  0.637512  0.502992  0.892452  1
  O  O19  1  0.543976  0.162444  0.067740  1
  O  O20  1  0.124317  0.640011  0.531893  1
  O  O21  1  0.012494  0.704168  0.781548  1
  O  O22  1  0.440258  0.185805  0.271836  1
  O  O23  1  0.058934  0.943277  0.380292  1
  O  O24  1  0.462842  0.161061  0.571478  1
  O  O25  1  0.963895  0.702442  0.282721  1
  O  O26  1  0.002119  0.038865  0.596193  1
  O  O27  1  0.544138  0.227209  0.775456  1
  O  O28  1  0.556748  0.799733  0.734895  1
  O  O29  1  0.069040  0.065341  0.103427  1
  O  O30  1  0.605180  0.518552  0.608758  1
  O  O31  1  0.384501  0.486920  0.123068  1
  O  O32  1  0.429981  0.790890  0.226235  1
  O  O33  1  0.361649  0.497785  0.380710  1
  O  O34  1  0.525964  0.838908  0.428985  1
  O  O35  1  0.901191  0.957768  0.873523  1
