# generated using pymatgen
data_Er4Sn3Sb3Rh7
_symmetry_space_group_name_H-M   'P 1'
_cell_length_a   7.58597904
_cell_length_b   7.58145853
_cell_length_c   7.58597887
_cell_angle_alpha   109.45915266
_cell_angle_beta   109.48329137
_cell_angle_gamma   109.45914985
_symmetry_Int_Tables_number   1
_chemical_formula_structural   Er4Sn3Sb3Rh7
_chemical_formula_sum   'Er4 Sn3 Sb3 Rh7'
_cell_volume   335.90679238
_cell_formula_units_Z   1
loop_
 _symmetry_equiv_pos_site_id
 _symmetry_equiv_pos_as_xyz
  1  'x, y, z'
loop_
 _atom_site_type_symbol
 _atom_site_label
 _atom_site_symmetry_multiplicity
 _atom_site_fract_x
 _atom_site_fract_y
 _atom_site_fract_z
 _atom_site_occupancy
  Er  Er0  1  0.502296  0.997728  0.000000  1
  Er  Er1  1  0.000000  0.490294  0.000000  1
  Er  Er2  1  0.000000  0.997728  0.502296  1
  Er  Er3  1  0.497704  0.495431  0.497704  1
  Sn  Sn4  1  0.307655  0.994460  0.307655  1
  Sn  Sn5  1  0.000000  0.686805  0.692345  1
  Sn  Sn6  1  0.692345  0.686805  0.000000  1
  Sb  Sb7  1  0.676479  0.995752  0.676479  1
  Sb  Sb8  1  0.000000  0.319272  0.323521  1
  Sb  Sb9  1  0.323521  0.319272  0.000000  1
  Rh  Rh10  1  0.252959  0.502423  0.752875  1
  Rh  Rh11  1  0.499916  0.249464  0.747041  1
  Rh  Rh12  1  0.747041  0.249464  0.499916  1
  Rh  Rh13  1  0.500084  0.749549  0.247125  1
  Rh  Rh14  1  0.000000  0.013586  0.000000  1
  Rh  Rh15  1  0.247125  0.749549  0.500084  1
  Rh  Rh16  1  0.752875  0.502423  0.252959  1
