# generated using pymatgen
data_Hf10Ga2Sn5Sb
_symmetry_space_group_name_H-M   'P 1'
_cell_length_a   8.66194700
_cell_length_b   8.66194760
_cell_length_c   5.80609000
_cell_angle_alpha   90.00000000
_cell_angle_beta   90.00000000
_cell_angle_gamma   119.92215793
_symmetry_Int_Tables_number   1
_chemical_formula_structural   Hf10Ga2Sn5Sb
_chemical_formula_sum   'Hf10 Ga2 Sn5 Sb1'
_cell_volume   377.55966391
_cell_formula_units_Z   1
loop_
 _symmetry_equiv_pos_site_id
 _symmetry_equiv_pos_as_xyz
  1  'x, y, z'
loop_
 _atom_site_type_symbol
 _atom_site_label
 _atom_site_symmetry_multiplicity
 _atom_site_fract_x
 _atom_site_fract_y
 _atom_site_fract_z
 _atom_site_occupancy
  Hf  Hf0  1  0.731362  0.731362  0.750000  1
  Hf  Hf1  1  0.267958  0.001049  0.750000  1
  Hf  Hf2  1  0.001049  0.267958  0.750000  1
  Hf  Hf3  1  0.268864  0.268864  0.250000  1
  Hf  Hf4  1  0.731742  0.999026  0.250000  1
  Hf  Hf5  1  0.999026  0.731742  0.250000  1
  Hf  Hf6  1  0.666127  0.333398  0.000353  1
  Hf  Hf7  1  0.333398  0.666127  0.000353  1
  Hf  Hf8  1  0.333398  0.666127  0.499647  1
  Hf  Hf9  1  0.666127  0.333398  0.499647  1
  Ga  Ga10  1  0.999668  0.999668  0.000755  1
  Ga  Ga11  1  0.999668  0.999668  0.499245  1
  Sn  Sn12  1  0.611421  0.999954  0.750000  1
  Sn  Sn13  1  0.999954  0.611421  0.750000  1
  Sn  Sn14  1  0.611932  0.611932  0.250000  1
  Sn  Sn15  1  0.388510  0.999401  0.250000  1
  Sn  Sn16  1  0.999401  0.388510  0.250000  1
  Sb  Sb17  1  0.390396  0.390396  0.750000  1
