# generated using pymatgen
data_Sr4CdIn4Hg3
_symmetry_space_group_name_H-M   'P 1'
_cell_length_a   8.02020736
_cell_length_b   5.07861900
_cell_length_c   8.77697157
_cell_angle_alpha   90.00000000
_cell_angle_beta   90.22343836
_cell_angle_gamma   90.00000000
_symmetry_Int_Tables_number   1
_chemical_formula_structural   Sr4CdIn4Hg3
_chemical_formula_sum   'Sr4 Cd1 In4 Hg3'
_cell_volume   357.49717878
_cell_formula_units_Z   1
loop_
 _symmetry_equiv_pos_site_id
 _symmetry_equiv_pos_as_xyz
  1  'x, y, z'
loop_
 _atom_site_type_symbol
 _atom_site_label
 _atom_site_symmetry_multiplicity
 _atom_site_fract_x
 _atom_site_fract_y
 _atom_site_fract_z
 _atom_site_occupancy
  Sr  Sr0  1  0.001450  0.750000  0.212744  1
  Sr  Sr1  1  0.501809  0.750000  0.289210  1
  Sr  Sr2  1  0.499087  0.249999  0.710402  1
  Sr  Sr3  1  0.997133  0.249999  0.787643  1
  Cd  Cd4  1  0.301343  0.750000  0.914569  1
  In  In5  1  0.300516  0.249999  0.086257  1
  In  In6  1  0.801876  0.249999  0.413245  1
  In  In7  1  0.198354  0.750000  0.587718  1
  In  In8  1  0.697104  0.750000  0.912612  1
  Hg  Hg9  1  0.700401  0.249999  0.085710  1
  Hg  Hg10  1  0.200833  0.249999  0.414143  1
  Hg  Hg11  1  0.800092  0.750000  0.585747  1
