# generated using pymatgen
data_LaInSiIr2
_symmetry_space_group_name_H-M   'P 1'
_cell_length_a   4.21167700
_cell_length_b   4.21167700
_cell_length_c   11.13375000
_cell_angle_alpha   90.00000000
_cell_angle_beta   90.00000000
_cell_angle_gamma   90.00000000
_symmetry_Int_Tables_number   1
_chemical_formula_structural   LaInSiIr2
_chemical_formula_sum   'La2 In2 Si2 Ir4'
_cell_volume   197.49294202
_cell_formula_units_Z   2
loop_
 _symmetry_equiv_pos_site_id
 _symmetry_equiv_pos_as_xyz
  1  'x, y, z'
loop_
 _atom_site_type_symbol
 _atom_site_label
 _atom_site_symmetry_multiplicity
 _atom_site_fract_x
 _atom_site_fract_y
 _atom_site_fract_z
 _atom_site_occupancy
  La  La0  1  0.500000  0.000000  0.235887  1
  La  La1  1  0.000000  0.500000  0.764113  1
  In  In2  1  0.000000  0.000000  0.500000  1
  In  In3  1  0.500000  0.500000  0.500000  1
  Si  Si4  1  0.000000  0.500000  0.112851  1
  Si  Si5  1  0.500000  0.000000  0.887149  1
  Ir  Ir6  1  0.000000  0.500000  0.328623  1
  Ir  Ir7  1  0.500000  0.000000  0.671377  1
  Ir  Ir8  1  0.000000  0.000000  0.000000  1
  Ir  Ir9  1  0.500000  0.500000  0.000000  1
