# generated using pymatgen
data_TbDyTh2(Al3Re)2
_symmetry_space_group_name_H-M   'P 1'
_cell_length_a   5.53768300
_cell_length_b   5.53768348
_cell_length_c   9.08163700
_cell_angle_alpha   90.00000000
_cell_angle_beta   90.00000000
_cell_angle_gamma   119.99999115
_symmetry_Int_Tables_number   1
_chemical_formula_structural   TbDyTh2(Al3Re)2
_chemical_formula_sum   'Tb1 Dy1 Th2 Al6 Re2'
_cell_volume   241.18540834
_cell_formula_units_Z   1
loop_
 _symmetry_equiv_pos_site_id
 _symmetry_equiv_pos_as_xyz
  1  'x, y, z'
loop_
 _atom_site_type_symbol
 _atom_site_label
 _atom_site_symmetry_multiplicity
 _atom_site_fract_x
 _atom_site_fract_y
 _atom_site_fract_z
 _atom_site_occupancy
  Tb  Tb0  1  0.333333  0.666667  0.556134  1
  Dy  Dy1  1  0.666667  0.333333  0.443660  1
  Th  Th2  1  0.333333  0.666667  0.956093  1
  Th  Th3  1  0.666667  0.333333  0.043850  1
  Al  Al4  1  0.676037  0.838018  0.256322  1
  Al  Al5  1  0.161982  0.838018  0.256322  1
  Al  Al6  1  0.161982  0.323963  0.256322  1
  Al  Al7  1  0.323931  0.161966  0.743709  1
  Al  Al8  1  0.838034  0.161966  0.743709  1
  Al  Al9  1  0.838034  0.676069  0.743709  1
  Re  Re10  1  0.000000  0.000000  0.499933  1
  Re  Re11  1  0.000000  0.000000  0.000238  1
