# generated using pymatgen
data_Na5Ca(Si3Ir)8
_symmetry_space_group_name_H-M   'P 1'
_cell_length_a   10.11425851
_cell_length_b   10.11425818
_cell_length_c   8.16773168
_cell_angle_alpha   90.07863804
_cell_angle_beta   89.92136944
_cell_angle_gamma   132.42715774
_symmetry_Int_Tables_number   1
_chemical_formula_structural   Na5Ca(Si3Ir)8
_chemical_formula_sum   'Na5 Ca1 Si24 Ir8'
_cell_volume   616.74442996
_cell_formula_units_Z   1
loop_
 _symmetry_equiv_pos_site_id
 _symmetry_equiv_pos_as_xyz
  1  'x, y, z'
loop_
 _atom_site_type_symbol
 _atom_site_label
 _atom_site_symmetry_multiplicity
 _atom_site_fract_x
 _atom_site_fract_y
 _atom_site_fract_z
 _atom_site_occupancy
  Na  Na0  1  0.000408  0.500408  0.750000  1
  Na  Na1  1  0.500523  0.000523  0.750000  1
  Na  Na2  1  0.999315  0.499315  0.250000  1
  Na  Na3  1  0.500132  0.500084  0.499971  1
  Na  Na4  1  0.000084  0.000132  0.000029  1
  Ca  Ca5  1  0.499892  0.999892  0.250000  1
  Si  Si6  1  0.389676  0.156627  0.998811  1
  Si  Si7  1  0.656627  0.889676  0.501189  1
  Si  Si8  1  0.111420  0.345219  0.499936  1
  Si  Si9  1  0.845219  0.611420  0.000064  1
  Si  Si10  1  0.610069  0.843340  0.997669  1
  Si  Si11  1  0.343340  0.110069  0.502331  1
  Si  Si12  1  0.888478  0.654375  0.498959  1
  Si  Si13  1  0.154375  0.388478  0.001041  1
  Si  Si14  1  0.615467  0.382294  0.226917  1
  Si  Si15  1  0.882294  0.115467  0.273083  1
  Si  Si16  1  0.884711  0.118971  0.728520  1
  Si  Si17  1  0.618971  0.384711  0.771480  1
  Si  Si18  1  0.386245  0.620343  0.771176  1
  Si  Si19  1  0.120343  0.886245  0.728824  1
  Si  Si20  1  0.708763  0.297023  0.997106  1
  Si  Si21  1  0.797023  0.208763  0.502894  1
  Si  Si22  1  0.291135  0.702859  0.996995  1
  Si  Si23  1  0.202859  0.791135  0.503005  1
  Si  Si24  1  0.169460  0.168193  0.330978  1
  Si  Si25  1  0.668193  0.669460  0.169022  1
  Si  Si26  1  0.330859  0.333113  0.830743  1
  Si  Si27  1  0.833113  0.830859  0.669257  1
  Si  Si28  1  0.378556  0.612448  0.227135  1
  Si  Si29  1  0.112448  0.878556  0.272865  1
  Ir  Ir30  1  0.626515  0.625360  0.874836  1
  Ir  Ir31  1  0.125360  0.126515  0.625164  1
  Ir  Ir32  1  0.874376  0.874654  0.375331  1
  Ir  Ir33  1  0.374654  0.374376  0.124669  1
  Ir  Ir34  1  0.333991  0.668212  0.498845  1
  Ir  Ir35  1  0.168212  0.833991  0.001155  1
  Ir  Ir36  1  0.665664  0.331233  0.498421  1
  Ir  Ir37  1  0.831233  0.165664  0.001579  1
