# generated using pymatgen
data_HfZr4Nb3As4
_symmetry_space_group_name_H-M   'P 1'
_cell_length_a   3.65426800
_cell_length_b   7.11893660
_cell_length_c   8.67206141
_cell_angle_alpha   89.89775144
_cell_angle_beta   90.00000000
_cell_angle_gamma   90.00000000
_symmetry_Int_Tables_number   1
_chemical_formula_structural   HfZr4Nb3As4
_chemical_formula_sum   'Hf1 Zr4 Nb3 As4'
_cell_volume   225.59900141
_cell_formula_units_Z   1
loop_
 _symmetry_equiv_pos_site_id
 _symmetry_equiv_pos_as_xyz
  1  'x, y, z'
loop_
 _atom_site_type_symbol
 _atom_site_label
 _atom_site_symmetry_multiplicity
 _atom_site_fract_x
 _atom_site_fract_y
 _atom_site_fract_z
 _atom_site_occupancy
  Hf  Hf0  1  0.250000  0.135569  0.060388  1
  Zr  Zr1  1  0.250000  0.542092  0.832340  1
  Zr  Zr2  1  0.750000  0.958176  0.334955  1
  Zr  Zr3  1  0.250000  0.039417  0.665102  1
  Zr  Zr4  1  0.750000  0.465252  0.171868  1
  Nb  Nb5  1  0.750000  0.857860  0.937937  1
  Nb  Nb6  1  0.250000  0.635770  0.440780  1
  Nb  Nb7  1  0.750000  0.366782  0.559318  1
  As  As8  1  0.750000  0.743001  0.642450  1
  As  As9  1  0.250000  0.757025  0.142734  1
  As  As10  1  0.750000  0.242189  0.852392  1
  As  As11  1  0.250000  0.256868  0.359737  1
