# generated using pymatgen
data_Dy5Y11Cd4OsPt3
_symmetry_space_group_name_H-M   'P 1'
_cell_length_a   9.72421423
_cell_length_b   9.73455731
_cell_length_c   9.73455611
_cell_angle_alpha   59.62174583
_cell_angle_beta   59.64118294
_cell_angle_gamma   59.64117448
_symmetry_Int_Tables_number   1
_chemical_formula_structural   Dy5Y11Cd4OsPt3
_chemical_formula_sum   'Dy5 Y11 Cd4 Os1 Pt3'
_cell_volume   646.17729900
_cell_formula_units_Z   1
loop_
 _symmetry_equiv_pos_site_id
 _symmetry_equiv_pos_as_xyz
  1  'x, y, z'
loop_
 _atom_site_type_symbol
 _atom_site_label
 _atom_site_symmetry_multiplicity
 _atom_site_fract_x
 _atom_site_fract_y
 _atom_site_fract_z
 _atom_site_occupancy
  Dy  Dy0  1  0.351827  0.351694  0.351694  1
  Dy  Dy1  1  0.349723  0.349622  0.948194  1
  Dy  Dy2  1  0.349723  0.948194  0.349622  1
  Dy  Dy3  1  0.947980  0.349747  0.349747  1
  Dy  Dy4  1  0.814728  0.189034  0.189034  1
  Y  Y5  1  0.189323  0.809549  0.809549  1
  Y  Y6  1  0.189167  0.814318  0.189201  1
  Y  Y7  1  0.809632  0.189326  0.809493  1
  Y  Y8  1  0.189167  0.189201  0.814318  1
  Y  Y9  1  0.809632  0.809493  0.189326  1
  Y  Y10  1  0.935839  0.564913  0.564913  1
  Y  Y11  1  0.558841  0.937619  0.937619  1
  Y  Y12  1  0.564984  0.935906  0.564850  1
  Y  Y13  1  0.937578  0.558622  0.937714  1
  Y  Y14  1  0.564984  0.564850  0.935906  1
  Y  Y15  1  0.937578  0.937714  0.558622  1
  Cd  Cd16  1  0.580514  0.580486  0.580486  1
  Cd  Cd17  1  0.581110  0.581210  0.254661  1
  Cd  Cd18  1  0.581110  0.254661  0.581210  1
  Cd  Cd19  1  0.254646  0.581129  0.581129  1
  Os  Os20  1  0.142606  0.143969  0.143969  1
  Pt  Pt21  1  0.143981  0.143935  0.570743  1
  Pt  Pt22  1  0.143981  0.570743  0.143935  1
  Pt  Pt23  1  0.571350  0.144070  0.144070  1
