# generated using pymatgen
data_GdTmHf2(NiP)4
_symmetry_space_group_name_H-M   'P 1'
_cell_length_a   3.84624900
_cell_length_b   3.84624982
_cell_length_c   14.63397100
_cell_angle_alpha   90.00000000
_cell_angle_beta   90.00000000
_cell_angle_gamma   120.00000156
_symmetry_Int_Tables_number   1
_chemical_formula_structural   GdTmHf2(NiP)4
_chemical_formula_sum   'Gd1 Tm1 Hf2 Ni4 P4'
_cell_volume   187.48550636
_cell_formula_units_Z   1
loop_
 _symmetry_equiv_pos_site_id
 _symmetry_equiv_pos_as_xyz
  1  'x, y, z'
loop_
 _atom_site_type_symbol
 _atom_site_label
 _atom_site_symmetry_multiplicity
 _atom_site_fract_x
 _atom_site_fract_y
 _atom_site_fract_z
 _atom_site_occupancy
  Gd  Gd0  1  0.000000  0.000000  0.500000  1
  Tm  Tm1  1  0.000000  0.000000  0.000000  1
  Hf  Hf2  1  0.000000  0.000000  0.248438  1
  Hf  Hf3  1  0.000000  0.000000  0.751562  1
  Ni  Ni4  1  0.333333  0.666667  0.349547  1
  Ni  Ni5  1  0.666667  0.333333  0.650453  1
  Ni  Ni6  1  0.666667  0.333333  0.853983  1
  Ni  Ni7  1  0.333333  0.666667  0.146017  1
  P  P8  1  0.333333  0.666667  0.876808  1
  P  P9  1  0.666667  0.333333  0.123192  1
  P  P10  1  0.666667  0.333333  0.372960  1
  P  P11  1  0.333333  0.666667  0.627040  1
