# generated using pymatgen
data_HoEr3(CCl)2
_symmetry_space_group_name_H-M   'P 1'
_cell_length_a   3.61095600
_cell_length_b   3.61095632
_cell_length_c   13.48280200
_cell_angle_alpha   90.00000000
_cell_angle_beta   90.00000000
_cell_angle_gamma   119.99999705
_symmetry_Int_Tables_number   1
_chemical_formula_structural   HoEr3(CCl)2
_chemical_formula_sum   'Ho1 Er3 C2 Cl2'
_cell_volume   152.24927499
_cell_formula_units_Z   1
loop_
 _symmetry_equiv_pos_site_id
 _symmetry_equiv_pos_as_xyz
  1  'x, y, z'
loop_
 _atom_site_type_symbol
 _atom_site_label
 _atom_site_symmetry_multiplicity
 _atom_site_fract_x
 _atom_site_fract_y
 _atom_site_fract_z
 _atom_site_occupancy
  Ho  Ho0  1  0.333333  0.666667  0.906579  1
  Er  Er1  1  0.333333  0.666667  0.592999  1
  Er  Er2  1  0.666667  0.333333  0.406447  1
  Er  Er3  1  0.666667  0.333333  0.094152  1
  C  C4  1  0.000000  0.000000  0.001325  1
  C  C5  1  0.000000  0.000000  0.499678  1
  Cl  Cl6  1  0.333333  0.666667  0.250753  1
  Cl  Cl7  1  0.666667  0.333333  0.748066  1
