# generated using pymatgen
data_Li2Sn(P3Pd10)2
_symmetry_space_group_name_H-M   'P 1'
_cell_length_a   8.58427037
_cell_length_b   8.58413846
_cell_length_c   8.58411700
_cell_angle_alpha   59.99794869
_cell_angle_beta   59.99894923
_cell_angle_gamma   59.99849098
_symmetry_Int_Tables_number   1
_chemical_formula_structural   Li2Sn(P3Pd10)2
_chemical_formula_sum   'Li2 Sn1 P6 Pd20'
_cell_volume   447.26570360
_cell_formula_units_Z   1
loop_
 _symmetry_equiv_pos_site_id
 _symmetry_equiv_pos_as_xyz
  1  'x, y, z'
loop_
 _atom_site_type_symbol
 _atom_site_label
 _atom_site_symmetry_multiplicity
 _atom_site_fract_x
 _atom_site_fract_y
 _atom_site_fract_z
 _atom_site_occupancy
  Li  Li0  1  0.000000  0.999997  0.000002  1
  Li  Li1  1  0.749998  0.749998  0.750003  1
  Sn  Sn2  1  0.249997  0.250007  0.250007  1
  P  P3  1  0.735913  0.264081  0.264091  1
  P  P4  1  0.735921  0.735913  0.264091  1
  P  P5  1  0.735921  0.264090  0.735905  1
  P  P6  1  0.264078  0.735908  0.264093  1
  P  P7  1  0.264085  0.735917  0.735912  1
  P  P8  1  0.264084  0.264091  0.735903  1
  Pd  Pd9  1  0.343493  0.999204  0.999202  1
  Pd  Pd10  1  0.999200  0.658095  0.343506  1
  Pd  Pd11  1  0.343494  0.999209  0.658089  1
  Pd  Pd12  1  0.999207  0.658092  0.999206  1
  Pd  Pd13  1  0.658107  0.343492  0.999199  1
  Pd  Pd14  1  0.615513  0.615513  0.153462  1
  Pd  Pd15  1  0.380286  0.859142  0.380284  1
  Pd  Pd16  1  0.153467  0.615511  0.615511  1
  Pd  Pd17  1  0.658097  0.999197  0.343508  1
  Pd  Pd18  1  0.999205  0.343494  0.658095  1
  Pd  Pd19  1  0.658096  0.999206  0.999203  1
  Pd  Pd20  1  0.999196  0.999196  0.343510  1
  Pd  Pd21  1  0.615507  0.153479  0.615507  1
  Pd  Pd22  1  0.343489  0.658098  0.999206  1
  Pd  Pd23  1  0.380283  0.380283  0.380282  1
  Pd  Pd24  1  0.615517  0.615514  0.615516  1
  Pd  Pd25  1  0.380287  0.380286  0.859139  1
  Pd  Pd26  1  0.999208  0.999209  0.658086  1
  Pd  Pd27  1  0.859149  0.380283  0.380283  1
  Pd  Pd28  1  0.999201  0.343495  0.999199  1
