# generated using pymatgen
data_Tb2Al9CuRePd
_symmetry_space_group_name_H-M   'P 1'
_cell_length_a   7.58344465
_cell_length_b   7.58344483
_cell_length_c   9.51102822
_cell_angle_alpha   89.91010647
_cell_angle_beta   89.91011045
_cell_angle_gamma   118.63582828
_symmetry_Int_Tables_number   1
_chemical_formula_structural   Tb2Al9CuRePd
_chemical_formula_sum   'Tb4 Al18 Cu2 Re2 Pd2'
_cell_volume   480.06095847
_cell_formula_units_Z   2
loop_
 _symmetry_equiv_pos_site_id
 _symmetry_equiv_pos_as_xyz
  1  'x, y, z'
loop_
 _atom_site_type_symbol
 _atom_site_label
 _atom_site_symmetry_multiplicity
 _atom_site_fract_x
 _atom_site_fract_y
 _atom_site_fract_z
 _atom_site_occupancy
  Tb  Tb0  1  0.993909  0.678263  0.248672  1
  Tb  Tb1  1  0.006091  0.321737  0.751328  1
  Tb  Tb2  1  0.678263  0.993909  0.248672  1
  Tb  Tb3  1  0.321737  0.006091  0.751328  1
  Al  Al4  1  0.133190  0.133190  0.249444  1
  Al  Al5  1  0.866810  0.866810  0.750556  1
  Al  Al6  1  0.001188  0.335922  0.076671  1
  Al  Al7  1  0.998812  0.664078  0.923329  1
  Al  Al8  1  0.998593  0.665017  0.576102  1
  Al  Al9  1  0.334983  0.001407  0.423898  1
  Al  Al10  1  0.001407  0.334983  0.423898  1
  Al  Al11  1  0.665017  0.998593  0.576102  1
  Al  Al12  1  0.664078  0.998812  0.923329  1
  Al  Al13  1  0.335922  0.001188  0.076671  1
  Al  Al14  1  0.329880  0.329880  0.549012  1
  Al  Al15  1  0.670120  0.670120  0.450988  1
  Al  Al16  1  0.667921  0.667921  0.050574  1
  Al  Al17  1  0.332079  0.332079  0.949426  1
  Al  Al18  1  0.345054  0.553701  0.248773  1
  Al  Al19  1  0.654946  0.446299  0.751227  1
  Al  Al20  1  0.553701  0.345054  0.248773  1
  Al  Al21  1  0.446299  0.654946  0.751227  1
  Cu  Cu22  1  0.671590  0.328410  0.000000  1
  Cu  Cu23  1  0.328410  0.671590  0.000000  1
  Re  Re24  1  0.000000  0.000000  0.000000  1
  Re  Re25  1  0.000000  0.000000  0.500000  1
  Pd  Pd26  1  0.328345  0.671655  0.500000  1
  Pd  Pd27  1  0.671655  0.328345  0.500000  1
