# generated using pymatgen
data_Ta4Ti6CuSn7
_symmetry_space_group_name_H-M   'P 1'
_cell_length_a   5.63406410
_cell_length_b   8.30455262
_cell_length_c   8.31303469
_cell_angle_alpha   119.96625880
_cell_angle_beta   90.00834002
_cell_angle_gamma   89.98330556
_symmetry_Int_Tables_number   1
_chemical_formula_structural   Ta4Ti6CuSn7
_chemical_formula_sum   'Ta4 Ti6 Cu1 Sn7'
_cell_volume   336.95801425
_cell_formula_units_Z   1
loop_
 _symmetry_equiv_pos_site_id
 _symmetry_equiv_pos_as_xyz
  1  'x, y, z'
loop_
 _atom_site_type_symbol
 _atom_site_label
 _atom_site_symmetry_multiplicity
 _atom_site_fract_x
 _atom_site_fract_y
 _atom_site_fract_z
 _atom_site_occupancy
  Ta  Ta0  1  0.500016  0.333319  0.666710  1
  Ta  Ta1  1  0.500016  0.666609  0.333290  1
  Ta  Ta2  1  0.000033  0.666623  0.333320  1
  Ta  Ta3  1  0.000033  0.333302  0.666680  1
  Ti  Ti4  1  0.735903  0.278531  0.000000  1
  Ti  Ti5  1  0.735844  0.721435  0.721487  1
  Ti  Ti6  1  0.735844  0.999947  0.278513  1
  Ti  Ti7  1  0.264335  0.721518  0.000000  1
  Ti  Ti8  1  0.264177  0.278566  0.278569  1
  Ti  Ti9  1  0.264177  0.999998  0.721431  1
  Cu  Cu10  1  0.499652  0.000448  0.000000  1
  Sn  Sn11  1  0.753646  0.618726  0.000000  1
  Sn  Sn12  1  0.753623  0.381272  0.381340  1
  Sn  Sn13  1  0.753623  0.999932  0.618660  1
  Sn  Sn14  1  0.246407  0.381331  0.000000  1
  Sn  Sn15  1  0.246419  0.618631  0.618702  1
  Sn  Sn16  1  0.246419  0.999929  0.381298  1
  Sn  Sn17  1  0.999834  0.999884  0.000000  1
