# generated using pymatgen
data_Ho16Cd4Os3Pd
_symmetry_space_group_name_H-M   'P 1'
_cell_length_a   9.52804326
_cell_length_b   9.71990028
_cell_length_c   9.71990100
_cell_angle_alpha   59.99999414
_cell_angle_beta   59.33163351
_cell_angle_gamma   59.33163552
_symmetry_Int_Tables_number   1
_chemical_formula_structural   Ho16Cd4Os3Pd
_chemical_formula_sum   'Ho16 Cd4 Os3 Pd1'
_cell_volume   630.01411876
_cell_formula_units_Z   1
loop_
 _symmetry_equiv_pos_site_id
 _symmetry_equiv_pos_as_xyz
  1  'x, y, z'
loop_
 _atom_site_type_symbol
 _atom_site_label
 _atom_site_symmetry_multiplicity
 _atom_site_fract_x
 _atom_site_fract_y
 _atom_site_fract_z
 _atom_site_occupancy
  Ho  Ho0  1  0.346796  0.352497  0.352497  1
  Ho  Ho1  1  0.346796  0.352497  0.948211  1
  Ho  Ho2  1  0.346796  0.948211  0.352497  1
  Ho  Ho3  1  0.972412  0.342530  0.342530  1
  Ho  Ho4  1  0.816159  0.189548  0.189548  1
  Ho  Ho5  1  0.184047  0.811290  0.811290  1
  Ho  Ho6  1  0.184047  0.811290  0.193373  1
  Ho  Ho7  1  0.816159  0.189548  0.804746  1
  Ho  Ho8  1  0.184047  0.193373  0.811290  1
  Ho  Ho9  1  0.816159  0.804746  0.189548  1
  Ho  Ho10  1  0.933186  0.563679  0.563679  1
  Ho  Ho11  1  0.552384  0.940480  0.940480  1
  Ho  Ho12  1  0.552384  0.940480  0.566656  1
  Ho  Ho13  1  0.933186  0.563679  0.939456  1
  Ho  Ho14  1  0.552384  0.566656  0.940480  1
  Ho  Ho15  1  0.933186  0.939456  0.563679  1
  Cd  Cd16  1  0.581158  0.578964  0.578964  1
  Cd  Cd17  1  0.581158  0.578964  0.260913  1
  Cd  Cd18  1  0.581158  0.260913  0.578964  1
  Cd  Cd19  1  0.254810  0.581730  0.581730  1
  Os  Os20  1  0.152767  0.135543  0.135543  1
  Os  Os21  1  0.152767  0.135543  0.576147  1
  Os  Os22  1  0.152767  0.576147  0.135543  1
  Pd  Pd23  1  0.573285  0.142238  0.142238  1
