# generated using pymatgen
data_Tb15NdCd4OsPt3
_symmetry_space_group_name_H-M   'P 1'
_cell_length_a   9.76114487
_cell_length_b   9.76114497
_cell_length_c   9.77038050
_cell_angle_alpha   59.65808751
_cell_angle_beta   59.65809457
_cell_angle_gamma   59.44164818
_symmetry_Int_Tables_number   1
_chemical_formula_structural   Tb15NdCd4OsPt3
_chemical_formula_sum   'Tb15 Nd1 Cd4 Os1 Pt3'
_cell_volume   652.05909861
_cell_formula_units_Z   1
loop_
 _symmetry_equiv_pos_site_id
 _symmetry_equiv_pos_as_xyz
  1  'x, y, z'
loop_
 _atom_site_type_symbol
 _atom_site_label
 _atom_site_symmetry_multiplicity
 _atom_site_fract_x
 _atom_site_fract_y
 _atom_site_fract_z
 _atom_site_occupancy
  Tb  Tb0  1  0.351883  0.351883  0.351683  1
  Tb  Tb1  1  0.349252  0.349252  0.950535  1
  Tb  Tb2  1  0.349606  0.950820  0.348222  1
  Tb  Tb3  1  0.950820  0.349606  0.348222  1
  Tb  Tb4  1  0.814308  0.190157  0.187696  1
  Tb  Tb5  1  0.188641  0.809207  0.809883  1
  Tb  Tb6  1  0.190157  0.814308  0.187696  1
  Tb  Tb7  1  0.809207  0.188641  0.809883  1
  Tb  Tb8  1  0.188966  0.188966  0.814589  1
  Tb  Tb9  1  0.809676  0.809676  0.186912  1
  Tb  Tb10  1  0.935558  0.562715  0.565360  1
  Tb  Tb11  1  0.556587  0.937488  0.938779  1
  Tb  Tb12  1  0.562715  0.935558  0.565360  1
  Tb  Tb13  1  0.937488  0.556587  0.938779  1
  Tb  Tb14  1  0.565239  0.565239  0.935907  1
  Nd  Nd15  1  0.935874  0.935874  0.560377  1
  Cd  Cd16  1  0.580772  0.580772  0.580242  1
  Cd  Cd17  1  0.581775  0.581775  0.253682  1
  Cd  Cd18  1  0.578606  0.256668  0.581926  1
  Cd  Cd19  1  0.256668  0.578606  0.581926  1
  Os  Os20  1  0.144055  0.144055  0.141199  1
  Pt  Pt21  1  0.144874  0.144874  0.572768  1
  Pt  Pt22  1  0.144749  0.572525  0.144187  1
  Pt  Pt23  1  0.572525  0.144749  0.144187  1
