# generated using pymatgen
data_Nb5Fe12Co7P12
_symmetry_space_group_name_H-M   'P 1'
_cell_length_a   11.68413700
_cell_length_b   11.68413771
_cell_length_c   3.58386700
_cell_angle_alpha   90.00000000
_cell_angle_beta   90.00000000
_cell_angle_gamma   120.00000081
_symmetry_Int_Tables_number   1
_chemical_formula_structural   Nb5Fe12Co7P12
_chemical_formula_sum   'Nb5 Fe12 Co7 P12'
_cell_volume   423.71693309
_cell_formula_units_Z   1
loop_
 _symmetry_equiv_pos_site_id
 _symmetry_equiv_pos_as_xyz
  1  'x, y, z'
loop_
 _atom_site_type_symbol
 _atom_site_label
 _atom_site_symmetry_multiplicity
 _atom_site_fract_x
 _atom_site_fract_y
 _atom_site_fract_z
 _atom_site_occupancy
  Nb  Nb0  1  0.333333  0.666667  0.500000  1
  Nb  Nb1  1  0.666667  0.333333  0.500000  1
  Nb  Nb2  1  0.817165  0.000000  0.000000  1
  Nb  Nb3  1  0.000000  0.817165  0.000000  1
  Nb  Nb4  1  0.182835  0.182835  0.000000  1
  Fe  Fe5  1  0.622820  0.804579  0.500000  1
  Fe  Fe6  1  0.195421  0.818240  0.500000  1
  Fe  Fe7  1  0.181760  0.377180  0.500000  1
  Fe  Fe8  1  0.377180  0.181760  0.500000  1
  Fe  Fe9  1  0.804579  0.622820  0.500000  1
  Fe  Fe10  1  0.818240  0.195421  0.500000  1
  Fe  Fe11  1  0.281567  0.000000  0.000000  1
  Fe  Fe12  1  0.000000  0.281567  0.000000  1
  Fe  Fe13  1  0.718433  0.718433  0.000000  1
  Fe  Fe14  1  0.446754  0.000000  0.500000  1
  Fe  Fe15  1  0.000000  0.446754  0.500000  1
  Fe  Fe16  1  0.553246  0.553246  0.500000  1
  Co  Co17  1  0.513647  0.873064  0.000000  1
  Co  Co18  1  0.126936  0.640583  0.000000  1
  Co  Co19  1  0.359417  0.486353  0.000000  1
  Co  Co20  1  0.486353  0.359417  0.000000  1
  Co  Co21  1  0.873064  0.513647  0.000000  1
  Co  Co22  1  0.640583  0.126936  0.000000  1
  Co  Co23  1  0.000000  0.000000  0.500000  1
  P  P24  1  0.178436  0.000000  0.500000  1
  P  P25  1  0.000000  0.178436  0.500000  1
  P  P26  1  0.821564  0.821564  0.500000  1
  P  P27  1  0.518283  0.686474  0.000000  1
  P  P28  1  0.313526  0.831809  0.000000  1
  P  P29  1  0.168191  0.481717  0.000000  1
  P  P30  1  0.481717  0.168191  0.000000  1
  P  P31  1  0.686474  0.518283  0.000000  1
  P  P32  1  0.831809  0.313526  0.000000  1
  P  P33  1  0.636822  0.000000  0.500000  1
  P  P34  1  0.000000  0.636822  0.500000  1
  P  P35  1  0.363178  0.363178  0.500000  1
