# generated using pymatgen
data_Tm6Al19Si5Ru8
_symmetry_space_group_name_H-M   'P 1'
_cell_length_a   8.64648725
_cell_length_b   8.64648579
_cell_length_c   9.53455100
_cell_angle_alpha   90.00000000
_cell_angle_beta   90.00000000
_cell_angle_gamma   119.90060982
_symmetry_Int_Tables_number   1
_chemical_formula_structural   Tm6Al19Si5Ru8
_chemical_formula_sum   'Tm6 Al19 Si5 Ru8'
_cell_volume   617.93714217
_cell_formula_units_Z   1
loop_
 _symmetry_equiv_pos_site_id
 _symmetry_equiv_pos_as_xyz
  1  'x, y, z'
loop_
 _atom_site_type_symbol
 _atom_site_label
 _atom_site_symmetry_multiplicity
 _atom_site_fract_x
 _atom_site_fract_y
 _atom_site_fract_z
 _atom_site_occupancy
  Tm  Tm0  1  0.804583  0.195417  0.750000  1
  Tm  Tm1  1  0.194839  0.805161  0.250000  1
  Tm  Tm2  1  0.393170  0.199218  0.750000  1
  Tm  Tm3  1  0.608997  0.804719  0.250000  1
  Tm  Tm4  1  0.800782  0.606830  0.750000  1
  Tm  Tm5  1  0.195281  0.391003  0.250000  1
  Al  Al6  1  0.835433  0.164567  0.420279  1
  Al  Al7  1  0.164985  0.835015  0.579915  1
  Al  Al8  1  0.329620  0.164995  0.421149  1
  Al  Al9  1  0.164985  0.835015  0.920085  1
  Al  Al10  1  0.670819  0.836140  0.579848  1
  Al  Al11  1  0.835433  0.164567  0.079721  1
  Al  Al12  1  0.835005  0.670380  0.421149  1
  Al  Al13  1  0.670819  0.836140  0.920152  1
  Al  Al14  1  0.163860  0.329181  0.579848  1
  Al  Al15  1  0.329620  0.164995  0.078851  1
  Al  Al16  1  0.163860  0.329181  0.920152  1
  Al  Al17  1  0.835005  0.670380  0.078851  1
  Al  Al18  1  0.562246  0.437754  0.250000  1
  Al  Al19  1  0.125934  0.560387  0.750000  1
  Al  Al20  1  0.874090  0.437501  0.250000  1
  Al  Al21  1  0.439613  0.874066  0.750000  1
  Al  Al22  1  0.562499  0.125910  0.250000  1
  Al  Al23  1  0.000020  0.999980  0.750000  1
  Al  Al24  1  0.999704  0.000296  0.250000  1
  Si  Si25  1  0.667469  0.332531  0.962362  1
  Si  Si26  1  0.332640  0.667360  0.039684  1
  Si  Si27  1  0.332640  0.667360  0.460316  1
  Si  Si28  1  0.667469  0.332531  0.537638  1
  Si  Si29  1  0.436992  0.563008  0.750000  1
  Ru  Ru30  1  0.499304  0.500696  0.994238  1
  Ru  Ru31  1  0.000985  0.499901  0.999480  1
  Ru  Ru32  1  0.499304  0.500696  0.505762  1
  Ru  Ru33  1  0.500099  0.999015  0.999480  1
  Ru  Ru34  1  0.000985  0.499901  0.500520  1
  Ru  Ru35  1  0.500099  0.999015  0.500520  1
  Ru  Ru36  1  0.000406  0.999594  0.999986  1
  Ru  Ru37  1  0.000406  0.999594  0.500014  1
