# generated using pymatgen
data_TbDy11(AlAu5)4
_symmetry_space_group_name_H-M   'P 1'
_cell_length_a   8.48887800
_cell_length_b   8.48887864
_cell_length_c   13.49165600
_cell_angle_alpha   90.00151498
_cell_angle_beta   89.99848388
_cell_angle_gamma   128.50066949
_symmetry_Int_Tables_number   1
_chemical_formula_structural   TbDy11(AlAu5)4
_chemical_formula_sum   'Tb1 Dy11 Al4 Au20'
_cell_volume   760.86255185
_cell_formula_units_Z   1
loop_
 _symmetry_equiv_pos_site_id
 _symmetry_equiv_pos_as_xyz
  1  'x, y, z'
loop_
 _atom_site_type_symbol
 _atom_site_label
 _atom_site_symmetry_multiplicity
 _atom_site_fract_x
 _atom_site_fract_y
 _atom_site_fract_z
 _atom_site_occupancy
  Tb  Tb0  1  0.118411  0.881589  0.451500  1
  Dy  Dy1  1  0.927741  0.072259  0.249992  1
  Dy  Dy2  1  0.072252  0.927748  0.750005  1
  Dy  Dy3  1  0.320422  0.679578  0.249989  1
  Dy  Dy4  1  0.679578  0.320422  0.750000  1
  Dy  Dy5  1  0.630666  0.369334  0.464636  1
  Dy  Dy6  1  0.369350  0.630650  0.535367  1
  Dy  Dy7  1  0.630667  0.369333  0.035363  1
  Dy  Dy8  1  0.369335  0.630665  0.964634  1
  Dy  Dy9  1  0.881581  0.118419  0.951496  1
  Dy  Dy10  1  0.118418  0.881582  0.048504  1
  Dy  Dy11  1  0.881570  0.118430  0.548507  1
  Al  Al12  1  0.720386  0.279614  0.250000  1
  Al  Al13  1  0.279617  0.720383  0.750000  1
  Al  Al14  1  0.532670  0.467330  0.250001  1
  Al  Al15  1  0.467326  0.532674  0.750001  1
  Au  Au16  1  0.323169  0.069214  0.249965  1
  Au  Au17  1  0.069194  0.323141  0.750002  1
  Au  Au18  1  0.676859  0.930806  0.750002  1
  Au  Au19  1  0.930786  0.676831  0.249965  1
  Au  Au20  1  0.570185  0.003879  0.396602  1
  Au  Au21  1  0.003837  0.570092  0.603429  1
  Au  Au22  1  0.570158  0.003865  0.103396  1
  Au  Au23  1  0.003864  0.570155  0.896605  1
  Au  Au24  1  0.429908  0.996163  0.603429  1
  Au  Au25  1  0.996121  0.429815  0.396602  1
  Au  Au26  1  0.429845  0.996136  0.896605  1
  Au  Au27  1  0.996135  0.429842  0.103396  1
  Au  Au28  1  0.686031  0.741456  0.394592  1
  Au  Au29  1  0.741450  0.686075  0.605414  1
  Au  Au30  1  0.686090  0.741481  0.105401  1
  Au  Au31  1  0.741482  0.686092  0.894599  1
  Au  Au32  1  0.313925  0.258550  0.605414  1
  Au  Au33  1  0.258544  0.313969  0.394592  1
  Au  Au34  1  0.313908  0.258518  0.894599  1
  Au  Au35  1  0.258519  0.313910  0.105401  1
