# generated using pymatgen
data_Lu2Si5Os3
_symmetry_space_group_name_H-M   'P 1'
_cell_length_a   8.09275910
_cell_length_b   8.09275818
_cell_length_c   5.73947425
_cell_angle_alpha   70.68265004
_cell_angle_beta   70.68266139
_cell_angle_gamma   94.26797300
_symmetry_Int_Tables_number   1
_chemical_formula_structural   Lu2Si5Os3
_chemical_formula_sum   'Lu4 Si10 Os6'
_cell_volume   327.54930823
_cell_formula_units_Z   2
loop_
 _symmetry_equiv_pos_site_id
 _symmetry_equiv_pos_as_xyz
  1  'x, y, z'
loop_
 _atom_site_type_symbol
 _atom_site_label
 _atom_site_symmetry_multiplicity
 _atom_site_fract_x
 _atom_site_fract_y
 _atom_site_fract_z
 _atom_site_occupancy
  Lu  Lu0  1  0.869172  0.600373  0.753628  1
  Lu  Lu1  1  0.399627  0.130828  0.746372  1
  Lu  Lu2  1  0.130828  0.399627  0.246372  1
  Lu  Lu3  1  0.600373  0.869172  0.253628  1
  Si  Si4  1  0.069489  0.262039  0.832551  1
  Si  Si5  1  0.737961  0.930511  0.667449  1
  Si  Si6  1  0.930511  0.737961  0.167449  1
  Si  Si7  1  0.262039  0.069489  0.332551  1
  Si  Si8  1  0.205641  0.794359  0.750000  1
  Si  Si9  1  0.794359  0.205641  0.250000  1
  Si  Si10  1  0.512766  0.487234  0.750000  1
  Si  Si11  1  0.487234  0.512766  0.250000  1
  Si  Si12  1  0.775505  0.224495  0.750000  1
  Si  Si13  1  0.224495  0.775505  0.250000  1
  Os  Os14  1  0.254899  0.544351  0.631121  1
  Os  Os15  1  0.455649  0.745101  0.868879  1
  Os  Os16  1  0.745101  0.455649  0.368879  1
  Os  Os17  1  0.544351  0.254899  0.131121  1
  Os  Os18  1  0.002416  0.997584  0.750000  1
  Os  Os19  1  0.997584  0.002416  0.250000  1
