# generated using pymatgen
data_Tb3Dy6Er11Pb16
_symmetry_space_group_name_H-M   'P 1'
_cell_length_a   8.18279554
_cell_length_b   8.26025365
_cell_length_c   15.58561422
_cell_angle_alpha   90.00979526
_cell_angle_beta   90.02913396
_cell_angle_gamma   90.04636413
_symmetry_Int_Tables_number   1
_chemical_formula_structural   Tb3Dy6Er11Pb16
_chemical_formula_sum   'Tb3 Dy6 Er11 Pb16'
_cell_volume   1053.46182159
_cell_formula_units_Z   1
loop_
 _symmetry_equiv_pos_site_id
 _symmetry_equiv_pos_as_xyz
  1  'x, y, z'
loop_
 _atom_site_type_symbol
 _atom_site_label
 _atom_site_symmetry_multiplicity
 _atom_site_fract_x
 _atom_site_fract_y
 _atom_site_fract_z
 _atom_site_occupancy
  Tb  Tb0  1  0.965350  0.823122  0.400231  1
  Tb  Tb1  1  0.534426  0.322994  0.599615  1
  Tb  Tb2  1  0.034694  0.176629  0.900182  1
  Dy  Dy3  1  0.876654  0.659312  0.879392  1
  Dy  Dy4  1  0.534671  0.322939  0.900223  1
  Dy  Dy5  1  0.034780  0.176791  0.599683  1
  Dy  Dy6  1  0.465326  0.676822  0.400157  1
  Dy  Dy7  1  0.965148  0.823519  0.100269  1
  Dy  Dy8  1  0.465527  0.676657  0.099831  1
  Er  Er9  1  0.376291  0.840931  0.878850  1
  Er  Er10  1  0.876293  0.658840  0.620997  1
  Er  Er11  1  0.623758  0.158799  0.378922  1
  Er  Er12  1  0.123617  0.341334  0.120988  1
  Er  Er13  1  0.623403  0.158749  0.121409  1
  Er  Er14  1  0.123710  0.341055  0.378963  1
  Er  Er15  1  0.376467  0.841193  0.620853  1
  Er  Er16  1  0.208239  0.504451  0.749845  1
  Er  Er17  1  0.707906  0.995618  0.749767  1
  Er  Er18  1  0.791807  0.495346  0.250143  1
  Er  Er19  1  0.291882  0.004455  0.249920  1
  Pb  Pb20  1  0.282466  0.034022  0.042760  1
  Pb  Pb21  1  0.782539  0.465870  0.457223  1
  Pb  Pb22  1  0.717507  0.965892  0.542702  1
  Pb  Pb23  1  0.219079  0.533676  0.957422  1
  Pb  Pb24  1  0.716603  0.967132  0.957456  1
  Pb  Pb25  1  0.217292  0.534266  0.542617  1
  Pb  Pb26  1  0.282564  0.034291  0.457280  1
  Pb  Pb27  1  0.782160  0.465238  0.043421  1
  Pb  Pb28  1  0.570961  0.627335  0.749663  1
  Pb  Pb29  1  0.071810  0.873291  0.749559  1
  Pb  Pb30  1  0.428551  0.372720  0.250064  1
  Pb  Pb31  1  0.928769  0.127387  0.250018  1
  Pb  Pb32  1  0.345734  0.152516  0.750036  1
  Pb  Pb33  1  0.845754  0.347022  0.749652  1
  Pb  Pb34  1  0.654000  0.847127  0.249992  1
  Pb  Pb35  1  0.154260  0.652657  0.249898  1
