# generated using pymatgen
data_Yb4GaSb
_symmetry_space_group_name_H-M   'P 1'
_cell_length_a   5.08159700
_cell_length_b   7.27698300
_cell_length_c   9.45622800
_cell_angle_alpha   90.00000000
_cell_angle_beta   90.00000000
_cell_angle_gamma   90.00000000
_symmetry_Int_Tables_number   1
_chemical_formula_structural   Yb4GaSb
_chemical_formula_sum   'Yb8 Ga2 Sb2'
_cell_volume   349.67897089
_cell_formula_units_Z   2
loop_
 _symmetry_equiv_pos_site_id
 _symmetry_equiv_pos_as_xyz
  1  'x, y, z'
loop_
 _atom_site_type_symbol
 _atom_site_label
 _atom_site_symmetry_multiplicity
 _atom_site_fract_x
 _atom_site_fract_y
 _atom_site_fract_z
 _atom_site_occupancy
  Yb  Yb0  1  0.250000  0.820038  0.941713  1
  Yb  Yb1  1  0.250000  0.320038  0.558287  1
  Yb  Yb2  1  0.750000  0.165405  0.086013  1
  Yb  Yb3  1  0.750000  0.665405  0.413987  1
  Yb  Yb4  1  0.250000  0.982254  0.305654  1
  Yb  Yb5  1  0.250000  0.482254  0.194346  1
  Yb  Yb6  1  0.750000  0.030744  0.698402  1
  Yb  Yb7  1  0.750000  0.530744  0.801598  1
  Ga  Ga8  1  0.750000  0.738118  0.099950  1
  Ga  Ga9  1  0.750000  0.238118  0.400050  1
  Sb  Sb10  1  0.250000  0.263442  0.891760  1
  Sb  Sb11  1  0.250000  0.763442  0.608240  1
