# generated using pymatgen
data_CsBi2Rh3Pb4
_symmetry_space_group_name_H-M   'P 1'
_cell_length_a   14.47850162
_cell_length_b   14.37765977
_cell_length_c   4.61053200
_cell_angle_alpha   90.00000000
_cell_angle_beta   90.00000000
_cell_angle_gamma   144.17843441
_symmetry_Int_Tables_number   1
_chemical_formula_structural   CsBi2Rh3Pb4
_chemical_formula_sum   'Cs2 Bi4 Rh6 Pb8'
_cell_volume   561.71221032
_cell_formula_units_Z   2
loop_
 _symmetry_equiv_pos_site_id
 _symmetry_equiv_pos_as_xyz
  1  'x, y, z'
loop_
 _atom_site_type_symbol
 _atom_site_label
 _atom_site_symmetry_multiplicity
 _atom_site_fract_x
 _atom_site_fract_y
 _atom_site_fract_z
 _atom_site_occupancy
  Cs  Cs0  1  0.580166  0.416893  0.250000  1
  Cs  Cs1  1  0.417779  0.581765  0.750000  1
  Bi  Bi2  1  0.766340  0.859732  0.250000  1
  Bi  Bi3  1  0.862554  0.765708  0.750000  1
  Bi  Bi4  1  0.140515  0.232761  0.250000  1
  Bi  Bi5  1  0.518070  0.868435  0.250000  1
  Rh  Rh6  1  0.968908  0.408659  0.750000  1
  Rh  Rh7  1  0.963707  0.036386  0.750000  1
  Rh  Rh8  1  0.028220  0.595393  0.250000  1
  Rh  Rh9  1  0.025670  0.955261  0.250000  1
  Rh  Rh10  1  0.409630  0.966659  0.250000  1
  Rh  Rh11  1  0.590818  0.026020  0.750000  1
  Pb  Pb12  1  0.130873  0.481572  0.250000  1
  Pb  Pb13  1  0.869151  0.524459  0.750000  1
  Pb  Pb14  1  0.231347  0.134873  0.750000  1
  Pb  Pb15  1  0.752922  0.252835  0.250000  1
  Pb  Pb16  1  0.245674  0.748340  0.750000  1
  Pb  Pb17  1  0.144661  0.871752  0.250000  1
  Pb  Pb18  1  0.866645  0.140456  0.750000  1
  Pb  Pb19  1  0.486352  0.132040  0.750000  1
