# generated using pymatgen
data_Tb2DyZnAg3Ge2
_symmetry_space_group_name_H-M   'P 1'
_cell_length_a   7.23332416
_cell_length_b   7.23332431
_cell_length_c   4.16577400
_cell_angle_alpha   90.00000000
_cell_angle_beta   90.00000000
_cell_angle_gamma   119.97600658
_symmetry_Int_Tables_number   1
_chemical_formula_structural   Tb2DyZnAg3Ge2
_chemical_formula_sum   'Tb2 Dy1 Zn1 Ag3 Ge2'
_cell_volume   188.80224442
_cell_formula_units_Z   1
loop_
 _symmetry_equiv_pos_site_id
 _symmetry_equiv_pos_as_xyz
  1  'x, y, z'
loop_
 _atom_site_type_symbol
 _atom_site_label
 _atom_site_symmetry_multiplicity
 _atom_site_fract_x
 _atom_site_fract_y
 _atom_site_fract_z
 _atom_site_occupancy
  Tb  Tb0  1  0.999977  0.581985  0.000000  1
  Tb  Tb1  1  0.581985  0.999977  0.000000  1
  Dy  Dy2  1  0.418071  0.418071  0.000000  1
  Zn  Zn3  1  0.000132  0.000132  0.000000  1
  Ag  Ag4  1  0.752155  0.752155  0.500000  1
  Ag  Ag5  1  0.247653  0.000202  0.500000  1
  Ag  Ag6  1  0.000202  0.247653  0.500000  1
  Ge  Ge7  1  0.666352  0.333473  0.500000  1
  Ge  Ge8  1  0.333473  0.666352  0.500000  1
