# generated using pymatgen
data_YHo4Zr5(Si5Ir2)4
_symmetry_space_group_name_H-M   'P 1'
_cell_length_a   12.52370025
_cell_length_b   12.52352125
_cell_length_c   4.17951800
_cell_angle_alpha   90.00000000
_cell_angle_beta   90.00000000
_cell_angle_gamma   90.02299405
_symmetry_Int_Tables_number   1
_chemical_formula_structural   YHo4Zr5(Si5Ir2)4
_chemical_formula_sum   'Y1 Ho4 Zr5 Si20 Ir8'
_cell_volume   655.51900371
_cell_formula_units_Z   1
loop_
 _symmetry_equiv_pos_site_id
 _symmetry_equiv_pos_as_xyz
  1  'x, y, z'
loop_
 _atom_site_type_symbol
 _atom_site_label
 _atom_site_symmetry_multiplicity
 _atom_site_fract_x
 _atom_site_fract_y
 _atom_site_fract_z
 _atom_site_occupancy
  Y  Y0  1  0.884315  0.384625  0.500000  1
  Ho  Ho1  1  0.000004  0.999980  0.000000  1
  Ho  Ho2  1  0.115756  0.615478  0.500000  1
  Ho  Ho3  1  0.384638  0.115641  0.500000  1
  Ho  Ho4  1  0.615354  0.884349  0.500000  1
  Zr  Zr5  1  0.499966  0.500011  0.000000  1
  Zr  Zr6  1  0.673954  0.175325  0.500000  1
  Zr  Zr7  1  0.325979  0.824600  0.500000  1
  Zr  Zr8  1  0.175491  0.325921  0.500000  1
  Zr  Zr9  1  0.824538  0.674107  0.500000  1
  Si  Si10  1  0.566011  0.067542  0.000000  1
  Si  Si11  1  0.433982  0.932453  0.000000  1
  Si  Si12  1  0.067706  0.434003  0.000000  1
  Si  Si13  1  0.932480  0.566178  0.000000  1
  Si  Si14  1  0.665303  0.700406  0.000000  1
  Si  Si15  1  0.334667  0.299645  0.000000  1
  Si  Si16  1  0.164514  0.801032  0.000000  1
  Si  Si17  1  0.835522  0.198787  0.000000  1
  Si  Si18  1  0.299658  0.665379  0.000000  1
  Si  Si19  1  0.700158  0.334655  0.000000  1
  Si  Si20  1  0.199032  0.164431  0.000000  1
  Si  Si21  1  0.801015  0.835538  0.000000  1
  Si  Si22  1  0.652660  0.507286  0.500000  1
  Si  Si23  1  0.347239  0.492754  0.500000  1
  Si  Si24  1  0.157114  0.993137  0.500000  1
  Si  Si25  1  0.842893  0.006849  0.500000  1
  Si  Si26  1  0.492735  0.652790  0.500000  1
  Si  Si27  1  0.507245  0.347219  0.500000  1
  Si  Si28  1  0.006903  0.156976  0.500000  1
  Si  Si29  1  0.993148  0.842909  0.500000  1
  Ir  Ir30  1  0.742690  0.520771  0.000000  1
  Ir  Ir31  1  0.257115  0.479486  0.000000  1
  Ir  Ir32  1  0.246184  0.979390  0.000000  1
  Ir  Ir33  1  0.753807  0.020553  0.000000  1
  Ir  Ir34  1  0.479460  0.742994  0.000000  1
  Ir  Ir35  1  0.520483  0.256999  0.000000  1
  Ir  Ir36  1  0.020858  0.245862  0.000000  1
  Ir  Ir37  1  0.979424  0.753940  0.000000  1
