# generated using pymatgen
data_Y4Tm8TcOs3
_symmetry_space_group_name_H-M   'P 1'
_cell_length_a   7.41748880
_cell_length_b   8.91820200
_cell_length_c   6.23766800
_cell_angle_alpha   90.00000000
_cell_angle_beta   89.91692240
_cell_angle_gamma   90.00000000
_symmetry_Int_Tables_number   1
_chemical_formula_structural   Y4Tm8TcOs3
_chemical_formula_sum   'Y4 Tm8 Tc1 Os3'
_cell_volume   412.62544259
_cell_formula_units_Z   1
loop_
 _symmetry_equiv_pos_site_id
 _symmetry_equiv_pos_as_xyz
  1  'x, y, z'
loop_
 _atom_site_type_symbol
 _atom_site_label
 _atom_site_symmetry_multiplicity
 _atom_site_fract_x
 _atom_site_fract_y
 _atom_site_fract_z
 _atom_site_occupancy
  Y  Y0  1  0.039251  0.250000  0.625005  1
  Y  Y1  1  0.960423  0.750000  0.373120  1
  Y  Y2  1  0.461304  0.750000  0.127140  1
  Y  Y3  1  0.538568  0.250000  0.876985  1
  Tm  Tm4  1  0.173786  0.062247  0.161769  1
  Tm  Tm5  1  0.825401  0.937879  0.835797  1
  Tm  Tm6  1  0.325929  0.937146  0.662558  1
  Tm  Tm7  1  0.825401  0.562121  0.835797  1
  Tm  Tm8  1  0.674889  0.062504  0.337383  1
  Tm  Tm9  1  0.173786  0.437753  0.161769  1
  Tm  Tm10  1  0.674889  0.437496  0.337383  1
  Tm  Tm11  1  0.325929  0.562854  0.662558  1
  Tc  Tc12  1  0.382543  0.250000  0.457103  1
  Os  Os13  1  0.618453  0.750000  0.545542  1
  Os  Os14  1  0.117317  0.750000  0.955673  1
  Os  Os15  1  0.882129  0.250000  0.044416  1
