# generated using pymatgen
data_Tb3In3Ag2Pt
_symmetry_space_group_name_H-M   'P 1'
_cell_length_a   7.80483200
_cell_length_b   7.80483132
_cell_length_c   3.96899900
_cell_angle_alpha   90.00000000
_cell_angle_beta   90.00000000
_cell_angle_gamma   120.00000288
_symmetry_Int_Tables_number   1
_chemical_formula_structural   Tb3In3Ag2Pt
_chemical_formula_sum   'Tb3 In3 Ag2 Pt1'
_cell_volume   209.38168444
_cell_formula_units_Z   1
loop_
 _symmetry_equiv_pos_site_id
 _symmetry_equiv_pos_as_xyz
  1  'x, y, z'
loop_
 _atom_site_type_symbol
 _atom_site_label
 _atom_site_symmetry_multiplicity
 _atom_site_fract_x
 _atom_site_fract_y
 _atom_site_fract_z
 _atom_site_occupancy
  Tb  Tb0  1  0.398837  0.980173  0.000000  1
  Tb  Tb1  1  0.019827  0.418664  0.000000  1
  Tb  Tb2  1  0.581336  0.601163  0.000000  1
  In  In3  1  0.264816  0.259042  0.500000  1
  In  In4  1  0.994225  0.735184  0.500000  1
  In  In5  1  0.740958  0.005775  0.500000  1
  Ag  Ag6  1  0.000000  0.000000  0.000000  1
  Ag  Ag7  1  0.666667  0.333333  0.500000  1
  Pt  Pt8  1  0.333333  0.666667  0.500000  1
