# generated using pymatgen
data_ZnOs2F12
_symmetry_space_group_name_H-M   'P 1'
_cell_length_a   5.56248708
_cell_length_b   11.15481529
_cell_length_c   5.57954402
_cell_angle_alpha   56.94619392
_cell_angle_beta   57.32843065
_cell_angle_gamma   57.30554187
_symmetry_Int_Tables_number   1
_chemical_formula_structural   ZnOs2F12
_chemical_formula_sum   'Zn1 Os2 F12'
_cell_volume   228.96826229
_cell_formula_units_Z   1
loop_
 _symmetry_equiv_pos_site_id
 _symmetry_equiv_pos_as_xyz
  1  'x, y, z'
loop_
 _atom_site_type_symbol
 _atom_site_label
 _atom_site_symmetry_multiplicity
 _atom_site_fract_x
 _atom_site_fract_y
 _atom_site_fract_z
 _atom_site_occupancy
  Zn  Zn0  1  0.000000  0.500000  0.000000  1
  Os  Os1  1  0.493988  0.249740  0.506294  1
  Os  Os2  1  0.506012  0.750260  0.493706  1
  F  F3  1  0.145800  0.195901  0.729284  1
  F  F4  1  0.152388  0.681142  0.740807  1
  F  F5  1  0.365940  0.376408  0.145015  1
  F  F6  1  0.384979  0.860124  0.154374  1
  F  F7  1  0.723116  0.083798  0.377369  1
  F  F8  1  0.743261  0.568763  0.373892  1
  F  F9  1  0.256739  0.431237  0.626108  1
  F  F10  1  0.276884  0.916202  0.622631  1
  F  F11  1  0.615021  0.139876  0.845626  1
  F  F12  1  0.634060  0.623592  0.854985  1
  F  F13  1  0.847612  0.318858  0.259193  1
  F  F14  1  0.854200  0.804099  0.270716  1
