# generated using pymatgen
data_TbDyY2(NiB10)2
_symmetry_space_group_name_H-M   'P 1'
_cell_length_a   4.14430800
_cell_length_b   5.55170500
_cell_length_c   11.09536100
_cell_angle_alpha   90.00102240
_cell_angle_beta   89.99999484
_cell_angle_gamma   90.00000000
_symmetry_Int_Tables_number   1
_chemical_formula_structural   TbDyY2(NiB10)2
_chemical_formula_sum   'Tb1 Dy1 Y2 Ni2 B20'
_cell_volume   255.28179344
_cell_formula_units_Z   1
loop_
 _symmetry_equiv_pos_site_id
 _symmetry_equiv_pos_as_xyz
  1  'x, y, z'
loop_
 _atom_site_type_symbol
 _atom_site_label
 _atom_site_symmetry_multiplicity
 _atom_site_fract_x
 _atom_site_fract_y
 _atom_site_fract_z
 _atom_site_occupancy
  Tb  Tb0  1  0.500000  0.685790  0.137687  1
  Dy  Dy1  1  0.500000  0.185726  0.362526  1
  Y  Y2  1  0.500000  0.814220  0.637465  1
  Y  Y3  1  0.500000  0.314126  0.862402  1
  Ni  Ni4  1  0.000000  0.999991  0.000061  1
  Ni  Ni5  1  0.000000  0.499904  0.499867  1
  B  B6  1  0.000000  0.374239  0.041201  1
  B  B7  1  0.000000  0.625720  0.959018  1
  B  B8  1  0.000000  0.125906  0.540724  1
  B  B9  1  0.000000  0.874573  0.458896  1
  B  B10  1  0.000000  0.341357  0.198650  1
  B  B11  1  0.000000  0.658662  0.801421  1
  B  B12  1  0.000000  0.158675  0.698365  1
  B  B13  1  0.000000  0.841430  0.301558  1
  B  B14  1  0.000000  0.029783  0.186735  1
  B  B15  1  0.000000  0.970327  0.813359  1
  B  B16  1  0.000000  0.470348  0.686441  1
  B  B17  1  0.000000  0.529710  0.313481  1
  B  B18  1  0.301399  0.201326  0.114874  1
  B  B19  1  0.698658  0.798342  0.885502  1
  B  B20  1  0.301342  0.798342  0.885502  1
  B  B21  1  0.698438  0.298381  0.614279  1
  B  B22  1  0.698601  0.201326  0.114874  1
  B  B23  1  0.301655  0.701706  0.385417  1
  B  B24  1  0.698345  0.701706  0.385417  1
  B  B25  1  0.301562  0.298381  0.614279  1
