# generated using pymatgen
data_Pr19LuSi15Cl
_symmetry_space_group_name_H-M   'P 1'
_cell_length_a   7.94547166
_cell_length_b   7.87637109
_cell_length_c   15.30023700
_cell_angle_alpha   89.44731980
_cell_angle_beta   89.05763670
_cell_angle_gamma   90.68412574
_symmetry_Int_Tables_number   1
_chemical_formula_structural   Pr19LuSi15Cl
_chemical_formula_sum   'Pr19 Lu1 Si15 Cl1'
_cell_volume   957.26738466
_cell_formula_units_Z   1
loop_
 _symmetry_equiv_pos_site_id
 _symmetry_equiv_pos_as_xyz
  1  'x, y, z'
loop_
 _atom_site_type_symbol
 _atom_site_label
 _atom_site_symmetry_multiplicity
 _atom_site_fract_x
 _atom_site_fract_y
 _atom_site_fract_z
 _atom_site_occupancy
  Pr  Pr0  1  0.187422  0.805953  0.249120  1
  Pr  Pr1  1  0.795036  0.189644  0.753308  1
  Pr  Pr2  1  0.688377  0.687662  0.497729  1
  Pr  Pr3  1  0.381005  0.003117  0.442206  1
  Pr  Pr4  1  0.498495  0.860868  0.701465  1
  Pr  Pr5  1  0.509786  0.123219  0.196188  1
  Pr  Pr6  1  0.873909  0.483311  0.298947  1
  Pr  Pr7  1  0.124143  0.517754  0.802492  1
  Pr  Pr8  1  0.635299  0.986899  0.953179  1
  Pr  Pr9  1  0.995692  0.381874  0.546403  1
  Pr  Pr10  1  0.994505  0.623980  0.051602  1
  Pr  Pr11  1  0.141244  0.990241  0.873953  1
  Pr  Pr12  1  0.517955  0.630780  0.124265  1
  Pr  Pr13  1  0.474447  0.362209  0.632126  1
  Pr  Pr14  1  0.637388  0.520738  0.877120  1
  Pr  Pr15  1  0.366677  0.476975  0.375318  1
  Pr  Pr16  1  0.871399  0.019387  0.377238  1
  Pr  Pr17  1  0.984807  0.126182  0.122626  1
  Pr  Pr18  1  0.018580  0.874464  0.622062  1
  Lu  Lu19  1  0.314943  0.310925  0.998889  1
  Si  Si20  1  0.333160  0.695586  0.949650  1
  Si  Si21  1  0.659714  0.303331  0.453945  1
  Si  Si22  1  0.700213  0.334524  0.050262  1
  Si  Si23  1  0.302872  0.664554  0.552094  1
  Si  Si24  1  0.804252  0.830921  0.202539  1
  Si  Si25  1  0.167785  0.193307  0.295371  1
  Si  Si26  1  0.844947  0.805180  0.797904  1
  Si  Si27  1  0.290687  0.927541  0.057096  1
  Si  Si28  1  0.575414  0.783619  0.308078  1
  Si  Si29  1  0.446735  0.211237  0.828413  1
  Si  Si30  1  0.790475  0.578339  0.688073  1
  Si  Si31  1  0.214268  0.419729  0.185716  1
  Si  Si32  1  0.703807  0.073956  0.561649  1
  Si  Si33  1  0.934175  0.292759  0.941101  1
  Si  Si34  1  0.076844  0.711472  0.441647  1
  Cl  Cl35  1  0.143544  0.197765  0.690230  1
