# generated using pymatgen
data_Nd2Ho8In8Pd3Ru
_symmetry_space_group_name_H-M   'P 1'
_cell_length_a   3.61847600
_cell_length_b   8.17610816
_cell_length_c   18.45457306
_cell_angle_alpha   90.14479945
_cell_angle_beta   90.00000000
_cell_angle_gamma   90.00000000
_symmetry_Int_Tables_number   1
_chemical_formula_structural   Nd2Ho8In8Pd3Ru
_chemical_formula_sum   'Nd2 Ho8 In8 Pd3 Ru1'
_cell_volume   545.97774457
_cell_formula_units_Z   1
loop_
 _symmetry_equiv_pos_site_id
 _symmetry_equiv_pos_as_xyz
  1  'x, y, z'
loop_
 _atom_site_type_symbol
 _atom_site_label
 _atom_site_symmetry_multiplicity
 _atom_site_fract_x
 _atom_site_fract_y
 _atom_site_fract_z
 _atom_site_occupancy
  Nd  Nd0  1  0.000000  0.499208  0.499791  1
  Nd  Nd1  1  0.000000  0.999975  0.000861  1
  Ho  Ho2  1  0.000000  0.728542  0.278153  1
  Ho  Ho3  1  0.000000  0.260391  0.718749  1
  Ho  Ho4  1  0.000000  0.760362  0.780606  1
  Ho  Ho5  1  0.000000  0.251657  0.220027  1
  Ho  Ho6  1  0.000000  0.619552  0.087924  1
  Ho  Ho7  1  0.000000  0.379779  0.915362  1
  Ho  Ho8  1  0.000000  0.879788  0.584004  1
  Ho  Ho9  1  0.000000  0.122209  0.414254  1
  In  In10  1  0.500000  0.702282  0.930747  1
  In  In11  1  0.500000  0.300292  0.070466  1
  In  In12  1  0.500000  0.799432  0.431200  1
  In  In13  1  0.500000  0.200231  0.568322  1
  In  In14  1  0.500000  0.580570  0.652874  1
  In  In15  1  0.500000  0.425182  0.347244  1
  In  In16  1  0.500000  0.921356  0.153370  1
  In  In17  1  0.500000  0.080125  0.847164  1
  Pd  Pd18  1  0.500000  0.475352  0.803996  1
  Pd  Pd19  1  0.500000  0.975472  0.695675  1
  Pd  Pd20  1  0.500000  0.019677  0.303851  1
  Ru  Ru21  1  0.500000  0.518568  0.195360  1
