# generated using pymatgen
data_RbBe2AsSe
_symmetry_space_group_name_H-M   'P 1'
_cell_length_a   7.76195069
_cell_length_b   7.76194991
_cell_length_c   7.76194887
_cell_angle_alpha   151.49462905
_cell_angle_beta   151.49463759
_cell_angle_gamma   40.75176419
_symmetry_Int_Tables_number   1
_chemical_formula_structural   RbBe2AsSe
_chemical_formula_sum   'Rb1 Be2 As1 Se1'
_cell_volume   106.28749118
_cell_formula_units_Z   1
loop_
 _symmetry_equiv_pos_site_id
 _symmetry_equiv_pos_as_xyz
  1  'x, y, z'
loop_
 _atom_site_type_symbol
 _atom_site_label
 _atom_site_symmetry_multiplicity
 _atom_site_fract_x
 _atom_site_fract_y
 _atom_site_fract_z
 _atom_site_occupancy
  Rb  Rb0  1  0.007193  0.007193  0.000000  1
  Be  Be1  1  0.745333  0.245333  0.500000  1
  Be  Be2  1  0.245333  0.745333  0.500000  1
  As  As3  1  0.660024  0.660024  0.000000  1
  Se  Se4  1  0.342116  0.342116  0.000000  1
