# generated using pymatgen
data_Dy3ErSc4Ga3Co
_symmetry_space_group_name_H-M   'P 1'
_cell_length_a   9.56291600
_cell_length_b   9.56291534
_cell_length_c   6.87788200
_cell_angle_alpha   90.00000000
_cell_angle_beta   90.00000000
_cell_angle_gamma   119.99999538
_symmetry_Int_Tables_number   1
_chemical_formula_structural   Dy3ErSc4Ga3Co
_chemical_formula_sum   'Dy6 Er2 Sc8 Ga6 Co2'
_cell_volume   544.71084785
_cell_formula_units_Z   2
loop_
 _symmetry_equiv_pos_site_id
 _symmetry_equiv_pos_as_xyz
  1  'x, y, z'
loop_
 _atom_site_type_symbol
 _atom_site_label
 _atom_site_symmetry_multiplicity
 _atom_site_fract_x
 _atom_site_fract_y
 _atom_site_fract_z
 _atom_site_occupancy
  Dy  Dy0  1  0.533984  0.067968  0.792265  1
  Dy  Dy1  1  0.932032  0.466016  0.792265  1
  Dy  Dy2  1  0.533984  0.466016  0.792265  1
  Dy  Dy3  1  0.466016  0.932032  0.292265  1
  Dy  Dy4  1  0.067968  0.533984  0.292265  1
  Dy  Dy5  1  0.466016  0.533984  0.292265  1
  Er  Er6  1  0.000000  0.000000  0.777149  1
  Er  Er7  1  0.000000  0.000000  0.277149  1
  Sc  Sc8  1  0.825604  0.651209  0.490953  1
  Sc  Sc9  1  0.348791  0.174396  0.490953  1
  Sc  Sc10  1  0.825604  0.174396  0.490953  1
  Sc  Sc11  1  0.174396  0.348791  0.990953  1
  Sc  Sc12  1  0.651209  0.825604  0.990953  1
  Sc  Sc13  1  0.174396  0.825604  0.990953  1
  Sc  Sc14  1  0.666667  0.333333  0.181584  1
  Sc  Sc15  1  0.333333  0.666667  0.681584  1
  Ga  Ga16  1  0.836659  0.673320  0.055100  1
  Ga  Ga17  1  0.326680  0.163341  0.055100  1
  Ga  Ga18  1  0.836659  0.163341  0.055100  1
  Ga  Ga19  1  0.163341  0.326680  0.555100  1
  Ga  Ga20  1  0.673320  0.836659  0.555100  1
  Ga  Ga21  1  0.163341  0.836659  0.555100  1
  Co  Co22  1  0.666667  0.333333  0.544262  1
  Co  Co23  1  0.333333  0.666667  0.044262  1
