# generated using pymatgen
data_CaLaB4IrRh4
_symmetry_space_group_name_H-M   'P 1'
_cell_length_a   7.56371147
_cell_length_b   6.33076487
_cell_length_c   5.68970014
_cell_angle_alpha   77.78564275
_cell_angle_beta   54.88954348
_cell_angle_gamma   47.46865767
_symmetry_Int_Tables_number   1
_chemical_formula_structural   CaLaB4IrRh4
_chemical_formula_sum   'Ca1 La1 B4 Ir1 Rh4'
_cell_volume   156.97841529
_cell_formula_units_Z   1
loop_
 _symmetry_equiv_pos_site_id
 _symmetry_equiv_pos_as_xyz
  1  'x, y, z'
loop_
 _atom_site_type_symbol
 _atom_site_label
 _atom_site_symmetry_multiplicity
 _atom_site_fract_x
 _atom_site_fract_y
 _atom_site_fract_z
 _atom_site_occupancy
  Ca  Ca0  1  0.853336  0.853336  0.146664  1
  La  La1  1  0.138828  0.138828  0.861172  1
  B  B2  1  0.789012  0.474610  0.532533  1
  B  B3  1  0.206938  0.534179  0.474055  1
  B  B4  1  0.534179  0.206938  0.784828  1
  B  B5  1  0.474610  0.789012  0.203845  1
  Ir  Ir6  1  0.752318  0.752318  0.747682  1
  Rh  Rh7  1  0.498838  0.498838  0.001162  1
  Rh  Rh8  1  0.499218  0.499218  0.500782  1
  Rh  Rh9  1  0.000706  0.000706  0.499294  1
  Rh  Rh10  1  0.252018  0.252018  0.247982  1
