# generated using pymatgen
data_CaSi2TcNi
_symmetry_space_group_name_H-M   'P 1'
_cell_length_a   5.77556966
_cell_length_b   5.77556943
_cell_length_c   5.77556896
_cell_angle_alpha   138.80538629
_cell_angle_beta   138.80538161
_cell_angle_gamma   59.67172589
_symmetry_Int_Tables_number   1
_chemical_formula_structural   CaSi2TcNi
_chemical_formula_sum   'Ca1 Si2 Tc1 Ni1'
_cell_volume   82.73263856
_cell_formula_units_Z   1
loop_
 _symmetry_equiv_pos_site_id
 _symmetry_equiv_pos_as_xyz
  1  'x, y, z'
loop_
 _atom_site_type_symbol
 _atom_site_label
 _atom_site_symmetry_multiplicity
 _atom_site_fract_x
 _atom_site_fract_y
 _atom_site_fract_z
 _atom_site_occupancy
  Ca  Ca0  1  0.000000  0.000000  0.000000  1
  Si  Si1  1  0.628680  0.628680  0.000000  1
  Si  Si2  1  0.371320  0.371320  0.000000  1
  Tc  Tc3  1  0.750000  0.250000  0.500000  1
  Ni  Ni4  1  0.250000  0.750000  0.500000  1
