# generated using pymatgen
data_Nd7Y13Pb16
_symmetry_space_group_name_H-M   'P 1'
_cell_length_a   8.28776975
_cell_length_b   8.38366086
_cell_length_c   15.84759030
_cell_angle_alpha   90.03075907
_cell_angle_beta   89.62984020
_cell_angle_gamma   90.37466268
_symmetry_Int_Tables_number   1
_chemical_formula_structural   Nd7Y13Pb16
_chemical_formula_sum   'Nd7 Y13 Pb16'
_cell_volume   1101.07325156
_cell_formula_units_Z   1
loop_
 _symmetry_equiv_pos_site_id
 _symmetry_equiv_pos_as_xyz
  1  'x, y, z'
loop_
 _atom_site_type_symbol
 _atom_site_label
 _atom_site_symmetry_multiplicity
 _atom_site_fract_x
 _atom_site_fract_y
 _atom_site_fract_z
 _atom_site_occupancy
  Nd  Nd0  1  0.523051  0.321330  0.401228  1
  Nd  Nd1  1  0.475214  0.678137  0.902836  1
  Nd  Nd2  1  0.977502  0.822049  0.596277  1
  Nd  Nd3  1  0.975513  0.823898  0.903758  1
  Nd  Nd4  1  0.477818  0.677855  0.596896  1
  Nd  Nd5  1  0.523758  0.321013  0.097792  1
  Nd  Nd6  1  0.021282  0.177375  0.403644  1
  Y  Y7  1  0.866260  0.658419  0.122440  1
  Y  Y8  1  0.363694  0.841243  0.377438  1
  Y  Y9  1  0.632435  0.158543  0.879462  1
  Y  Y10  1  0.135841  0.341150  0.622879  1
  Y  Y11  1  0.131899  0.341140  0.878565  1
  Y  Y12  1  0.635324  0.158906  0.621737  1
  Y  Y13  1  0.366818  0.842447  0.121171  1
  Y  Y14  1  0.864450  0.657673  0.375467  1
  Y  Y15  1  0.030189  0.175882  0.099879  1
  Y  Y16  1  0.700241  0.996920  0.248684  1
  Y  Y17  1  0.199501  0.504213  0.248787  1
  Y  Y18  1  0.800053  0.495198  0.750209  1
  Y  Y19  1  0.299607  0.003908  0.750910  1
  Pb  Pb20  1  0.061897  0.872631  0.249323  1
  Pb  Pb21  1  0.561183  0.629100  0.249314  1
  Pb  Pb22  1  0.437990  0.370671  0.750733  1
  Pb  Pb23  1  0.937599  0.128445  0.750410  1
  Pb  Pb24  1  0.839318  0.347983  0.247221  1
  Pb  Pb25  1  0.331622  0.147000  0.249594  1
  Pb  Pb26  1  0.665524  0.853348  0.749987  1
  Pb  Pb27  1  0.164288  0.649019  0.750011  1
  Pb  Pb28  1  0.794363  0.461834  0.956801  1
  Pb  Pb29  1  0.296672  0.041185  0.543459  1
  Pb  Pb30  1  0.712842  0.965955  0.045384  1
  Pb  Pb31  1  0.203118  0.539401  0.455934  1
  Pb  Pb32  1  0.203535  0.536042  0.044232  1
  Pb  Pb33  1  0.702436  0.957120  0.455886  1
  Pb  Pb34  1  0.290100  0.043161  0.959181  1
  Pb  Pb35  1  0.797062  0.459801  0.542473  1
