# generated using pymatgen
data_NbNi4Te6Mo
_symmetry_space_group_name_H-M   'P 1'
_cell_length_a   3.69249500
_cell_length_b   7.74359320
_cell_length_c   10.39383421
_cell_angle_alpha   70.42928676
_cell_angle_beta   90.00000000
_cell_angle_gamma   90.00000000
_symmetry_Int_Tables_number   1
_chemical_formula_structural   NbNi4Te6Mo
_chemical_formula_sum   'Nb1 Ni4 Te6 Mo1'
_cell_volume   280.02357995
_cell_formula_units_Z   1
loop_
 _symmetry_equiv_pos_site_id
 _symmetry_equiv_pos_as_xyz
  1  'x, y, z'
loop_
 _atom_site_type_symbol
 _atom_site_label
 _atom_site_symmetry_multiplicity
 _atom_site_fract_x
 _atom_site_fract_y
 _atom_site_fract_z
 _atom_site_occupancy
  Nb  Nb0  1  0.750000  0.217984  0.297529  1
  Ni  Ni1  1  0.250000  0.406692  0.088784  1
  Ni  Ni2  1  0.750000  0.595040  0.909218  1
  Ni  Ni3  1  0.750000  0.040644  0.566616  1
  Ni  Ni4  1  0.250000  0.955885  0.437108  1
  Te  Te5  1  0.750000  0.939703  0.825424  1
  Te  Te6  1  0.250000  0.053005  0.172739  1
  Te  Te7  1  0.750000  0.583409  0.159051  1
  Te  Te8  1  0.250000  0.425319  0.837852  1
  Te  Te9  1  0.250000  0.279468  0.494939  1
  Te  Te10  1  0.750000  0.719444  0.510741  1
  Mo  Mo11  1  0.250000  0.783407  0.699999  1
