# generated using pymatgen
data_Pa4TiGa12
_symmetry_space_group_name_H-M   'P 1'
_cell_length_a   7.53777228
_cell_length_b   7.53828957
_cell_length_c   7.53829005
_cell_angle_alpha   109.47900650
_cell_angle_beta   109.46557554
_cell_angle_gamma   109.46557944
_symmetry_Int_Tables_number   1
_chemical_formula_structural   Pa4TiGa12
_chemical_formula_sum   'Pa4 Ti1 Ga12'
_cell_volume   329.75055553
_cell_formula_units_Z   1
loop_
 _symmetry_equiv_pos_site_id
 _symmetry_equiv_pos_as_xyz
  1  'x, y, z'
loop_
 _atom_site_type_symbol
 _atom_site_label
 _atom_site_symmetry_multiplicity
 _atom_site_fract_x
 _atom_site_fract_y
 _atom_site_fract_z
 _atom_site_occupancy
  Pa  Pa0  1  0.499999  0.000000  0.000000  1
  Pa  Pa1  1  0.000000  0.499999  0.000000  1
  Pa  Pa2  1  0.000000  0.000000  0.499999  1
  Pa  Pa3  1  0.499999  0.499999  0.499999  1
  Ti  Ti4  1  0.000000  0.000000  0.000000  1
  Ga  Ga5  1  0.297933  0.297949  0.999950  1
  Ga  Ga6  1  0.702067  0.702051  0.000050  1
  Ga  Ga7  1  0.750039  0.500017  0.249990  1
  Ga  Ga8  1  0.500000  0.750015  0.249985  1
  Ga  Ga9  1  0.297933  0.999950  0.297949  1
  Ga  Ga10  1  0.999969  0.297995  0.297995  1
  Ga  Ga11  1  0.750039  0.249990  0.500017  1
  Ga  Ga12  1  0.249961  0.750010  0.499983  1
  Ga  Ga13  1  0.702067  0.000050  0.702051  1
  Ga  Ga14  1  0.000031  0.702005  0.702005  1
  Ga  Ga15  1  0.500000  0.249985  0.750015  1
  Ga  Ga16  1  0.249961  0.499983  0.750010  1
