# generated using pymatgen
data_CeTc2SbF14
_symmetry_space_group_name_H-M   'P 1'
_cell_length_a   5.69004000
_cell_length_b   9.02945401
_cell_length_c   12.16133100
_cell_angle_alpha   62.57995582
_cell_angle_beta   90.00000000
_cell_angle_gamma   90.00000000
_symmetry_Int_Tables_number   1
_chemical_formula_structural   CeTc2SbF14
_chemical_formula_sum   'Ce2 Tc4 Sb2 F28'
_cell_volume   554.62800839
_cell_formula_units_Z   2
loop_
 _symmetry_equiv_pos_site_id
 _symmetry_equiv_pos_as_xyz
  1  'x, y, z'
loop_
 _atom_site_type_symbol
 _atom_site_label
 _atom_site_symmetry_multiplicity
 _atom_site_fract_x
 _atom_site_fract_y
 _atom_site_fract_z
 _atom_site_occupancy
  Ce  Ce0  1  0.758095  0.808413  0.764566  1
  Ce  Ce1  1  0.258095  0.191587  0.735434  1
  Tc  Tc2  1  0.756192  0.270894  0.962458  1
  Tc  Tc3  1  0.256192  0.729106  0.537542  1
  Tc  Tc4  1  0.240975  0.726049  0.046656  1
  Tc  Tc5  1  0.740975  0.273951  0.453344  1
  Sb  Sb6  1  0.237598  0.178368  0.243411  1
  Sb  Sb7  1  0.737598  0.821632  0.256589  1
  F  F8  1  0.444885  0.708418  0.922643  1
  F  F9  1  0.944885  0.291582  0.577357  1
  F  F10  1  0.560752  0.295358  0.083707  1
  F  F11  1  0.060752  0.704642  0.416293  1
  F  F12  1  0.456318  0.281632  0.543279  1
  F  F13  1  0.956318  0.718368  0.956721  1
  F  F14  1  0.548541  0.723217  0.452844  1
  F  F15  1  0.048541  0.276783  0.047156  1
  F  F16  1  0.769865  0.513928  0.861411  1
  F  F17  1  0.269865  0.486072  0.638589  1
  F  F18  1  0.230003  0.485531  0.143144  1
  F  F19  1  0.730003  0.514469  0.356856  1
  F  F20  1  0.753533  0.021170  0.058914  1
  F  F21  1  0.253533  0.978830  0.441086  1
  F  F22  1  0.240558  0.970928  0.949405  1
  F  F23  1  0.740558  0.029072  0.550595  1
  F  F24  1  0.975880  0.728519  0.633982  1
  F  F25  1  0.475880  0.271481  0.866018  1
  F  F26  1  0.020864  0.268832  0.358663  1
  F  F27  1  0.520864  0.731168  0.141337  1
  F  F28  1  0.043128  0.748071  0.172995  1
  F  F29  1  0.543128  0.251929  0.327005  1
  F  F30  1  0.947601  0.252200  0.832697  1
  F  F31  1  0.447601  0.747800  0.667303  1
  F  F32  1  0.419347  0.976046  0.231468  1
  F  F33  1  0.919347  0.023954  0.268532  1
  F  F34  1  0.595865  0.033383  0.770719  1
  F  F35  1  0.095865  0.966617  0.729281  1
