# generated using pymatgen
data_Ta4BeV4P3
_symmetry_space_group_name_H-M   'P 1'
_cell_length_a   3.37260900
_cell_length_b   6.38895831
_cell_length_c   7.71258016
_cell_angle_alpha   89.61639087
_cell_angle_beta   90.00000000
_cell_angle_gamma   90.00000000
_symmetry_Int_Tables_number   1
_chemical_formula_structural   Ta4BeV4P3
_chemical_formula_sum   'Ta4 Be1 V4 P3'
_cell_volume   166.18277456
_cell_formula_units_Z   1
loop_
 _symmetry_equiv_pos_site_id
 _symmetry_equiv_pos_as_xyz
  1  'x, y, z'
loop_
 _atom_site_type_symbol
 _atom_site_label
 _atom_site_symmetry_multiplicity
 _atom_site_fract_x
 _atom_site_fract_y
 _atom_site_fract_z
 _atom_site_occupancy
  Ta  Ta0  1  0.250000  0.542453  0.164684  1
  Ta  Ta1  1  0.750000  0.469431  0.833019  1
  Ta  Ta2  1  0.750000  0.957574  0.672577  1
  Ta  Ta3  1  0.250000  0.037318  0.330392  1
  Be  Be4  1  0.250000  0.758082  0.859902  1
  V  V5  1  0.250000  0.634874  0.559835  1
  V  V6  1  0.750000  0.362132  0.440382  1
  V  V7  1  0.750000  0.865448  0.055995  1
  V  V8  1  0.250000  0.131947  0.942093  1
  P  P9  1  0.750000  0.242576  0.137379  1
  P  P10  1  0.750000  0.738499  0.359872  1
  P  P11  1  0.250000  0.259667  0.643874  1
