# generated using pymatgen
data_ThZnGa2Cu
_symmetry_space_group_name_H-M   'P 1'
_cell_length_a   4.23700600
_cell_length_b   4.23700600
_cell_length_c   10.31579500
_cell_angle_alpha   90.00000000
_cell_angle_beta   90.00000000
_cell_angle_gamma   90.00000000
_symmetry_Int_Tables_number   1
_chemical_formula_structural   ThZnGa2Cu
_chemical_formula_sum   'Th2 Zn2 Ga4 Cu2'
_cell_volume   185.19141971
_cell_formula_units_Z   2
loop_
 _symmetry_equiv_pos_site_id
 _symmetry_equiv_pos_as_xyz
  1  'x, y, z'
loop_
 _atom_site_type_symbol
 _atom_site_label
 _atom_site_symmetry_multiplicity
 _atom_site_fract_x
 _atom_site_fract_y
 _atom_site_fract_z
 _atom_site_occupancy
  Th  Th0  1  0.000000  0.500000  0.257958  1
  Th  Th1  1  0.500000  0.000000  0.742042  1
  Zn  Zn2  1  0.000000  0.000000  0.000000  1
  Zn  Zn3  1  0.500000  0.500000  0.000000  1
  Ga  Ga4  1  0.000000  0.000000  0.500000  1
  Ga  Ga5  1  0.500000  0.500000  0.500000  1
  Ga  Ga6  1  0.000000  0.500000  0.857403  1
  Ga  Ga7  1  0.500000  0.000000  0.142597  1
  Cu  Cu8  1  0.000000  0.500000  0.625020  1
  Cu  Cu9  1  0.500000  0.000000  0.374980  1
