# generated using pymatgen
data_Zr5Ti5Si6O
_symmetry_space_group_name_H-M   'P 1'
_cell_length_a   5.25262819
_cell_length_b   7.78435431
_cell_length_c   7.78296600
_cell_angle_alpha   120.00860856
_cell_angle_beta   89.74951831
_cell_angle_gamma   90.49947733
_symmetry_Int_Tables_number   1
_chemical_formula_structural   Zr5Ti5Si6O
_chemical_formula_sum   'Zr5 Ti5 Si6 O1'
_cell_volume   275.56295834
_cell_formula_units_Z   1
loop_
 _symmetry_equiv_pos_site_id
 _symmetry_equiv_pos_as_xyz
  1  'x, y, z'
loop_
 _atom_site_type_symbol
 _atom_site_label
 _atom_site_symmetry_multiplicity
 _atom_site_fract_x
 _atom_site_fract_y
 _atom_site_fract_z
 _atom_site_occupancy
  Zr  Zr0  1  0.751000  0.754858  0.755328  1
  Zr  Zr1  1  0.750995  0.999533  0.244681  1
  Zr  Zr2  1  0.252908  0.752894  0.999997  1
  Zr  Zr3  1  0.249996  0.244974  0.242879  1
  Zr  Zr4  1  0.250000  0.002093  0.757111  1
  Ti  Ti5  1  0.499846  0.333064  0.666711  1
  Ti  Ti6  1  0.499849  0.666355  0.333293  1
  Ti  Ti7  1  0.999440  0.666864  0.333763  1
  Ti  Ti8  1  0.999449  0.333104  0.666237  1
  Ti  Ti9  1  0.743454  0.246799  0.000004  1
  Si  Si10  1  0.754717  0.589337  0.000024  1
  Si  Si11  1  0.752529  0.401274  0.396917  1
  Si  Si12  1  0.752536  0.004311  0.603059  1
  Si  Si13  1  0.242427  0.403139  0.000018  1
  Si  Si14  1  0.247244  0.596516  0.596239  1
  Si  Si15  1  0.247234  0.000240  0.403738  1
  O  O16  1  0.506372  0.004650  0.999999  1
