# generated using pymatgen
data_Rb8GdNp3Cl20
_symmetry_space_group_name_H-M   'P 1'
_cell_length_a   8.36913512
_cell_length_b   8.92787400
_cell_length_c   13.47286500
_cell_angle_alpha   90.00000000
_cell_angle_beta   90.21535769
_cell_angle_gamma   90.00000000
_symmetry_Int_Tables_number   1
_chemical_formula_structural   Rb8GdNp3Cl20
_chemical_formula_sum   'Rb8 Gd1 Np3 Cl20'
_cell_volume   1006.66628188
_cell_formula_units_Z   1
loop_
 _symmetry_equiv_pos_site_id
 _symmetry_equiv_pos_as_xyz
  1  'x, y, z'
loop_
 _atom_site_type_symbol
 _atom_site_label
 _atom_site_symmetry_multiplicity
 _atom_site_fract_x
 _atom_site_fract_y
 _atom_site_fract_z
 _atom_site_occupancy
  Rb  Rb0  1  0.948371  0.003553  0.829417  1
  Rb  Rb1  1  0.053864  0.995048  0.170645  1
  Rb  Rb2  1  0.446729  0.994216  0.672264  1
  Rb  Rb3  1  0.052983  0.504340  0.170481  1
  Rb  Rb4  1  0.551650  0.003849  0.328055  1
  Rb  Rb5  1  0.947812  0.495982  0.829474  1
  Rb  Rb6  1  0.551761  0.494956  0.327952  1
  Rb  Rb7  1  0.447292  0.504718  0.672485  1
  Gd  Gd8  1  0.569364  0.749700  0.003359  1
  Np  Np9  1  0.931931  0.750939  0.501846  1
  Np  Np10  1  0.067488  0.250968  0.498078  1
  Np  Np11  1  0.434412  0.250089  0.997193  1
  Cl  Cl12  1  0.118967  0.747447  0.673203  1
  Cl  Cl13  1  0.883811  0.249724  0.325613  1
  Cl  Cl14  1  0.618486  0.251653  0.827297  1
  Cl  Cl15  1  0.386029  0.749878  0.169224  1
  Cl  Cl16  1  0.839551  0.040923  0.573482  1
  Cl  Cl17  1  0.155589  0.959946  0.425126  1
  Cl  Cl18  1  0.344311  0.957017  0.928515  1
  Cl  Cl19  1  0.156847  0.540731  0.425866  1
  Cl  Cl20  1  0.657155  0.039697  0.073139  1
  Cl  Cl21  1  0.841664  0.460448  0.574295  1
  Cl  Cl22  1  0.658491  0.462154  0.071864  1
  Cl  Cl23  1  0.344114  0.542634  0.928161  1
  Cl  Cl24  1  0.595140  0.748881  0.509997  1
  Cl  Cl25  1  0.402438  0.249049  0.489704  1
  Cl  Cl26  1  0.099253  0.250707  0.988610  1
  Cl  Cl27  1  0.898517  0.750990  0.012382  1
  Cl  Cl28  1  0.653393  0.750331  0.808119  1
  Cl  Cl29  1  0.344500  0.248950  0.194313  1
  Cl  Cl30  1  0.155322  0.249563  0.696611  1
  Cl  Cl31  1  0.842762  0.750920  0.303230  1
