# generated using pymatgen
data_Ba3DyCrO6
_symmetry_space_group_name_H-M   'P 1'
_cell_length_a   7.16975563
_cell_length_b   7.16973042
_cell_length_c   7.16960005
_cell_angle_alpha   93.45933512
_cell_angle_beta   93.45956890
_cell_angle_gamma   93.46210245
_symmetry_Int_Tables_number   1
_chemical_formula_structural   Ba3DyCrO6
_chemical_formula_sum   'Ba6 Dy2 Cr2 O12'
_cell_volume   366.45381773
_cell_formula_units_Z   2
loop_
 _symmetry_equiv_pos_site_id
 _symmetry_equiv_pos_as_xyz
  1  'x, y, z'
loop_
 _atom_site_type_symbol
 _atom_site_label
 _atom_site_symmetry_multiplicity
 _atom_site_fract_x
 _atom_site_fract_y
 _atom_site_fract_z
 _atom_site_occupancy
  Ba  Ba0  1  0.614581  0.885406  0.249997  1
  Ba  Ba1  1  0.885401  0.249984  0.614645  1
  Ba  Ba2  1  0.250005  0.614618  0.885348  1
  Ba  Ba3  1  0.114627  0.749981  0.385416  1
  Ba  Ba4  1  0.750009  0.385394  0.114573  1
  Ba  Ba5  1  0.385357  0.114629  0.749996  1
  Dy  Dy6  1  0.250010  0.250018  0.249998  1
  Dy  Dy7  1  0.750003  0.750019  0.749997  1
  Cr  Cr8  1  0.499992  0.500008  0.500009  1
  Cr  Cr9  1  0.999940  0.999946  0.000001  1
  O  O10  1  0.534353  0.222909  0.407489  1
  O  O11  1  0.222924  0.407525  0.534273  1
  O  O12  1  0.407547  0.534327  0.222861  1
  O  O13  1  0.034306  0.907529  0.722944  1
  O  O14  1  0.907505  0.722905  0.034373  1
  O  O15  1  0.722882  0.034300  0.907569  1
  O  O16  1  0.465731  0.777109  0.592445  1
  O  O17  1  0.777125  0.592473  0.465634  1
  O  O18  1  0.592505  0.465680  0.777062  1
  O  O19  1  0.965670  0.092474  0.277137  1
  O  O20  1  0.092454  0.277097  0.965727  1
  O  O21  1  0.277070  0.965668  0.092507  1
