# generated using pymatgen
data_Ba3MgTiTeO9
_symmetry_space_group_name_H-M   'P 1'
_cell_length_a   5.87687200
_cell_length_b   5.87687161
_cell_length_c   14.46937100
_cell_angle_alpha   90.00000000
_cell_angle_beta   90.00000000
_cell_angle_gamma   120.00000218
_symmetry_Int_Tables_number   1
_chemical_formula_structural   Ba3MgTiTeO9
_chemical_formula_sum   'Ba6 Mg2 Ti2 Te2 O18'
_cell_volume   432.78550753
_cell_formula_units_Z   2
loop_
 _symmetry_equiv_pos_site_id
 _symmetry_equiv_pos_as_xyz
  1  'x, y, z'
loop_
 _atom_site_type_symbol
 _atom_site_label
 _atom_site_symmetry_multiplicity
 _atom_site_fract_x
 _atom_site_fract_y
 _atom_site_fract_z
 _atom_site_occupancy
  Ba  Ba0  1  0.666667  0.333333  0.592266  1
  Ba  Ba1  1  0.333333  0.666667  0.408046  1
  Ba  Ba2  1  0.333333  0.666667  0.092266  1
  Ba  Ba3  1  0.666667  0.333333  0.908046  1
  Ba  Ba4  1  0.000000  0.000000  0.753571  1
  Ba  Ba5  1  0.000000  0.000000  0.253571  1
  Mg  Mg6  1  0.000000  0.000000  0.497316  1
  Mg  Mg7  1  0.000000  0.000000  0.997316  1
  Ti  Ti8  1  0.666667  0.333333  0.358757  1
  Ti  Ti9  1  0.333333  0.666667  0.858757  1
  Te  Te10  1  0.333333  0.666667  0.657746  1
  Te  Te11  1  0.666667  0.333333  0.157746  1
  O  O12  1  0.482770  0.965540  0.744692  1
  O  O13  1  0.482770  0.517230  0.744692  1
  O  O14  1  0.034460  0.517230  0.744692  1
  O  O15  1  0.517230  0.034460  0.244692  1
  O  O16  1  0.517230  0.482770  0.244692  1
  O  O17  1  0.965540  0.482770  0.244692  1
  O  O18  1  0.174095  0.348190  0.583969  1
  O  O19  1  0.174095  0.825905  0.583969  1
  O  O20  1  0.651810  0.825905  0.583969  1
  O  O21  1  0.828790  0.657580  0.415437  1
  O  O22  1  0.828790  0.171210  0.415437  1
  O  O23  1  0.342420  0.171210  0.415437  1
  O  O24  1  0.825905  0.651810  0.083969  1
  O  O25  1  0.825905  0.174095  0.083969  1
  O  O26  1  0.348190  0.174095  0.083969  1
  O  O27  1  0.171210  0.342420  0.915437  1
  O  O28  1  0.171210  0.828790  0.915437  1
  O  O29  1  0.657580  0.828790  0.915437  1
