# generated using pymatgen
data_Hf4Co15Ni5P12
_symmetry_space_group_name_H-M   'P 1'
_cell_length_a   3.58942500
_cell_length_b   10.08590584
_cell_length_c   11.70259674
_cell_angle_alpha   89.98148224
_cell_angle_beta   90.00000000
_cell_angle_gamma   90.00000000
_symmetry_Int_Tables_number   1
_chemical_formula_structural   Hf4Co15Ni5P12
_chemical_formula_sum   'Hf4 Co15 Ni5 P12'
_cell_volume   423.66443664
_cell_formula_units_Z   1
loop_
 _symmetry_equiv_pos_site_id
 _symmetry_equiv_pos_as_xyz
  1  'x, y, z'
loop_
 _atom_site_type_symbol
 _atom_site_label
 _atom_site_symmetry_multiplicity
 _atom_site_fract_x
 _atom_site_fract_y
 _atom_site_fract_z
 _atom_site_occupancy
  Hf  Hf0  1  0.250000  0.578180  0.703566  1
  Hf  Hf1  1  0.250000  0.922443  0.202827  1
  Hf  Hf2  1  0.750000  0.422417  0.295279  1
  Hf  Hf3  1  0.750000  0.077281  0.797090  1
  Co  Co4  1  0.250000  0.090062  0.981959  1
  Co  Co5  1  0.750000  0.589282  0.518584  1
  Co  Co6  1  0.750000  0.909029  0.017814  1
  Co  Co7  1  0.250000  0.224556  0.177476  1
  Co  Co8  1  0.250000  0.276125  0.678760  1
  Co  Co9  1  0.750000  0.774902  0.821359  1
  Co  Co10  1  0.750000  0.724952  0.321338  1
  Co  Co11  1  0.250000  0.880757  0.701263  1
  Co  Co12  1  0.250000  0.619022  0.201255  1
  Co  Co13  1  0.750000  0.119245  0.298477  1
  Co  Co14  1  0.750000  0.380352  0.800217  1
  Co  Co15  1  0.250000  0.465115  0.931180  1
  Co  Co16  1  0.250000  0.034563  0.431307  1
  Co  Co17  1  0.750000  0.534954  0.069061  1
  Co  Co18  1  0.750000  0.965690  0.568972  1
  Ni  Ni19  1  0.250000  0.715905  0.992344  1
  Ni  Ni20  1  0.250000  0.783804  0.493122  1
  Ni  Ni21  1  0.750000  0.283927  0.007574  1
  Ni  Ni22  1  0.750000  0.217488  0.507619  1
  Ni  Ni23  1  0.250000  0.409626  0.481671  1
  P  P24  1  0.250000  0.421750  0.115812  1
  P  P25  1  0.250000  0.078669  0.616754  1
  P  P26  1  0.750000  0.578231  0.883937  1
  P  P27  1  0.750000  0.921875  0.383815  1
  P  P28  1  0.250000  0.263718  0.867350  1
  P  P29  1  0.250000  0.234396  0.364725  1
  P  P30  1  0.750000  0.736011  0.132981  1
  P  P31  1  0.750000  0.764405  0.633064  1
  P  P32  1  0.250000  0.602964  0.388631  1
  P  P33  1  0.250000  0.898747  0.889375  1
  P  P34  1  0.750000  0.398824  0.613541  1
  P  P35  1  0.750000  0.100732  0.109901  1
