# generated using pymatgen
data_YScFe14(SiC)3
_symmetry_space_group_name_H-M   'P 1'
_cell_length_a   6.41654464
_cell_length_b   6.41654489
_cell_length_c   6.41654389
_cell_angle_alpha   82.91062209
_cell_angle_beta   82.91062360
_cell_angle_gamma   82.91059875
_symmetry_Int_Tables_number   1
_chemical_formula_structural   YScFe14(SiC)3
_chemical_formula_sum   'Y1 Sc1 Fe14 Si3 C3'
_cell_volume   258.58355105
_cell_formula_units_Z   1
loop_
 _symmetry_equiv_pos_site_id
 _symmetry_equiv_pos_as_xyz
  1  'x, y, z'
loop_
 _atom_site_type_symbol
 _atom_site_label
 _atom_site_symmetry_multiplicity
 _atom_site_fract_x
 _atom_site_fract_y
 _atom_site_fract_z
 _atom_site_occupancy
  Y  Y0  1  0.348057  0.348057  0.348057  1
  Sc  Sc1  1  0.655684  0.655684  0.655684  1
  Fe  Fe2  1  0.716636  0.285011  0.998215  1
  Fe  Fe3  1  0.998215  0.716636  0.285011  1
  Fe  Fe4  1  0.285011  0.998215  0.716636  1
  Fe  Fe5  1  0.998215  0.285011  0.716636  1
  Fe  Fe6  1  0.716636  0.998215  0.285011  1
  Fe  Fe7  1  0.285011  0.716636  0.998215  1
  Fe  Fe8  1  0.342237  0.342237  0.858402  1
  Fe  Fe9  1  0.858402  0.342237  0.342237  1
  Fe  Fe10  1  0.342237  0.858402  0.342237  1
  Fe  Fe11  1  0.659775  0.659775  0.135662  1
  Fe  Fe12  1  0.135662  0.659775  0.659775  1
  Fe  Fe13  1  0.659775  0.135662  0.659775  1
  Fe  Fe14  1  0.901119  0.901119  0.901119  1
  Fe  Fe15  1  0.096869  0.096869  0.096869  1
  Si  Si16  1  0.002002  0.002002  0.498832  1
  Si  Si17  1  0.498832  0.002002  0.002002  1
  Si  Si18  1  0.002002  0.498832  0.002002  1
  C  C19  1  0.504774  0.504774  0.988074  1
  C  C20  1  0.988074  0.504774  0.504774  1
  C  C21  1  0.504774  0.988074  0.504774  1
