# generated using pymatgen
data_Na(CoO2)8
_symmetry_space_group_name_H-M   'P 1'
_cell_length_a   5.73293565
_cell_length_b   6.77664065
_cell_length_c   6.93048001
_cell_angle_alpha   89.40651442
_cell_angle_beta   78.06799759
_cell_angle_gamma   77.44597064
_symmetry_Int_Tables_number   1
_chemical_formula_structural   Na(CoO2)8
_chemical_formula_sum   'Na1 Co8 O16'
_cell_volume   256.96505820
_cell_formula_units_Z   1
loop_
 _symmetry_equiv_pos_site_id
 _symmetry_equiv_pos_as_xyz
  1  'x, y, z'
loop_
 _atom_site_type_symbol
 _atom_site_label
 _atom_site_symmetry_multiplicity
 _atom_site_fract_x
 _atom_site_fract_y
 _atom_site_fract_z
 _atom_site_occupancy
  Na  Na0  1  0.229463  0.002992  0.003043  1
  Co  Co1  1  0.571026  0.509416  0.181078  1
  Co  Co2  1  0.073178  0.510986  0.182395  1
  Co  Co3  1  0.160863  0.815958  0.521699  1
  Co  Co4  1  0.659828  0.816472  0.522171  1
  Co  Co5  1  0.329284  0.183118  0.480042  1
  Co  Co6  1  0.828870  0.184094  0.477931  1
  Co  Co7  1  0.419293  0.489039  0.816076  1
  Co  Co8  1  0.917000  0.490024  0.817254  1
  O  O9  1  0.819320  0.642667  0.057513  1
  O  O10  1  0.318480  0.646812  0.054521  1
  O  O11  1  0.974793  0.691958  0.390760  1
  O  O12  1  0.474141  0.691858  0.390842  1
  O  O13  1  0.842816  0.963294  0.643573  1
  O  O14  1  0.341381  0.960605  0.648540  1
  O  O15  1  0.334334  0.367841  0.277845  1
  O  O16  1  0.835487  0.361098  0.279883  1
  O  O17  1  0.156630  0.633964  0.716580  1
  O  O18  1  0.655346  0.636066  0.719134  1
  O  O19  1  0.147457  0.036722  0.355127  1
  O  O20  1  0.647034  0.035393  0.357418  1
  O  O21  1  0.014127  0.308938  0.610541  1
  O  O22  1  0.514760  0.309094  0.609664  1
  O  O23  1  0.171242  0.354965  0.943576  1
  O  O24  1  0.670944  0.356627  0.942793  1
