# generated using pymatgen
data_HfZr4B4MoRu10
_symmetry_space_group_name_H-M   'P 1'
_cell_length_a   9.51534600
_cell_length_b   9.51534600
_cell_length_c   3.11828700
_cell_angle_alpha   90.00000000
_cell_angle_beta   90.00000000
_cell_angle_gamma   90.00000000
_symmetry_Int_Tables_number   1
_chemical_formula_structural   HfZr4B4MoRu10
_chemical_formula_sum   'Hf1 Zr4 B4 Mo1 Ru10'
_cell_volume   282.33534752
_cell_formula_units_Z   1
loop_
 _symmetry_equiv_pos_site_id
 _symmetry_equiv_pos_as_xyz
  1  'x, y, z'
loop_
 _atom_site_type_symbol
 _atom_site_label
 _atom_site_symmetry_multiplicity
 _atom_site_fract_x
 _atom_site_fract_y
 _atom_site_fract_z
 _atom_site_occupancy
  Hf  Hf0  1  0.000000  0.000000  0.000000  1
  Zr  Zr1  1  0.676231  0.175635  0.000000  1
  Zr  Zr2  1  0.323769  0.824365  0.000000  1
  Zr  Zr3  1  0.175635  0.323769  0.000000  1
  Zr  Zr4  1  0.824365  0.676231  0.000000  1
  B  B5  1  0.119785  0.622372  0.000000  1
  B  B6  1  0.880215  0.377628  0.000000  1
  B  B7  1  0.622372  0.880215  0.000000  1
  B  B8  1  0.377628  0.119785  0.000000  1
  Mo  Mo9  1  0.500000  0.500000  0.000000  1
  Ru  Ru10  1  0.222010  0.074827  0.500000  1
  Ru  Ru11  1  0.777990  0.925173  0.500000  1
  Ru  Ru12  1  0.074827  0.777990  0.500000  1
  Ru  Ru13  1  0.715224  0.433174  0.500000  1
  Ru  Ru14  1  0.925173  0.222010  0.500000  1
  Ru  Ru15  1  0.284776  0.566826  0.500000  1
  Ru  Ru16  1  0.566826  0.715224  0.500000  1
  Ru  Ru17  1  0.433174  0.284776  0.500000  1
  Ru  Ru18  1  0.500000  0.000000  0.500000  1
  Ru  Ru19  1  0.000000  0.500000  0.500000  1
