# generated using pymatgen
data_CaHoLu2(ReN3)4
_symmetry_space_group_name_H-M   'P 1'
_cell_length_a   7.32606655
_cell_length_b   7.32606498
_cell_length_c   6.22321571
_cell_angle_alpha   73.39340504
_cell_angle_beta   73.39340737
_cell_angle_gamma   82.41943834
_symmetry_Int_Tables_number   1
_chemical_formula_structural   CaHoLu2(ReN3)4
_chemical_formula_sum   'Ca1 Ho1 Lu2 Re4 N12'
_cell_volume   306.26631151
_cell_formula_units_Z   1
loop_
 _symmetry_equiv_pos_site_id
 _symmetry_equiv_pos_as_xyz
  1  'x, y, z'
loop_
 _atom_site_type_symbol
 _atom_site_label
 _atom_site_symmetry_multiplicity
 _atom_site_fract_x
 _atom_site_fract_y
 _atom_site_fract_z
 _atom_site_occupancy
  Ca  Ca0  1  0.707841  0.292159  0.250000  1
  Ho  Ho1  1  0.289229  0.710771  0.750000  1
  Lu  Lu2  1  0.910335  0.089665  0.750000  1
  Lu  Lu3  1  0.091372  0.908628  0.250000  1
  Re  Re4  1  0.622040  0.796475  0.273745  1
  Re  Re5  1  0.203525  0.377960  0.226255  1
  Re  Re6  1  0.378864  0.201006  0.727124  1
  Re  Re7  1  0.798994  0.621136  0.772876  1
  N  N8  1  0.336664  0.366126  0.923631  1
  N  N9  1  0.013466  0.211396  0.348207  1
  N  N10  1  0.788604  0.986534  0.151793  1
  N  N11  1  0.214135  0.004307  0.845322  1
  N  N12  1  0.658786  0.643894  0.067724  1
  N  N13  1  0.880112  0.375945  0.821914  1
  N  N14  1  0.125272  0.628966  0.163690  1
  N  N15  1  0.995693  0.785865  0.654678  1
  N  N16  1  0.371034  0.874728  0.336310  1
  N  N17  1  0.633874  0.663336  0.576369  1
  N  N18  1  0.624055  0.119888  0.678086  1
  N  N19  1  0.356106  0.341214  0.432276  1
