# generated using pymatgen
data_AgP4WO13
_symmetry_space_group_name_H-M   'P 1'
_cell_length_a   5.23238187
_cell_length_b   8.12459150
_cell_length_c   15.33083568
_cell_angle_alpha   85.11059629
_cell_angle_beta   87.18087191
_cell_angle_gamma   80.40550431
_symmetry_Int_Tables_number   1
_chemical_formula_structural   AgP4WO13
_chemical_formula_sum   'Ag2 P8 W2 O26'
_cell_volume   639.86793770
_cell_formula_units_Z   2
loop_
 _symmetry_equiv_pos_site_id
 _symmetry_equiv_pos_as_xyz
  1  'x, y, z'
loop_
 _atom_site_type_symbol
 _atom_site_label
 _atom_site_symmetry_multiplicity
 _atom_site_fract_x
 _atom_site_fract_y
 _atom_site_fract_z
 _atom_site_occupancy
  Ag  Ag0  1  0.499437  0.502758  0.501373  1
  Ag  Ag1  1  0.998002  0.550905  0.008851  1
  P  P2  1  0.363582  0.584963  0.800941  1
  P  P3  1  0.013419  0.108639  0.843386  1
  P  P4  1  0.707656  0.325241  0.709990  1
  P  P5  1  0.845800  0.228334  0.358872  1
  P  P6  1  0.974655  0.888895  0.157480  1
  P  P7  1  0.282288  0.673642  0.290204  1
  P  P8  1  0.143057  0.773822  0.637839  1
  P  P9  1  0.623386  0.415846  0.195447  1
  W  W10  1  0.409914  0.059625  0.257515  1
  W  W11  1  0.578889  0.940216  0.740927  1
  O  O12  1  0.464934  0.598532  0.209174  1
  O  O13  1  0.684474  0.969906  0.175518  1
  O  O14  1  0.583435  0.174981  0.686365  1
  O  O15  1  0.848684  0.972476  0.823686  1
  O  O16  1  0.197745  0.622708  0.714179  1
  O  O17  1  0.781804  0.421521  0.113628  1
  O  O18  1  0.406934  0.824716  0.312395  1
  O  O19  1  0.424779  0.293446  0.201672  1
  O  O20  1  0.519529  0.401160  0.789579  1
  O  O21  1  0.018432  0.749368  0.241966  1
  O  O22  1  0.565125  0.705219  0.795615  1
  O  O23  1  0.968273  0.250282  0.759289  1
  O  O24  1  0.309085  0.907509  0.657196  1
  O  O25  1  0.024910  0.811686  0.073669  1
  O  O26  1  0.852950  0.852224  0.658042  1
  O  O27  1  0.967524  0.181131  0.928060  1
  O  O28  1  0.746373  0.451863  0.638066  1
  O  O29  1  0.303544  0.027291  0.822189  1
  O  O30  1  0.802052  0.294394  0.445926  1
  O  O31  1  0.246726  0.546557  0.361977  1
  O  O32  1  0.136271  0.148015  0.339603  1
  O  O33  1  0.140406  0.024877  0.174708  1
  O  O34  1  0.196938  0.583323  0.880889  1
  O  O35  1  0.796373  0.376153  0.280513  1
  O  O36  1  0.680975  0.093471  0.339869  1
  O  O37  1  0.184887  0.710384  0.549898  1
