# generated using pymatgen
data_Cs2Mn(TeO4)3
_symmetry_space_group_name_H-M   'P 1'
_cell_length_a   7.18446428
_cell_length_b   7.18446480
_cell_length_c   7.18446542
_cell_angle_alpha   61.08713548
_cell_angle_beta   61.08713011
_cell_angle_gamma   61.08713738
_symmetry_Int_Tables_number   1
_chemical_formula_structural   Cs2Mn(TeO4)3
_chemical_formula_sum   'Cs2 Mn1 Te3 O12'
_cell_volume   268.63885259
_cell_formula_units_Z   1
loop_
 _symmetry_equiv_pos_site_id
 _symmetry_equiv_pos_as_xyz
  1  'x, y, z'
loop_
 _atom_site_type_symbol
 _atom_site_label
 _atom_site_symmetry_multiplicity
 _atom_site_fract_x
 _atom_site_fract_y
 _atom_site_fract_z
 _atom_site_occupancy
  Cs  Cs0  1  0.128628  0.128628  0.128628  1
  Cs  Cs1  1  0.871372  0.871372  0.871372  1
  Mn  Mn2  1  0.500000  0.500000  0.500000  1
  Te  Te3  1  0.000000  0.500000  0.500000  1
  Te  Te4  1  0.500000  0.500000  0.000000  1
  Te  Te5  1  0.500000  0.000000  0.500000  1
  O  O6  1  0.432213  0.817220  0.432213  1
  O  O7  1  0.825643  0.432772  0.825643  1
  O  O8  1  0.432772  0.825643  0.825643  1
  O  O9  1  0.817220  0.432213  0.432213  1
  O  O10  1  0.825643  0.825643  0.432772  1
  O  O11  1  0.432213  0.432213  0.817220  1
  O  O12  1  0.567787  0.182780  0.567787  1
  O  O13  1  0.174357  0.567228  0.174357  1
  O  O14  1  0.567228  0.174357  0.174357  1
  O  O15  1  0.182780  0.567787  0.567787  1
  O  O16  1  0.174357  0.174357  0.567228  1
  O  O17  1  0.567787  0.567787  0.182780  1
