# generated using pymatgen
data_Ho2TmTl(SbO4)4
_symmetry_space_group_name_H-M   'P 1'
_cell_length_a   5.37691292
_cell_length_b   7.57051763
_cell_length_c   7.66205100
_cell_angle_alpha   80.24164036
_cell_angle_beta   92.05346681
_cell_angle_gamma   88.32758588
_symmetry_Int_Tables_number   1
_chemical_formula_structural   Ho2TmTl(SbO4)4
_chemical_formula_sum   'Ho2 Tm1 Tl1 Sb4 O16'
_cell_volume   306.98461271
_cell_formula_units_Z   1
loop_
 _symmetry_equiv_pos_site_id
 _symmetry_equiv_pos_as_xyz
  1  'x, y, z'
loop_
 _atom_site_type_symbol
 _atom_site_label
 _atom_site_symmetry_multiplicity
 _atom_site_fract_x
 _atom_site_fract_y
 _atom_site_fract_z
 _atom_site_occupancy
  Ho  Ho0  1  0.261232  0.612426  0.134140  1
  Ho  Ho1  1  0.738430  0.385210  0.871014  1
  Tm  Tm2  1  0.214706  0.116871  0.162289  1
  Tl  Tl3  1  0.775230  0.879590  0.836018  1
  Sb  Sb4  1  0.752674  0.806959  0.329463  1
  Sb  Sb5  1  0.245408  0.194850  0.667730  1
  Sb  Sb6  1  0.272417  0.690524  0.661169  1
  Sb  Sb7  1  0.724744  0.307508  0.338850  1
  O  O8  1  0.450030  0.879109  0.185077  1
  O  O9  1  0.554571  0.122761  0.816468  1
  O  O10  1  0.006292  0.614026  0.828179  1
  O  O11  1  0.991098  0.383868  0.172441  1
  O  O12  1  0.953968  0.826357  0.109805  1
  O  O13  1  0.071106  0.194895  0.892180  1
  O  O14  1  0.486933  0.665831  0.888519  1
  O  O15  1  0.506719  0.322672  0.114347  1
  O  O16  1  0.604771  0.561720  0.325025  1
  O  O17  1  0.398649  0.437362  0.670933  1
  O  O18  1  0.133102  0.941253  0.675628  1
  O  O19  1  0.871467  0.059541  0.326280  1
  O  O20  1  0.587637  0.803500  0.560768  1
  O  O21  1  0.402676  0.194669  0.433757  1
  O  O22  1  0.082537  0.689667  0.432432  1
  O  O23  1  0.913600  0.308831  0.567491  1
