# generated using pymatgen
data_Tb2HoMg3Ge2Pd
_symmetry_space_group_name_H-M   'P 1'
_cell_length_a   7.26715750
_cell_length_b   7.26715769
_cell_length_c   4.29660500
_cell_angle_alpha   90.00000000
_cell_angle_beta   90.00000000
_cell_angle_gamma   119.82477048
_symmetry_Int_Tables_number   1
_chemical_formula_structural   Tb2HoMg3Ge2Pd
_chemical_formula_sum   'Tb2 Ho1 Mg3 Ge2 Pd1'
_cell_volume   196.85631857
_cell_formula_units_Z   1
loop_
 _symmetry_equiv_pos_site_id
 _symmetry_equiv_pos_as_xyz
  1  'x, y, z'
loop_
 _atom_site_type_symbol
 _atom_site_label
 _atom_site_symmetry_multiplicity
 _atom_site_fract_x
 _atom_site_fract_y
 _atom_site_fract_z
 _atom_site_occupancy
  Tb  Tb0  1  0.583585  0.000679  0.000000  1
  Tb  Tb1  1  0.000679  0.583585  0.000000  1
  Ho  Ho2  1  0.416487  0.416487  0.000000  1
  Mg  Mg3  1  0.241324  0.000710  0.500000  1
  Mg  Mg4  1  0.000710  0.241324  0.500000  1
  Mg  Mg5  1  0.757460  0.757460  0.500000  1
  Ge  Ge6  1  0.333276  0.665564  0.500000  1
  Ge  Ge7  1  0.665564  0.333276  0.500000  1
  Pd  Pd8  1  0.000914  0.000914  0.000000  1
