# generated using pymatgen
data_Ba4ZnRuO8
_symmetry_space_group_name_H-M   'P 1'
_cell_length_a   7.22980554
_cell_length_b   7.22980523
_cell_length_c   5.90010900
_cell_angle_alpha   90.00000000
_cell_angle_beta   90.00000000
_cell_angle_gamma   132.13398543
_symmetry_Int_Tables_number   1
_chemical_formula_structural   Ba4ZnRuO8
_chemical_formula_sum   'Ba4 Zn1 Ru1 O8'
_cell_volume   228.70207802
_cell_formula_units_Z   1
loop_
 _symmetry_equiv_pos_site_id
 _symmetry_equiv_pos_as_xyz
  1  'x, y, z'
loop_
 _atom_site_type_symbol
 _atom_site_label
 _atom_site_symmetry_multiplicity
 _atom_site_fract_x
 _atom_site_fract_y
 _atom_site_fract_z
 _atom_site_occupancy
  Ba  Ba0  1  0.645114  0.354886  0.000000  1
  Ba  Ba1  1  0.142779  0.857221  0.500000  1
  Ba  Ba2  1  0.857221  0.142779  0.500000  1
  Ba  Ba3  1  0.354886  0.645114  0.000000  1
  Zn  Zn4  1  0.000000  0.000000  0.000000  1
  Ru  Ru5  1  0.500000  0.500000  0.500000  1
  O  O6  1  0.733872  0.733872  0.269339  1
  O  O7  1  0.266128  0.266128  0.730661  1
  O  O8  1  0.266128  0.266128  0.269339  1
  O  O9  1  0.733872  0.733872  0.730661  1
  O  O10  1  0.845142  0.154858  0.000000  1
  O  O11  1  0.346694  0.653306  0.500000  1
  O  O12  1  0.653306  0.346694  0.500000  1
  O  O13  1  0.154858  0.845142  0.000000  1
