# generated using pymatgen
data_Dy2HoZn2In3Rh
_symmetry_space_group_name_H-M   'P 1'
_cell_length_a   7.73939089
_cell_length_b   7.73115207
_cell_length_c   3.86379500
_cell_angle_alpha   90.00000000
_cell_angle_beta   90.00000000
_cell_angle_gamma   120.09034182
_symmetry_Int_Tables_number   1
_chemical_formula_structural   Dy2HoZn2In3Rh
_chemical_formula_sum   'Dy2 Ho1 Zn2 In3 Rh1'
_cell_volume   200.03206959
_cell_formula_units_Z   1
loop_
 _symmetry_equiv_pos_site_id
 _symmetry_equiv_pos_as_xyz
  1  'x, y, z'
loop_
 _atom_site_type_symbol
 _atom_site_label
 _atom_site_symmetry_multiplicity
 _atom_site_fract_x
 _atom_site_fract_y
 _atom_site_fract_z
 _atom_site_occupancy
  Dy  Dy0  1  0.975382  0.392468  0.500000  1
  Dy  Dy1  1  0.607294  0.582737  0.500000  1
  Ho  Ho2  1  0.417627  0.025534  0.500000  1
  Zn  Zn3  1  0.333601  0.667352  0.000000  1
  Zn  Zn4  1  0.000015  0.999963  0.500000  1
  In  In5  1  0.262024  0.268836  0.000000  1
  In  In6  1  0.007161  0.737981  0.000000  1
  In  In7  1  0.730726  0.992863  0.000000  1
  Rh  Rh8  1  0.666172  0.332265  0.000000  1
