# generated using pymatgen
data_Er3Zn2Ga7Pd2
_symmetry_space_group_name_H-M   'P 1'
_cell_length_a   8.07931835
_cell_length_b   8.10321313
_cell_length_c   8.10321299
_cell_angle_alpha   148.93240002
_cell_angle_beta   108.27276839
_cell_angle_gamma   80.23101748
_symmetry_Int_Tables_number   1
_chemical_formula_structural   Er3Zn2Ga7Pd2
_chemical_formula_sum   'Er3 Zn2 Ga7 Pd2'
_cell_volume   254.61307060
_cell_formula_units_Z   1
loop_
 _symmetry_equiv_pos_site_id
 _symmetry_equiv_pos_as_xyz
  1  'x, y, z'
loop_
 _atom_site_type_symbol
 _atom_site_label
 _atom_site_symmetry_multiplicity
 _atom_site_fract_x
 _atom_site_fract_y
 _atom_site_fract_z
 _atom_site_occupancy
  Er  Er0  1  0.499377  0.499566  0.999812  1
  Er  Er1  1  0.203477  0.202580  0.000897  1
  Er  Er2  1  0.795971  0.798374  0.997597  1
  Zn  Zn3  1  0.643531  0.364166  0.279365  1
  Zn  Zn4  1  0.994784  0.497068  0.497715  1
  Ga  Ga5  1  0.350986  0.634036  0.716950  1
  Ga  Ga6  1  0.082675  0.364375  0.718300  1
  Ga  Ga7  1  0.917176  0.634229  0.282947  1
  Ga  Ga8  1  0.523250  0.159012  0.364238  1
  Ga  Ga9  1  0.483337  0.845258  0.638079  1
  Ga  Ga10  1  0.791993  0.157098  0.634895  1
  Ga  Ga11  1  0.209859  0.842834  0.367025  1
  Pd  Pd12  1  0.180183  0.999140  0.181044  1
  Pd  Pd13  1  0.823401  0.002263  0.821138  1
