# generated using pymatgen
data_Zr6ZnS2
_symmetry_space_group_name_H-M   'P 1'
_cell_length_a   3.57739300
_cell_length_b   12.72896600
_cell_length_c   15.51298400
_cell_angle_alpha   90.00000000
_cell_angle_beta   90.00000000
_cell_angle_gamma   90.00000000
_symmetry_Int_Tables_number   1
_chemical_formula_structural   Zr6ZnS2
_chemical_formula_sum   'Zr24 Zn4 S8'
_cell_volume   706.40721101
_cell_formula_units_Z   4
loop_
 _symmetry_equiv_pos_site_id
 _symmetry_equiv_pos_as_xyz
  1  'x, y, z'
loop_
 _atom_site_type_symbol
 _atom_site_label
 _atom_site_symmetry_multiplicity
 _atom_site_fract_x
 _atom_site_fract_y
 _atom_site_fract_z
 _atom_site_occupancy
  Zr  Zr0  1  0.000000  0.026739  0.108263  1
  Zr  Zr1  1  0.000000  0.973261  0.891737  1
  Zr  Zr2  1  0.500000  0.473261  0.608263  1
  Zr  Zr3  1  0.500000  0.526739  0.391737  1
  Zr  Zr4  1  0.000000  0.412543  0.248549  1
  Zr  Zr5  1  0.000000  0.587457  0.751451  1
  Zr  Zr6  1  0.500000  0.087457  0.748549  1
  Zr  Zr7  1  0.500000  0.912543  0.251451  1
  Zr  Zr8  1  0.000000  0.080889  0.577062  1
  Zr  Zr9  1  0.000000  0.919111  0.422938  1
  Zr  Zr10  1  0.500000  0.419111  0.077062  1
  Zr  Zr11  1  0.500000  0.580889  0.922938  1
  Zr  Zr12  1  0.000000  0.347826  0.471600  1
  Zr  Zr13  1  0.000000  0.652174  0.528400  1
  Zr  Zr14  1  0.500000  0.152174  0.971600  1
  Zr  Zr15  1  0.500000  0.847826  0.028400  1
  Zr  Zr16  1  0.000000  0.689996  0.286186  1
  Zr  Zr17  1  0.000000  0.310004  0.713814  1
  Zr  Zr18  1  0.500000  0.810004  0.786186  1
  Zr  Zr19  1  0.500000  0.189996  0.213814  1
  Zr  Zr20  1  0.000000  0.620157  0.085662  1
  Zr  Zr21  1  0.000000  0.379843  0.914338  1
  Zr  Zr22  1  0.500000  0.879843  0.585662  1
  Zr  Zr23  1  0.500000  0.120157  0.414338  1
  Zn  Zn24  1  0.000000  0.255289  0.086197  1
  Zn  Zn25  1  0.000000  0.744711  0.913803  1
  Zn  Zn26  1  0.500000  0.244711  0.586197  1
  Zn  Zn27  1  0.500000  0.755289  0.413803  1
  S  S28  1  0.000000  0.063301  0.288353  1
  S  S29  1  0.000000  0.936699  0.711647  1
  S  S30  1  0.500000  0.436699  0.788353  1
  S  S31  1  0.500000  0.563301  0.211647  1
  S  S32  1  0.000000  0.814599  0.150936  1
  S  S33  1  0.000000  0.185401  0.849064  1
  S  S34  1  0.500000  0.685401  0.650936  1
  S  S35  1  0.500000  0.314599  0.349064  1
