# generated using pymatgen
data_Ba2ReRhN4
_symmetry_space_group_name_H-M   'P 1'
_cell_length_a   6.14372400
_cell_length_b   6.69685460
_cell_length_c   8.59740088
_cell_angle_alpha   61.37155234
_cell_angle_beta   90.00000000
_cell_angle_gamma   90.00000000
_symmetry_Int_Tables_number   1
_chemical_formula_structural   Ba2ReRhN4
_chemical_formula_sum   'Ba4 Re2 Rh2 N8'
_cell_volume   310.48327102
_cell_formula_units_Z   2
loop_
 _symmetry_equiv_pos_site_id
 _symmetry_equiv_pos_as_xyz
  1  'x, y, z'
loop_
 _atom_site_type_symbol
 _atom_site_label
 _atom_site_symmetry_multiplicity
 _atom_site_fract_x
 _atom_site_fract_y
 _atom_site_fract_z
 _atom_site_occupancy
  Ba  Ba0  1  0.250000  0.252696  0.057795  1
  Ba  Ba1  1  0.750000  0.747304  0.942205  1
  Ba  Ba2  1  0.750000  0.837479  0.384548  1
  Ba  Ba3  1  0.250000  0.162521  0.615452  1
  Re  Re4  1  0.250000  0.664684  0.200321  1
  Re  Re5  1  0.750000  0.335316  0.799679  1
  Rh  Rh6  1  0.750000  0.337306  0.393116  1
  Rh  Rh7  1  0.250000  0.662694  0.606884  1
  N  N8  1  0.511331  0.527678  0.752798  1
  N  N9  1  0.011331  0.472322  0.247202  1
  N  N10  1  0.488669  0.472322  0.247202  1
  N  N11  1  0.988669  0.527678  0.752798  1
  N  N12  1  0.750000  0.205313  0.648090  1
  N  N13  1  0.250000  0.794687  0.351910  1
  N  N14  1  0.750000  0.109038  0.028217  1
  N  N15  1  0.250000  0.890962  0.971783  1
