# generated using pymatgen
data_Tb3Y9Ni4
_symmetry_space_group_name_H-M   'P 1'
_cell_length_a   6.39532898
_cell_length_b   6.87491252
_cell_length_c   9.63835232
_cell_angle_alpha   90.01157348
_cell_angle_beta   89.89237394
_cell_angle_gamma   90.11475999
_symmetry_Int_Tables_number   1
_chemical_formula_structural   Tb3Y9Ni4
_chemical_formula_sum   'Tb3 Y9 Ni4'
_cell_volume   423.77098473
_cell_formula_units_Z   1
loop_
 _symmetry_equiv_pos_site_id
 _symmetry_equiv_pos_as_xyz
  1  'x, y, z'
loop_
 _atom_site_type_symbol
 _atom_site_label
 _atom_site_symmetry_multiplicity
 _atom_site_fract_x
 _atom_site_fract_y
 _atom_site_fract_z
 _atom_site_occupancy
  Tb  Tb0  1  0.820723  0.821310  0.567339  1
  Tb  Tb1  1  0.320729  0.677416  0.433031  1
  Tb  Tb2  1  0.180035  0.178761  0.067195  1
  Y  Y3  1  0.322235  0.678232  0.065412  1
  Y  Y4  1  0.177713  0.176848  0.434508  1
  Y  Y5  1  0.677812  0.322481  0.566079  1
  Y  Y6  1  0.822151  0.823317  0.934240  1
  Y  Y7  1  0.677913  0.322363  0.933419  1
  Y  Y8  1  0.860194  0.533307  0.249921  1
  Y  Y9  1  0.640687  0.033303  0.250947  1
  Y  Y10  1  0.140632  0.465595  0.750461  1
  Y  Y11  1  0.359498  0.966225  0.750251  1
  Ni  Ni12  1  0.055364  0.891229  0.248804  1
  Ni  Ni13  1  0.444905  0.391576  0.250288  1
  Ni  Ni14  1  0.945407  0.108296  0.747825  1
  Ni  Ni15  1  0.554003  0.609742  0.750279  1
