# generated using pymatgen
data_Na4VMo3H20
_symmetry_space_group_name_H-M   'P 1'
_cell_length_a   4.70662532
_cell_length_b   5.14194687
_cell_length_c   11.62176750
_cell_angle_alpha   89.64167958
_cell_angle_beta   88.29645624
_cell_angle_gamma   91.48403464
_symmetry_Int_Tables_number   1
_chemical_formula_structural   Na4VMo3H20
_chemical_formula_sum   'Na4 V1 Mo3 H20'
_cell_volume   281.03536798
_cell_formula_units_Z   1
loop_
 _symmetry_equiv_pos_site_id
 _symmetry_equiv_pos_as_xyz
  1  'x, y, z'
loop_
 _atom_site_type_symbol
 _atom_site_label
 _atom_site_symmetry_multiplicity
 _atom_site_fract_x
 _atom_site_fract_y
 _atom_site_fract_z
 _atom_site_occupancy
  Na  Na0  1  0.769801  0.752608  0.837847  1
  Na  Na1  1  0.282837  0.747295  0.162404  1
  Na  Na2  1  0.763271  0.255897  0.340744  1
  Na  Na3  1  0.300603  0.245729  0.659857  1
  V  V4  1  0.803721  0.750675  0.547960  1
  Mo  Mo5  1  0.270463  0.247055  0.953074  1
  Mo  Mo6  1  0.784900  0.251823  0.047652  1
  Mo  Mo7  1  0.273696  0.750169  0.455614  1
  H  H8  1  0.521219  0.000457  0.002733  1
  H  H9  1  0.035719  0.524975  0.995865  1
  H  H10  1  0.056557  0.023597  0.494731  1
  H  H11  1  0.534131  0.515750  0.503062  1
  H  H12  1  0.311764  0.034717  0.836936  1
  H  H13  1  0.745218  0.464734  0.163652  1
  H  H14  1  0.325807  0.961239  0.337374  1
  H  H15  1  0.761431  0.547359  0.663045  1
  H  H16  1  0.735489  0.048635  0.168060  1
  H  H17  1  0.902024  0.242764  0.889066  1
  H  H18  1  0.771791  0.953739  0.661775  1
  H  H19  1  0.320755  0.539823  0.338369  1
  H  H20  1  0.322072  0.449867  0.832612  1
  H  H21  1  0.152577  0.256055  0.111793  1
  H  H22  1  0.939872  0.749817  0.385034  1
  H  H23  1  0.173612  0.750563  0.608914  1
  H  H24  1  0.018984  0.973816  0.004625  1
  H  H25  1  0.533363  0.498440  0.998532  1
  H  H26  1  0.547741  0.985304  0.501308  1
  H  H27  1  0.040582  0.477103  0.497364  1
