# generated using pymatgen
data_La2Sm2Se3O4
_symmetry_space_group_name_H-M   'P 1'
_cell_length_a   6.83022329
_cell_length_b   6.83022335
_cell_length_c   8.50046200
_cell_angle_alpha   90.00000000
_cell_angle_beta   90.00000000
_cell_angle_gamma   145.54056627
_symmetry_Int_Tables_number   1
_chemical_formula_structural   La2Sm2Se3O4
_chemical_formula_sum   'La2 Sm2 Se3 O4'
_cell_volume   224.38438376
_cell_formula_units_Z   1
loop_
 _symmetry_equiv_pos_site_id
 _symmetry_equiv_pos_as_xyz
  1  'x, y, z'
loop_
 _atom_site_type_symbol
 _atom_site_label
 _atom_site_symmetry_multiplicity
 _atom_site_fract_x
 _atom_site_fract_y
 _atom_site_fract_z
 _atom_site_occupancy
  La  La0  1  0.315901  0.684099  0.761075  1
  La  La1  1  0.315901  0.684099  0.238925  1
  Sm  Sm2  1  0.983607  0.016393  0.500000  1
  Sm  Sm3  1  0.996192  0.003808  0.000000  1
  Se  Se4  1  0.640205  0.359795  0.350495  1
  Se  Se5  1  0.640205  0.359795  0.649505  1
  Se  Se6  1  0.680006  0.319994  0.000000  1
  O  O7  1  0.389042  0.610958  0.500000  1
  O  O8  1  0.412882  0.587118  0.000000  1
  O  O9  1  0.913635  0.086365  0.755400  1
  O  O10  1  0.913635  0.086365  0.244600  1
