# generated using pymatgen
data_BaSr3Ga4(SiO7)2
_symmetry_space_group_name_H-M   'P 1'
_cell_length_a   8.10318897
_cell_length_b   5.44679139
_cell_length_c   8.10518000
_cell_angle_alpha   89.82660691
_cell_angle_beta   90.59211252
_cell_angle_gamma   90.24484519
_symmetry_Int_Tables_number   1
_chemical_formula_structural   BaSr3Ga4(SiO7)2
_chemical_formula_sum   'Ba1 Sr3 Ga4 Si2 O14'
_cell_volume   357.70934387
_cell_formula_units_Z   1
loop_
 _symmetry_equiv_pos_site_id
 _symmetry_equiv_pos_as_xyz
  1  'x, y, z'
loop_
 _atom_site_type_symbol
 _atom_site_label
 _atom_site_symmetry_multiplicity
 _atom_site_fract_x
 _atom_site_fract_y
 _atom_site_fract_z
 _atom_site_occupancy
  Ba  Ba0  1  0.663313  0.499148  0.591797  1
  Sr  Sr1  1  0.844385  0.517566  0.079054  1
  Sr  Sr2  1  0.342285  0.486706  0.925539  1
  Sr  Sr3  1  0.166450  0.505160  0.402154  1
  Ga  Ga4  1  0.498969  0.995498  0.252130  1
  Ga  Ga5  1  0.001910  0.998945  0.747603  1
  Ga  Ga6  1  0.640117  0.974076  0.898336  1
  Ga  Ga7  1  0.142460  0.028219  0.107158  1
  Si  Si8  1  0.352330  0.957254  0.610011  1
  Si  Si9  1  0.864894  0.041373  0.385526  1
  O  O10  1  0.989070  0.176198  0.251646  1
  O  O11  1  0.479300  0.842118  0.751177  1
  O  O12  1  0.638849  0.303965  0.899089  1
  O  O13  1  0.143691  0.697563  0.111972  1
  O  O14  1  0.348994  0.253581  0.603317  1
  O  O15  1  0.871800  0.745094  0.383529  1
  O  O16  1  0.578957  0.794719  0.087881  1
  O  O17  1  0.083923  0.199027  0.912893  1
  O  O18  1  0.409804  0.821128  0.434126  1
  O  O19  1  0.918660  0.173573  0.564080  1
  O  O20  1  0.681435  0.163751  0.341626  1
  O  O21  1  0.174054  0.817467  0.652821  1
  O  O22  1  0.333125  0.201613  0.178142  1
  O  O23  1  0.831215  0.806257  0.828393  1
