# generated using pymatgen
data_Sc6Zn15Ag8Se
_symmetry_space_group_name_H-M   'P 1'
_cell_length_a   8.92686334
_cell_length_b   8.92683415
_cell_length_c   8.92685200
_cell_angle_alpha   60.00022290
_cell_angle_beta   59.99987897
_cell_angle_gamma   60.00007144
_symmetry_Int_Tables_number   1
_chemical_formula_structural   Sc6Zn15Ag8Se
_chemical_formula_sum   'Sc6 Zn15 Ag8 Se1'
_cell_volume   503.01421490
_cell_formula_units_Z   1
loop_
 _symmetry_equiv_pos_site_id
 _symmetry_equiv_pos_as_xyz
  1  'x, y, z'
loop_
 _atom_site_type_symbol
 _atom_site_label
 _atom_site_symmetry_multiplicity
 _atom_site_fract_x
 _atom_site_fract_y
 _atom_site_fract_z
 _atom_site_occupancy
  Sc  Sc0  1  0.709990  0.290010  0.290009  1
  Sc  Sc1  1  0.710000  0.290000  0.709995  1
  Sc  Sc2  1  0.709983  0.709986  0.290017  1
  Sc  Sc3  1  0.290010  0.709990  0.709991  1
  Sc  Sc4  1  0.290000  0.710000  0.290005  1
  Sc  Sc5  1  0.290017  0.290014  0.709983  1
  Zn  Zn6  1  0.500000  0.000000  0.000000  1
  Zn  Zn7  1  0.500000  0.000000  0.500000  1
  Zn  Zn8  1  0.500000  0.500000  0.000000  1
  Zn  Zn9  1  0.000000  0.500000  0.500000  1
  Zn  Zn10  1  0.000000  0.500000  0.000000  1
  Zn  Zn11  1  0.000000  0.000000  0.500000  1
  Zn  Zn12  1  0.000000  0.000000  0.000000  1
  Zn  Zn13  1  0.002054  0.332644  0.332658  1
  Zn  Zn14  1  0.332644  0.002053  0.332644  1
  Zn  Zn15  1  0.332659  0.332644  0.002052  1
  Zn  Zn16  1  0.332647  0.332661  0.332647  1
  Zn  Zn17  1  0.997946  0.667356  0.667342  1
  Zn  Zn18  1  0.667356  0.997947  0.667356  1
  Zn  Zn19  1  0.667341  0.667356  0.997948  1
  Zn  Zn20  1  0.667353  0.667339  0.667353  1
  Ag  Ag21  1  0.637866  0.120708  0.120727  1
  Ag  Ag22  1  0.120707  0.637865  0.120701  1
  Ag  Ag23  1  0.120727  0.120702  0.637866  1
  Ag  Ag24  1  0.120699  0.120726  0.120706  1
  Ag  Ag25  1  0.362134  0.879292  0.879273  1
  Ag  Ag26  1  0.879293  0.362135  0.879299  1
  Ag  Ag27  1  0.879273  0.879298  0.362134  1
  Ag  Ag28  1  0.879301  0.879274  0.879294  1
  Se  Se29  1  0.500000  0.500000  0.500000  1
