# generated using pymatgen
data_YbHoPa(SnIr)3
_symmetry_space_group_name_H-M   'P 1'
_cell_length_a   7.45501500
_cell_length_b   7.62455203
_cell_length_c   3.93928000
_cell_angle_alpha   90.00000000
_cell_angle_beta   90.00000000
_cell_angle_gamma   120.41206059
_symmetry_Int_Tables_number   1
_chemical_formula_structural   YbHoPa(SnIr)3
_chemical_formula_sum   'Yb1 Ho1 Pa1 Sn3 Ir3'
_cell_volume   193.10434433
_cell_formula_units_Z   1
loop_
 _symmetry_equiv_pos_site_id
 _symmetry_equiv_pos_as_xyz
  1  'x, y, z'
loop_
 _atom_site_type_symbol
 _atom_site_label
 _atom_site_symmetry_multiplicity
 _atom_site_fract_x
 _atom_site_fract_y
 _atom_site_fract_z
 _atom_site_occupancy
  Yb  Yb0  1  0.404789  0.997883  0.500000  1
  Ho  Ho1  1  0.595471  0.593471  0.500000  1
  Pa  Pa2  1  0.000423  0.413758  0.500000  1
  Sn  Sn3  1  0.003578  0.759601  0.000000  1
  Sn  Sn4  1  0.272044  0.255201  0.000000  1
  Sn  Sn5  1  0.724036  0.986515  0.000000  1
  Ir  Ir6  1  0.302488  0.634422  0.000000  1
  Ir  Ir7  1  0.702067  0.343133  0.000000  1
  Ir  Ir8  1  0.995103  0.016015  0.500000  1
