# generated using pymatgen
data_Lu12ZnCo3SiBi
_symmetry_space_group_name_H-M   'P 1'
_cell_length_a   8.21696263
_cell_length_b   8.21696362
_cell_length_c   8.21696264
_cell_angle_alpha   111.15560819
_cell_angle_beta   112.48211758
_cell_angle_gamma   104.87450232
_symmetry_Int_Tables_number   1
_chemical_formula_structural   Lu12ZnCo3SiBi
_chemical_formula_sum   'Lu12 Zn1 Co3 Si1 Bi1'
_cell_volume   424.98081996
_cell_formula_units_Z   1
loop_
 _symmetry_equiv_pos_site_id
 _symmetry_equiv_pos_as_xyz
  1  'x, y, z'
loop_
 _atom_site_type_symbol
 _atom_site_label
 _atom_site_symmetry_multiplicity
 _atom_site_fract_x
 _atom_site_fract_y
 _atom_site_fract_z
 _atom_site_occupancy
  Lu  Lu0  1  0.285313  0.180700  0.466013  1
  Lu  Lu1  1  0.721115  0.816082  0.537197  1
  Lu  Lu2  1  0.278885  0.816082  0.094969  1
  Lu  Lu3  1  0.714687  0.180700  0.895386  1
  Lu  Lu4  1  0.620073  0.310854  0.314940  1
  Lu  Lu5  1  0.379927  0.694866  0.690781  1
  Lu  Lu6  1  0.995915  0.310854  0.690781  1
  Lu  Lu7  1  0.004085  0.694866  0.314940  1
  Lu  Lu8  1  0.233681  0.434532  0.200850  1
  Lu  Lu9  1  0.774107  0.571120  0.797011  1
  Lu  Lu10  1  0.225893  0.022904  0.797011  1
  Lu  Lu11  1  0.766319  0.967168  0.200850  1
  Zn  Zn12  1  0.000000  0.993045  0.993045  1
  Co  Co13  1  0.000000  0.646658  0.646658  1
  Co  Co14  1  0.388750  0.886221  0.497471  1
  Co  Co15  1  0.611250  0.108721  0.497471  1
  Si  Si16  1  0.000000  0.369738  0.369738  1
  Bi  Bi17  1  0.500000  0.494888  0.994888  1
