# generated using pymatgen
data_CaCdB2O5
_symmetry_space_group_name_H-M   'P 1'
_cell_length_a   3.56889296
_cell_length_b   6.42475926
_cell_length_c   10.17023956
_cell_angle_alpha   106.45888001
_cell_angle_beta   91.26694978
_cell_angle_gamma   91.54113107
_symmetry_Int_Tables_number   1
_chemical_formula_structural   CaCdB2O5
_chemical_formula_sum   'Ca2 Cd2 B4 O10'
_cell_volume   223.45221614
_cell_formula_units_Z   2
loop_
 _symmetry_equiv_pos_site_id
 _symmetry_equiv_pos_as_xyz
  1  'x, y, z'
loop_
 _atom_site_type_symbol
 _atom_site_label
 _atom_site_symmetry_multiplicity
 _atom_site_fract_x
 _atom_site_fract_y
 _atom_site_fract_z
 _atom_site_occupancy
  Ca  Ca0  1  0.743806  0.232198  0.876780  1
  Ca  Ca1  1  0.256194  0.767802  0.123220  1
  Cd  Cd2  1  0.778540  0.655249  0.411684  1
  Cd  Cd3  1  0.221460  0.344751  0.588316  1
  B  B4  1  0.671288  0.120476  0.316369  1
  B  B5  1  0.328712  0.879524  0.683631  1
  B  B6  1  0.673837  0.668235  0.836618  1
  B  B7  1  0.326163  0.331765  0.163382  1
  O  O8  1  0.468005  0.150469  0.200518  1
  O  O9  1  0.531995  0.849531  0.799482  1
  O  O10  1  0.272454  0.712160  0.565485  1
  O  O11  1  0.727546  0.287840  0.434515  1
  O  O12  1  0.213832  0.087294  0.705960  1
  O  O13  1  0.786168  0.912706  0.294040  1
  O  O14  1  0.249042  0.306502  0.028033  1
  O  O15  1  0.750958  0.693498  0.971967  1
  O  O16  1  0.281734  0.527390  0.259789  1
  O  O17  1  0.718266  0.472610  0.740211  1
