# generated using pymatgen
data_Ho3Er7CoBi5
_symmetry_space_group_name_H-M   'P 1'
_cell_length_a   8.00926200
_cell_length_b   9.34148700
_cell_length_c   12.03950100
_cell_angle_alpha   90.00000000
_cell_angle_beta   90.00000000
_cell_angle_gamma   90.00000000
_symmetry_Int_Tables_number   1
_chemical_formula_structural   Ho3Er7CoBi5
_chemical_formula_sum   'Ho6 Er14 Co2 Bi10'
_cell_volume   900.77640452
_cell_formula_units_Z   2
loop_
 _symmetry_equiv_pos_site_id
 _symmetry_equiv_pos_as_xyz
  1  'x, y, z'
loop_
 _atom_site_type_symbol
 _atom_site_label
 _atom_site_symmetry_multiplicity
 _atom_site_fract_x
 _atom_site_fract_y
 _atom_site_fract_z
 _atom_site_occupancy
  Ho  Ho0  1  0.573019  0.500000  0.772410  1
  Ho  Ho1  1  0.426981  0.500000  0.272410  1
  Ho  Ho2  1  0.258140  0.500000  0.993613  1
  Ho  Ho3  1  0.741860  0.500000  0.493613  1
  Ho  Ho4  1  0.089779  0.500000  0.718366  1
  Ho  Ho5  1  0.910221  0.500000  0.218366  1
  Er  Er6  1  0.430852  0.176542  0.563578  1
  Er  Er7  1  0.569148  0.823458  0.063578  1
  Er  Er8  1  0.072201  0.730176  0.436485  1
  Er  Er9  1  0.927799  0.269824  0.936485  1
  Er  Er10  1  0.072201  0.269824  0.436485  1
  Er  Er11  1  0.927799  0.730176  0.936485  1
  Er  Er12  1  0.430852  0.823458  0.563578  1
  Er  Er13  1  0.569148  0.176542  0.063578  1
  Er  Er14  1  0.906701  0.000000  0.200435  1
  Er  Er15  1  0.093299  0.000000  0.700435  1
  Er  Er16  1  0.198013  0.000000  0.995872  1
  Er  Er17  1  0.801987  0.000000  0.495872  1
  Er  Er18  1  0.370920  0.000000  0.309110  1
  Er  Er19  1  0.629080  0.000000  0.809110  1
  Co  Co20  1  0.174429  0.000000  0.488782  1
  Co  Co21  1  0.825571  0.000000  0.988782  1
  Bi  Bi22  1  0.813960  0.742437  0.671978  1
  Bi  Bi23  1  0.186040  0.257563  0.171978  1
  Bi  Bi24  1  0.680057  0.241098  0.325098  1
  Bi  Bi25  1  0.319943  0.758902  0.825098  1
  Bi  Bi26  1  0.680057  0.758902  0.325098  1
  Bi  Bi27  1  0.319943  0.241098  0.825098  1
  Bi  Bi28  1  0.813960  0.257563  0.671978  1
  Bi  Bi29  1  0.186040  0.742437  0.171978  1
  Bi  Bi30  1  0.347136  0.500000  0.527139  1
  Bi  Bi31  1  0.652864  0.500000  0.027139  1
