# generated using pymatgen
data_Er7Lu(Ga3Pt)4
_symmetry_space_group_name_H-M   'P 1'
_cell_length_a   8.80863876
_cell_length_b   8.82281787
_cell_length_c   7.05250200
_cell_angle_alpha   90.00000000
_cell_angle_beta   90.00000000
_cell_angle_gamma   120.05340001
_symmetry_Int_Tables_number   1
_chemical_formula_structural   Er7Lu(Ga3Pt)4
_chemical_formula_sum   'Er7 Lu1 Ga12 Pt4'
_cell_volume   474.41238818
_cell_formula_units_Z   1
loop_
 _symmetry_equiv_pos_site_id
 _symmetry_equiv_pos_as_xyz
  1  'x, y, z'
loop_
 _atom_site_type_symbol
 _atom_site_label
 _atom_site_symmetry_multiplicity
 _atom_site_fract_x
 _atom_site_fract_y
 _atom_site_fract_z
 _atom_site_occupancy
  Er  Er0  1  0.000193  0.999941  0.250000  1
  Er  Er1  1  0.999560  0.999891  0.750000  1
  Er  Er2  1  0.519903  0.039996  0.250000  1
  Er  Er3  1  0.519902  0.480034  0.250000  1
  Er  Er4  1  0.960524  0.480309  0.250000  1
  Er  Er5  1  0.479784  0.959753  0.750000  1
  Er  Er6  1  0.479877  0.519842  0.750000  1
  Lu  Lu7  1  0.039868  0.519888  0.750000  1
  Ga  Ga8  1  0.165915  0.332156  0.045818  1
  Ga  Ga9  1  0.166015  0.833727  0.454217  1
  Ga  Ga10  1  0.667383  0.833728  0.453579  1
  Ga  Ga11  1  0.667383  0.833728  0.046421  1
  Ga  Ga12  1  0.166015  0.833727  0.045783  1
  Ga  Ga13  1  0.834391  0.667626  0.953242  1
  Ga  Ga14  1  0.834306  0.166823  0.953194  1
  Ga  Ga15  1  0.332602  0.166293  0.953886  1
  Ga  Ga16  1  0.165915  0.332156  0.454182  1
  Ga  Ga17  1  0.332602  0.166293  0.546114  1
  Ga  Ga18  1  0.834391  0.667626  0.546758  1
  Ga  Ga19  1  0.834306  0.166823  0.546806  1
  Pt  Pt20  1  0.332044  0.665982  0.025254  1
  Pt  Pt21  1  0.332044  0.665982  0.474746  1
  Pt  Pt22  1  0.667538  0.333838  0.972745  1
  Pt  Pt23  1  0.667538  0.333838  0.527255  1
