# generated using pymatgen
data_NaCaGaF6
_symmetry_space_group_name_H-M   'P 1'
_cell_length_a   9.24190900
_cell_length_b   9.24191014
_cell_length_c   5.19454700
_cell_angle_alpha   90.00000000
_cell_angle_beta   90.00000000
_cell_angle_gamma   119.99999950
_symmetry_Int_Tables_number   1
_chemical_formula_structural   NaCaGaF6
_chemical_formula_sum   'Na3 Ca3 Ga3 F18'
_cell_volume   384.23926544
_cell_formula_units_Z   3
loop_
 _symmetry_equiv_pos_site_id
 _symmetry_equiv_pos_as_xyz
  1  'x, y, z'
loop_
 _atom_site_type_symbol
 _atom_site_label
 _atom_site_symmetry_multiplicity
 _atom_site_fract_x
 _atom_site_fract_y
 _atom_site_fract_z
 _atom_site_occupancy
  Na  Na0  1  0.000000  0.711183  0.500000  1
  Na  Na1  1  0.711183  0.000000  0.500000  1
  Na  Na2  1  0.288817  0.288817  0.500000  1
  Ca  Ca3  1  0.630444  0.630444  0.000000  1
  Ca  Ca4  1  0.000000  0.369556  0.000000  1
  Ca  Ca5  1  0.369556  0.000000  0.000000  1
  Ga  Ga6  1  0.666667  0.333333  0.502526  1
  Ga  Ga7  1  0.333333  0.666667  0.497474  1
  Ga  Ga8  1  0.000000  0.000000  0.000000  1
  F  F9  1  0.780861  0.250967  0.288938  1
  F  F10  1  0.749033  0.529894  0.288938  1
  F  F11  1  0.470106  0.219139  0.288938  1
  F  F12  1  0.529894  0.749033  0.711062  1
  F  F13  1  0.219139  0.470106  0.711062  1
  F  F14  1  0.250967  0.780861  0.711062  1
  F  F15  1  0.414682  0.551851  0.282234  1
  F  F16  1  0.448149  0.862830  0.282234  1
  F  F17  1  0.137170  0.585318  0.282234  1
  F  F18  1  0.913431  0.113988  0.795426  1
  F  F19  1  0.886012  0.799443  0.795426  1
  F  F20  1  0.200557  0.086569  0.795426  1
  F  F21  1  0.799443  0.886012  0.204574  1
  F  F22  1  0.086569  0.200557  0.204574  1
  F  F23  1  0.113988  0.913431  0.204574  1
  F  F24  1  0.551851  0.414682  0.717766  1
  F  F25  1  0.585318  0.137170  0.717766  1
  F  F26  1  0.862830  0.448149  0.717766  1
