# generated using pymatgen
data_La3Sm(SbAu)4
_symmetry_space_group_name_H-M   'P 1'
_cell_length_a   4.68317000
_cell_length_b   4.68317034
_cell_length_c   16.93329500
_cell_angle_alpha   90.00000000
_cell_angle_beta   90.00000000
_cell_angle_gamma   120.00001176
_symmetry_Int_Tables_number   1
_chemical_formula_structural   La3Sm(SbAu)4
_chemical_formula_sum   'La3 Sm1 Sb4 Au4'
_cell_volume   321.62657935
_cell_formula_units_Z   1
loop_
 _symmetry_equiv_pos_site_id
 _symmetry_equiv_pos_as_xyz
  1  'x, y, z'
loop_
 _atom_site_type_symbol
 _atom_site_label
 _atom_site_symmetry_multiplicity
 _atom_site_fract_x
 _atom_site_fract_y
 _atom_site_fract_z
 _atom_site_occupancy
  La  La0  1  0.000000  0.000000  0.498564  1
  La  La1  1  0.000000  0.000000  0.001436  1
  La  La2  1  0.000000  0.000000  0.750000  1
  Sm  Sm3  1  0.000000  0.000000  0.250000  1
  Sb  Sb4  1  0.333333  0.666667  0.387275  1
  Sb  Sb5  1  0.666667  0.333333  0.610860  1
  Sb  Sb6  1  0.666667  0.333333  0.889140  1
  Sb  Sb7  1  0.333333  0.666667  0.112725  1
  Au  Au8  1  0.666667  0.333333  0.336856  1
  Au  Au9  1  0.333333  0.666667  0.658578  1
  Au  Au10  1  0.333333  0.666667  0.841422  1
  Au  Au11  1  0.666667  0.333333  0.163144  1
