# generated using pymatgen
data_LuTh3Pb5
_symmetry_space_group_name_H-M   'P 1'
_cell_length_a   9.70343100
_cell_length_b   9.70343097
_cell_length_c   6.56786000
_cell_angle_alpha   90.00000000
_cell_angle_beta   90.00000000
_cell_angle_gamma   119.99999670
_symmetry_Int_Tables_number   1
_chemical_formula_structural   LuTh3Pb5
_chemical_formula_sum   'Lu2 Th6 Pb10'
_cell_volume   535.55635295
_cell_formula_units_Z   2
loop_
 _symmetry_equiv_pos_site_id
 _symmetry_equiv_pos_as_xyz
  1  'x, y, z'
loop_
 _atom_site_type_symbol
 _atom_site_label
 _atom_site_symmetry_multiplicity
 _atom_site_fract_x
 _atom_site_fract_y
 _atom_site_fract_z
 _atom_site_occupancy
  Lu  Lu0  1  0.000000  0.000000  0.000000  1
  Lu  Lu1  1  0.000000  0.000000  0.500000  1
  Th  Th2  1  0.615115  0.000000  0.250000  1
  Th  Th3  1  0.384885  0.000000  0.750000  1
  Th  Th4  1  0.000000  0.615115  0.250000  1
  Th  Th5  1  0.000000  0.384885  0.750000  1
  Th  Th6  1  0.384885  0.384885  0.250000  1
  Th  Th7  1  0.615115  0.615115  0.750000  1
  Pb  Pb8  1  0.272603  0.000000  0.250000  1
  Pb  Pb9  1  0.727397  0.000000  0.750000  1
  Pb  Pb10  1  0.000000  0.272603  0.250000  1
  Pb  Pb11  1  0.000000  0.727397  0.750000  1
  Pb  Pb12  1  0.727397  0.727397  0.250000  1
  Pb  Pb13  1  0.272603  0.272603  0.750000  1
  Pb  Pb14  1  0.333333  0.666667  0.000000  1
  Pb  Pb15  1  0.666667  0.333333  0.000000  1
  Pb  Pb16  1  0.666667  0.333333  0.500000  1
  Pb  Pb17  1  0.333333  0.666667  0.500000  1
