# generated using pymatgen
data_Cr2Fe5SiW4
_symmetry_space_group_name_H-M   'P 1'
_cell_length_a   4.75321850
_cell_length_b   4.75321736
_cell_length_c   7.64092400
_cell_angle_alpha   90.00000000
_cell_angle_beta   90.00000000
_cell_angle_gamma   119.72649869
_symmetry_Int_Tables_number   1
_chemical_formula_structural   Cr2Fe5SiW4
_chemical_formula_sum   'Cr2 Fe5 Si1 W4'
_cell_volume   149.91403285
_cell_formula_units_Z   1
loop_
 _symmetry_equiv_pos_site_id
 _symmetry_equiv_pos_as_xyz
  1  'x, y, z'
loop_
 _atom_site_type_symbol
 _atom_site_label
 _atom_site_symmetry_multiplicity
 _atom_site_fract_x
 _atom_site_fract_y
 _atom_site_fract_z
 _atom_site_occupancy
  Cr  Cr0  1  0.997042  0.002958  0.989182  1
  Cr  Cr1  1  0.997042  0.002958  0.510818  1
  Fe  Fe2  1  0.348073  0.174041  0.750000  1
  Fe  Fe3  1  0.825959  0.651927  0.750000  1
  Fe  Fe4  1  0.171485  0.333985  0.250000  1
  Fe  Fe5  1  0.666015  0.828515  0.250000  1
  Fe  Fe6  1  0.828515  0.171485  0.750000  1
  Si  Si7  1  0.175388  0.824612  0.250000  1
  W  W8  1  0.330592  0.669408  0.930595  1
  W  W9  1  0.664647  0.335353  0.433468  1
  W  W10  1  0.664647  0.335353  0.066532  1
  W  W11  1  0.330592  0.669408  0.569405  1
