# generated using pymatgen
data_Y6S5
_symmetry_space_group_name_H-M   'P 1'
_cell_length_a   8.68137683
_cell_length_b   6.70332057
_cell_length_c   7.76527500
_cell_angle_alpha   73.15182304
_cell_angle_beta   47.82429522
_cell_angle_gamma   49.88315526
_symmetry_Int_Tables_number   1
_chemical_formula_structural   Y6S5
_chemical_formula_sum   'Y6 S5'
_cell_volume   247.84221038
_cell_formula_units_Z   1
loop_
 _symmetry_equiv_pos_site_id
 _symmetry_equiv_pos_as_xyz
  1  'x, y, z'
loop_
 _atom_site_type_symbol
 _atom_site_label
 _atom_site_symmetry_multiplicity
 _atom_site_fract_x
 _atom_site_fract_y
 _atom_site_fract_z
 _atom_site_occupancy
  Y  Y0  1  0.980877  0.856664  0.451528  1
  Y  Y1  1  0.317853  0.195358  0.115223  1
  Y  Y2  1  0.656914  0.519349  0.280626  1
  Y  Y3  1  0.316651  0.197927  0.615110  1
  Y  Y4  1  0.639643  0.536033  0.786530  1
  Y  Y5  1  0.979539  0.858984  0.951394  1
  S  S6  1  0.480655  0.357620  0.701881  1
  S  S7  1  0.816953  0.696757  0.364762  1
  S  S8  1  0.148175  0.027702  0.033486  1
  S  S9  1  0.813922  0.693301  0.868260  1
  S  S10  1  0.483569  0.360968  0.198303  1
