# generated using pymatgen
data_Te11Ir2I7
_symmetry_space_group_name_H-M   'P 1'
_cell_length_a   9.84531782
_cell_length_b   10.20207688
_cell_length_c   9.92164749
_cell_angle_alpha   109.01259037
_cell_angle_beta   110.09300240
_cell_angle_gamma   107.96777315
_symmetry_Int_Tables_number   1
_chemical_formula_structural   Te11Ir2I7
_chemical_formula_sum   'Te11 Ir2 I7'
_cell_volume   779.37885741
_cell_formula_units_Z   1
loop_
 _symmetry_equiv_pos_site_id
 _symmetry_equiv_pos_as_xyz
  1  'x, y, z'
loop_
 _atom_site_type_symbol
 _atom_site_label
 _atom_site_symmetry_multiplicity
 _atom_site_fract_x
 _atom_site_fract_y
 _atom_site_fract_z
 _atom_site_occupancy
  Te  Te0  1  0.192422  0.952322  0.174009  1
  Te  Te1  1  0.157125  0.171975  0.931108  1
  Te  Te2  1  0.681623  0.646556  0.428290  1
  Te  Te3  1  0.437462  0.680045  0.654462  1
  Te  Te4  1  0.674295  0.449632  0.695631  1
  Te  Te5  1  0.067786  0.836061  0.819444  1
  Te  Te6  1  0.800712  0.035165  0.807093  1
  Te  Te7  1  0.831328  0.793155  0.046285  1
  Te  Te8  1  0.318194  0.343129  0.562485  1
  Te  Te9  1  0.554532  0.317519  0.335802  1
  Te  Te10  1  0.318271  0.549556  0.304319  1
  Ir  Ir11  1  0.247043  0.252076  0.248547  1
  Ir  Ir12  1  0.750504  0.744887  0.742458  1
  I  I13  1  0.012356  0.566531  0.284715  1
  I  I14  1  0.264374  0.016977  0.525908  1
  I  I15  1  0.513605  0.246907  0.989603  1
  I  I16  1  0.732877  0.002073  0.486273  1
  I  I17  1  0.489413  0.725855  0.007639  1
  I  I18  1  0.024300  0.499826  0.767192  1
  I  I19  1  0.931778  0.169755  0.188735  1
