# generated using pymatgen
data_Nd2Y(TmRh6)3
_symmetry_space_group_name_H-M   'P 1'
_cell_length_a   5.29666724
_cell_length_b   5.29827566
_cell_length_c   17.48891300
_cell_angle_alpha   89.99901894
_cell_angle_beta   90.00015211
_cell_angle_gamma   120.12287621
_symmetry_Int_Tables_number   1
_chemical_formula_structural   Nd2Y(TmRh6)3
_chemical_formula_sum   'Nd2 Y1 Tm3 Rh18'
_cell_volume   424.51361170
_cell_formula_units_Z   1
loop_
 _symmetry_equiv_pos_site_id
 _symmetry_equiv_pos_as_xyz
  1  'x, y, z'
loop_
 _atom_site_type_symbol
 _atom_site_label
 _atom_site_symmetry_multiplicity
 _atom_site_fract_x
 _atom_site_fract_y
 _atom_site_fract_z
 _atom_site_occupancy
  Nd  Nd0  1  0.333273  0.666715  0.750469  1
  Nd  Nd1  1  0.666722  0.333286  0.249702  1
  Y  Y2  1  0.333420  0.666622  0.540840  1
  Tm  Tm3  1  0.666573  0.333393  0.041103  1
  Tm  Tm4  1  0.666559  0.333390  0.458092  1
  Tm  Tm5  1  0.333437  0.666609  0.959041  1
  Rh  Rh6  1  0.167549  0.335101  0.124075  1
  Rh  Rh7  1  0.832541  0.665070  0.625021  1
  Rh  Rh8  1  0.664861  0.832423  0.124057  1
  Rh  Rh9  1  0.167519  0.832459  0.124085  1
  Rh  Rh10  1  0.832576  0.167441  0.625055  1
  Rh  Rh11  1  0.334971  0.167498  0.625003  1
  Rh  Rh12  1  0.832536  0.665039  0.875805  1
  Rh  Rh13  1  0.832566  0.167455  0.875770  1
  Rh  Rh14  1  0.335015  0.167509  0.875827  1
  Rh  Rh15  1  0.665110  0.832548  0.375429  1
  Rh  Rh16  1  0.167373  0.832595  0.375373  1
  Rh  Rh17  1  0.167415  0.334842  0.375410  1
  Rh  Rh18  1  0.999865  0.000007  0.249617  1
  Rh  Rh19  1  0.000183  0.999955  0.750313  1
  Rh  Rh20  1  0.333286  0.666739  0.249885  1
  Rh  Rh21  1  0.666651  0.333304  0.750206  1
  Rh  Rh22  1  0.999994  0.000000  0.999898  1
  Rh  Rh23  1  0.000007  0.000002  0.499922  1
