# generated using pymatgen
data_Ce2Dy7Ho7(CdIr)4
_symmetry_space_group_name_H-M   'P 1'
_cell_length_a   9.64752656
_cell_length_b   9.64752708
_cell_length_c   9.67971400
_cell_angle_alpha   59.88957499
_cell_angle_beta   59.88957323
_cell_angle_gamma   59.82098149
_symmetry_Int_Tables_number   1
_chemical_formula_structural   Ce2Dy7Ho7(CdIr)4
_chemical_formula_sum   'Ce2 Dy7 Ho7 Cd4 Ir4'
_cell_volume   635.13137539
_cell_formula_units_Z   1
loop_
 _symmetry_equiv_pos_site_id
 _symmetry_equiv_pos_as_xyz
  1  'x, y, z'
loop_
 _atom_site_type_symbol
 _atom_site_label
 _atom_site_symmetry_multiplicity
 _atom_site_fract_x
 _atom_site_fract_y
 _atom_site_fract_z
 _atom_site_occupancy
  Ce  Ce0  1  0.596140  0.596140  0.598858  1
  Ce  Ce1  1  0.596140  0.596140  0.208861  1
  Dy  Dy2  1  0.061917  0.061917  0.438083  1
  Dy  Dy3  1  0.189309  0.812215  0.812823  1
  Dy  Dy4  1  0.812215  0.189309  0.185653  1
  Dy  Dy5  1  0.812215  0.189309  0.812823  1
  Dy  Dy6  1  0.189309  0.812215  0.185653  1
  Dy  Dy7  1  0.812726  0.812726  0.187274  1
  Dy  Dy8  1  0.189447  0.189447  0.810553  1
  Ho  Ho9  1  0.600991  0.199058  0.599976  1
  Ho  Ho10  1  0.199058  0.600991  0.599976  1
  Ho  Ho11  1  0.062025  0.438565  0.439181  1
  Ho  Ho12  1  0.438565  0.062025  0.060228  1
  Ho  Ho13  1  0.438565  0.062025  0.439181  1
  Ho  Ho14  1  0.062025  0.438565  0.060228  1
  Ho  Ho15  1  0.437535  0.437535  0.062465  1
  Cd  Cd16  1  0.830316  0.830316  0.831309  1
  Cd  Cd17  1  0.830316  0.830316  0.508060  1
  Cd  Cd18  1  0.830099  0.505542  0.832180  1
  Cd  Cd19  1  0.505542  0.830099  0.832180  1
  Ir  Ir20  1  0.393268  0.393268  0.390722  1
  Ir  Ir21  1  0.393268  0.393268  0.822743  1
  Ir  Ir22  1  0.396389  0.822619  0.390496  1
  Ir  Ir23  1  0.822619  0.396389  0.390496  1
