# generated using pymatgen
data_V4AsP2
_symmetry_space_group_name_H-M   'P 1'
_cell_length_a   6.93321007
_cell_length_b   6.93320929
_cell_length_c   17.28962100
_cell_angle_alpha   90.00000000
_cell_angle_beta   90.00000000
_cell_angle_gamma   152.47751815
_symmetry_Int_Tables_number   1
_chemical_formula_structural   V4AsP2
_chemical_formula_sum   'V16 As4 P8'
_cell_volume   384.04926564
_cell_formula_units_Z   4
loop_
 _symmetry_equiv_pos_site_id
 _symmetry_equiv_pos_as_xyz
  1  'x, y, z'
loop_
 _atom_site_type_symbol
 _atom_site_label
 _atom_site_symmetry_multiplicity
 _atom_site_fract_x
 _atom_site_fract_y
 _atom_site_fract_z
 _atom_site_occupancy
  V  V0  1  0.737235  0.262765  0.650480  1
  V  V1  1  0.262765  0.737235  0.349520  1
  V  V2  1  0.737235  0.262765  0.849520  1
  V  V3  1  0.262765  0.737235  0.150480  1
  V  V4  1  0.532355  0.467645  0.615189  1
  V  V5  1  0.467645  0.532355  0.384811  1
  V  V6  1  0.532355  0.467645  0.884811  1
  V  V7  1  0.467645  0.532355  0.115189  1
  V  V8  1  0.669276  0.330724  0.473653  1
  V  V9  1  0.330724  0.669276  0.526347  1
  V  V10  1  0.669276  0.330724  0.026347  1
  V  V11  1  0.330724  0.669276  0.973653  1
  V  V12  1  0.000000  0.000000  0.500000  1
  V  V13  1  0.000000  0.000000  0.000000  1
  V  V14  1  0.058353  0.941647  0.250000  1
  V  V15  1  0.941647  0.058353  0.750000  1
  As  As16  1  0.699500  0.300500  0.250000  1
  As  As17  1  0.300500  0.699500  0.750000  1
  As  As18  1  0.414039  0.585961  0.250000  1
  As  As19  1  0.585961  0.414039  0.750000  1
  P  P20  1  0.903505  0.096495  0.615778  1
  P  P21  1  0.096495  0.903505  0.384222  1
  P  P22  1  0.903505  0.096495  0.884222  1
  P  P23  1  0.096495  0.903505  0.115778  1
  P  P24  1  0.843959  0.156041  0.425158  1
  P  P25  1  0.156041  0.843959  0.574842  1
  P  P26  1  0.843959  0.156041  0.074842  1
  P  P27  1  0.156041  0.843959  0.925158  1
