# generated using pymatgen
data_Nd8Co(Si4Pt)3
_symmetry_space_group_name_H-M   'P 1'
_cell_length_a   8.19670300
_cell_length_b   8.19670359
_cell_length_c   8.53461900
_cell_angle_alpha   90.00000000
_cell_angle_beta   90.00000000
_cell_angle_gamma   119.99999357
_symmetry_Int_Tables_number   1
_chemical_formula_structural   Nd8Co(Si4Pt)3
_chemical_formula_sum   'Nd8 Co1 Si12 Pt3'
_cell_volume   496.58457785
_cell_formula_units_Z   1
loop_
 _symmetry_equiv_pos_site_id
 _symmetry_equiv_pos_as_xyz
  1  'x, y, z'
loop_
 _atom_site_type_symbol
 _atom_site_label
 _atom_site_symmetry_multiplicity
 _atom_site_fract_x
 _atom_site_fract_y
 _atom_site_fract_z
 _atom_site_occupancy
  Nd  Nd0  1  0.501387  0.498613  0.753401  1
  Nd  Nd1  1  0.502178  0.497822  0.246754  1
  Nd  Nd2  1  0.997226  0.498613  0.753401  1
  Nd  Nd3  1  0.995644  0.497822  0.246754  1
  Nd  Nd4  1  0.501387  0.002774  0.753401  1
  Nd  Nd5  1  0.502178  0.004356  0.246754  1
  Nd  Nd6  1  0.000000  0.000000  0.751043  1
  Nd  Nd7  1  0.000000  0.000000  0.248944  1
  Co  Co8  1  0.666667  0.333333  0.997086  1
  Si  Si9  1  0.826900  0.173100  0.999898  1
  Si  Si10  1  0.164516  0.835484  0.000105  1
  Si  Si11  1  0.346200  0.173100  0.999898  1
  Si  Si12  1  0.166030  0.833970  0.500045  1
  Si  Si13  1  0.670969  0.835484  0.000105  1
  Si  Si14  1  0.834669  0.165331  0.499977  1
  Si  Si15  1  0.826900  0.653800  0.999898  1
  Si  Si16  1  0.667939  0.833970  0.500045  1
  Si  Si17  1  0.164516  0.329031  0.000105  1
  Si  Si18  1  0.330661  0.165331  0.499977  1
  Si  Si19  1  0.166030  0.332061  0.500045  1
  Si  Si20  1  0.834669  0.669339  0.499977  1
  Pt  Pt21  1  0.333333  0.666667  0.002126  1
  Pt  Pt22  1  0.333333  0.666667  0.498989  1
  Pt  Pt23  1  0.666667  0.333333  0.501273  1
