# generated using pymatgen
data_DyCo3Ni2As3
_symmetry_space_group_name_H-M   'P 1'
_cell_length_a   3.80803200
_cell_length_b   10.65507500
_cell_length_c   12.23358600
_cell_angle_alpha   90.00000000
_cell_angle_beta   90.00000000
_cell_angle_gamma   90.00000000
_symmetry_Int_Tables_number   1
_chemical_formula_structural   DyCo3Ni2As3
_chemical_formula_sum   'Dy4 Co12 Ni8 As12'
_cell_volume   496.37611953
_cell_formula_units_Z   4
loop_
 _symmetry_equiv_pos_site_id
 _symmetry_equiv_pos_as_xyz
  1  'x, y, z'
loop_
 _atom_site_type_symbol
 _atom_site_label
 _atom_site_symmetry_multiplicity
 _atom_site_fract_x
 _atom_site_fract_y
 _atom_site_fract_z
 _atom_site_occupancy
  Dy  Dy0  1  0.250000  0.580146  0.702735  1
  Dy  Dy1  1  0.250000  0.919854  0.202735  1
  Dy  Dy2  1  0.750000  0.419854  0.297265  1
  Dy  Dy3  1  0.750000  0.080146  0.797265  1
  Co  Co4  1  0.250000  0.216795  0.177374  1
  Co  Co5  1  0.250000  0.283205  0.677374  1
  Co  Co6  1  0.750000  0.783205  0.822626  1
  Co  Co7  1  0.750000  0.716795  0.322626  1
  Co  Co8  1  0.250000  0.881645  0.696605  1
  Co  Co9  1  0.250000  0.618355  0.196605  1
  Co  Co10  1  0.750000  0.118355  0.303395  1
  Co  Co11  1  0.750000  0.381645  0.803395  1
  Co  Co12  1  0.250000  0.468780  0.932169  1
  Co  Co13  1  0.250000  0.031220  0.432169  1
  Co  Co14  1  0.750000  0.531220  0.067831  1
  Co  Co15  1  0.750000  0.968780  0.567831  1
  Ni  Ni16  1  0.250000  0.708900  0.990979  1
  Ni  Ni17  1  0.250000  0.791100  0.490979  1
  Ni  Ni18  1  0.750000  0.291100  0.009021  1
  Ni  Ni19  1  0.750000  0.208900  0.509021  1
  Ni  Ni20  1  0.250000  0.409487  0.485578  1
  Ni  Ni21  1  0.250000  0.090513  0.985578  1
  Ni  Ni22  1  0.750000  0.590513  0.514422  1
  Ni  Ni23  1  0.750000  0.909487  0.014422  1
  As  As24  1  0.250000  0.416772  0.114117  1
  As  As25  1  0.250000  0.083228  0.614117  1
  As  As26  1  0.750000  0.583228  0.885883  1
  As  As27  1  0.750000  0.916772  0.385883  1
  As  As28  1  0.250000  0.269638  0.867662  1
  As  As29  1  0.250000  0.230362  0.367662  1
  As  As30  1  0.750000  0.730362  0.132338  1
  As  As31  1  0.750000  0.769638  0.632338  1
  As  As32  1  0.250000  0.604862  0.388166  1
  As  As33  1  0.250000  0.895138  0.888166  1
  As  As34  1  0.750000  0.395138  0.611834  1
  As  As35  1  0.750000  0.104862  0.111834  1
