# generated using pymatgen
data_Nd2ErLu3ReBi2
_symmetry_space_group_name_H-M   'P 1'
_cell_length_a   8.24763603
_cell_length_b   8.24763694
_cell_length_c   4.36670100
_cell_angle_alpha   90.00000000
_cell_angle_beta   90.00000000
_cell_angle_gamma   119.69132591
_symmetry_Int_Tables_number   1
_chemical_formula_structural   Nd2ErLu3ReBi2
_chemical_formula_sum   'Nd2 Er1 Lu3 Re1 Bi2'
_cell_volume   258.03912211
_cell_formula_units_Z   1
loop_
 _symmetry_equiv_pos_site_id
 _symmetry_equiv_pos_as_xyz
  1  'x, y, z'
loop_
 _atom_site_type_symbol
 _atom_site_label
 _atom_site_symmetry_multiplicity
 _atom_site_fract_x
 _atom_site_fract_y
 _atom_site_fract_z
 _atom_site_occupancy
  Nd  Nd0  1  0.605880  0.997969  0.000000  1
  Nd  Nd1  1  0.997969  0.605880  0.000000  1
  Er  Er2  1  0.382799  0.382799  0.000000  1
  Lu  Lu3  1  0.229446  0.000806  0.500000  1
  Lu  Lu4  1  0.000806  0.229446  0.500000  1
  Lu  Lu5  1  0.777956  0.777956  0.500000  1
  Re  Re6  1  0.009260  0.009260  0.000000  1
  Bi  Bi7  1  0.335721  0.660161  0.500000  1
  Bi  Bi8  1  0.660161  0.335721  0.500000  1
