# generated using pymatgen
data_Ho4Co5Si10Os
_symmetry_space_group_name_H-M   'P 1'
_cell_length_a   7.92541546
_cell_length_b   7.92541593
_cell_length_c   7.92541579
_cell_angle_alpha   138.93103270
_cell_angle_beta   106.12833850
_cell_angle_gamma   88.18289031
_symmetry_Int_Tables_number   1
_chemical_formula_structural   Ho4Co5Si10Os
_chemical_formula_sum   'Ho4 Co5 Si10 Os1'
_cell_volume   301.46046487
_cell_formula_units_Z   1
loop_
 _symmetry_equiv_pos_site_id
 _symmetry_equiv_pos_as_xyz
  1  'x, y, z'
loop_
 _atom_site_type_symbol
 _atom_site_label
 _atom_site_symmetry_multiplicity
 _atom_site_fract_x
 _atom_site_fract_y
 _atom_site_fract_z
 _atom_site_occupancy
  Ho  Ho0  1  0.599099  0.872592  0.740433  1
  Ho  Ho1  1  0.132161  0.358666  0.759567  1
  Ho  Ho2  1  0.867839  0.627408  0.226507  1
  Ho  Ho3  1  0.400901  0.141334  0.273493  1
  Co  Co4  1  0.000000  0.750000  0.750000  1
  Co  Co5  1  0.255410  0.855965  0.388030  1
  Co  Co6  1  0.532065  0.644035  0.899446  1
  Co  Co7  1  0.467935  0.367381  0.111970  1
  Co  Co8  1  0.744590  0.132619  0.600554  1
  Si  Si9  1  0.773907  0.023907  0.250000  1
  Si  Si10  1  0.228337  0.978337  0.750000  1
  Si  Si11  1  0.771663  0.521663  0.750000  1
  Si  Si12  1  0.939374  0.090600  0.825479  1
  Si  Si13  1  0.060626  0.886105  0.151226  1
  Si  Si14  1  0.500000  0.250000  0.750000  1
  Si  Si15  1  0.500000  0.750000  0.250000  1
  Si  Si16  1  0.734879  0.409400  0.348774  1
  Si  Si17  1  0.265121  0.613895  0.674521  1
  Si  Si18  1  0.226093  0.476093  0.250000  1
  Os  Os19  1  0.000000  0.250000  0.250000  1
