# generated using pymatgen
data_Dy2Y4Ir11Rh7
_symmetry_space_group_name_H-M   'P 1'
_cell_length_a   5.30185638
_cell_length_b   5.29873285
_cell_length_c   17.49188936
_cell_angle_alpha   89.99997585
_cell_angle_beta   90.02009705
_cell_angle_gamma   119.98083403
_symmetry_Int_Tables_number   1
_chemical_formula_structural   Dy2Y4Ir11Rh7
_chemical_formula_sum   'Dy2 Y4 Ir11 Rh7'
_cell_volume   425.64853584
_cell_formula_units_Z   1
loop_
 _symmetry_equiv_pos_site_id
 _symmetry_equiv_pos_as_xyz
  1  'x, y, z'
loop_
 _atom_site_type_symbol
 _atom_site_label
 _atom_site_symmetry_multiplicity
 _atom_site_fract_x
 _atom_site_fract_y
 _atom_site_fract_z
 _atom_site_occupancy
  Dy  Dy0  1  0.333571  0.666785  0.958534  1
  Dy  Dy1  1  0.667482  0.333739  0.041513  1
  Y  Y2  1  0.666526  0.333262  0.458561  1
  Y  Y3  1  0.333287  0.666642  0.541416  1
  Y  Y4  1  0.333002  0.666500  0.750063  1
  Y  Y5  1  0.666975  0.333489  0.250562  1
  Ir  Ir6  1  0.167467  0.832272  0.373703  1
  Ir  Ir7  1  0.167462  0.335192  0.373702  1
  Ir  Ir8  1  0.665737  0.832870  0.373326  1
  Ir  Ir9  1  0.833049  0.167979  0.626452  1
  Ir  Ir10  1  0.833048  0.665070  0.626450  1
  Ir  Ir11  1  0.335193  0.167592  0.625904  1
  Ir  Ir12  1  0.832078  0.167351  0.874226  1
  Ir  Ir13  1  0.832080  0.664727  0.874228  1
  Ir  Ir14  1  0.335148  0.167572  0.874841  1
  Ir  Ir15  1  0.164961  0.830717  0.125815  1
  Ir  Ir16  1  0.164957  0.334247  0.125816  1
  Rh  Rh17  1  0.663156  0.831575  0.124927  1
  Rh  Rh18  1  0.333968  0.666987  0.249625  1
  Rh  Rh19  1  0.664754  0.332384  0.750257  1
  Rh  Rh20  1  0.001380  0.000681  0.249661  1
  Rh  Rh21  1  0.001740  0.000870  0.750267  1
  Rh  Rh22  1  0.998531  0.999270  0.500035  1
  Rh  Rh23  1  0.004452  0.002226  0.000117  1
