# generated using pymatgen
data_LuZr11(TcIr)6
_symmetry_space_group_name_H-M   'P 1'
_cell_length_a   4.66276200
_cell_length_b   6.57810400
_cell_length_c   14.02903300
_cell_angle_alpha   90.00000000
_cell_angle_beta   89.99997546
_cell_angle_gamma   90.00000000
_symmetry_Int_Tables_number   1
_chemical_formula_structural   LuZr11(TcIr)6
_chemical_formula_sum   'Lu1 Zr11 Tc6 Ir6'
_cell_volume   430.30037113
_cell_formula_units_Z   1
loop_
 _symmetry_equiv_pos_site_id
 _symmetry_equiv_pos_as_xyz
  1  'x, y, z'
loop_
 _atom_site_type_symbol
 _atom_site_label
 _atom_site_symmetry_multiplicity
 _atom_site_fract_x
 _atom_site_fract_y
 _atom_site_fract_z
 _atom_site_occupancy
  Lu  Lu0  1  0.500000  0.249545  0.000000  1
  Zr  Zr1  1  0.500000  0.749524  0.000000  1
  Zr  Zr2  1  0.000007  0.249854  0.165955  1
  Zr  Zr3  1  0.999993  0.750185  0.165875  1
  Zr  Zr4  1  0.500002  0.250608  0.332978  1
  Zr  Zr5  1  0.499998  0.749925  0.332811  1
  Zr  Zr6  1  0.000000  0.249483  0.500000  1
  Zr  Zr7  1  0.000000  0.750407  0.500000  1
  Zr  Zr8  1  0.499998  0.250608  0.667021  1
  Zr  Zr9  1  0.500002  0.749925  0.667188  1
  Zr  Zr10  1  0.999993  0.249854  0.834045  1
  Zr  Zr11  1  0.000007  0.750185  0.834125  1
  Tc  Tc12  1  0.000000  0.993982  0.000000  1
  Tc  Tc13  1  0.499974  0.502879  0.168669  1
  Tc  Tc14  1  0.999976  0.000076  0.333379  1
  Tc  Tc15  1  0.500000  0.499801  0.500000  1
  Tc  Tc16  1  0.000024  0.000076  0.666621  1
  Tc  Tc17  1  0.500026  0.502879  0.831331  1
  Ir  Ir18  1  0.000000  0.502418  0.000000  1
  Ir  Ir19  1  0.499986  0.998902  0.168085  1
  Ir  Ir20  1  0.999990  0.499750  0.333416  1
  Ir  Ir21  1  0.500000  0.000484  0.500000  1
  Ir  Ir22  1  0.000010  0.499750  0.666584  1
  Ir  Ir23  1  0.500014  0.998902  0.831915  1
