# generated using pymatgen
data_Ce2Sm2Zn7CuRu2
_symmetry_space_group_name_H-M   'P 1'
_cell_length_a   7.17095293
_cell_length_b   7.17095293
_cell_length_c   5.14385233
_cell_angle_alpha   90.15321173
_cell_angle_beta   90.15321173
_cell_angle_gamma   90.39004951
_symmetry_Int_Tables_number   1
_chemical_formula_structural   Ce2Sm2Zn7CuRu2
_chemical_formula_sum   'Ce2 Sm2 Zn7 Cu1 Ru2'
_cell_volume   264.50205152
_cell_formula_units_Z   1
loop_
 _symmetry_equiv_pos_site_id
 _symmetry_equiv_pos_as_xyz
  1  'x, y, z'
loop_
 _atom_site_type_symbol
 _atom_site_label
 _atom_site_symmetry_multiplicity
 _atom_site_fract_x
 _atom_site_fract_y
 _atom_site_fract_z
 _atom_site_occupancy
  Ce  Ce0  1  0.003137  0.997192  0.004444  1
  Ce  Ce1  1  0.497192  0.503137  0.004444  1
  Sm  Sm2  1  0.004638  0.504638  0.768908  1
  Sm  Sm3  1  0.496147  0.996147  0.228006  1
  Zn  Zn4  1  0.819906  0.685084  0.291154  1
  Zn  Zn5  1  0.813519  0.313519  0.287882  1
  Zn  Zn6  1  0.314332  0.185050  0.710049  1
  Zn  Zn7  1  0.185084  0.319906  0.291154  1
  Zn  Zn8  1  0.686238  0.186238  0.713937  1
  Zn  Zn9  1  0.685050  0.814332  0.710049  1
  Zn  Zn10  1  0.310556  0.810556  0.703053  1
  Cu  Cu11  1  0.182763  0.682763  0.283782  1
  Ru  Ru12  1  0.503271  0.498167  0.501569  1
  Ru  Ru13  1  0.998167  0.003271  0.501569  1
