# generated using pymatgen
data_Tb6UO11F
_symmetry_space_group_name_H-M   'P 1'
_cell_length_a   6.62746665
_cell_length_b   6.61345638
_cell_length_c   6.64237928
_cell_angle_alpha   99.33152122
_cell_angle_beta   99.31547843
_cell_angle_gamma   99.15140347
_symmetry_Int_Tables_number   1
_chemical_formula_structural   Tb6UO11F
_chemical_formula_sum   'Tb6 U1 O11 F1'
_cell_volume   278.31729012
_cell_formula_units_Z   1
loop_
 _symmetry_equiv_pos_site_id
 _symmetry_equiv_pos_as_xyz
  1  'x, y, z'
loop_
 _atom_site_type_symbol
 _atom_site_label
 _atom_site_symmetry_multiplicity
 _atom_site_fract_x
 _atom_site_fract_y
 _atom_site_fract_z
 _atom_site_occupancy
  Tb  Tb0  1  0.314681  0.609204  0.147399  1
  Tb  Tb1  1  0.618811  0.137329  0.292407  1
  Tb  Tb2  1  0.390340  0.841685  0.690124  1
  Tb  Tb3  1  0.698171  0.400480  0.869575  1
  Tb  Tb4  1  0.855880  0.688137  0.393078  1
  Tb  Tb5  1  0.126431  0.316219  0.610317  1
  U  U6  1  0.003135  0.000998  0.997409  1
  O  O7  1  0.925206  0.688342  0.054816  1
  O  O8  1  0.174852  0.582542  0.432621  1
  O  O9  1  0.814101  0.408170  0.568591  1
  O  O10  1  0.568601  0.830748  0.420536  1
  O  O11  1  0.587125  0.434432  0.180669  1
  O  O12  1  0.413197  0.559370  0.818972  1
  O  O13  1  0.951945  0.076628  0.310862  1
  O  O14  1  0.060774  0.930219  0.685955  1
  O  O15  1  0.684687  0.058374  0.927542  1
  O  O16  1  0.070784  0.315766  0.947321  1
  O  O17  1  0.315320  0.944212  0.073284  1
  F  F18  1  0.425956  0.177144  0.578523  1
