# generated using pymatgen
data_NdTh(AlIr)2
_symmetry_space_group_name_H-M   'P 1'
_cell_length_a   4.36240100
_cell_length_b   7.00033302
_cell_length_c   8.12444514
_cell_angle_alpha   90.20388662
_cell_angle_beta   90.00000000
_cell_angle_gamma   90.00000000
_symmetry_Int_Tables_number   1
_chemical_formula_structural   NdTh(AlIr)2
_chemical_formula_sum   'Nd2 Th2 Al4 Ir4'
_cell_volume   248.10484512
_cell_formula_units_Z   2
loop_
 _symmetry_equiv_pos_site_id
 _symmetry_equiv_pos_as_xyz
  1  'x, y, z'
loop_
 _atom_site_type_symbol
 _atom_site_label
 _atom_site_symmetry_multiplicity
 _atom_site_fract_x
 _atom_site_fract_y
 _atom_site_fract_z
 _atom_site_occupancy
  Nd  Nd0  1  0.750000  0.962267  0.679650  1
  Nd  Nd1  1  0.250000  0.037733  0.320350  1
  Th  Th2  1  0.250000  0.537533  0.182774  1
  Th  Th3  1  0.750000  0.462467  0.817226  1
  Al  Al4  1  0.250000  0.637072  0.560486  1
  Al  Al5  1  0.750000  0.362928  0.439514  1
  Al  Al6  1  0.750000  0.870883  0.060783  1
  Al  Al7  1  0.250000  0.129117  0.939217  1
  Ir  Ir8  1  0.250000  0.756935  0.884733  1
  Ir  Ir9  1  0.750000  0.243065  0.115267  1
  Ir  Ir10  1  0.750000  0.726785  0.375164  1
  Ir  Ir11  1  0.250000  0.273215  0.624836  1
