# generated using pymatgen
data_La5Pr3(CdRu)2
_symmetry_space_group_name_H-M   'P 1'
_cell_length_a   10.04726908
_cell_length_b   10.04727032
_cell_length_c   10.04727000
_cell_angle_alpha   60.00000105
_cell_angle_beta   59.99999698
_cell_angle_gamma   60.00000015
_symmetry_Int_Tables_number   1
_chemical_formula_structural   La5Pr3(CdRu)2
_chemical_formula_sum   'La10 Pr6 Cd4 Ru4'
_cell_volume   717.18168452
_cell_formula_units_Z   2
loop_
 _symmetry_equiv_pos_site_id
 _symmetry_equiv_pos_as_xyz
  1  'x, y, z'
loop_
 _atom_site_type_symbol
 _atom_site_label
 _atom_site_symmetry_multiplicity
 _atom_site_fract_x
 _atom_site_fract_y
 _atom_site_fract_z
 _atom_site_occupancy
  La  La0  1  0.345662  0.345662  0.345662  1
  La  La1  1  0.345662  0.345662  0.963014  1
  La  La2  1  0.345662  0.963014  0.345662  1
  La  La3  1  0.963014  0.345662  0.345662  1
  La  La4  1  0.811027  0.188973  0.188973  1
  La  La5  1  0.188973  0.811027  0.811027  1
  La  La6  1  0.188973  0.811027  0.188973  1
  La  La7  1  0.811027  0.188973  0.811027  1
  La  La8  1  0.188973  0.188973  0.811027  1
  La  La9  1  0.811027  0.811027  0.188973  1
  Pr  Pr10  1  0.936799  0.563201  0.563201  1
  Pr  Pr11  1  0.563201  0.936799  0.936799  1
  Pr  Pr12  1  0.563201  0.936799  0.563201  1
  Pr  Pr13  1  0.936799  0.563201  0.936799  1
  Pr  Pr14  1  0.563201  0.563201  0.936799  1
  Pr  Pr15  1  0.936799  0.936799  0.563201  1
  Cd  Cd16  1  0.579586  0.579586  0.579586  1
  Cd  Cd17  1  0.579586  0.579586  0.261241  1
  Cd  Cd18  1  0.579586  0.261241  0.579586  1
  Cd  Cd19  1  0.261241  0.579586  0.579586  1
  Ru  Ru20  1  0.136604  0.136604  0.136604  1
  Ru  Ru21  1  0.136604  0.136604  0.590190  1
  Ru  Ru22  1  0.136604  0.590190  0.136604  1
  Ru  Ru23  1  0.590190  0.136604  0.136604  1
