# generated using pymatgen
data_SmHoPa2(Al3Rh)6
_symmetry_space_group_name_H-M   'P 1'
_cell_length_a   7.60275082
_cell_length_b   7.60368294
_cell_length_c   9.39793300
_cell_angle_alpha   90.00000000
_cell_angle_beta   90.00000000
_cell_angle_gamma   119.58223570
_symmetry_Int_Tables_number   1
_chemical_formula_structural   SmHoPa2(Al3Rh)6
_chemical_formula_sum   'Sm1 Ho1 Pa2 Al18 Rh6'
_cell_volume   472.46606332
_cell_formula_units_Z   1
loop_
 _symmetry_equiv_pos_site_id
 _symmetry_equiv_pos_as_xyz
  1  'x, y, z'
loop_
 _atom_site_type_symbol
 _atom_site_label
 _atom_site_symmetry_multiplicity
 _atom_site_fract_x
 _atom_site_fract_y
 _atom_site_fract_z
 _atom_site_occupancy
  Sm  Sm0  1  0.329909  0.006388  0.750000  1
  Ho  Ho1  1  0.670942  0.993646  0.250000  1
  Pa  Pa2  1  0.997496  0.671674  0.250000  1
  Pa  Pa3  1  0.002556  0.328509  0.750000  1
  Al  Al4  1  0.129567  0.126746  0.250000  1
  Al  Al5  1  0.868542  0.872915  0.750000  1
  Al  Al6  1  0.999744  0.331936  0.077794  1
  Al  Al7  1  0.998622  0.666655  0.923925  1
  Al  Al8  1  0.998622  0.666655  0.576075  1
  Al  Al9  1  0.338778  0.003023  0.423131  1
  Al  Al10  1  0.999744  0.331936  0.422206  1
  Al  Al11  1  0.663006  0.997171  0.573516  1
  Al  Al12  1  0.663006  0.997171  0.926484  1
  Al  Al13  1  0.338778  0.003023  0.076869  1
  Al  Al14  1  0.334535  0.333908  0.550358  1
  Al  Al15  1  0.665351  0.667173  0.447107  1
  Al  Al16  1  0.665351  0.667173  0.052893  1
  Al  Al17  1  0.334535  0.333908  0.949642  1
  Al  Al18  1  0.340493  0.549606  0.250000  1
  Al  Al19  1  0.660997  0.452292  0.750000  1
  Al  Al20  1  0.550982  0.342866  0.250000  1
  Al  Al21  1  0.449789  0.656559  0.750000  1
  Rh  Rh22  1  0.675427  0.329337  0.000421  1
  Rh  Rh23  1  0.325143  0.670810  0.001292  1
  Rh  Rh24  1  0.325143  0.670810  0.498708  1
  Rh  Rh25  1  0.675427  0.329337  0.499579  1
  Rh  Rh26  1  0.998757  0.999387  0.001199  1
  Rh  Rh27  1  0.998757  0.999387  0.498801  1
