# generated using pymatgen
data_Er3Lu2ThGa4
_symmetry_space_group_name_H-M   'P 1'
_cell_length_a   7.57564481
_cell_length_b   7.57564481
_cell_length_c   4.32984900
_cell_angle_alpha   90.00000000
_cell_angle_beta   90.00000000
_cell_angle_gamma   89.25103051
_symmetry_Int_Tables_number   1
_chemical_formula_structural   Er3Lu2ThGa4
_chemical_formula_sum   'Er3 Lu2 Th1 Ga4'
_cell_volume   248.47051102
_cell_formula_units_Z   1
loop_
 _symmetry_equiv_pos_site_id
 _symmetry_equiv_pos_as_xyz
  1  'x, y, z'
loop_
 _atom_site_type_symbol
 _atom_site_label
 _atom_site_symmetry_multiplicity
 _atom_site_fract_x
 _atom_site_fract_y
 _atom_site_fract_z
 _atom_site_occupancy
  Er  Er0  1  0.676859  0.176859  0.500000  1
  Er  Er1  1  0.174802  0.325464  0.500000  1
  Er  Er2  1  0.825464  0.674802  0.500000  1
  Lu  Lu3  1  0.997100  0.002896  0.000000  1
  Lu  Lu4  1  0.502896  0.497100  0.000000  1
  Th  Th5  1  0.325407  0.825407  0.500000  1
  Ga  Ga6  1  0.876725  0.376725  0.000000  1
  Ga  Ga7  1  0.379028  0.124761  0.000000  1
  Ga  Ga8  1  0.624761  0.879028  0.000000  1
  Ga  Ga9  1  0.116957  0.616957  0.000000  1
