# generated using pymatgen
data_Dy4Tc5Ir2Ru
_symmetry_space_group_name_H-M   'P 1'
_cell_length_a   5.25009037
_cell_length_b   5.17601240
_cell_length_c   9.25086600
_cell_angle_alpha   90.00000000
_cell_angle_beta   90.00000000
_cell_angle_gamma   119.03498307
_symmetry_Int_Tables_number   1
_chemical_formula_structural   Dy4Tc5Ir2Ru
_chemical_formula_sum   'Dy4 Tc5 Ir2 Ru1'
_cell_volume   219.79441143
_cell_formula_units_Z   1
loop_
 _symmetry_equiv_pos_site_id
 _symmetry_equiv_pos_as_xyz
  1  'x, y, z'
loop_
 _atom_site_type_symbol
 _atom_site_label
 _atom_site_symmetry_multiplicity
 _atom_site_fract_x
 _atom_site_fract_y
 _atom_site_fract_z
 _atom_site_occupancy
  Dy  Dy0  1  0.667243  0.333207  0.564708  1
  Dy  Dy1  1  0.329883  0.665005  0.433792  1
  Dy  Dy2  1  0.329883  0.665005  0.066208  1
  Dy  Dy3  1  0.667243  0.333207  0.935292  1
  Tc  Tc4  1  0.170777  0.340823  0.750000  1
  Tc  Tc5  1  0.171260  0.829612  0.750000  1
  Tc  Tc6  1  0.663048  0.832400  0.750000  1
  Tc  Tc7  1  0.835516  0.664623  0.250000  1
  Tc  Tc8  1  0.834646  0.171700  0.250000  1
  Ir  Ir9  1  0.991161  0.995174  0.498542  1
  Ir  Ir10  1  0.991161  0.995174  0.001458  1
  Ru  Ru11  1  0.348181  0.174071  0.250000  1
