# generated using pymatgen
data_Ba6Er4IrWO18
_symmetry_space_group_name_H-M   'P 1'
_cell_length_a   6.05490932
_cell_length_b   8.57566131
_cell_length_c   10.48652373
_cell_angle_alpha   65.86490066
_cell_angle_beta   73.21987119
_cell_angle_gamma   89.99999610
_symmetry_Int_Tables_number   1
_chemical_formula_structural   Ba6Er4IrWO18
_chemical_formula_sum   'Ba6 Er4 Ir1 W1 O18'
_cell_volume   471.39128546
_cell_formula_units_Z   1
loop_
 _symmetry_equiv_pos_site_id
 _symmetry_equiv_pos_as_xyz
  1  'x, y, z'
loop_
 _atom_site_type_symbol
 _atom_site_label
 _atom_site_symmetry_multiplicity
 _atom_site_fract_x
 _atom_site_fract_y
 _atom_site_fract_z
 _atom_site_occupancy
  Ba  Ba0  1  0.498851  0.262624  0.002299  1
  Ba  Ba1  1  0.839268  0.582598  0.321462  1
  Ba  Ba2  1  0.161912  0.901427  0.676176  1
  Ba  Ba3  1  0.498851  0.735077  0.002299  1
  Ba  Ba4  1  0.839268  0.095938  0.321462  1
  Ba  Ba5  1  0.161912  0.422397  0.676176  1
  Er  Er6  1  0.000432  0.000432  0.999135  1
  Er  Er7  1  0.329298  0.329298  0.341405  1
  Er  Er8  1  0.670805  0.670805  0.658390  1
  Er  Er9  1  0.000159  0.500159  0.999682  1
  Ir  Ir10  1  0.334253  0.834253  0.331493  1
  W  W11  1  0.665655  0.165655  0.668690  1
  O  O12  1  0.999634  0.246331  0.000732  1
  O  O13  1  0.330944  0.599926  0.338111  1
  O  O14  1  0.669165  0.939025  0.661671  1
  O  O15  1  0.162546  0.411315  0.177370  1
  O  O16  1  0.490471  0.759036  0.481928  1
  O  O17  1  0.818365  0.088806  0.822387  1
  O  O18  1  0.340308  0.589132  0.821737  1
  O  O19  1  0.641338  0.911027  0.177949  1
  O  O20  1  0.972295  0.240610  0.518780  1
  O  O21  1  0.999634  0.752937  0.000732  1
  O  O22  1  0.330944  0.061961  0.338111  1
  O  O23  1  0.669165  0.399306  0.661671  1
  O  O24  1  0.837955  0.589132  0.821737  1
  O  O25  1  0.180714  0.911027  0.177949  1
  O  O26  1  0.508926  0.240610  0.518780  1
  O  O27  1  0.660085  0.411315  0.177370  1
  O  O28  1  0.027600  0.759036  0.481928  1
  O  O29  1  0.359247  0.088806  0.822387  1
