# generated using pymatgen
data_Tm10In3Tc
_symmetry_space_group_name_H-M   'P 1'
_cell_length_a   9.56625800
_cell_length_b   9.56625711
_cell_length_c   9.70948100
_cell_angle_alpha   90.00000000
_cell_angle_beta   90.00000000
_cell_angle_gamma   119.99999615
_symmetry_Int_Tables_number   1
_chemical_formula_structural   Tm10In3Tc
_chemical_formula_sum   'Tm20 In6 Tc2'
_cell_volume   769.50386149
_cell_formula_units_Z   2
loop_
 _symmetry_equiv_pos_site_id
 _symmetry_equiv_pos_as_xyz
  1  'x, y, z'
loop_
 _atom_site_type_symbol
 _atom_site_label
 _atom_site_symmetry_multiplicity
 _atom_site_fract_x
 _atom_site_fract_y
 _atom_site_fract_z
 _atom_site_occupancy
  Tm  Tm0  1  0.000000  0.000000  0.500000  1
  Tm  Tm1  1  0.000000  0.000000  0.000000  1
  Tm  Tm2  1  0.209264  0.790736  0.440133  1
  Tm  Tm3  1  0.209264  0.418530  0.440133  1
  Tm  Tm4  1  0.581470  0.790736  0.440133  1
  Tm  Tm5  1  0.790736  0.209264  0.559867  1
  Tm  Tm6  1  0.790736  0.581470  0.559867  1
  Tm  Tm7  1  0.418530  0.209264  0.559867  1
  Tm  Tm8  1  0.790736  0.209264  0.940133  1
  Tm  Tm9  1  0.790736  0.581470  0.940133  1
  Tm  Tm10  1  0.418530  0.209264  0.940133  1
  Tm  Tm11  1  0.209264  0.790736  0.059867  1
  Tm  Tm12  1  0.209264  0.418530  0.059867  1
  Tm  Tm13  1  0.581470  0.790736  0.059867  1
  Tm  Tm14  1  0.535379  0.464621  0.250000  1
  Tm  Tm15  1  0.535379  0.070758  0.250000  1
  Tm  Tm16  1  0.929242  0.464621  0.250000  1
  Tm  Tm17  1  0.464621  0.535379  0.750000  1
  Tm  Tm18  1  0.464621  0.929242  0.750000  1
  Tm  Tm19  1  0.070758  0.535379  0.750000  1
  In  In20  1  0.884302  0.115698  0.250000  1
  In  In21  1  0.884302  0.768606  0.250000  1
  In  In22  1  0.231394  0.115698  0.250000  1
  In  In23  1  0.115698  0.884302  0.750000  1
  In  In24  1  0.115698  0.231394  0.750000  1
  In  In25  1  0.768606  0.884302  0.750000  1
  Tc  Tc26  1  0.333333  0.666667  0.250000  1
  Tc  Tc27  1  0.666667  0.333333  0.750000  1
