# generated using pymatgen
data_Er20(CoRh3)3
_symmetry_space_group_name_H-M   'P 1'
_cell_length_a   10.76704100
_cell_length_b   10.76704100
_cell_length_c   6.35816700
_cell_angle_alpha   90.00000000
_cell_angle_beta   90.00000000
_cell_angle_gamma   90.00000000
_symmetry_Int_Tables_number   1
_chemical_formula_structural   Er20(CoRh3)3
_chemical_formula_sum   'Er20 Co3 Rh9'
_cell_volume   737.09703508
_cell_formula_units_Z   1
loop_
 _symmetry_equiv_pos_site_id
 _symmetry_equiv_pos_as_xyz
  1  'x, y, z'
loop_
 _atom_site_type_symbol
 _atom_site_label
 _atom_site_symmetry_multiplicity
 _atom_site_fract_x
 _atom_site_fract_y
 _atom_site_fract_z
 _atom_site_occupancy
  Er  Er0  1  0.295795  0.085963  0.377563  1
  Er  Er1  1  0.295906  0.914467  0.877562  1
  Er  Er2  1  0.704094  0.085533  0.877562  1
  Er  Er3  1  0.704205  0.914037  0.377563  1
  Er  Er4  1  0.585533  0.795906  0.877562  1
  Er  Er5  1  0.585963  0.204205  0.377563  1
  Er  Er6  1  0.414037  0.795795  0.377563  1
  Er  Er7  1  0.414467  0.204094  0.877562  1
  Er  Er8  1  0.207591  0.412652  0.625743  1
  Er  Er9  1  0.207163  0.587399  0.119715  1
  Er  Er10  1  0.792837  0.412601  0.119715  1
  Er  Er11  1  0.792409  0.587348  0.625743  1
  Er  Er12  1  0.912601  0.707163  0.119715  1
  Er  Er13  1  0.912652  0.292409  0.625743  1
  Er  Er14  1  0.087348  0.707591  0.625743  1
  Er  Er15  1  0.087399  0.292837  0.119715  1
  Er  Er16  1  0.000000  0.000000  0.499153  1
  Er  Er17  1  0.000000  0.000000  0.999423  1
  Er  Er18  1  0.500000  0.500000  0.999423  1
  Er  Er19  1  0.500000  0.500000  0.499153  1
  Co  Co20  1  0.500000  0.000000  0.122861  1
  Co  Co21  1  0.500000  0.000000  0.622767  1
  Co  Co22  1  0.000000  0.500000  0.878018  1
  Rh  Rh23  1  0.847128  0.153334  0.249844  1
  Rh  Rh24  1  0.846956  0.846697  0.749620  1
  Rh  Rh25  1  0.153044  0.153303  0.749620  1
  Rh  Rh26  1  0.152872  0.846666  0.249844  1
  Rh  Rh27  1  0.653303  0.346956  0.749620  1
  Rh  Rh28  1  0.653334  0.652872  0.249844  1
  Rh  Rh29  1  0.346666  0.347128  0.249844  1
  Rh  Rh30  1  0.346697  0.653044  0.749620  1
  Rh  Rh31  1  0.000000  0.500000  0.379016  1
