# generated using pymatgen
data_DyY7(HgPt)2
_symmetry_space_group_name_H-M   'P 1'
_cell_length_a   9.69294782
_cell_length_b   9.69294875
_cell_length_c   9.68973000
_cell_angle_alpha   60.01099106
_cell_angle_beta   60.01098786
_cell_angle_gamma   60.01650629
_symmetry_Int_Tables_number   1
_chemical_formula_structural   DyY7(HgPt)2
_chemical_formula_sum   'Dy2 Y14 Hg4 Pt4'
_cell_volume   643.92420947
_cell_formula_units_Z   2
loop_
 _symmetry_equiv_pos_site_id
 _symmetry_equiv_pos_as_xyz
  1  'x, y, z'
loop_
 _atom_site_type_symbol
 _atom_site_label
 _atom_site_symmetry_multiplicity
 _atom_site_fract_x
 _atom_site_fract_y
 _atom_site_fract_z
 _atom_site_occupancy
  Dy  Dy0  1  0.354124  0.354124  0.352304  1
  Dy  Dy1  1  0.354124  0.354124  0.939448  1
  Y  Y2  1  0.357469  0.931956  0.355287  1
  Y  Y3  1  0.931956  0.357469  0.355287  1
  Y  Y4  1  0.810648  0.190107  0.189925  1
  Y  Y5  1  0.190107  0.810648  0.809320  1
  Y  Y6  1  0.190107  0.810648  0.189925  1
  Y  Y7  1  0.810648  0.190107  0.809320  1
  Y  Y8  1  0.190930  0.190930  0.809070  1
  Y  Y9  1  0.811035  0.811035  0.188965  1
  Y  Y10  1  0.937422  0.562978  0.563619  1
  Y  Y11  1  0.562978  0.937422  0.935981  1
  Y  Y12  1  0.562978  0.937422  0.563619  1
  Y  Y13  1  0.937422  0.562978  0.935981  1
  Y  Y14  1  0.563650  0.563650  0.936350  1
  Y  Y15  1  0.937024  0.937024  0.562976  1
  Hg  Hg16  1  0.585634  0.585634  0.587658  1
  Hg  Hg17  1  0.585634  0.585634  0.241075  1
  Hg  Hg18  1  0.585091  0.240581  0.587163  1
  Hg  Hg19  1  0.240581  0.585091  0.587163  1
  Pt  Pt20  1  0.144548  0.144548  0.145075  1
  Pt  Pt21  1  0.144548  0.144548  0.565830  1
  Pt  Pt22  1  0.143912  0.567429  0.144329  1
  Pt  Pt23  1  0.567429  0.143912  0.144329  1
