# generated using pymatgen
data_TaCo2B6Mo5
_symmetry_space_group_name_H-M   'P 1'
_cell_length_a   3.18488400
_cell_length_b   4.55099039
_cell_length_c   10.85826344
_cell_angle_alpha   89.94980819
_cell_angle_beta   90.00000000
_cell_angle_gamma   110.48187699
_symmetry_Int_Tables_number   1
_chemical_formula_structural   TaCo2B6Mo5
_chemical_formula_sum   'Ta1 Co2 B6 Mo5'
_cell_volume   147.43435120
_cell_formula_units_Z   1
loop_
 _symmetry_equiv_pos_site_id
 _symmetry_equiv_pos_as_xyz
  1  'x, y, z'
loop_
 _atom_site_type_symbol
 _atom_site_label
 _atom_site_symmetry_multiplicity
 _atom_site_fract_x
 _atom_site_fract_y
 _atom_site_fract_z
 _atom_site_occupancy
  Ta  Ta0  1  0.208127  0.416252  0.395050  1
  Co  Co1  1  0.499042  0.998084  0.501879  1
  Co  Co2  1  0.500342  0.000685  0.999255  1
  B  B3  1  0.914293  0.828585  0.394244  1
  B  B4  1  0.086735  0.173470  0.605333  1
  B  B5  1  0.913726  0.827451  0.102725  1
  B  B6  1  0.087009  0.174018  0.897084  1
  B  B7  1  0.793525  0.587049  0.248255  1
  B  B8  1  0.207001  0.414003  0.751172  1
  Mo  Mo9  1  0.789078  0.578156  0.609690  1
  Mo  Mo10  1  0.212356  0.424712  0.104589  1
  Mo  Mo11  1  0.788437  0.576875  0.893099  1
  Mo  Mo12  1  0.498362  0.996723  0.247577  1
  Mo  Mo13  1  0.501968  0.003937  0.750050  1
