# generated using pymatgen
data_Tb2Mn(TeO)2
_symmetry_space_group_name_H-M   'P 1'
_cell_length_a   4.02379000
_cell_length_b   4.02379200
_cell_length_c   9.82476900
_cell_angle_alpha   90.00000000
_cell_angle_beta   90.00000000
_cell_angle_gamma   90.00000000
_symmetry_Int_Tables_number   1
_chemical_formula_structural   Tb2Mn(TeO)2
_chemical_formula_sum   'Tb2 Mn1 Te2 O2'
_cell_volume   159.07179357
_cell_formula_units_Z   1
loop_
 _symmetry_equiv_pos_site_id
 _symmetry_equiv_pos_as_xyz
  1  'x, y, z'
loop_
 _atom_site_type_symbol
 _atom_site_label
 _atom_site_symmetry_multiplicity
 _atom_site_fract_x
 _atom_site_fract_y
 _atom_site_fract_z
 _atom_site_occupancy
  Tb  Tb0  1  0.000000  0.499999  0.110144  1
  Tb  Tb1  1  0.499999  0.000000  0.889857  1
  Mn  Mn2  1  0.499999  0.499999  0.499995  1
  Te  Te3  1  0.499999  0.000000  0.305618  1
  Te  Te4  1  0.000000  0.499999  0.694383  1
  O  O5  1  0.000000  0.000000  0.000001  1
  O  O6  1  0.499999  0.499999  0.000001  1
