# generated using pymatgen
data_TmTa8InS16
_symmetry_space_group_name_H-M   'P 1'
_cell_length_a   6.68841800
_cell_length_b   6.68841809
_cell_length_c   14.11732900
_cell_angle_alpha   90.00000000
_cell_angle_beta   90.00000000
_cell_angle_gamma   119.99999957
_symmetry_Int_Tables_number   1
_chemical_formula_structural   TmTa8InS16
_chemical_formula_sum   'Tm1 Ta8 In1 S16'
_cell_volume   546.92778780
_cell_formula_units_Z   1
loop_
 _symmetry_equiv_pos_site_id
 _symmetry_equiv_pos_as_xyz
  1  'x, y, z'
loop_
 _atom_site_type_symbol
 _atom_site_label
 _atom_site_symmetry_multiplicity
 _atom_site_fract_x
 _atom_site_fract_y
 _atom_site_fract_z
 _atom_site_occupancy
  Tm  Tm0  1  0.000000  0.000000  0.500000  1
  Ta  Ta1  1  0.000000  0.000000  0.261451  1
  Ta  Ta2  1  0.000000  0.000000  0.738549  1
  Ta  Ta3  1  0.503805  0.007611  0.258656  1
  Ta  Ta4  1  0.992389  0.496195  0.258656  1
  Ta  Ta5  1  0.503805  0.496195  0.258656  1
  Ta  Ta6  1  0.496195  0.992389  0.741344  1
  Ta  Ta7  1  0.007611  0.503805  0.741344  1
  Ta  Ta8  1  0.496195  0.503805  0.741344  1
  In  In9  1  0.000000  0.000000  0.000000  1
  S  S10  1  0.333333  0.666667  0.852844  1
  S  S11  1  0.666667  0.333333  0.147156  1
  S  S12  1  0.666667  0.333333  0.371048  1
  S  S13  1  0.333333  0.666667  0.628952  1
  S  S14  1  0.169382  0.830618  0.370810  1
  S  S15  1  0.169382  0.338764  0.370810  1
  S  S16  1  0.661236  0.830618  0.370810  1
  S  S17  1  0.830618  0.169382  0.629190  1
  S  S18  1  0.830618  0.661236  0.629190  1
  S  S19  1  0.338764  0.169382  0.629190  1
  S  S20  1  0.833928  0.166072  0.849086  1
  S  S21  1  0.833928  0.667856  0.849086  1
  S  S22  1  0.332144  0.166072  0.849086  1
  S  S23  1  0.166072  0.833928  0.150914  1
  S  S24  1  0.166072  0.332144  0.150914  1
  S  S25  1  0.667856  0.833928  0.150914  1
