# generated using pymatgen
data_Gd16Ag3HgRh4
_symmetry_space_group_name_H-M   'P 1'
_cell_length_a   9.67553969
_cell_length_b   9.67554073
_cell_length_c   9.62487400
_cell_angle_alpha   59.82571077
_cell_angle_beta   59.82570718
_cell_angle_gamma   60.00000019
_symmetry_Int_Tables_number   1
_chemical_formula_structural   Gd16Ag3HgRh4
_chemical_formula_sum   'Gd16 Ag3 Hg1 Rh4'
_cell_volume   635.44995468
_cell_formula_units_Z   1
loop_
 _symmetry_equiv_pos_site_id
 _symmetry_equiv_pos_as_xyz
  1  'x, y, z'
loop_
 _atom_site_type_symbol
 _atom_site_label
 _atom_site_symmetry_multiplicity
 _atom_site_fract_x
 _atom_site_fract_y
 _atom_site_fract_z
 _atom_site_occupancy
  Gd  Gd0  1  0.064435  0.064435  0.436372  1
  Gd  Gd1  1  0.434758  0.064435  0.436372  1
  Gd  Gd2  1  0.063562  0.434789  0.066860  1
  Gd  Gd3  1  0.058402  0.646841  0.647918  1
  Gd  Gd4  1  0.434789  0.434789  0.066860  1
  Gd  Gd5  1  0.646841  0.058402  0.647918  1
  Gd  Gd6  1  0.187727  0.812546  0.187182  1
  Gd  Gd7  1  0.188215  0.188215  0.812414  1
  Gd  Gd8  1  0.812546  0.812546  0.187182  1
  Gd  Gd9  1  0.434789  0.063562  0.066860  1
  Gd  Gd10  1  0.812546  0.187727  0.187182  1
  Gd  Gd11  1  0.064435  0.434758  0.436372  1
  Gd  Gd12  1  0.811158  0.188215  0.812414  1
  Gd  Gd13  1  0.188215  0.811158  0.812414  1
  Gd  Gd14  1  0.648368  0.648368  0.054898  1
  Gd  Gd15  1  0.646841  0.646841  0.647918  1
  Ag  Ag16  1  0.418349  0.418349  0.416235  1
  Ag  Ag17  1  0.747066  0.418349  0.416235  1
  Ag  Ag18  1  0.418349  0.747066  0.416235  1
  Hg  Hg19  1  0.416793  0.416793  0.749619  1
  Rh  Rh20  1  0.856920  0.856920  0.429240  1
  Rh  Rh21  1  0.857856  0.857856  0.855098  1
  Rh  Rh22  1  0.429189  0.857856  0.855098  1
  Rh  Rh23  1  0.857856  0.429189  0.855098  1
