# generated using pymatgen
data_SrGa3NiIr
_symmetry_space_group_name_H-M   'P 1'
_cell_length_a   6.48954101
_cell_length_b   6.48954198
_cell_length_c   5.42542229
_cell_angle_alpha   90.08612263
_cell_angle_beta   89.91387610
_cell_angle_gamma   76.09157181
_symmetry_Int_Tables_number   1
_chemical_formula_structural   SrGa3NiIr
_chemical_formula_sum   'Sr2 Ga6 Ni2 Ir2'
_cell_volume   221.78740120
_cell_formula_units_Z   2
loop_
 _symmetry_equiv_pos_site_id
 _symmetry_equiv_pos_as_xyz
  1  'x, y, z'
loop_
 _atom_site_type_symbol
 _atom_site_label
 _atom_site_symmetry_multiplicity
 _atom_site_fract_x
 _atom_site_fract_y
 _atom_site_fract_z
 _atom_site_occupancy
  Sr  Sr0  1  0.341130  0.658871  0.256309  1
  Sr  Sr1  1  0.658871  0.341130  0.743691  1
  Ga  Ga2  1  0.941778  0.058223  0.238779  1
  Ga  Ga3  1  0.528586  0.087481  0.240292  1
  Ga  Ga4  1  0.912520  0.471414  0.240292  1
  Ga  Ga5  1  0.087481  0.528586  0.759708  1
  Ga  Ga6  1  0.471414  0.912520  0.759708  1
  Ga  Ga7  1  0.058223  0.941778  0.761221  1
  Ni  Ni8  1  0.203508  0.203508  0.000000  1
  Ni  Ni9  1  0.796492  0.796492  0.000000  1
  Ir  Ir10  1  0.202618  0.202618  0.499999  1
  Ir  Ir11  1  0.797382  0.797382  0.499999  1
