# generated using pymatgen
data_Yb3Dy7(RuPb3)2
_symmetry_space_group_name_H-M   'P 1'
_cell_length_a   9.34106200
_cell_length_b   9.34106201
_cell_length_c   6.66704000
_cell_angle_alpha   90.00000000
_cell_angle_beta   90.00000000
_cell_angle_gamma   119.99999997
_symmetry_Int_Tables_number   1
_chemical_formula_structural   Yb3Dy7(RuPb3)2
_chemical_formula_sum   'Yb3 Dy7 Ru2 Pb6'
_cell_volume   503.79772531
_cell_formula_units_Z   1
loop_
 _symmetry_equiv_pos_site_id
 _symmetry_equiv_pos_as_xyz
  1  'x, y, z'
loop_
 _atom_site_type_symbol
 _atom_site_label
 _atom_site_symmetry_multiplicity
 _atom_site_fract_x
 _atom_site_fract_y
 _atom_site_fract_z
 _atom_site_occupancy
  Yb  Yb0  1  0.333333  0.666667  0.500000  1
  Yb  Yb1  1  0.666667  0.333333  0.500000  1
  Yb  Yb2  1  0.333333  0.666667  0.000000  1
  Dy  Dy3  1  0.236202  0.999353  0.249049  1
  Dy  Dy4  1  0.000647  0.763798  0.750951  1
  Dy  Dy5  1  0.000647  0.236849  0.249049  1
  Dy  Dy6  1  0.763151  0.999353  0.750951  1
  Dy  Dy7  1  0.236202  0.236849  0.750951  1
  Dy  Dy8  1  0.666667  0.333333  0.000000  1
  Dy  Dy9  1  0.763151  0.763798  0.249049  1
  Ru  Ru10  1  0.000000  0.000000  0.000000  1
  Ru  Ru11  1  0.000000  0.000000  0.500000  1
  Pb  Pb12  1  0.598184  0.002025  0.247582  1
  Pb  Pb13  1  0.403840  0.002025  0.752418  1
  Pb  Pb14  1  0.997975  0.596160  0.247582  1
  Pb  Pb15  1  0.598184  0.596160  0.752418  1
  Pb  Pb16  1  0.403840  0.401816  0.247582  1
  Pb  Pb17  1  0.997975  0.401816  0.752418  1
