# generated using pymatgen
data_Ca12InFe11(SbO6)8
_symmetry_space_group_name_H-M   'P 1'
_cell_length_a   11.13378645
_cell_length_b   11.13378623
_cell_length_c   11.13378559
_cell_angle_alpha   109.90993451
_cell_angle_beta   109.25231223
_cell_angle_gamma   109.25230734
_symmetry_Int_Tables_number   1
_chemical_formula_structural   Ca12InFe11(SbO6)8
_chemical_formula_sum   'Ca12 In1 Fe11 Sb8 O48'
_cell_volume   1062.39891258
_cell_formula_units_Z   1
loop_
 _symmetry_equiv_pos_site_id
 _symmetry_equiv_pos_as_xyz
  1  'x, y, z'
loop_
 _atom_site_type_symbol
 _atom_site_label
 _atom_site_symmetry_multiplicity
 _atom_site_fract_x
 _atom_site_fract_y
 _atom_site_fract_z
 _atom_site_occupancy
  Ca  Ca0  1  0.250000  0.372302  0.122302  1
  Ca  Ca1  1  0.750000  0.626636  0.876636  1
  Ca  Ca2  1  0.750000  0.123364  0.373364  1
  Ca  Ca3  1  0.126299  0.250094  0.373999  1
  Ca  Ca4  1  0.373701  0.747700  0.123795  1
  Ca  Ca5  1  0.250000  0.877698  0.627698  1
  Ca  Ca6  1  0.872695  0.749087  0.624831  1
  Ca  Ca7  1  0.627305  0.252136  0.876392  1
  Ca  Ca8  1  0.375744  0.123608  0.250913  1
  Ca  Ca9  1  0.623904  0.876205  0.749906  1
  Ca  Ca10  1  0.124256  0.375169  0.747864  1
  Ca  Ca11  1  0.876096  0.626001  0.252300  1
  In  In12  1  0.250000  0.625000  0.375000  1
  Fe  Fe13  1  0.750000  0.375000  0.625000  1
  Fe  Fe14  1  0.750000  0.875000  0.125000  1
  Fe  Fe15  1  0.375192  0.251203  0.626768  1
  Fe  Fe16  1  0.627196  0.750487  0.375012  1
  Fe  Fe17  1  0.250000  0.125000  0.875000  1
  Fe  Fe18  1  0.124808  0.751575  0.876010  1
  Fe  Fe19  1  0.872804  0.247816  0.123291  1
  Fe  Fe20  1  0.624435  0.373232  0.248425  1
  Fe  Fe21  1  0.375475  0.624988  0.752184  1
  Fe  Fe22  1  0.875565  0.123990  0.748797  1
  Fe  Fe23  1  0.124525  0.876709  0.249513  1
  Sb  Sb24  1  0.006030  0.007293  0.006753  1
  Sb  Sb25  1  0.502726  0.002760  0.495472  1
  Sb  Sb26  1  0.997274  0.492747  0.500034  1
  Sb  Sb27  1  0.499460  0.998737  0.992707  1
  Sb  Sb28  1  0.493970  0.500723  0.001263  1
  Sb  Sb29  1  0.507288  0.504528  0.507253  1
  Sb  Sb30  1  0.000540  0.993247  0.499277  1
  Sb  Sb31  1  0.992712  0.499966  0.997240  1
  O  O32  1  0.485314  0.379430  0.309797  1
  O  O33  1  0.533103  0.623762  0.703328  1
  O  O34  1  0.573374  0.173039  0.190465  1
  O  O35  1  0.926626  0.117091  0.599664  1
  O  O36  1  0.306303  0.467515  0.378635  1
  O  O37  1  0.331872  0.926040  0.302796  1
  O  O38  1  0.418238  0.829019  0.795964  1
  O  O39  1  0.081762  0.877726  0.410781  1
  O  O40  1  0.702729  0.522479  0.622329  1
  O  O41  1  0.679109  0.080146  0.692132  1
  O  O42  1  0.014686  0.324482  0.894115  1
  O  O43  1  0.193697  0.572332  0.161213  1
  O  O44  1  0.128455  0.033613  0.200043  1
  O  O45  1  0.966897  0.670225  0.090659  1
  O  O46  1  0.797271  0.419600  0.819749  1
  O  O47  1  0.883222  0.983886  0.808871  1
  O  O48  1  0.600657  0.924943  0.114591  1
  O  O49  1  0.168128  0.470923  0.594168  1
  O  O50  1  0.400567  0.080842  0.880389  1
  O  O51  1  0.820891  0.513023  0.401037  1
  O  O52  1  0.899343  0.013935  0.324286  1
  O  O53  1  0.371545  0.571589  0.905157  1
  O  O54  1  0.099433  0.979820  0.680275  1
  O  O55  1  0.616778  0.425649  0.100666  1
  O  O56  1  0.388014  0.307868  0.486977  1
  O  O57  1  0.579566  0.909341  0.376238  1
  O  O58  1  0.623244  0.697204  0.529077  1
  O  O59  1  0.430367  0.105885  0.620570  1
  O  O60  1  0.111986  0.598963  0.919854  1
  O  O61  1  0.033056  0.204036  0.122274  1
  O  O62  1  0.876756  0.405832  0.073960  1
  O  O63  1  0.982572  0.809535  0.882909  1
  O  O64  1  0.324983  0.899334  0.016114  1
  O  O65  1  0.920434  0.296672  0.329775  1
  O  O66  1  0.666432  0.094843  0.966387  1
  O  O67  1  0.069633  0.690203  0.675518  1
  O  O68  1  0.175017  0.191129  0.574351  1
  O  O69  1  0.466944  0.589219  0.170981  1
  O  O70  1  0.833568  0.799957  0.428411  1
  O  O71  1  0.517428  0.400336  0.826961  1
  O  O72  1  0.299546  0.319725  0.919158  1
  O  O73  1  0.689648  0.675714  0.075057  1
  O  O74  1  0.200454  0.119611  0.020180  1
  O  O75  1  0.810352  0.885409  0.986065  1
  O  O76  1  0.900149  0.377671  0.580400  1
  O  O77  1  0.088881  0.621365  0.427668  1
  O  O78  1  0.599851  0.180251  0.477521  1
  O  O79  1  0.411119  0.838787  0.532485  1
