# generated using pymatgen
data_DyTmMgB2Rh5
_symmetry_space_group_name_H-M   'P 1'
_cell_length_a   9.61576893
_cell_length_b   9.61576893
_cell_length_c   3.17840500
_cell_angle_alpha   90.00000000
_cell_angle_beta   90.00000000
_cell_angle_gamma   89.67393727
_symmetry_Int_Tables_number   1
_chemical_formula_structural   DyTmMgB2Rh5
_chemical_formula_sum   'Dy2 Tm2 Mg2 B4 Rh10'
_cell_volume   293.88014098
_cell_formula_units_Z   2
loop_
 _symmetry_equiv_pos_site_id
 _symmetry_equiv_pos_as_xyz
  1  'x, y, z'
loop_
 _atom_site_type_symbol
 _atom_site_label
 _atom_site_symmetry_multiplicity
 _atom_site_fract_x
 _atom_site_fract_y
 _atom_site_fract_z
 _atom_site_occupancy
  Dy  Dy0  1  0.675642  0.175642  0.000000  1
  Dy  Dy1  1  0.324358  0.824358  0.000000  1
  Tm  Tm2  1  0.175511  0.324489  0.000000  1
  Tm  Tm3  1  0.824489  0.675511  0.000000  1
  Mg  Mg4  1  0.000000  0.000000  0.000000  1
  Mg  Mg5  1  0.500000  0.500000  0.000000  1
  B  B6  1  0.122306  0.622306  0.000000  1
  B  B7  1  0.877694  0.377694  0.000000  1
  B  B8  1  0.623042  0.876958  0.000000  1
  B  B9  1  0.376958  0.123042  0.000000  1
  Rh  Rh10  1  0.500000  0.000000  0.500000  1
  Rh  Rh11  1  0.000000  0.500000  0.500000  1
  Rh  Rh12  1  0.223038  0.071977  0.500000  1
  Rh  Rh13  1  0.776962  0.928023  0.500000  1
  Rh  Rh14  1  0.069035  0.775584  0.500000  1
  Rh  Rh15  1  0.724416  0.430965  0.500000  1
  Rh  Rh16  1  0.930965  0.224416  0.500000  1
  Rh  Rh17  1  0.275584  0.569035  0.500000  1
  Rh  Rh18  1  0.571977  0.723038  0.500000  1
  Rh  Rh19  1  0.428023  0.276962  0.500000  1
