# generated using pymatgen
data_Sr10POsN10
_symmetry_space_group_name_H-M   'P 1'
_cell_length_a   7.62742816
_cell_length_b   7.62742689
_cell_length_c   8.91506639
_cell_angle_alpha   76.47088332
_cell_angle_beta   76.47088168
_cell_angle_gamma   96.66800751
_symmetry_Int_Tables_number   1
_chemical_formula_structural   Sr10POsN10
_chemical_formula_sum   'Sr10 P1 Os1 N10'
_cell_volume   482.19878871
_cell_formula_units_Z   1
loop_
 _symmetry_equiv_pos_site_id
 _symmetry_equiv_pos_as_xyz
  1  'x, y, z'
loop_
 _atom_site_type_symbol
 _atom_site_label
 _atom_site_symmetry_multiplicity
 _atom_site_fract_x
 _atom_site_fract_y
 _atom_site_fract_z
 _atom_site_occupancy
  Sr  Sr0  1  0.385228  0.401540  0.382468  1
  Sr  Sr1  1  0.598460  0.614772  0.617532  1
  Sr  Sr2  1  0.671966  0.670570  0.010067  1
  Sr  Sr3  1  0.329430  0.328034  0.989933  1
  Sr  Sr4  1  0.937943  0.914632  0.206164  1
  Sr  Sr5  1  0.085368  0.062057  0.793836  1
  Sr  Sr6  1  0.546434  0.083964  0.752333  1
  Sr  Sr7  1  0.916036  0.453566  0.247667  1
  Sr  Sr8  1  0.433304  0.893625  0.243331  1
  Sr  Sr9  1  0.106375  0.566696  0.756669  1
  P  P10  1  0.242347  0.757653  0.000000  1
  Os  Os11  1  0.756332  0.243668  0.000000  1
  N  N12  1  0.657557  0.662832  0.315048  1
  N  N13  1  0.337168  0.342443  0.684952  1
  N  N14  1  0.720732  0.011143  0.975972  1
  N  N15  1  0.988857  0.279268  0.024028  1
  N  N16  1  0.280243  0.977106  0.009976  1
  N  N17  1  0.022894  0.719757  0.990024  1
  N  N18  1  0.388952  0.729520  0.837056  1
  N  N19  1  0.270480  0.611048  0.162943  1
  N  N20  1  0.594695  0.270800  0.177341  1
  N  N21  1  0.729200  0.405305  0.822658  1
