# generated using pymatgen
data_Rb2LiScP2
_symmetry_space_group_name_H-M   'P 1'
_cell_length_a   9.00480382
_cell_length_b   9.00480315
_cell_length_c   9.00480372
_cell_angle_alpha   136.98086628
_cell_angle_beta   137.20555451
_cell_angle_gamma   62.29484744
_symmetry_Int_Tables_number   1
_chemical_formula_structural   Rb2LiScP2
_chemical_formula_sum   'Rb4 Li2 Sc2 P4'
_cell_volume   334.36969990
_cell_formula_units_Z   2
loop_
 _symmetry_equiv_pos_site_id
 _symmetry_equiv_pos_as_xyz
  1  'x, y, z'
loop_
 _atom_site_type_symbol
 _atom_site_label
 _atom_site_symmetry_multiplicity
 _atom_site_fract_x
 _atom_site_fract_y
 _atom_site_fract_z
 _atom_site_occupancy
  Rb  Rb0  1  0.105516  0.823379  0.282137  1
  Rb  Rb1  1  0.894484  0.176621  0.717863  1
  Rb  Rb2  1  0.458758  0.676621  0.782137  1
  Rb  Rb3  1  0.541242  0.323379  0.217863  1
  Li  Li4  1  0.500000  0.250000  0.750000  1
  Li  Li5  1  0.500000  0.750000  0.250000  1
  Sc  Sc6  1  0.000000  0.250000  0.250000  1
  Sc  Sc7  1  0.000000  0.750000  0.750000  1
  P  P8  1  0.683256  0.916544  0.766711  1
  P  P9  1  0.149833  0.416544  0.733289  1
  P  P10  1  0.850167  0.583456  0.266711  1
  P  P11  1  0.316744  0.083456  0.233289  1
