# generated using pymatgen
data_Lu2V3Co9SiAs6
_symmetry_space_group_name_H-M   'P 1'
_cell_length_a   3.73235300
_cell_length_b   9.33989532
_cell_length_c   9.33989600
_cell_angle_alpha   119.99999532
_cell_angle_beta   90.00000000
_cell_angle_gamma   90.00000000
_symmetry_Int_Tables_number   1
_chemical_formula_structural   Lu2V3Co9SiAs6
_chemical_formula_sum   'Lu2 V3 Co9 Si1 As6'
_cell_volume   281.96643496
_cell_formula_units_Z   1
loop_
 _symmetry_equiv_pos_site_id
 _symmetry_equiv_pos_as_xyz
  1  'x, y, z'
loop_
 _atom_site_type_symbol
 _atom_site_label
 _atom_site_symmetry_multiplicity
 _atom_site_fract_x
 _atom_site_fract_y
 _atom_site_fract_z
 _atom_site_occupancy
  Lu  Lu0  1  0.000000  0.666667  0.333333  1
  Lu  Lu1  1  0.500000  0.333333  0.666667  1
  V  V2  1  0.500000  0.787691  0.901034  1
  V  V3  1  0.500000  0.113343  0.212309  1
  V  V4  1  0.500000  0.098966  0.886657  1
  Co  Co5  1  0.000000  0.568834  0.940942  1
  Co  Co6  1  0.000000  0.372107  0.431166  1
  Co  Co7  1  0.000000  0.059058  0.627893  1
  Co  Co8  1  0.000000  0.880204  0.155721  1
  Co  Co9  1  0.000000  0.275516  0.119796  1
  Co  Co10  1  0.000000  0.844279  0.724484  1
  Co  Co11  1  0.500000  0.949318  0.382819  1
  Co  Co12  1  0.500000  0.433500  0.050682  1
  Co  Co13  1  0.500000  0.617181  0.566500  1
  Si  Si14  1  0.000000  0.000000  0.000000  1
  As  As15  1  0.500000  0.708648  0.119161  1
  As  As16  1  0.500000  0.410513  0.291352  1
  As  As17  1  0.500000  0.880839  0.589487  1
  As  As18  1  0.000000  0.586825  0.703230  1
  As  As19  1  0.000000  0.116405  0.413175  1
  As  As20  1  0.000000  0.296770  0.883595  1
