# generated using pymatgen
data_ErTm5Co16(TcP6)2
_symmetry_space_group_name_H-M   'P 1'
_cell_length_a   3.69364300
_cell_length_b   10.48454200
_cell_length_c   12.15666600
_cell_angle_alpha   90.00000000
_cell_angle_beta   90.00000000
_cell_angle_gamma   90.00000000
_symmetry_Int_Tables_number   1
_chemical_formula_structural   ErTm5Co16(TcP6)2
_chemical_formula_sum   'Er1 Tm5 Co16 Tc2 P12'
_cell_volume   470.78093382
_cell_formula_units_Z   1
loop_
 _symmetry_equiv_pos_site_id
 _symmetry_equiv_pos_as_xyz
  1  'x, y, z'
loop_
 _atom_site_type_symbol
 _atom_site_label
 _atom_site_symmetry_multiplicity
 _atom_site_fract_x
 _atom_site_fract_y
 _atom_site_fract_z
 _atom_site_occupancy
  Er  Er0  1  0.250000  0.750000  0.525270  1
  Tm  Tm1  1  0.750000  0.250000  0.474687  1
  Tm  Tm2  1  0.250000  0.931899  0.794174  1
  Tm  Tm3  1  0.250000  0.568101  0.794174  1
  Tm  Tm4  1  0.750000  0.068167  0.205938  1
  Tm  Tm5  1  0.750000  0.431833  0.205938  1
  Co  Co6  1  0.250000  0.250000  0.298033  1
  Co  Co7  1  0.750000  0.750000  0.702281  1
  Co  Co8  1  0.750000  0.250000  0.013248  1
  Co  Co9  1  0.250000  0.750000  0.986808  1
  Co  Co10  1  0.250000  0.417711  0.010740  1
  Co  Co11  1  0.250000  0.082289  0.010740  1
  Co  Co12  1  0.750000  0.582196  0.989260  1
  Co  Co13  1  0.750000  0.917804  0.989260  1
  Co  Co14  1  0.250000  0.452887  0.568613  1
  Co  Co15  1  0.250000  0.047113  0.568613  1
  Co  Co16  1  0.750000  0.546555  0.431338  1
  Co  Co17  1  0.750000  0.953445  0.431338  1
  Co  Co18  1  0.250000  0.871810  0.292623  1
  Co  Co19  1  0.250000  0.628190  0.292623  1
  Co  Co20  1  0.750000  0.128313  0.707257  1
  Co  Co21  1  0.750000  0.371687  0.707257  1
  Tc  Tc22  1  0.250000  0.250000  0.842979  1
  Tc  Tc23  1  0.750000  0.750000  0.156813  1
  P  P24  1  0.250000  0.250000  0.120187  1
  P  P25  1  0.750000  0.750000  0.879907  1
  P  P26  1  0.250000  0.250000  0.649795  1
  P  P27  1  0.750000  0.750000  0.349841  1
  P  P28  1  0.250000  0.437319  0.383369  1
  P  P29  1  0.250000  0.062681  0.383369  1
  P  P30  1  0.750000  0.562401  0.616791  1
  P  P31  1  0.750000  0.937599  0.616791  1
  P  P32  1  0.250000  0.904307  0.107999  1
  P  P33  1  0.250000  0.595693  0.107999  1
  P  P34  1  0.750000  0.095809  0.891975  1
  P  P35  1  0.750000  0.404191  0.891975  1
