# generated using pymatgen
data_Li4Sm3ErSi8
_symmetry_space_group_name_H-M   'P 1'
_cell_length_a   3.83520400
_cell_length_b   7.64977288
_cell_length_c   10.30957560
_cell_angle_alpha   90.14622000
_cell_angle_beta   90.00000000
_cell_angle_gamma   90.00000000
_symmetry_Int_Tables_number   1
_chemical_formula_structural   Li4Sm3ErSi8
_chemical_formula_sum   'Li4 Sm3 Er1 Si8'
_cell_volume   302.46587556
_cell_formula_units_Z   1
loop_
 _symmetry_equiv_pos_site_id
 _symmetry_equiv_pos_as_xyz
  1  'x, y, z'
loop_
 _atom_site_type_symbol
 _atom_site_label
 _atom_site_symmetry_multiplicity
 _atom_site_fract_x
 _atom_site_fract_y
 _atom_site_fract_z
 _atom_site_occupancy
  Li  Li0  1  0.250000  0.989991  0.392007  1
  Li  Li1  1  0.750000  0.010191  0.607329  1
  Li  Li2  1  0.250000  0.490304  0.109064  1
  Li  Li3  1  0.750000  0.508896  0.891937  1
  Sm  Sm4  1  0.250000  0.140406  0.863862  1
  Sm  Sm5  1  0.750000  0.859414  0.136624  1
  Sm  Sm6  1  0.250000  0.639909  0.635735  1
  Er  Er7  1  0.750000  0.362916  0.363749  1
  Si  Si8  1  0.750000  0.271315  0.073000  1
  Si  Si9  1  0.250000  0.730233  0.930402  1
  Si  Si10  1  0.750000  0.766582  0.429957  1
  Si  Si11  1  0.250000  0.233138  0.565133  1
  Si  Si12  1  0.750000  0.840577  0.820966  1
  Si  Si13  1  0.250000  0.160617  0.182121  1
  Si  Si14  1  0.750000  0.341676  0.676339  1
  Si  Si15  1  0.250000  0.653835  0.321772  1
