# generated using pymatgen
data_Th8Ta9Nb3Si16
_symmetry_space_group_name_H-M   'P 1'
_cell_length_a   7.17521490
_cell_length_b   7.17652009
_cell_length_c   13.36029551
_cell_angle_alpha   90.01972151
_cell_angle_beta   89.96928446
_cell_angle_gamma   89.98843293
_symmetry_Int_Tables_number   1
_chemical_formula_structural   Th8Ta9Nb3Si16
_chemical_formula_sum   'Th8 Ta9 Nb3 Si16'
_cell_volume   687.96253004
_cell_formula_units_Z   1
loop_
 _symmetry_equiv_pos_site_id
 _symmetry_equiv_pos_as_xyz
  1  'x, y, z'
loop_
 _atom_site_type_symbol
 _atom_site_label
 _atom_site_symmetry_multiplicity
 _atom_site_fract_x
 _atom_site_fract_y
 _atom_site_fract_z
 _atom_site_occupancy
  Th  Th0  1  0.998235  0.337248  0.217989  1
  Th  Th1  1  0.001655  0.663051  0.718207  1
  Th  Th2  1  0.163002  0.498042  0.468126  1
  Th  Th3  1  0.500402  0.837129  0.031849  1
  Th  Th4  1  0.836685  0.501990  0.968072  1
  Th  Th5  1  0.499408  0.163106  0.531824  1
  Th  Th6  1  0.337034  0.999349  0.781800  1
  Th  Th7  1  0.662998  0.000390  0.281838  1
  Ta  Ta8  1  0.168305  0.168880  0.999940  1
  Ta  Ta9  1  0.831999  0.831371  0.500209  1
  Ta  Ta10  1  0.331516  0.667641  0.250102  1
  Ta  Ta11  1  0.667909  0.332575  0.750654  1
  Ta  Ta12  1  0.160348  0.994240  0.373864  1
  Ta  Ta13  1  0.839550  0.005614  0.873669  1
  Ta  Ta14  1  0.505702  0.660845  0.623756  1
  Ta  Ta15  1  0.340161  0.495305  0.876247  1
  Ta  Ta16  1  0.494275  0.339731  0.123595  1
  Nb  Nb17  1  0.660224  0.503961  0.376206  1
  Nb  Nb18  1  0.996060  0.160559  0.626401  1
  Nb  Nb19  1  0.004328  0.839562  0.125882  1
  Si  Si20  1  0.288788  0.039386  0.186312  1
  Si  Si21  1  0.711126  0.960896  0.686194  1
  Si  Si22  1  0.460560  0.788851  0.436284  1
  Si  Si23  1  0.210504  0.538865  0.063837  1
  Si  Si24  1  0.539357  0.210767  0.936210  1
  Si  Si25  1  0.789393  0.460925  0.564233  1
  Si  Si26  1  0.039542  0.289762  0.814423  1
  Si  Si27  1  0.961224  0.710560  0.314173  1
  Si  Si28  1  0.375212  0.298166  0.313012  1
  Si  Si29  1  0.624257  0.701515  0.813563  1
  Si  Si30  1  0.201577  0.875384  0.563157  1
  Si  Si31  1  0.124130  0.799603  0.935866  1
  Si  Si32  1  0.798389  0.124720  0.063158  1
  Si  Si33  1  0.876152  0.199503  0.436337  1
  Si  Si34  1  0.300532  0.376650  0.686661  1
  Si  Si35  1  0.699463  0.623855  0.186355  1
