# generated using pymatgen
data_CaErPbAu2
_symmetry_space_group_name_H-M   'P 1'
_cell_length_a   8.20657300
_cell_length_b   8.20782000
_cell_length_c   3.67063200
_cell_angle_alpha   90.00000000
_cell_angle_beta   90.00000000
_cell_angle_gamma   90.00000000
_symmetry_Int_Tables_number   1
_chemical_formula_structural   CaErPbAu2
_chemical_formula_sum   'Ca2 Er2 Pb2 Au4'
_cell_volume   247.24670189
_cell_formula_units_Z   2
loop_
 _symmetry_equiv_pos_site_id
 _symmetry_equiv_pos_as_xyz
  1  'x, y, z'
loop_
 _atom_site_type_symbol
 _atom_site_label
 _atom_site_symmetry_multiplicity
 _atom_site_fract_x
 _atom_site_fract_y
 _atom_site_fract_z
 _atom_site_occupancy
  Ca  Ca0  1  0.827559  0.671941  0.500000  1
  Ca  Ca1  1  0.327559  0.828059  0.500000  1
  Er  Er2  1  0.670605  0.171265  0.500000  1
  Er  Er3  1  0.170605  0.328735  0.500000  1
  Pb  Pb4  1  0.001653  0.998901  0.000000  1
  Pb  Pb5  1  0.501653  0.501099  0.000000  1
  Au  Au6  1  0.123588  0.617397  0.000000  1
  Au  Au7  1  0.623588  0.882603  0.000000  1
  Au  Au8  1  0.376595  0.128984  0.000000  1
  Au  Au9  1  0.876595  0.371016  0.000000  1
