# generated using pymatgen
data_Cs3Te2Au
_symmetry_space_group_name_H-M   'P 1'
_cell_length_a   9.10285578
_cell_length_b   9.10285605
_cell_length_c   9.10285528
_cell_angle_alpha   71.06492674
_cell_angle_beta   71.06492377
_cell_angle_gamma   71.06492679
_symmetry_Int_Tables_number   1
_chemical_formula_structural   Cs3Te2Au
_chemical_formula_sum   'Cs6 Te4 Au2'
_cell_volume   654.28954319
_cell_formula_units_Z   2
loop_
 _symmetry_equiv_pos_site_id
 _symmetry_equiv_pos_as_xyz
  1  'x, y, z'
loop_
 _atom_site_type_symbol
 _atom_site_label
 _atom_site_symmetry_multiplicity
 _atom_site_fract_x
 _atom_site_fract_y
 _atom_site_fract_z
 _atom_site_occupancy
  Cs  Cs0  1  0.543072  0.956928  0.250000  1
  Cs  Cs1  1  0.956928  0.250000  0.543072  1
  Cs  Cs2  1  0.250000  0.543072  0.956928  1
  Cs  Cs3  1  0.456928  0.043072  0.750000  1
  Cs  Cs4  1  0.043072  0.750000  0.456928  1
  Cs  Cs5  1  0.750000  0.456928  0.043072  1
  Te  Te6  1  0.629754  0.629754  0.629754  1
  Te  Te7  1  0.870246  0.870246  0.870246  1
  Te  Te8  1  0.129754  0.129754  0.129754  1
  Te  Te9  1  0.370246  0.370246  0.370246  1
  Au  Au10  1  0.500000  0.500000  0.500000  1
  Au  Au11  1  0.000000  0.000000  0.000000  1
