# generated using pymatgen
data_Rb(CrTe)3
_symmetry_space_group_name_H-M   'P 1'
_cell_length_a   9.98090900
_cell_length_b   9.98090897
_cell_length_c   4.29828400
_cell_angle_alpha   90.00000000
_cell_angle_beta   90.00000000
_cell_angle_gamma   119.99999679
_symmetry_Int_Tables_number   1
_chemical_formula_structural   Rb(CrTe)3
_chemical_formula_sum   'Rb2 Cr6 Te6'
_cell_volume   370.82238562
_cell_formula_units_Z   2
loop_
 _symmetry_equiv_pos_site_id
 _symmetry_equiv_pos_as_xyz
  1  'x, y, z'
loop_
 _atom_site_type_symbol
 _atom_site_label
 _atom_site_symmetry_multiplicity
 _atom_site_fract_x
 _atom_site_fract_y
 _atom_site_fract_z
 _atom_site_occupancy
  Rb  Rb0  1  0.333333  0.666667  0.250000  1
  Rb  Rb1  1  0.666667  0.333333  0.750000  1
  Cr  Cr2  1  0.850813  0.978428  0.250000  1
  Cr  Cr3  1  0.127615  0.149187  0.250000  1
  Cr  Cr4  1  0.021572  0.872385  0.250000  1
  Cr  Cr5  1  0.149187  0.021572  0.750000  1
  Cr  Cr6  1  0.978428  0.127615  0.750000  1
  Cr  Cr7  1  0.872385  0.850813  0.750000  1
  Te  Te8  1  0.333579  0.047337  0.250000  1
  Te  Te9  1  0.952663  0.286243  0.250000  1
  Te  Te10  1  0.713757  0.666421  0.250000  1
  Te  Te11  1  0.666421  0.952663  0.750000  1
  Te  Te12  1  0.286243  0.333579  0.750000  1
  Te  Te13  1  0.047337  0.713757  0.750000  1
