# generated using pymatgen
data_Th8MnSe17
_symmetry_space_group_name_H-M   'P 1'
_cell_length_a   8.49844967
_cell_length_b   8.49845889
_cell_length_c   11.26166986
_cell_angle_alpha   80.16619147
_cell_angle_beta   80.16625388
_cell_angle_gamma   64.28819553
_symmetry_Int_Tables_number   1
_chemical_formula_structural   Th8MnSe17
_chemical_formula_sum   'Th8 Mn1 Se17'
_cell_volume   717.76404909
_cell_formula_units_Z   1
loop_
 _symmetry_equiv_pos_site_id
 _symmetry_equiv_pos_as_xyz
  1  'x, y, z'
loop_
 _atom_site_type_symbol
 _atom_site_label
 _atom_site_symmetry_multiplicity
 _atom_site_fract_x
 _atom_site_fract_y
 _atom_site_fract_z
 _atom_site_occupancy
  Th  Th0  1  0.815048  0.302333  0.295750  1
  Th  Th1  1  0.302332  0.815047  0.295752  1
  Th  Th2  1  0.184952  0.697667  0.704250  1
  Th  Th3  1  0.697668  0.184953  0.704248  1
  Th  Th4  1  0.203295  0.203291  0.544854  1
  Th  Th5  1  0.796705  0.796709  0.455146  1
  Th  Th6  1  0.683901  0.683902  0.980152  1
  Th  Th7  1  0.316099  0.316098  0.019848  1
  Mn  Mn8  1  0.000000  0.000000  0.000000  1
  Se  Se9  1  0.822071  0.432094  0.531250  1
  Se  Se10  1  0.432094  0.822070  0.531250  1
  Se  Se11  1  0.177929  0.567906  0.468750  1
  Se  Se12  1  0.567906  0.177930  0.468750  1
  Se  Se13  1  0.944405  0.326009  0.033094  1
  Se  Se14  1  0.326009  0.944406  0.033094  1
  Se  Se15  1  0.055595  0.673991  0.966906  1
  Se  Se16  1  0.673991  0.055594  0.966906  1
  Se  Se17  1  0.210182  0.210182  0.279642  1
  Se  Se18  1  0.789818  0.789818  0.720358  1
  Se  Se19  1  0.058544  0.058544  0.771590  1
  Se  Se20  1  0.941456  0.941456  0.228410  1
  Se  Se21  1  0.302097  0.302098  0.754515  1
  Se  Se22  1  0.697903  0.697902  0.245485  1
  Se  Se23  1  0.519535  0.519535  0.831982  1
  Se  Se24  1  0.480465  0.480465  0.168018  1
  Se  Se25  1  0.000000  0.000000  0.500000  1
