# generated using pymatgen
data_Ba3NaPaO6
_symmetry_space_group_name_H-M   'P 1'
_cell_length_a   7.46494433
_cell_length_b   7.46494486
_cell_length_c   7.46494394
_cell_angle_alpha   92.33496194
_cell_angle_beta   92.33496129
_cell_angle_gamma   92.33495855
_symmetry_Int_Tables_number   1
_chemical_formula_structural   Ba3NaPaO6
_chemical_formula_sum   'Ba6 Na2 Pa2 O12'
_cell_volume   414.92175055
_cell_formula_units_Z   2
loop_
 _symmetry_equiv_pos_site_id
 _symmetry_equiv_pos_as_xyz
  1  'x, y, z'
loop_
 _atom_site_type_symbol
 _atom_site_label
 _atom_site_symmetry_multiplicity
 _atom_site_fract_x
 _atom_site_fract_y
 _atom_site_fract_z
 _atom_site_occupancy
  Ba  Ba0  1  0.250000  0.908342  0.591658  1
  Ba  Ba1  1  0.750000  0.091658  0.408342  1
  Ba  Ba2  1  0.908342  0.591658  0.250000  1
  Ba  Ba3  1  0.408342  0.750000  0.091658  1
  Ba  Ba4  1  0.091658  0.408342  0.750000  1
  Ba  Ba5  1  0.591658  0.250000  0.908342  1
  Na  Na6  1  0.750000  0.750000  0.750000  1
  Na  Na7  1  0.250000  0.250000  0.250000  1
  Pa  Pa8  1  0.000000  0.000000  0.000000  1
  Pa  Pa9  1  0.500000  0.500000  0.500000  1
  O  O10  1  0.717068  0.928764  0.047483  1
  O  O11  1  0.047483  0.717068  0.928764  1
  O  O12  1  0.071236  0.952517  0.282932  1
  O  O13  1  0.928764  0.047483  0.717068  1
  O  O14  1  0.452517  0.571236  0.782932  1
  O  O15  1  0.571236  0.782932  0.452517  1
  O  O16  1  0.282932  0.071236  0.952517  1
  O  O17  1  0.952517  0.282932  0.071236  1
  O  O18  1  0.217068  0.547483  0.428764  1
  O  O19  1  0.547483  0.428764  0.217068  1
  O  O20  1  0.428764  0.217068  0.547483  1
  O  O21  1  0.782932  0.452517  0.571236  1
