# generated using pymatgen
data_Ce2Al7Co2Sn
_symmetry_space_group_name_H-M   'P 1'
_cell_length_a   8.08801493
_cell_length_b   8.08801482
_cell_length_c   6.71421362
_cell_angle_alpha   90.07984231
_cell_angle_beta   89.92015839
_cell_angle_gamma   150.25752667
_symmetry_Int_Tables_number   1
_chemical_formula_structural   Ce2Al7Co2Sn
_chemical_formula_sum   'Ce2 Al7 Co2 Sn1'
_cell_volume   217.89635027
_cell_formula_units_Z   1
loop_
 _symmetry_equiv_pos_site_id
 _symmetry_equiv_pos_as_xyz
  1  'x, y, z'
loop_
 _atom_site_type_symbol
 _atom_site_label
 _atom_site_symmetry_multiplicity
 _atom_site_fract_x
 _atom_site_fract_y
 _atom_site_fract_z
 _atom_site_occupancy
  Ce  Ce0  1  0.883246  0.116753  0.253664  1
  Ce  Ce1  1  0.116753  0.883246  0.746336  1
  Al  Al2  1  0.695664  0.304336  0.057679  1
  Al  Al3  1  0.081678  0.918321  0.262186  1
  Al  Al4  1  0.692335  0.307665  0.444097  1
  Al  Al5  1  0.500000  0.500000  0.500000  1
  Al  Al6  1  0.307665  0.692335  0.555904  1
  Al  Al7  1  0.918321  0.081678  0.737814  1
  Al  Al8  1  0.304336  0.695664  0.942322  1
  Co  Co9  1  0.228928  0.771072  0.250581  1
  Co  Co10  1  0.771072  0.228928  0.749419  1
  Sn  Sn11  1  0.500000  0.500000  0.000000  1
