# generated using pymatgen
data_Nd6HoPI12
_symmetry_space_group_name_H-M   'P 1'
_cell_length_a   9.92442997
_cell_length_b   9.92442929
_cell_length_c   9.92442997
_cell_angle_alpha   107.75160954
_cell_angle_beta   107.75160456
_cell_angle_gamma   107.75160051
_symmetry_Int_Tables_number   1
_chemical_formula_structural   Nd6HoPI12
_chemical_formula_sum   'Nd6 Ho1 P1 I12'
_cell_volume   796.79130985
_cell_formula_units_Z   1
loop_
 _symmetry_equiv_pos_site_id
 _symmetry_equiv_pos_as_xyz
  1  'x, y, z'
loop_
 _atom_site_type_symbol
 _atom_site_label
 _atom_site_symmetry_multiplicity
 _atom_site_fract_x
 _atom_site_fract_y
 _atom_site_fract_z
 _atom_site_occupancy
  Nd  Nd0  1  0.804722  0.529567  0.600791  1
  Nd  Nd1  1  0.399209  0.195278  0.470433  1
  Nd  Nd2  1  0.470433  0.399209  0.195278  1
  Nd  Nd3  1  0.600791  0.804722  0.529567  1
  Nd  Nd4  1  0.529567  0.600791  0.804722  1
  Nd  Nd5  1  0.195278  0.470433  0.399209  1
  Ho  Ho6  1  0.000000  0.000000  0.000000  1
  P  P7  1  0.500000  0.500000  0.500000  1
  I  I8  1  0.664474  0.970805  0.890970  1
  I  I9  1  0.729223  0.184723  0.573784  1
  I  I10  1  0.890970  0.664474  0.970805  1
  I  I11  1  0.270777  0.815277  0.426216  1
  I  I12  1  0.184723  0.573784  0.729223  1
  I  I13  1  0.029195  0.109030  0.335526  1
  I  I14  1  0.573784  0.729223  0.184723  1
  I  I15  1  0.109030  0.335526  0.029195  1
  I  I16  1  0.815277  0.426216  0.270777  1
  I  I17  1  0.426216  0.270777  0.815277  1
  I  I18  1  0.970805  0.890970  0.664474  1
  I  I19  1  0.335526  0.029195  0.109030  1
