# generated using pymatgen
data_La(NbS2)3
_symmetry_space_group_name_H-M   'P 1'
_cell_length_a   5.85323400
_cell_length_b   5.85323371
_cell_length_c   14.66633300
_cell_angle_alpha   90.00000000
_cell_angle_beta   90.00000000
_cell_angle_gamma   120.00000166
_symmetry_Int_Tables_number   1
_chemical_formula_structural   La(NbS2)3
_chemical_formula_sum   'La2 Nb6 S12'
_cell_volume   435.15493933
_cell_formula_units_Z   2
loop_
 _symmetry_equiv_pos_site_id
 _symmetry_equiv_pos_as_xyz
  1  'x, y, z'
loop_
 _atom_site_type_symbol
 _atom_site_label
 _atom_site_symmetry_multiplicity
 _atom_site_fract_x
 _atom_site_fract_y
 _atom_site_fract_z
 _atom_site_occupancy
  La  La0  1  0.333333  0.666667  0.250000  1
  La  La1  1  0.666667  0.333333  0.750000  1
  Nb  Nb2  1  0.333333  0.666667  0.000457  1
  Nb  Nb3  1  0.000000  0.000000  0.000000  1
  Nb  Nb4  1  0.666667  0.333333  0.999543  1
  Nb  Nb5  1  0.333333  0.666667  0.499543  1
  Nb  Nb6  1  0.000000  0.000000  0.500000  1
  Nb  Nb7  1  0.666667  0.333333  0.500457  1
  S  S8  1  0.670297  0.667414  0.392619  1
  S  S9  1  0.667414  0.670297  0.607381  1
  S  S10  1  0.002882  0.670297  0.892619  1
  S  S11  1  0.667414  0.997118  0.892619  1
  S  S12  1  0.670297  0.002882  0.107381  1
  S  S13  1  0.332586  0.002882  0.392619  1
  S  S14  1  0.002882  0.332586  0.607381  1
  S  S15  1  0.329703  0.997118  0.607381  1
  S  S16  1  0.997118  0.667414  0.107381  1
  S  S17  1  0.329703  0.332586  0.892619  1
  S  S18  1  0.997118  0.329703  0.392619  1
  S  S19  1  0.332586  0.329703  0.107381  1
