# generated using pymatgen
data_Zr8Nb12CuSi15
_symmetry_space_group_name_H-M   'P 1'
_cell_length_a   6.91520882
_cell_length_b   6.89838022
_cell_length_c   12.77630806
_cell_angle_alpha   90.03350378
_cell_angle_beta   89.91502527
_cell_angle_gamma   89.94083194
_symmetry_Int_Tables_number   1
_chemical_formula_structural   Zr8Nb12CuSi15
_chemical_formula_sum   'Zr8 Nb12 Cu1 Si15'
_cell_volume   609.47657446
_cell_formula_units_Z   1
loop_
 _symmetry_equiv_pos_site_id
 _symmetry_equiv_pos_as_xyz
  1  'x, y, z'
loop_
 _atom_site_type_symbol
 _atom_site_label
 _atom_site_symmetry_multiplicity
 _atom_site_fract_x
 _atom_site_fract_y
 _atom_site_fract_z
 _atom_site_occupancy
  Zr  Zr0  1  0.999119  0.658574  0.031734  1
  Zr  Zr1  1  0.996902  0.339789  0.531628  1
  Zr  Zr2  1  0.658471  0.000141  0.968948  1
  Zr  Zr3  1  0.158305  0.498086  0.782625  1
  Zr  Zr4  1  0.840420  0.501294  0.281731  1
  Zr  Zr5  1  0.498658  0.157608  0.217421  1
  Zr  Zr6  1  0.498820  0.841004  0.717204  1
  Zr  Zr7  1  0.346800  0.000871  0.468234  1
  Nb  Nb8  1  0.353418  0.503410  0.374684  1
  Nb  Nb9  1  0.845645  0.997393  0.372004  1
  Nb  Nb10  1  0.003932  0.152770  0.126898  1
  Nb  Nb11  1  0.993849  0.846763  0.629231  1
  Nb  Nb12  1  0.652618  0.494669  0.877071  1
  Nb  Nb13  1  0.502895  0.349907  0.623371  1
  Nb  Nb14  1  0.494962  0.652490  0.123710  1
  Nb  Nb15  1  0.153336  0.003643  0.873031  1
  Nb  Nb16  1  0.668037  0.670852  0.501455  1
  Nb  Nb17  1  0.830255  0.169620  0.749706  1
  Nb  Nb18  1  0.171255  0.831558  0.249742  1
  Nb  Nb19  1  0.330305  0.329568  0.000381  1
  Cu  Cu20  1  0.046801  0.700637  0.438411  1
  Si  Si21  1  0.955394  0.296689  0.937002  1
  Si  Si22  1  0.705173  0.045193  0.562394  1
  Si  Si23  1  0.200373  0.455783  0.188145  1
  Si  Si24  1  0.798309  0.544398  0.686437  1
  Si  Si25  1  0.455445  0.201542  0.812578  1
  Si  Si26  1  0.545497  0.797888  0.313815  1
  Si  Si27  1  0.297090  0.954942  0.063079  1
  Si  Si28  1  0.864028  0.791655  0.822824  1
  Si  Si29  1  0.135627  0.208366  0.324857  1
  Si  Si30  1  0.792368  0.863686  0.177724  1
  Si  Si31  1  0.287919  0.637741  0.568424  1
  Si  Si32  1  0.707495  0.364749  0.072774  1
  Si  Si33  1  0.638315  0.293957  0.427604  1
  Si  Si34  1  0.364562  0.707444  0.926901  1
  Si  Si35  1  0.207604  0.135318  0.676221  1
