# generated using pymatgen
data_Nd8Cu2Si12PdAu
_symmetry_space_group_name_H-M   'P 1'
_cell_length_a   8.19493000
_cell_length_b   8.19493161
_cell_length_c   8.58426900
_cell_angle_alpha   89.99998602
_cell_angle_beta   90.00001398
_cell_angle_gamma   119.99998542
_symmetry_Int_Tables_number   1
_chemical_formula_structural   Nd8Cu2Si12PdAu
_chemical_formula_sum   'Nd8 Cu2 Si12 Pd1 Au1'
_cell_volume   499.25749775
_cell_formula_units_Z   1
loop_
 _symmetry_equiv_pos_site_id
 _symmetry_equiv_pos_as_xyz
  1  'x, y, z'
loop_
 _atom_site_type_symbol
 _atom_site_label
 _atom_site_symmetry_multiplicity
 _atom_site_fract_x
 _atom_site_fract_y
 _atom_site_fract_z
 _atom_site_occupancy
  Nd  Nd0  1  0.498875  0.501125  0.747053  1
  Nd  Nd1  1  0.499489  0.500511  0.252860  1
  Nd  Nd2  1  0.002249  0.501125  0.747053  1
  Nd  Nd3  1  0.001021  0.500511  0.252860  1
  Nd  Nd4  1  0.498875  0.997750  0.747053  1
  Nd  Nd5  1  0.499489  0.998979  0.252860  1
  Nd  Nd6  1  0.000000  0.000000  0.747888  1
  Nd  Nd7  1  0.000000  0.000000  0.252368  1
  Cu  Cu8  1  0.333333  0.666667  0.499119  1
  Cu  Cu9  1  0.666667  0.333333  0.500577  1
  Si  Si10  1  0.837661  0.162339  0.999840  1
  Si  Si11  1  0.167457  0.832543  0.000494  1
  Si  Si12  1  0.324679  0.162340  0.999840  1
  Si  Si13  1  0.169318  0.830682  0.499345  1
  Si  Si14  1  0.665086  0.832543  0.000494  1
  Si  Si15  1  0.830641  0.169359  0.500729  1
  Si  Si16  1  0.837661  0.675321  0.999840  1
  Si  Si17  1  0.661365  0.830682  0.499345  1
  Si  Si18  1  0.167457  0.334914  0.000494  1
  Si  Si19  1  0.338719  0.169359  0.500729  1
  Si  Si20  1  0.169318  0.338635  0.499345  1
  Si  Si21  1  0.830641  0.661281  0.500729  1
  Pd  Pd22  1  0.333333  0.666667  0.000548  1
  Au  Au23  1  0.666667  0.333333  0.998534  1
