# generated using pymatgen
data_TbDyTa5WO18
_symmetry_space_group_name_H-M   'P 1'
_cell_length_a   7.52678255
_cell_length_b   5.31464064
_cell_length_c   8.33262337
_cell_angle_alpha   87.61583067
_cell_angle_beta   90.15346719
_cell_angle_gamma   89.78810487
_symmetry_Int_Tables_number   1
_chemical_formula_structural   TbDyTa5WO18
_chemical_formula_sum   'Tb1 Dy1 Ta5 W1 O18'
_cell_volume   333.03065096
_cell_formula_units_Z   1
loop_
 _symmetry_equiv_pos_site_id
 _symmetry_equiv_pos_as_xyz
  1  'x, y, z'
loop_
 _atom_site_type_symbol
 _atom_site_label
 _atom_site_symmetry_multiplicity
 _atom_site_fract_x
 _atom_site_fract_y
 _atom_site_fract_z
 _atom_site_occupancy
  Tb  Tb0  1  0.247819  0.965340  0.435630  1
  Dy  Dy1  1  0.752425  0.035316  0.564462  1
  Ta  Ta2  1  0.500018  0.000067  0.999913  1
  Ta  Ta3  1  0.494213  0.527030  0.695930  1
  Ta  Ta4  1  0.007482  0.530450  0.696506  1
  Ta  Ta5  1  0.992096  0.469682  0.303583  1
  Ta  Ta6  1  0.506216  0.473089  0.304182  1
  W  W7  1  0.999946  0.000044  0.999880  1
  O  O8  1  0.246821  0.909834  0.978348  1
  O  O9  1  0.933013  0.854187  0.780878  1
  O  O10  1  0.562316  0.849418  0.787124  1
  O  O11  1  0.956734  0.741611  0.468420  1
  O  O12  1  0.543026  0.741901  0.468205  1
  O  O13  1  0.250690  0.662583  0.655792  1
  O  O14  1  0.946815  0.673769  0.123395  1
  O  O15  1  0.550857  0.677180  0.121124  1
  O  O16  1  0.250199  0.575837  0.314682  1
  O  O17  1  0.749816  0.422560  0.685251  1
  O  O18  1  0.053158  0.326276  0.876647  1
  O  O19  1  0.449163  0.322809  0.878923  1
  O  O20  1  0.749304  0.336271  0.344648  1
  O  O21  1  0.042243  0.258886  0.531727  1
  O  O22  1  0.457961  0.258522  0.531936  1
  O  O23  1  0.066492  0.146310  0.218641  1
  O  O24  1  0.438028  0.150924  0.212528  1
  O  O25  1  0.753150  0.090104  0.021645  1
