# generated using pymatgen
data_Tm3CdPd8
_symmetry_space_group_name_H-M   'P 1'
_cell_length_a   4.18931600
_cell_length_b   5.82260017
_cell_length_c   17.42112000
_cell_angle_alpha   89.99923246
_cell_angle_beta   89.99967176
_cell_angle_gamma   90.01388457
_symmetry_Int_Tables_number   1
_chemical_formula_structural   Tm3CdPd8
_chemical_formula_sum   'Tm6 Cd2 Pd16'
_cell_volume   424.94835141
_cell_formula_units_Z   2
loop_
 _symmetry_equiv_pos_site_id
 _symmetry_equiv_pos_as_xyz
  1  'x, y, z'
loop_
 _atom_site_type_symbol
 _atom_site_label
 _atom_site_symmetry_multiplicity
 _atom_site_fract_x
 _atom_site_fract_y
 _atom_site_fract_z
 _atom_site_occupancy
  Tm  Tm0  1  0.524587  0.340885  0.047081  1
  Tm  Tm1  1  0.524341  0.841269  0.206154  1
  Tm  Tm2  1  0.525811  0.340809  0.365231  1
  Tm  Tm3  1  0.527479  0.739244  0.547057  1
  Tm  Tm4  1  0.527695  0.237145  0.706137  1
  Tm  Tm5  1  0.526172  0.736885  0.865248  1
  Cd  Cd6  1  0.026712  0.040077  0.456095  1
  Cd  Cd7  1  0.025240  0.039053  0.956107  1
  Pd  Pd8  1  0.524546  0.828731  0.037121  1
  Pd  Pd9  1  0.024049  0.090478  0.122691  1
  Pd  Pd10  1  0.024129  0.592424  0.122898  1
  Pd  Pd11  1  0.524219  0.342262  0.206145  1
  Pd  Pd12  1  0.024962  0.591751  0.289519  1
  Pd  Pd13  1  0.024802  0.089860  0.289524  1
  Pd  Pd14  1  0.525924  0.828323  0.375232  1
  Pd  Pd15  1  0.026820  0.540102  0.456215  1
  Pd  Pd16  1  0.527492  0.251884  0.537023  1
  Pd  Pd17  1  0.028016  0.989752  0.622648  1
  Pd  Pd18  1  0.027940  0.487801  0.622892  1
  Pd  Pd19  1  0.527842  0.735984  0.706156  1
  Pd  Pd20  1  0.027061  0.485120  0.789511  1
  Pd  Pd21  1  0.027185  0.986958  0.789485  1
  Pd  Pd22  1  0.526083  0.249042  0.875142  1
  Pd  Pd23  1  0.025230  0.539124  0.956227  1
