# generated using pymatgen
data_Nd11In9(AgIr)2
_symmetry_space_group_name_H-M   'P 1'
_cell_length_a   13.60622161
_cell_length_b   13.66656890
_cell_length_c   3.80659700
_cell_angle_alpha   90.00000000
_cell_angle_beta   90.00000000
_cell_angle_gamma   111.26360044
_symmetry_Int_Tables_number   1
_chemical_formula_structural   Nd11In9(AgIr)2
_chemical_formula_sum   'Nd11 In9 Ag2 Ir2'
_cell_volume   659.64976530
_cell_formula_units_Z   1
loop_
 _symmetry_equiv_pos_site_id
 _symmetry_equiv_pos_as_xyz
  1  'x, y, z'
loop_
 _atom_site_type_symbol
 _atom_site_label
 _atom_site_symmetry_multiplicity
 _atom_site_fract_x
 _atom_site_fract_y
 _atom_site_fract_z
 _atom_site_occupancy
  Nd  Nd0  1  0.064164  0.415796  0.000000  1
  Nd  Nd1  1  0.935836  0.584204  0.000000  1
  Nd  Nd2  1  0.417501  0.072252  0.000000  1
  Nd  Nd3  1  0.582499  0.927748  0.000000  1
  Nd  Nd4  1  0.615941  0.358531  0.000000  1
  Nd  Nd5  1  0.384059  0.641469  0.000000  1
  Nd  Nd6  1  0.840701  0.158729  0.000000  1
  Nd  Nd7  1  0.159299  0.841271  0.000000  1
  Nd  Nd8  1  0.000000  0.000000  0.000000  1
  Nd  Nd9  1  0.315760  0.298285  0.000000  1
  Nd  Nd10  1  0.684240  0.701715  0.000000  1
  In  In11  1  0.837192  0.367506  0.500000  1
  In  In12  1  0.162808  0.632494  0.500000  1
  In  In13  1  0.366636  0.839478  0.500000  1
  In  In14  1  0.633364  0.160522  0.500000  1
  In  In15  1  0.076151  0.218927  0.500000  1
  In  In16  1  0.923849  0.781073  0.500000  1
  In  In17  1  0.218914  0.074278  0.500000  1
  In  In18  1  0.781086  0.925722  0.500000  1
  In  In19  1  0.500000  0.500000  0.500000  1
  Ag  Ag20  1  0.252724  0.450912  0.500000  1
  Ag  Ag21  1  0.747276  0.549088  0.500000  1
  Ir  Ir22  1  0.449033  0.241057  0.500000  1
  Ir  Ir23  1  0.550967  0.758943  0.500000  1
