# generated using pymatgen
data_DyY9(ZnIn3)2
_symmetry_space_group_name_H-M   'P 1'
_cell_length_a   9.19450000
_cell_length_b   9.19450037
_cell_length_c   6.72983600
_cell_angle_alpha   90.00000000
_cell_angle_beta   90.00000000
_cell_angle_gamma   119.99999868
_symmetry_Int_Tables_number   1
_chemical_formula_structural   DyY9(ZnIn3)2
_chemical_formula_sum   'Dy1 Y9 Zn2 In6'
_cell_volume   492.70999247
_cell_formula_units_Z   1
loop_
 _symmetry_equiv_pos_site_id
 _symmetry_equiv_pos_as_xyz
  1  'x, y, z'
loop_
 _atom_site_type_symbol
 _atom_site_label
 _atom_site_symmetry_multiplicity
 _atom_site_fract_x
 _atom_site_fract_y
 _atom_site_fract_z
 _atom_site_occupancy
  Dy  Dy0  1  0.333333  0.666667  0.000000  1
  Y  Y1  1  0.333333  0.666667  0.500000  1
  Y  Y2  1  0.666667  0.333333  0.500000  1
  Y  Y3  1  0.666667  0.333333  0.000000  1
  Y  Y4  1  0.275332  0.999816  0.750277  1
  Y  Y5  1  0.724485  0.999816  0.249723  1
  Y  Y6  1  0.000184  0.275515  0.750277  1
  Y  Y7  1  0.000184  0.724668  0.249723  1
  Y  Y8  1  0.724485  0.724668  0.750277  1
  Y  Y9  1  0.275332  0.275515  0.249723  1
  Zn  Zn10  1  0.000000  0.000000  0.500000  1
  Zn  Zn11  1  0.000000  0.000000  0.000000  1
  In  In12  1  0.621375  0.999867  0.750239  1
  In  In13  1  0.378493  0.999867  0.249761  1
  In  In14  1  0.000133  0.621507  0.750239  1
  In  In15  1  0.000133  0.378625  0.249761  1
  In  In16  1  0.378493  0.378625  0.750239  1
  In  In17  1  0.621375  0.621507  0.249761  1
