# generated using pymatgen
data_Pr4Al18Co2IrPt3
_symmetry_space_group_name_H-M   'P 1'
_cell_length_a   7.62982309
_cell_length_b   7.62982238
_cell_length_c   9.58550041
_cell_angle_alpha   90.17147054
_cell_angle_beta   90.17146964
_cell_angle_gamma   119.56631939
_symmetry_Int_Tables_number   1
_chemical_formula_structural   Pr4Al18Co2IrPt3
_chemical_formula_sum   'Pr4 Al18 Co2 Ir1 Pt3'
_cell_volume   485.34212779
_cell_formula_units_Z   1
loop_
 _symmetry_equiv_pos_site_id
 _symmetry_equiv_pos_as_xyz
  1  'x, y, z'
loop_
 _atom_site_type_symbol
 _atom_site_label
 _atom_site_symmetry_multiplicity
 _atom_site_fract_x
 _atom_site_fract_y
 _atom_site_fract_z
 _atom_site_occupancy
  Pr  Pr0  1  0.995949  0.669060  0.249960  1
  Pr  Pr1  1  0.006431  0.332866  0.750433  1
  Pr  Pr2  1  0.667134  0.993569  0.249567  1
  Pr  Pr3  1  0.330940  0.004051  0.750040  1
  Al  Al4  1  0.125351  0.126424  0.247245  1
  Al  Al5  1  0.873576  0.874649  0.752755  1
  Al  Al6  1  0.001320  0.325403  0.072633  1
  Al  Al7  1  0.996898  0.674243  0.926893  1
  Al  Al8  1  0.990496  0.661130  0.571369  1
  Al  Al9  1  0.338870  0.009504  0.428631  1
  Al  Al10  1  0.991966  0.330464  0.429303  1
  Al  Al11  1  0.669536  0.008034  0.570697  1
  Al  Al12  1  0.674597  0.998680  0.927367  1
  Al  Al13  1  0.325757  0.003102  0.073107  1
  Al  Al14  1  0.338044  0.330982  0.546461  1
  Al  Al15  1  0.669018  0.661956  0.453539  1
  Al  Al16  1  0.672990  0.672597  0.049279  1
  Al  Al17  1  0.327403  0.327010  0.950721  1
  Al  Al18  1  0.340124  0.541119  0.250377  1
  Al  Al19  1  0.659736  0.451720  0.741991  1
  Al  Al20  1  0.548280  0.340264  0.258009  1
  Al  Al21  1  0.458881  0.659876  0.749623  1
  Co  Co22  1  0.669424  0.330576  0.500000  1
  Co  Co23  1  0.999831  0.000169  0.000000  1
  Ir  Ir24  1  0.999730  0.000270  0.500000  1
  Pt  Pt25  1  0.670804  0.329196  0.000000  1
  Pt  Pt26  1  0.328442  0.671558  0.000000  1
  Pt  Pt27  1  0.328475  0.671525  0.500000  1
