# generated using pymatgen
data_Al3Cu9Au4
_symmetry_space_group_name_H-M   'P 1'
_cell_length_a   5.39812822
_cell_length_b   5.42611214
_cell_length_c   8.79852100
_cell_angle_alpha   90.00000000
_cell_angle_beta   90.00000000
_cell_angle_gamma   120.17163852
_symmetry_Int_Tables_number   1
_chemical_formula_structural   Al3Cu9Au4
_chemical_formula_sum   'Al3 Cu9 Au4'
_cell_volume   222.80171806
_cell_formula_units_Z   1
loop_
 _symmetry_equiv_pos_site_id
 _symmetry_equiv_pos_as_xyz
  1  'x, y, z'
loop_
 _atom_site_type_symbol
 _atom_site_label
 _atom_site_symmetry_multiplicity
 _atom_site_fract_x
 _atom_site_fract_y
 _atom_site_fract_z
 _atom_site_occupancy
  Al  Al0  1  0.000174  0.500086  0.998412  1
  Al  Al1  1  0.339164  0.169581  0.250000  1
  Al  Al2  1  0.000174  0.500086  0.501588  1
  Cu  Cu3  1  0.501221  0.999676  0.998365  1
  Cu  Cu4  1  0.501220  0.501544  0.998365  1
  Cu  Cu5  1  0.821050  0.169897  0.250000  1
  Cu  Cu6  1  0.821051  0.651155  0.250000  1
  Cu  Cu7  1  0.501221  0.999676  0.501635  1
  Cu  Cu8  1  0.501220  0.501544  0.501635  1
  Cu  Cu9  1  0.176511  0.344938  0.750000  1
  Cu  Cu10  1  0.176513  0.831574  0.750000  1
  Cu  Cu11  1  0.654743  0.827373  0.750000  1
  Au  Au12  1  0.002008  0.001004  0.001099  1
  Au  Au13  1  0.330876  0.665439  0.250000  1
  Au  Au14  1  0.002008  0.001004  0.498901  1
  Au  Au15  1  0.670841  0.335421  0.750000  1
