# generated using pymatgen
data_BeNb5GaGe2
_symmetry_space_group_name_H-M   'P 1'
_cell_length_a   7.84768204
_cell_length_b   7.84768210
_cell_length_c   5.38287000
_cell_angle_alpha   90.00000000
_cell_angle_beta   90.00000000
_cell_angle_gamma   119.94112726
_symmetry_Int_Tables_number   1
_chemical_formula_structural   BeNb5GaGe2
_chemical_formula_sum   'Be2 Nb10 Ga2 Ge4'
_cell_volume   287.26628577
_cell_formula_units_Z   2
loop_
 _symmetry_equiv_pos_site_id
 _symmetry_equiv_pos_as_xyz
  1  'x, y, z'
loop_
 _atom_site_type_symbol
 _atom_site_label
 _atom_site_symmetry_multiplicity
 _atom_site_fract_x
 _atom_site_fract_y
 _atom_site_fract_z
 _atom_site_occupancy
  Be  Be0  1  0.000977  0.000977  0.002052  1
  Be  Be1  1  0.000977  0.000977  0.497948  1
  Nb  Nb2  1  0.666552  0.333975  0.000728  1
  Nb  Nb3  1  0.333975  0.666552  0.000728  1
  Nb  Nb4  1  0.333975  0.666552  0.499272  1
  Nb  Nb5  1  0.666552  0.333975  0.499272  1
  Nb  Nb6  1  0.741792  0.741792  0.750000  1
  Nb  Nb7  1  0.257958  0.999704  0.750000  1
  Nb  Nb8  1  0.999704  0.257958  0.750000  1
  Nb  Nb9  1  0.260101  0.260101  0.250000  1
  Nb  Nb10  1  0.740346  0.999266  0.250000  1
  Nb  Nb11  1  0.999266  0.740346  0.250000  1
  Ga  Ga12  1  0.389747  0.000066  0.250000  1
  Ga  Ga13  1  0.000066  0.389747  0.250000  1
  Ge  Ge14  1  0.390327  0.390327  0.750000  1
  Ge  Ge15  1  0.607625  0.000914  0.750000  1
  Ge  Ge16  1  0.000914  0.607625  0.750000  1
  Ge  Ge17  1  0.609146  0.609146  0.250000  1
