# generated using pymatgen
data_UTi2(Co10B3)2
_symmetry_space_group_name_H-M   'P 1'
_cell_length_a   7.46080632
_cell_length_b   7.46062200
_cell_length_c   7.46063700
_cell_angle_alpha   60.00035054
_cell_angle_beta   60.00213800
_cell_angle_gamma   60.00260626
_symmetry_Int_Tables_number   1
_chemical_formula_structural   UTi2(Co10B3)2
_chemical_formula_sum   'U1 Ti2 Co20 B6'
_cell_volume   293.65570025
_cell_formula_units_Z   1
loop_
 _symmetry_equiv_pos_site_id
 _symmetry_equiv_pos_as_xyz
  1  'x, y, z'
loop_
 _atom_site_type_symbol
 _atom_site_label
 _atom_site_symmetry_multiplicity
 _atom_site_fract_x
 _atom_site_fract_y
 _atom_site_fract_z
 _atom_site_occupancy
  U  U0  1  0.250028  0.250006  0.249994  1
  Ti  Ti1  1  0.999998  0.999997  0.000004  1
  Ti  Ti2  1  0.749992  0.750001  0.750001  1
  Co  Co3  1  0.847184  0.384272  0.384270  1
  Co  Co4  1  0.384263  0.847206  0.384266  1
  Co  Co5  1  0.384261  0.384265  0.847211  1
  Co  Co6  1  0.384266  0.384256  0.384260  1
  Co  Co7  1  0.145708  0.618096  0.618095  1
  Co  Co8  1  0.618098  0.145703  0.618091  1
  Co  Co9  1  0.618102  0.618095  0.145699  1
  Co  Co10  1  0.618101  0.618100  0.618097  1
  Co  Co11  1  0.661400  0.998043  0.998046  1
  Co  Co12  1  0.661400  0.998045  0.342520  1
  Co  Co13  1  0.661395  0.342514  0.998049  1
  Co  Co14  1  0.998038  0.661392  0.342529  1
  Co  Co15  1  0.998036  0.661387  0.998046  1
  Co  Co16  1  0.342521  0.661396  0.998046  1
  Co  Co17  1  0.998046  0.342528  0.661383  1
  Co  Co18  1  0.342524  0.998050  0.661391  1
  Co  Co19  1  0.998040  0.998045  0.661387  1
  Co  Co20  1  0.342520  0.998044  0.998041  1
  Co  Co21  1  0.998043  0.342528  0.998046  1
  Co  Co22  1  0.998039  0.998041  0.342527  1
  B  B23  1  0.728857  0.271136  0.271144  1
  B  B24  1  0.728861  0.271138  0.728862  1
  B  B25  1  0.728866  0.728865  0.271134  1
  B  B26  1  0.271139  0.728856  0.728860  1
  B  B27  1  0.271138  0.728860  0.271143  1
  B  B28  1  0.271140  0.271138  0.728859  1
