# generated using pymatgen
data_Dy3Y3(Si3Ru2)2
_symmetry_space_group_name_H-M   'P 1'
_cell_length_a   5.76487711
_cell_length_b   5.76487737
_cell_length_c   13.79841406
_cell_angle_alpha   89.99023308
_cell_angle_beta   90.00976758
_cell_angle_gamma   137.47578524
_symmetry_Int_Tables_number   1
_chemical_formula_structural   Dy3Y3(Si3Ru2)2
_chemical_formula_sum   'Dy3 Y3 Si6 Ru4'
_cell_volume   309.95086853
_cell_formula_units_Z   1
loop_
 _symmetry_equiv_pos_site_id
 _symmetry_equiv_pos_as_xyz
  1  'x, y, z'
loop_
 _atom_site_type_symbol
 _atom_site_label
 _atom_site_symmetry_multiplicity
 _atom_site_fract_x
 _atom_site_fract_y
 _atom_site_fract_z
 _atom_site_occupancy
  Dy  Dy0  1  0.075979  0.924021  0.614642  1
  Dy  Dy1  1  0.924025  0.075975  0.114381  1
  Dy  Dy2  1  0.075965  0.924035  0.885422  1
  Y  Y3  1  0.924256  0.075744  0.385187  1
  Y  Y4  1  0.642775  0.357225  0.249941  1
  Y  Y5  1  0.357134  0.642866  0.750060  1
  Si  Si6  1  0.618461  0.381539  0.461745  1
  Si  Si7  1  0.381636  0.618364  0.538585  1
  Si  Si8  1  0.618298  0.381702  0.038319  1
  Si  Si9  1  0.381682  0.618318  0.961493  1
  Si  Si10  1  0.329761  0.670239  0.249892  1
  Si  Si11  1  0.670142  0.329858  0.750056  1
  Ru  Ru12  1  0.786376  0.213624  0.919493  1
  Ru  Ru13  1  0.213757  0.786243  0.080490  1
  Ru  Ru14  1  0.786210  0.213790  0.580757  1
  Ru  Ru15  1  0.213541  0.786459  0.419537  1
