# generated using pymatgen
data_Eu3Dy5(Sc3Sn4)4
_symmetry_space_group_name_H-M   'P 1'
_cell_length_a   7.67584522
_cell_length_b   7.99416609
_cell_length_c   14.94824500
_cell_angle_alpha   90.04060935
_cell_angle_beta   89.51216400
_cell_angle_gamma   90.05067201
_symmetry_Int_Tables_number   1
_chemical_formula_structural   Eu3Dy5(Sc3Sn4)4
_chemical_formula_sum   'Eu3 Dy5 Sc12 Sn16'
_cell_volume   917.22010324
_cell_formula_units_Z   1
loop_
 _symmetry_equiv_pos_site_id
 _symmetry_equiv_pos_as_xyz
  1  'x, y, z'
loop_
 _atom_site_type_symbol
 _atom_site_label
 _atom_site_symmetry_multiplicity
 _atom_site_fract_x
 _atom_site_fract_y
 _atom_site_fract_z
 _atom_site_occupancy
  Eu  Eu0  1  0.995437  0.174645  0.093068  1
  Eu  Eu1  1  0.004645  0.825200  0.906829  1
  Eu  Eu2  1  0.505455  0.674670  0.906428  1
  Dy  Dy3  1  0.003615  0.822245  0.592719  1
  Dy  Dy4  1  0.495782  0.322566  0.096727  1
  Dy  Dy5  1  0.996027  0.177729  0.406201  1
  Dy  Dy6  1  0.495731  0.322905  0.406907  1
  Dy  Dy7  1  0.503848  0.677439  0.592647  1
  Sc  Sc8  1  0.165793  0.497061  0.748610  1
  Sc  Sc9  1  0.834519  0.503245  0.251697  1
  Sc  Sc10  1  0.334667  0.996745  0.251158  1
  Sc  Sc11  1  0.665304  0.003390  0.748444  1
  Sc  Sc12  1  0.335999  0.160874  0.626107  1
  Sc  Sc13  1  0.663701  0.838391  0.372806  1
  Sc  Sc14  1  0.163567  0.661264  0.373688  1
  Sc  Sc15  1  0.667229  0.839172  0.128503  1
  Sc  Sc16  1  0.836642  0.338664  0.625977  1
  Sc  Sc17  1  0.333129  0.160721  0.871764  1
  Sc  Sc18  1  0.831586  0.339566  0.871990  1
  Sc  Sc19  1  0.168003  0.660647  0.128030  1
  Sn  Sn20  1  0.027551  0.126615  0.748783  1
  Sn  Sn21  1  0.972625  0.873463  0.251207  1
  Sn  Sn22  1  0.472295  0.624533  0.250142  1
  Sn  Sn23  1  0.527838  0.373706  0.748347  1
  Sn  Sn24  1  0.306782  0.852633  0.745566  1
  Sn  Sn25  1  0.691043  0.149457  0.252892  1
  Sn  Sn26  1  0.194716  0.351788  0.252946  1
  Sn  Sn27  1  0.807096  0.647277  0.745799  1
  Sn  Sn28  1  0.180868  0.455842  0.541772  1
  Sn  Sn29  1  0.818628  0.544033  0.458082  1
  Sn  Sn30  1  0.319552  0.956365  0.457752  1
  Sn  Sn31  1  0.825009  0.541502  0.045053  1
  Sn  Sn32  1  0.680437  0.043672  0.541571  1
  Sn  Sn33  1  0.174516  0.455286  0.957498  1
  Sn  Sn34  1  0.668621  0.046706  0.957499  1
  Sn  Sn35  1  0.331744  0.959983  0.044791  1
