# generated using pymatgen
data_Li3Sn3Pd10
_symmetry_space_group_name_H-M   'P 1'
_cell_length_a   4.15316800
_cell_length_b   5.55394062
_cell_length_c   10.97492786
_cell_angle_alpha   88.86163550
_cell_angle_beta   90.00000000
_cell_angle_gamma   90.00000000
_symmetry_Int_Tables_number   1
_chemical_formula_structural   Li3Sn3Pd10
_chemical_formula_sum   'Li3 Sn3 Pd10'
_cell_volume   253.10264422
_cell_formula_units_Z   1
loop_
 _symmetry_equiv_pos_site_id
 _symmetry_equiv_pos_as_xyz
  1  'x, y, z'
loop_
 _atom_site_type_symbol
 _atom_site_label
 _atom_site_symmetry_multiplicity
 _atom_site_fract_x
 _atom_site_fract_y
 _atom_site_fract_z
 _atom_site_occupancy
  Li  Li0  1  0.000000  0.000000  0.000000  1
  Li  Li1  1  0.500000  0.186089  0.363886  1
  Li  Li2  1  0.500000  0.813911  0.636114  1
  Sn  Sn3  1  0.000000  0.500000  0.500000  1
  Sn  Sn4  1  0.500000  0.694086  0.139209  1
  Sn  Sn5  1  0.500000  0.305914  0.860791  1
  Pd  Pd6  1  0.500000  0.196404  0.112392  1
  Pd  Pd7  1  0.500000  0.803596  0.887608  1
  Pd  Pd8  1  0.500000  0.711949  0.387615  1
  Pd  Pd9  1  0.500000  0.288051  0.612385  1
  Pd  Pd10  1  0.000000  0.000000  0.500000  1
  Pd  Pd11  1  0.000000  0.500000  0.000000  1
  Pd  Pd12  1  0.000000  0.938434  0.243957  1
  Pd  Pd13  1  0.000000  0.061566  0.756043  1
  Pd  Pd14  1  0.000000  0.428656  0.256555  1
  Pd  Pd15  1  0.000000  0.571344  0.743445  1
