# generated using pymatgen
data_Y3Ho(Ga2Ag)4
_symmetry_space_group_name_H-M   'P 1'
_cell_length_a   4.38096100
_cell_length_b   6.96530762
_cell_length_c   10.27768210
_cell_angle_alpha   89.90797653
_cell_angle_beta   90.00000000
_cell_angle_gamma   90.00000000
_symmetry_Int_Tables_number   1
_chemical_formula_structural   Y3Ho(Ga2Ag)4
_chemical_formula_sum   'Y3 Ho1 Ga8 Ag4'
_cell_volume   313.62040341
_cell_formula_units_Z   1
loop_
 _symmetry_equiv_pos_site_id
 _symmetry_equiv_pos_as_xyz
  1  'x, y, z'
loop_
 _atom_site_type_symbol
 _atom_site_label
 _atom_site_symmetry_multiplicity
 _atom_site_fract_x
 _atom_site_fract_y
 _atom_site_fract_z
 _atom_site_occupancy
  Y  Y0  1  0.250000  0.779266  0.823551  1
  Y  Y1  1  0.750000  0.221113  0.175622  1
  Y  Y2  1  0.750000  0.721077  0.324803  1
  Ho  Ho3  1  0.250000  0.278858  0.675362  1
  Ga  Ga4  1  0.250000  0.700104  0.535577  1
  Ga  Ga5  1  0.750000  0.298941  0.464972  1
  Ga  Ga6  1  0.750000  0.797421  0.035752  1
  Ga  Ga7  1  0.250000  0.202195  0.963551  1
  Ga  Ga8  1  0.250000  0.928742  0.154491  1
  Ga  Ga9  1  0.750000  0.072036  0.846140  1
  Ga  Ga10  1  0.750000  0.569809  0.653585  1
  Ga  Ga11  1  0.250000  0.428202  0.345487  1
  Ag  Ag12  1  0.250000  0.545154  0.095476  1
  Ag  Ag13  1  0.750000  0.454980  0.902914  1
  Ag  Ag14  1  0.750000  0.956336  0.597120  1
  Ag  Ag15  1  0.250000  0.045767  0.405599  1
