# generated using pymatgen
data_Hf6Th2Bi9
_symmetry_space_group_name_H-M   'P 1'
_cell_length_a   11.01245300
_cell_length_b   11.01245300
_cell_length_c   7.86544500
_cell_angle_alpha   90.00000000
_cell_angle_beta   90.00000000
_cell_angle_gamma   90.00000000
_symmetry_Int_Tables_number   1
_chemical_formula_structural   Hf6Th2Bi9
_chemical_formula_sum   'Hf12 Th4 Bi18'
_cell_volume   953.87492926
_cell_formula_units_Z   2
loop_
 _symmetry_equiv_pos_site_id
 _symmetry_equiv_pos_as_xyz
  1  'x, y, z'
loop_
 _atom_site_type_symbol
 _atom_site_label
 _atom_site_symmetry_multiplicity
 _atom_site_fract_x
 _atom_site_fract_y
 _atom_site_fract_z
 _atom_site_occupancy
  Hf  Hf0  1  0.000000  0.000000  0.000000  1
  Hf  Hf1  1  0.500000  0.000000  0.000000  1
  Hf  Hf2  1  0.000000  0.500000  0.000000  1
  Hf  Hf3  1  0.500000  0.500000  0.000000  1
  Hf  Hf4  1  0.750000  0.106871  0.156474  1
  Hf  Hf5  1  0.750000  0.393128  0.156474  1
  Hf  Hf6  1  0.106871  0.750000  0.156474  1
  Hf  Hf7  1  0.393128  0.750000  0.156474  1
  Hf  Hf8  1  0.606871  0.249999  0.843527  1
  Hf  Hf9  1  0.893130  0.250000  0.843527  1
  Hf  Hf10  1  0.249999  0.606871  0.843527  1
  Hf  Hf11  1  0.250000  0.893130  0.843527  1
  Th  Th12  1  0.750000  0.750000  0.078614  1
  Th  Th13  1  0.250000  0.250000  0.429297  1
  Th  Th14  1  0.750000  0.750000  0.570704  1
  Th  Th15  1  0.250000  0.250000  0.921387  1
  Bi  Bi16  1  0.250000  0.002499  0.190286  1
  Bi  Bi17  1  0.002499  0.250000  0.190286  1
  Bi  Bi18  1  0.497500  0.249999  0.190286  1
  Bi  Bi19  1  0.249999  0.497500  0.190286  1
  Bi  Bi20  1  0.576027  0.576027  0.343961  1
  Bi  Bi21  1  0.923973  0.576027  0.343961  1
  Bi  Bi22  1  0.923973  0.923973  0.343961  1
  Bi  Bi23  1  0.576027  0.923973  0.343961  1
  Bi  Bi24  1  0.750000  0.250000  0.500000  1
  Bi  Bi25  1  0.250000  0.750000  0.500000  1
  Bi  Bi26  1  0.423973  0.076027  0.656039  1
  Bi  Bi27  1  0.076027  0.076027  0.656039  1
  Bi  Bi28  1  0.076027  0.423973  0.656039  1
  Bi  Bi29  1  0.423973  0.423973  0.656039  1
  Bi  Bi30  1  0.750000  0.502499  0.809715  1
  Bi  Bi31  1  0.502499  0.750000  0.809715  1
  Bi  Bi32  1  0.997501  0.750000  0.809715  1
  Bi  Bi33  1  0.750000  0.997501  0.809715  1
