# generated using pymatgen
data_SmAg(AuO2)4
_symmetry_space_group_name_H-M   'P 1'
_cell_length_a   6.70233512
_cell_length_b   6.70233365
_cell_length_c   6.70233401
_cell_angle_alpha   125.25215917
_cell_angle_beta   125.25215204
_cell_angle_gamma   81.12078494
_symmetry_Int_Tables_number   1
_chemical_formula_structural   SmAg(AuO2)4
_chemical_formula_sum   'Sm1 Ag1 Au4 O8'
_cell_volume   193.42922532
_cell_formula_units_Z   1
loop_
 _symmetry_equiv_pos_site_id
 _symmetry_equiv_pos_as_xyz
  1  'x, y, z'
loop_
 _atom_site_type_symbol
 _atom_site_label
 _atom_site_symmetry_multiplicity
 _atom_site_fract_x
 _atom_site_fract_y
 _atom_site_fract_z
 _atom_site_occupancy
  Sm  Sm0  1  0.000000  0.000000  0.000000  1
  Ag  Ag1  1  0.750000  0.250000  0.500000  1
  Au  Au2  1  0.375521  0.636789  0.760836  1
  Au  Au3  1  0.363211  0.124047  0.738733  1
  Au  Au4  1  0.875953  0.614686  0.239164  1
  Au  Au5  1  0.385314  0.624479  0.261267  1
  O  O6  1  0.056761  0.398315  0.059229  1
  O  O7  1  0.737435  0.280470  0.114382  1
  O  O8  1  0.166088  0.623052  0.885618  1
  O  O9  1  0.339085  0.997532  0.940771  1
  O  O10  1  0.719530  0.833912  0.456964  1
  O  O11  1  0.002468  0.943239  0.341553  1
  O  O12  1  0.376948  0.262565  0.543036  1
  O  O13  1  0.601685  0.660915  0.658447  1
