# generated using pymatgen
data_PrMnCo4P3
_symmetry_space_group_name_H-M   'P 1'
_cell_length_a   3.70243900
_cell_length_b   10.49322000
_cell_length_c   11.93803100
_cell_angle_alpha   90.00000000
_cell_angle_beta   90.00000000
_cell_angle_gamma   90.00000000
_symmetry_Int_Tables_number   1
_chemical_formula_structural   PrMnCo4P3
_chemical_formula_sum   'Pr4 Mn4 Co16 P12'
_cell_volume   463.79855650
_cell_formula_units_Z   4
loop_
 _symmetry_equiv_pos_site_id
 _symmetry_equiv_pos_as_xyz
  1  'x, y, z'
loop_
 _atom_site_type_symbol
 _atom_site_label
 _atom_site_symmetry_multiplicity
 _atom_site_fract_x
 _atom_site_fract_y
 _atom_site_fract_z
 _atom_site_occupancy
  Pr  Pr0  1  0.250000  0.582263  0.703025  1
  Pr  Pr1  1  0.250000  0.917737  0.203025  1
  Pr  Pr2  1  0.750000  0.417737  0.296975  1
  Pr  Pr3  1  0.750000  0.082263  0.796975  1
  Mn  Mn4  1  0.250000  0.706946  0.989013  1
  Mn  Mn5  1  0.250000  0.793054  0.489013  1
  Mn  Mn6  1  0.750000  0.293054  0.010987  1
  Mn  Mn7  1  0.750000  0.206946  0.510987  1
  Co  Co8  1  0.250000  0.405224  0.490387  1
  Co  Co9  1  0.250000  0.094776  0.990387  1
  Co  Co10  1  0.750000  0.594776  0.509613  1
  Co  Co11  1  0.750000  0.905224  0.009613  1
  Co  Co12  1  0.250000  0.221322  0.175294  1
  Co  Co13  1  0.250000  0.278678  0.675294  1
  Co  Co14  1  0.750000  0.778678  0.824706  1
  Co  Co15  1  0.750000  0.721322  0.324706  1
  Co  Co16  1  0.250000  0.882718  0.697866  1
  Co  Co17  1  0.250000  0.617282  0.197866  1
  Co  Co18  1  0.750000  0.117282  0.302134  1
  Co  Co19  1  0.750000  0.382718  0.802134  1
  Co  Co20  1  0.250000  0.467101  0.933241  1
  Co  Co21  1  0.250000  0.032899  0.433241  1
  Co  Co22  1  0.750000  0.532899  0.066759  1
  Co  Co23  1  0.750000  0.967101  0.566759  1
  P  P24  1  0.250000  0.419309  0.110120  1
  P  P25  1  0.250000  0.080691  0.610120  1
  P  P26  1  0.750000  0.580691  0.889880  1
  P  P27  1  0.750000  0.919309  0.389880  1
  P  P28  1  0.250000  0.275593  0.867170  1
  P  P29  1  0.250000  0.224407  0.367170  1
  P  P30  1  0.750000  0.724407  0.132830  1
  P  P31  1  0.750000  0.775593  0.632830  1
  P  P32  1  0.250000  0.604559  0.393497  1
  P  P33  1  0.250000  0.895441  0.893497  1
  P  P34  1  0.750000  0.395441  0.606503  1
  P  P35  1  0.750000  0.104559  0.106503  1
