# generated using pymatgen
data_YbTl2Ir4PbO14
_symmetry_space_group_name_H-M   'P 1'
_cell_length_a   7.32455852
_cell_length_b   7.23007743
_cell_length_c   7.28093523
_cell_angle_alpha   60.23078781
_cell_angle_beta   60.72634094
_cell_angle_gamma   60.42578345
_symmetry_Int_Tables_number   1
_chemical_formula_structural   YbTl2Ir4PbO14
_chemical_formula_sum   'Yb1 Tl2 Ir4 Pb1 O14'
_cell_volume   275.47516898
_cell_formula_units_Z   1
loop_
 _symmetry_equiv_pos_site_id
 _symmetry_equiv_pos_as_xyz
  1  'x, y, z'
loop_
 _atom_site_type_symbol
 _atom_site_label
 _atom_site_symmetry_multiplicity
 _atom_site_fract_x
 _atom_site_fract_y
 _atom_site_fract_z
 _atom_site_occupancy
  Yb  Yb0  1  0.625000  0.125000  0.125000  1
  Tl  Tl1  1  0.125000  0.625000  0.125000  1
  Tl  Tl2  1  0.125000  0.125000  0.125000  1
  Ir  Ir3  1  0.125000  0.625000  0.625000  1
  Ir  Ir4  1  0.625000  0.125000  0.625000  1
  Ir  Ir5  1  0.625000  0.625000  0.125000  1
  Ir  Ir6  1  0.625000  0.625000  0.625000  1
  Pb  Pb7  1  0.125000  0.125000  0.625000  1
  O  O8  1  0.704698  0.699521  0.298759  1
  O  O9  1  0.297853  0.297221  0.699518  1
  O  O10  1  0.709012  0.295539  0.699911  1
  O  O11  1  0.299605  0.699718  0.300959  1
  O  O12  1  0.297853  0.705409  0.699518  1
  O  O13  1  0.704698  0.297022  0.298759  1
  O  O14  1  0.545302  0.550479  0.951241  1
  O  O15  1  0.952147  0.952779  0.550482  1
  O  O16  1  0.540988  0.954461  0.550089  1
  O  O17  1  0.950395  0.550282  0.949041  1
  O  O18  1  0.952147  0.544591  0.550482  1
  O  O19  1  0.545302  0.952978  0.951241  1
  O  O20  1  0.249211  0.254930  0.240927  1
  O  O21  1  0.000789  0.995070  0.009073  1
