# generated using pymatgen
data_Tm8Sc11Si16Ru
_symmetry_space_group_name_H-M   'P 1'
_cell_length_a   6.96207853
_cell_length_b   7.31980566
_cell_length_c   13.82360800
_cell_angle_alpha   90.00000000
_cell_angle_beta   90.00000000
_cell_angle_gamma   90.11493148
_symmetry_Int_Tables_number   1
_chemical_formula_structural   Tm8Sc11Si16Ru
_chemical_formula_sum   'Tm8 Sc11 Si16 Ru1'
_cell_volume   704.46432392
_cell_formula_units_Z   1
loop_
 _symmetry_equiv_pos_site_id
 _symmetry_equiv_pos_as_xyz
  1  'x, y, z'
loop_
 _atom_site_type_symbol
 _atom_site_label
 _atom_site_symmetry_multiplicity
 _atom_site_fract_x
 _atom_site_fract_y
 _atom_site_fract_z
 _atom_site_occupancy
  Tm  Tm0  1  0.011405  0.178951  0.093390  1
  Tm  Tm1  1  0.992856  0.817187  0.901661  1
  Tm  Tm2  1  0.489449  0.673664  0.902771  1
  Tm  Tm3  1  0.992856  0.817187  0.598339  1
  Tm  Tm4  1  0.510234  0.322909  0.094478  1
  Tm  Tm5  1  0.011405  0.178951  0.406610  1
  Tm  Tm6  1  0.510234  0.322909  0.405522  1
  Tm  Tm7  1  0.489449  0.673664  0.597229  1
  Sc  Sc8  1  0.840490  0.495581  0.250000  1
  Sc  Sc9  1  0.341298  0.004128  0.250000  1
  Sc  Sc10  1  0.657597  0.995315  0.750000  1
  Sc  Sc11  1  0.326291  0.177384  0.627150  1
  Sc  Sc12  1  0.671249  0.824522  0.374376  1
  Sc  Sc13  1  0.171980  0.674285  0.376201  1
  Sc  Sc14  1  0.671249  0.824522  0.125624  1
  Sc  Sc15  1  0.827266  0.330784  0.628376  1
  Sc  Sc16  1  0.326291  0.177384  0.872850  1
  Sc  Sc17  1  0.827266  0.330784  0.871624  1
  Sc  Sc18  1  0.171980  0.674285  0.123799  1
  Si  Si19  1  0.029114  0.112445  0.750000  1
  Si  Si20  1  0.972386  0.888190  0.250000  1
  Si  Si21  1  0.468881  0.613051  0.250000  1
  Si  Si22  1  0.516600  0.397552  0.750000  1
  Si  Si23  1  0.284480  0.859856  0.750000  1
  Si  Si24  1  0.715969  0.131610  0.250000  1
  Si  Si25  1  0.214279  0.368819  0.250000  1
  Si  Si26  1  0.795265  0.631380  0.750000  1
  Si  Si27  1  0.158984  0.465980  0.545986  1
  Si  Si28  1  0.841849  0.535257  0.463399  1
  Si  Si29  1  0.343372  0.965066  0.463332  1
  Si  Si30  1  0.841849  0.535257  0.036601  1
  Si  Si31  1  0.660320  0.034235  0.539599  1
  Si  Si32  1  0.158984  0.465980  0.954014  1
  Si  Si33  1  0.660320  0.034235  0.960401  1
  Si  Si34  1  0.343372  0.965066  0.036668  1
  Ru  Ru35  1  0.153127  0.501624  0.750000  1
