# generated using pymatgen
data_Ta3Al(GaOs3)2
_symmetry_space_group_name_H-M   'P 1'
_cell_length_a   4.40574500
_cell_length_b   6.24882000
_cell_length_c   13.26113100
_cell_angle_alpha   90.00003994
_cell_angle_beta   90.00049768
_cell_angle_gamma   90.00000000
_symmetry_Int_Tables_number   1
_chemical_formula_structural   Ta3Al(GaOs3)2
_chemical_formula_sum   'Ta6 Al2 Ga4 Os12'
_cell_volume   365.08831829
_cell_formula_units_Z   2
loop_
 _symmetry_equiv_pos_site_id
 _symmetry_equiv_pos_as_xyz
  1  'x, y, z'
loop_
 _atom_site_type_symbol
 _atom_site_label
 _atom_site_symmetry_multiplicity
 _atom_site_fract_x
 _atom_site_fract_y
 _atom_site_fract_z
 _atom_site_occupancy
  Ta  Ta0  1  0.000002  0.000000  0.000085  1
  Ta  Ta1  1  0.499758  0.499999  0.166600  1
  Ta  Ta2  1  0.999766  0.000000  0.333400  1
  Ta  Ta3  1  0.500000  0.499999  0.499915  1
  Ta  Ta4  1  0.000228  0.000000  0.666540  1
  Ta  Ta5  1  0.500231  0.500000  0.833460  1
  Al  Al6  1  0.000204  0.499999  0.666800  1
  Al  Al7  1  0.500240  0.000000  0.833199  1
  Ga  Ga8  1  0.999995  0.500000  0.999804  1
  Ga  Ga9  1  0.499790  0.000000  0.166564  1
  Ga  Ga10  1  0.999844  0.500000  0.333436  1
  Ga  Ga11  1  0.499994  0.000000  0.500197  1
  Os  Os12  1  0.500001  0.248898  0.998959  1
  Os  Os13  1  0.500000  0.751100  0.998959  1
  Os  Os14  1  0.999784  0.249710  0.166686  1
  Os  Os15  1  0.999783  0.750288  0.166686  1
  Os  Os16  1  0.499805  0.250289  0.333314  1
  Os  Os17  1  0.499805  0.749710  0.333314  1
  Os  Os18  1  0.999997  0.251100  0.501041  1
  Os  Os19  1  0.999997  0.748900  0.501041  1
  Os  Os20  1  0.500185  0.251411  0.667642  1
  Os  Os21  1  0.500184  0.748590  0.667642  1
  Os  Os22  1  0.000202  0.248589  0.832359  1
  Os  Os23  1  0.000201  0.751409  0.832358  1
