# generated using pymatgen
data_Li7Ho3Er5ZnSn8
_symmetry_space_group_name_H-M   'P 1'
_cell_length_a   9.35650402
_cell_length_b   9.35395981
_cell_length_c   7.19886612
_cell_angle_alpha   90.03765876
_cell_angle_beta   90.00710822
_cell_angle_gamma   120.01240648
_symmetry_Int_Tables_number   1
_chemical_formula_structural   Li7Ho3Er5ZnSn8
_chemical_formula_sum   'Li7 Ho3 Er5 Zn1 Sn8'
_cell_volume   545.56861154
_cell_formula_units_Z   1
loop_
 _symmetry_equiv_pos_site_id
 _symmetry_equiv_pos_as_xyz
  1  'x, y, z'
loop_
 _atom_site_type_symbol
 _atom_site_label
 _atom_site_symmetry_multiplicity
 _atom_site_fract_x
 _atom_site_fract_y
 _atom_site_fract_z
 _atom_site_occupancy
  Li  Li0  1  0.165594  0.832928  0.214296  1
  Li  Li1  1  0.667328  0.832740  0.215230  1
  Li  Li2  1  0.667992  0.336013  0.319960  1
  Li  Li3  1  0.833600  0.666370  0.710465  1
  Li  Li4  1  0.333878  0.165755  0.713211  1
  Li  Li5  1  0.831527  0.165940  0.712701  1
  Li  Li6  1  0.333786  0.667275  0.815203  1
  Ho  Ho7  1  0.999112  0.998144  0.001849  1
  Ho  Ho8  1  0.510838  0.021572  0.003048  1
  Ho  Ho9  1  0.511848  0.489873  0.007089  1
  Er  Er10  1  0.978077  0.489855  0.006844  1
  Er  Er11  1  0.001190  0.002390  0.502274  1
  Er  Er12  1  0.489470  0.978687  0.510122  1
  Er  Er13  1  0.021962  0.509268  0.507442  1
  Er  Er14  1  0.487219  0.509333  0.507058  1
  Zn  Zn15  1  0.167213  0.334035  0.197661  1
  Sn  Sn16  1  0.333753  0.669352  0.244603  1
  Sn  Sn17  1  0.834137  0.667351  0.271501  1
  Sn  Sn18  1  0.334366  0.165799  0.274333  1
  Sn  Sn19  1  0.831788  0.165935  0.273738  1
  Sn  Sn20  1  0.667528  0.334351  0.740537  1
  Sn  Sn21  1  0.165457  0.332286  0.768637  1
  Sn  Sn22  1  0.165858  0.832434  0.770213  1
  Sn  Sn23  1  0.666479  0.832313  0.769967  1
