# generated using pymatgen
data_Pr3Y2P12Ru19
_symmetry_space_group_name_H-M   'P 1'
_cell_length_a   12.60182900
_cell_length_b   12.60183007
_cell_length_c   4.01321600
_cell_angle_alpha   90.00000000
_cell_angle_beta   90.00000000
_cell_angle_gamma   119.99999980
_symmetry_Int_Tables_number   1
_chemical_formula_structural   Pr3Y2P12Ru19
_chemical_formula_sum   'Pr3 Y2 P12 Ru19'
_cell_volume   551.93809332
_cell_formula_units_Z   1
loop_
 _symmetry_equiv_pos_site_id
 _symmetry_equiv_pos_as_xyz
  1  'x, y, z'
loop_
 _atom_site_type_symbol
 _atom_site_label
 _atom_site_symmetry_multiplicity
 _atom_site_fract_x
 _atom_site_fract_y
 _atom_site_fract_z
 _atom_site_occupancy
  Pr  Pr0  1  0.183960  0.183960  0.500000  1
  Pr  Pr1  1  0.816040  0.000000  0.500000  1
  Pr  Pr2  1  0.000000  0.816040  0.500000  1
  Y  Y3  1  0.333333  0.666667  0.000000  1
  Y  Y4  1  0.666667  0.333333  0.000000  1
  P  P5  1  0.810985  0.810985  0.000000  1
  P  P6  1  0.189015  0.000000  0.000000  1
  P  P7  1  0.000000  0.189015  0.000000  1
  P  P8  1  0.173975  0.478691  0.500000  1
  P  P9  1  0.521309  0.695284  0.500000  1
  P  P10  1  0.304716  0.826025  0.500000  1
  P  P11  1  0.695284  0.521309  0.500000  1
  P  P12  1  0.826025  0.304716  0.500000  1
  P  P13  1  0.478691  0.173975  0.500000  1
  P  P14  1  0.374307  0.374307  0.000000  1
  P  P15  1  0.625693  0.000000  0.000000  1
  P  P16  1  0.000000  0.625693  0.000000  1
  Ru  Ru17  1  0.553699  0.553699  0.000000  1
  Ru  Ru18  1  0.446301  0.000000  0.000000  1
  Ru  Ru19  1  0.000000  0.446301  0.000000  1
  Ru  Ru20  1  0.712387  0.712387  0.500000  1
  Ru  Ru21  1  0.287613  0.000000  0.500000  1
  Ru  Ru22  1  0.000000  0.287613  0.500000  1
  Ru  Ru23  1  0.185300  0.381401  0.000000  1
  Ru  Ru24  1  0.618599  0.803900  0.000000  1
  Ru  Ru25  1  0.196100  0.814700  0.000000  1
  Ru  Ru26  1  0.803900  0.618599  0.000000  1
  Ru  Ru27  1  0.814700  0.196100  0.000000  1
  Ru  Ru28  1  0.381401  0.185300  0.000000  1
  Ru  Ru29  1  0.367936  0.493520  0.500000  1
  Ru  Ru30  1  0.506480  0.874416  0.500000  1
  Ru  Ru31  1  0.125584  0.632064  0.500000  1
  Ru  Ru32  1  0.874416  0.506480  0.500000  1
  Ru  Ru33  1  0.632064  0.125584  0.500000  1
  Ru  Ru34  1  0.493520  0.367936  0.500000  1
  Ru  Ru35  1  0.000000  0.000000  0.000000  1
