# generated using pymatgen
data_Sr2Hg(ClO)2
_symmetry_space_group_name_H-M   'P 1'
_cell_length_a   6.36598059
_cell_length_b   6.36598060
_cell_length_c   7.74842131
_cell_angle_alpha   120.00737476
_cell_angle_beta   120.00737765
_cell_angle_gamma   36.85050960
_symmetry_Int_Tables_number   1
_chemical_formula_structural   Sr2Hg(ClO)2
_chemical_formula_sum   'Sr2 Hg1 Cl2 O2'
_cell_volume   160.03194298
_cell_formula_units_Z   1
loop_
 _symmetry_equiv_pos_site_id
 _symmetry_equiv_pos_as_xyz
  1  'x, y, z'
loop_
 _atom_site_type_symbol
 _atom_site_label
 _atom_site_symmetry_multiplicity
 _atom_site_fract_x
 _atom_site_fract_y
 _atom_site_fract_z
 _atom_site_occupancy
  Sr  Sr0  1  0.806756  0.806756  0.247860  1
  Sr  Sr1  1  0.193244  0.193244  0.752140  1
  Hg  Hg2  1  0.000000  0.000000  0.000000  1
  Cl  Cl3  1  0.581285  0.581285  0.380910  1
  Cl  Cl4  1  0.418716  0.418716  0.619090  1
  O  O5  1  0.186835  0.186835  0.068699  1
  O  O6  1  0.813164  0.813164  0.931301  1
