# generated using pymatgen
data_SrB2RuRh
_symmetry_space_group_name_H-M   'P 1'
_cell_length_a   7.04498213
_cell_length_b   6.07859891
_cell_length_c   5.67613380
_cell_angle_alpha   73.55422704
_cell_angle_beta   55.84551686
_cell_angle_gamma   50.60024034
_symmetry_Int_Tables_number   1
_chemical_formula_structural   SrB2RuRh
_chemical_formula_sum   'Sr2 B4 Ru2 Rh2'
_cell_volume   154.41219640
_cell_formula_units_Z   2
loop_
 _symmetry_equiv_pos_site_id
 _symmetry_equiv_pos_as_xyz
  1  'x, y, z'
loop_
 _atom_site_type_symbol
 _atom_site_label
 _atom_site_symmetry_multiplicity
 _atom_site_fract_x
 _atom_site_fract_y
 _atom_site_fract_z
 _atom_site_occupancy
  Sr  Sr0  1  0.001002  0.001002  0.998998  1
  Sr  Sr1  1  0.251002  0.251002  0.248998  1
  B  B2  1  0.322571  0.679120  0.332186  1
  B  B3  1  0.583877  0.917814  0.570880  1
  B  B4  1  0.679120  0.322571  0.666123  1
  B  B5  1  0.917814  0.583877  0.927429  1
  Ru  Ru6  1  0.631994  0.631994  0.368006  1
  Ru  Ru7  1  0.881994  0.881994  0.618006  1
  Rh  Rh8  1  0.615314  0.615314  0.884686  1
  Rh  Rh9  1  0.365314  0.365314  0.634686  1
