# generated using pymatgen
data_Ca2YbLu(ReB4)4
_symmetry_space_group_name_H-M   'P 1'
_cell_length_a   3.57594000
_cell_length_b   5.99105070
_cell_length_c   11.58198927
_cell_angle_alpha   90.10557972
_cell_angle_beta   90.00000000
_cell_angle_gamma   90.00000000
_symmetry_Int_Tables_number   1
_chemical_formula_structural   Ca2YbLu(ReB4)4
_chemical_formula_sum   'Ca2 Yb1 Lu1 Re4 B16'
_cell_volume   248.12792217
_cell_formula_units_Z   1
loop_
 _symmetry_equiv_pos_site_id
 _symmetry_equiv_pos_as_xyz
  1  'x, y, z'
loop_
 _atom_site_type_symbol
 _atom_site_label
 _atom_site_symmetry_multiplicity
 _atom_site_fract_x
 _atom_site_fract_y
 _atom_site_fract_z
 _atom_site_occupancy
  Ca  Ca0  1  0.500000  0.627908  0.848600  1
  Ca  Ca1  1  0.500000  0.127632  0.649877  1
  Yb  Yb2  1  0.500000  0.872403  0.350826  1
  Lu  Lu3  1  0.500000  0.371521  0.150697  1
  Re  Re4  1  0.500000  0.370102  0.413841  1
  Re  Re5  1  0.500000  0.631019  0.582261  1
  Re  Re6  1  0.500000  0.132551  0.918274  1
  Re  Re7  1  0.500000  0.869807  0.086350  1
  B  B8  1  0.000000  0.114231  0.049000  1
  B  B9  1  0.000000  0.885879  0.953305  1
  B  B10  1  0.000000  0.385447  0.546278  1
  B  B11  1  0.000000  0.614009  0.451239  1
  B  B12  1  0.000000  0.134663  0.466576  1
  B  B13  1  0.000000  0.864825  0.530811  1
  B  B14  1  0.000000  0.364753  0.969776  1
  B  B15  1  0.000000  0.635056  0.033046  1
  B  B16  1  0.000000  0.024334  0.193332  1
  B  B17  1  0.000000  0.977126  0.808414  1
  B  B18  1  0.000000  0.476796  0.691794  1
  B  B19  1  0.000000  0.523487  0.306206  1
  B  B20  1  0.000000  0.214054  0.314220  1
  B  B21  1  0.000000  0.784492  0.684230  1
  B  B22  1  0.000000  0.283703  0.815607  1
  B  B23  1  0.000000  0.714201  0.185439  1
