# generated using pymatgen
data_CeTi2Zn3Au
_symmetry_space_group_name_H-M   'P 1'
_cell_length_a   5.60047042
_cell_length_b   5.60047039
_cell_length_c   5.62316689
_cell_angle_alpha   101.62797167
_cell_angle_beta   101.62797785
_cell_angle_gamma   126.53074373
_symmetry_Int_Tables_number   1
_chemical_formula_structural   CeTi2Zn3Au
_chemical_formula_sum   'Ce1 Ti2 Zn3 Au1'
_cell_volume   126.70083915
_cell_formula_units_Z   1
loop_
 _symmetry_equiv_pos_site_id
 _symmetry_equiv_pos_as_xyz
  1  'x, y, z'
loop_
 _atom_site_type_symbol
 _atom_site_label
 _atom_site_symmetry_multiplicity
 _atom_site_fract_x
 _atom_site_fract_y
 _atom_site_fract_z
 _atom_site_occupancy
  Ce  Ce0  1  0.997140  0.002860  0.000000  1
  Ti  Ti1  1  0.250278  0.749722  0.500000  1
  Ti  Ti2  1  0.750278  0.249722  0.500000  1
  Zn  Zn3  1  0.306710  0.303318  0.610028  1
  Zn  Zn4  1  0.696682  0.693290  0.389972  1
  Zn  Zn5  1  0.689795  0.310205  0.000000  1
  Au  Au6  1  0.309116  0.690884  0.000000  1
