# generated using pymatgen
data_La3Ho2(Sn5Pd2)2
_symmetry_space_group_name_H-M   'P 1'
_cell_length_a   14.28879700
_cell_length_b   14.28879700
_cell_length_c   4.65521900
_cell_angle_alpha   90.00000000
_cell_angle_beta   90.00000000
_cell_angle_gamma   90.00000000
_symmetry_Int_Tables_number   1
_chemical_formula_structural   La3Ho2(Sn5Pd2)2
_chemical_formula_sum   'La6 Ho4 Sn20 Pd8'
_cell_volume   950.45475841
_cell_formula_units_Z   2
loop_
 _symmetry_equiv_pos_site_id
 _symmetry_equiv_pos_as_xyz
  1  'x, y, z'
loop_
 _atom_site_type_symbol
 _atom_site_label
 _atom_site_symmetry_multiplicity
 _atom_site_fract_x
 _atom_site_fract_y
 _atom_site_fract_z
 _atom_site_occupancy
  La  La0  1  0.500000  0.500000  0.000000  1
  La  La1  1  0.000000  0.000000  0.000000  1
  La  La2  1  0.889704  0.389704  0.500000  1
  La  La3  1  0.110296  0.610296  0.500000  1
  La  La4  1  0.389704  0.110296  0.500000  1
  La  La5  1  0.610296  0.889704  0.500000  1
  Ho  Ho6  1  0.677808  0.177808  0.500000  1
  Ho  Ho7  1  0.322192  0.822192  0.500000  1
  Ho  Ho8  1  0.177808  0.322192  0.500000  1
  Ho  Ho9  1  0.822192  0.677808  0.500000  1
  Sn  Sn10  1  0.569851  0.069851  0.000000  1
  Sn  Sn11  1  0.430149  0.930149  0.000000  1
  Sn  Sn12  1  0.069851  0.430149  0.000000  1
  Sn  Sn13  1  0.930149  0.569851  0.000000  1
  Sn  Sn14  1  0.656087  0.699196  0.000000  1
  Sn  Sn15  1  0.343913  0.300804  0.000000  1
  Sn  Sn16  1  0.156087  0.800804  0.000000  1
  Sn  Sn17  1  0.843913  0.199196  0.000000  1
  Sn  Sn18  1  0.300804  0.656087  0.000000  1
  Sn  Sn19  1  0.699196  0.343913  0.000000  1
  Sn  Sn20  1  0.199196  0.156087  0.000000  1
  Sn  Sn21  1  0.800804  0.843913  0.000000  1
  Sn  Sn22  1  0.662658  0.502896  0.500000  1
  Sn  Sn23  1  0.337342  0.497104  0.500000  1
  Sn  Sn24  1  0.162658  0.997104  0.500000  1
  Sn  Sn25  1  0.837342  0.002896  0.500000  1
  Sn  Sn26  1  0.497104  0.662658  0.500000  1
  Sn  Sn27  1  0.502896  0.337342  0.500000  1
  Sn  Sn28  1  0.002896  0.162658  0.500000  1
  Sn  Sn29  1  0.997104  0.837342  0.500000  1
  Pd  Pd30  1  0.746445  0.530131  0.000000  1
  Pd  Pd31  1  0.253555  0.469869  0.000000  1
  Pd  Pd32  1  0.246445  0.969869  0.000000  1
  Pd  Pd33  1  0.753555  0.030131  0.000000  1
  Pd  Pd34  1  0.469869  0.746445  0.000000  1
  Pd  Pd35  1  0.530131  0.253555  0.000000  1
  Pd  Pd36  1  0.030131  0.246445  0.000000  1
  Pd  Pd37  1  0.969869  0.753555  0.000000  1
