# generated using pymatgen
data_CaTbY2Sb6Rh7
_symmetry_space_group_name_H-M   'P 1'
_cell_length_a   7.63774126
_cell_length_b   7.63774161
_cell_length_c   7.61410247
_cell_angle_alpha   109.37789363
_cell_angle_beta   109.37789207
_cell_angle_gamma   109.53648446
_symmetry_Int_Tables_number   1
_chemical_formula_structural   CaTbY2Sb6Rh7
_chemical_formula_sum   'Ca1 Tb1 Y2 Sb6 Rh7'
_cell_volume   342.43238306
_cell_formula_units_Z   1
loop_
 _symmetry_equiv_pos_site_id
 _symmetry_equiv_pos_as_xyz
  1  'x, y, z'
loop_
 _atom_site_type_symbol
 _atom_site_label
 _atom_site_symmetry_multiplicity
 _atom_site_fract_x
 _atom_site_fract_y
 _atom_site_fract_z
 _atom_site_occupancy
  Ca  Ca0  1  0.000000  0.000000  0.500000  1
  Tb  Tb1  1  0.500000  0.500000  0.500000  1
  Y  Y2  1  0.500000  0.000000  0.000000  1
  Y  Y3  1  0.000000  0.500000  0.000000  1
  Sb  Sb4  1  0.999844  0.316490  0.319818  1
  Sb  Sb5  1  0.683510  0.000156  0.680182  1
  Sb  Sb6  1  0.683394  0.683394  0.003482  1
  Sb  Sb7  1  0.000156  0.683510  0.680182  1
  Sb  Sb8  1  0.316490  0.999844  0.319818  1
  Sb  Sb9  1  0.316606  0.316606  0.996518  1
  Rh  Rh10  1  0.000000  0.000000  0.000000  1
  Rh  Rh11  1  0.492914  0.746730  0.246406  1
  Rh  Rh12  1  0.746730  0.492914  0.246406  1
  Rh  Rh13  1  0.253435  0.746565  0.500000  1
  Rh  Rh14  1  0.253270  0.507086  0.753594  1
  Rh  Rh15  1  0.507086  0.253270  0.753594  1
  Rh  Rh16  1  0.746565  0.253435  0.500000  1
