# generated using pymatgen
data_TbDyHo4(B7W)2
_symmetry_space_group_name_H-M   'P 1'
_cell_length_a   8.15839404
_cell_length_b   8.15839386
_cell_length_c   9.50047700
_cell_angle_alpha   90.00000000
_cell_angle_beta   90.00000000
_cell_angle_gamma   155.54884620
_symmetry_Int_Tables_number   1
_chemical_formula_structural   TbDyHo4(B7W)2
_chemical_formula_sum   'Tb1 Dy1 Ho4 B14 W2'
_cell_volume   261.73895310
_cell_formula_units_Z   1
loop_
 _symmetry_equiv_pos_site_id
 _symmetry_equiv_pos_as_xyz
  1  'x, y, z'
loop_
 _atom_site_type_symbol
 _atom_site_label
 _atom_site_symmetry_multiplicity
 _atom_site_fract_x
 _atom_site_fract_y
 _atom_site_fract_z
 _atom_site_occupancy
  Tb  Tb0  1  0.245761  0.754239  0.250000  1
  Dy  Dy1  1  0.754528  0.245472  0.750000  1
  Ho  Ho2  1  0.892851  0.107149  0.440043  1
  Ho  Ho3  1  0.107191  0.892809  0.560102  1
  Ho  Ho4  1  0.892851  0.107149  0.059957  1
  Ho  Ho5  1  0.107191  0.892809  0.939898  1
  B  B6  1  0.727527  0.272473  0.467623  1
  B  B7  1  0.272431  0.727569  0.532814  1
  B  B8  1  0.727527  0.272473  0.032377  1
  B  B9  1  0.272431  0.727569  0.967186  1
  B  B10  1  0.635004  0.364996  0.146865  1
  B  B11  1  0.364912  0.635088  0.853052  1
  B  B12  1  0.635004  0.364996  0.353135  1
  B  B13  1  0.364912  0.635088  0.646948  1
  B  B14  1  0.519600  0.480400  0.091574  1
  B  B15  1  0.480403  0.519597  0.908465  1
  B  B16  1  0.519600  0.480400  0.408426  1
  B  B17  1  0.480403  0.519597  0.591535  1
  B  B18  1  0.454859  0.545141  0.250000  1
  B  B19  1  0.545155  0.454845  0.750000  1
  W  W20  1  0.053055  0.946945  0.250000  1
  W  W21  1  0.946801  0.053199  0.750000  1
