# generated using pymatgen
data_Gd3WO7
_symmetry_space_group_name_H-M   'P 1'
_cell_length_a   6.55868176
_cell_length_b   6.55868182
_cell_length_c   7.59344600
_cell_angle_alpha   90.00000000
_cell_angle_beta   90.00000000
_cell_angle_gamma   109.24017439
_symmetry_Int_Tables_number   1
_chemical_formula_structural   Gd3WO7
_chemical_formula_sum   'Gd6 W2 O14'
_cell_volume   308.39759201
_cell_formula_units_Z   2
loop_
 _symmetry_equiv_pos_site_id
 _symmetry_equiv_pos_as_xyz
  1  'x, y, z'
loop_
 _atom_site_type_symbol
 _atom_site_label
 _atom_site_symmetry_multiplicity
 _atom_site_fract_x
 _atom_site_fract_y
 _atom_site_fract_z
 _atom_site_occupancy
  Gd  Gd0  1  0.517878  0.517878  0.250000  1
  Gd  Gd1  1  0.482122  0.482122  0.750000  1
  Gd  Gd2  1  0.999439  0.466745  0.498758  1
  Gd  Gd3  1  0.533255  0.000561  0.501242  1
  Gd  Gd4  1  0.000561  0.533255  0.998758  1
  Gd  Gd5  1  0.466745  0.999439  0.001242  1
  W  W6  1  0.000890  0.000890  0.250000  1
  W  W7  1  0.999110  0.999110  0.750000  1
  O  O8  1  0.065831  0.315655  0.219231  1
  O  O9  1  0.684345  0.934169  0.780769  1
  O  O10  1  0.934169  0.684345  0.719231  1
  O  O11  1  0.315655  0.065831  0.280769  1
  O  O12  1  0.678130  0.920484  0.221600  1
  O  O13  1  0.079516  0.321870  0.778400  1
  O  O14  1  0.321870  0.079516  0.721600  1
  O  O15  1  0.920484  0.678130  0.278400  1
  O  O16  1  0.369810  0.630190  0.500000  1
  O  O17  1  0.630190  0.369810  0.000000  1
  O  O18  1  0.363966  0.636034  0.000000  1
  O  O19  1  0.636034  0.363966  0.500000  1
  O  O20  1  0.929305  0.070695  0.500000  1
  O  O21  1  0.070695  0.929305  0.000000  1
