# generated using pymatgen
data_LiCa(BeB14)2
_symmetry_space_group_name_H-M   'P 1'
_cell_length_a   7.17912407
_cell_length_b   7.17912554
_cell_length_c   7.17912517
_cell_angle_alpha   133.05972567
_cell_angle_beta   110.37225067
_cell_angle_gamma   88.23051830
_symmetry_Int_Tables_number   1
_chemical_formula_structural   LiCa(BeB14)2
_chemical_formula_sum   'Li1 Ca1 Be2 B28'
_cell_volume   241.60807318
_cell_formula_units_Z   1
loop_
 _symmetry_equiv_pos_site_id
 _symmetry_equiv_pos_as_xyz
  1  'x, y, z'
loop_
 _atom_site_type_symbol
 _atom_site_label
 _atom_site_symmetry_multiplicity
 _atom_site_fract_x
 _atom_site_fract_y
 _atom_site_fract_z
 _atom_site_occupancy
  Li  Li0  1  0.118632  0.750000  0.368632  1
  Ca  Ca1  1  0.898928  0.250000  0.648928  1
  Be  Be2  1  0.495671  0.500573  0.496243  1
  Be  Be3  1  0.495671  0.999427  0.995098  1
  B  B4  1  0.722828  0.719585  0.323218  1
  B  B5  1  0.706743  0.341549  0.365195  1
  B  B6  1  0.874315  0.666776  0.701927  1
  B  B7  1  0.125150  0.826881  0.790329  1
  B  B8  1  0.535151  0.833224  0.207540  1
  B  B9  1  0.463448  0.673119  0.298268  1
  B  B10  1  0.125150  0.334820  0.298268  1
  B  B11  1  0.874315  0.172389  0.207540  1
  B  B12  1  0.463448  0.165180  0.790329  1
  B  B13  1  0.535151  0.327611  0.701927  1
  B  B14  1  0.103635  0.780415  0.003243  1
  B  B15  1  0.897196  0.896297  0.676027  1
  B  B16  1  0.897196  0.221170  0.000900  1
  B  B17  1  0.279730  0.603703  0.000900  1
  B  B18  1  0.103635  0.100391  0.323218  1
  B  B19  1  0.523645  0.158451  0.365195  1
  B  B20  1  0.279730  0.278830  0.676027  1
  B  B21  1  0.722828  0.399609  0.003243  1
  B  B22  1  0.739526  0.908854  0.830671  1
  B  B23  1  0.258372  0.090311  0.168061  1
  B  B24  1  0.421816  0.591146  0.830671  1
  B  B25  1  0.577750  0.409689  0.168061  1
  B  B26  1  0.866452  0.833222  0.033230  1
  B  B27  1  0.133754  0.166141  0.967614  1
  B  B28  1  0.700008  0.666778  0.033230  1
  B  B29  1  0.301473  0.333859  0.967614  1
  B  B30  1  0.470158  0.840830  0.629326  1
  B  B31  1  0.288497  0.659170  0.629326  1
