# generated using pymatgen
data_NdTh3(AuBr6)4
_symmetry_space_group_name_H-M   'P 1'
_cell_length_a   8.73222001
_cell_length_b   10.71770916
_cell_length_c   14.92310088
_cell_angle_alpha   102.50114846
_cell_angle_beta   96.84085970
_cell_angle_gamma   113.21348161
_symmetry_Int_Tables_number   1
_chemical_formula_structural   NdTh3(AuBr6)4
_chemical_formula_sum   'Nd1 Th3 Au4 Br24'
_cell_volume   1220.18414128
_cell_formula_units_Z   1
loop_
 _symmetry_equiv_pos_site_id
 _symmetry_equiv_pos_as_xyz
  1  'x, y, z'
loop_
 _atom_site_type_symbol
 _atom_site_label
 _atom_site_symmetry_multiplicity
 _atom_site_fract_x
 _atom_site_fract_y
 _atom_site_fract_z
 _atom_site_occupancy
  Nd  Nd0  1  0.022931  0.690226  0.129725  1
  Th  Th1  1  0.567422  0.900461  0.622101  1
  Th  Th2  1  0.429172  0.094819  0.378573  1
  Th  Th3  1  0.981159  0.314862  0.871155  1
  Au  Au4  1  0.294877  0.626237  0.763938  1
  Au  Au5  1  0.704762  0.375047  0.235995  1
  Au  Au6  1  0.501274  0.501148  0.500654  1
  Au  Au7  1  0.997407  0.997769  0.999296  1
  Br  Br8  1  0.611404  0.731150  0.751284  1
  Br  Br9  1  0.394446  0.272051  0.248857  1
  Br  Br10  1  0.289827  0.851341  0.731567  1
  Br  Br11  1  0.710611  0.152559  0.268355  1
  Br  Br12  1  0.976605  0.526040  0.772881  1
  Br  Br13  1  0.017312  0.474987  0.231711  1
  Br  Br14  1  0.299309  0.399604  0.795323  1
  Br  Br15  1  0.692518  0.590553  0.196019  1
  Br  Br16  1  0.699014  0.372831  0.501531  1
  Br  Br17  1  0.300386  0.626968  0.497157  1
  Br  Br18  1  0.754475  0.743136  0.527345  1
  Br  Br19  1  0.248661  0.259404  0.473834  1
  Br  Br20  1  0.790695  0.106362  0.971808  1
  Br  Br21  1  0.205996  0.891662  0.023397  1
  Br  Br22  1  0.778877  0.797575  0.046213  1
  Br  Br23  1  0.219258  0.203657  0.957102  1
  Br  Br24  1  0.628812  0.183159  0.741278  1
  Br  Br25  1  0.377459  0.818895  0.259974  1
  Br  Br26  1  0.934671  0.053737  0.722918  1
  Br  Br27  1  0.069221  0.951934  0.280280  1
  Br  Br28  1  0.708363  0.042017  0.481751  1
  Br  Br29  1  0.291746  0.959775  0.521969  1
  Br  Br30  1  0.774596  0.433418  0.968831  1
  Br  Br31  1  0.226734  0.556614  0.027178  1
