# generated using pymatgen
data_Tb3YOsRu7
_symmetry_space_group_name_H-M   'P 1'
_cell_length_a   5.23271365
_cell_length_b   5.23271164
_cell_length_c   8.98090902
_cell_angle_alpha   90.00592754
_cell_angle_beta   89.99406989
_cell_angle_gamma   118.05824518
_symmetry_Int_Tables_number   1
_chemical_formula_structural   Tb3YOsRu7
_chemical_formula_sum   'Tb3 Y1 Os1 Ru7'
_cell_volume   217.00710819
_cell_formula_units_Z   1
loop_
 _symmetry_equiv_pos_site_id
 _symmetry_equiv_pos_as_xyz
  1  'x, y, z'
loop_
 _atom_site_type_symbol
 _atom_site_label
 _atom_site_symmetry_multiplicity
 _atom_site_fract_x
 _atom_site_fract_y
 _atom_site_fract_z
 _atom_site_occupancy
  Tb  Tb0  1  0.666782  0.333218  0.566597  1
  Tb  Tb1  1  0.666682  0.333318  0.933687  1
  Tb  Tb2  1  0.331184  0.668816  0.066182  1
  Y  Y3  1  0.331183  0.668817  0.433308  1
  Os  Os4  1  0.835283  0.164717  0.250278  1
  Ru  Ru5  1  0.995831  0.004169  0.500492  1
  Ru  Ru6  1  0.995851  0.004149  0.999638  1
  Ru  Ru7  1  0.830003  0.651656  0.250168  1
  Ru  Ru8  1  0.348344  0.169997  0.250168  1
  Ru  Ru9  1  0.169999  0.830001  0.749806  1
  Ru  Ru10  1  0.171424  0.342566  0.749837  1
  Ru  Ru11  1  0.657434  0.828576  0.749837  1
