# generated using pymatgen
data_TbTh(Si2Ni9)2
_symmetry_space_group_name_H-M   'P 1'
_cell_length_a   7.57147842
_cell_length_b   7.57048602
_cell_length_c   7.57147856
_cell_angle_alpha   99.56638819
_cell_angle_beta   99.57711941
_cell_angle_gamma   131.87780662
_symmetry_Int_Tables_number   1
_chemical_formula_structural   TbTh(Si2Ni9)2
_chemical_formula_sum   'Tb1 Th1 Si4 Ni18'
_cell_volume   295.04342452
_cell_formula_units_Z   1
loop_
 _symmetry_equiv_pos_site_id
 _symmetry_equiv_pos_as_xyz
  1  'x, y, z'
loop_
 _atom_site_type_symbol
 _atom_site_label
 _atom_site_symmetry_multiplicity
 _atom_site_fract_x
 _atom_site_fract_y
 _atom_site_fract_z
 _atom_site_occupancy
  Tb  Tb0  1  0.500005  0.500016  0.000011  1
  Th  Th1  1  0.750001  0.250040  0.500039  1
  Si  Si2  1  0.625233  0.873875  0.751324  1
  Si  Si3  1  0.126161  0.374830  0.248669  1
  Si  Si4  1  0.126021  0.877369  0.751348  1
  Si  Si5  1  0.122550  0.873875  0.248641  1
  Ni  Ni6  1  0.250003  0.750000  0.499997  1
  Ni  Ni7  1  0.999998  0.999992  0.999994  1
  Ni  Ni8  1  0.687453  0.014182  0.078877  1
  Ni  Ni9  1  0.687442  0.608546  0.673293  1
  Ni  Ni10  1  0.263776  0.436804  0.578717  1
  Ni  Ni11  1  0.263706  0.685003  0.826949  1
  Ni  Ni12  1  0.935305  0.014182  0.326730  1
  Ni  Ni13  1  0.935253  0.608546  0.921104  1
  Ni  Ni14  1  0.858087  0.436804  0.173028  1
  Ni  Ni15  1  0.858054  0.685003  0.421297  1
  Ni  Ni16  1  0.563215  0.736261  0.421282  1
  Ni  Ni17  1  0.563224  0.141930  0.826955  1
  Ni  Ni18  1  0.985869  0.312584  0.921127  1
  Ni  Ni19  1  0.985801  0.064691  0.673260  1
  Ni  Ni20  1  0.314979  0.736261  0.173046  1
  Ni  Ni21  1  0.314975  0.141930  0.578705  1
  Ni  Ni22  1  0.391457  0.312584  0.326715  1
  Ni  Ni23  1  0.391431  0.064691  0.078889  1
