# generated using pymatgen
data_Ta6VCo6
_symmetry_space_group_name_H-M   'P 1'
_cell_length_a   4.91595228
_cell_length_b   4.91595177
_cell_length_c   9.13286401
_cell_angle_alpha   74.38717589
_cell_angle_beta   74.38718182
_cell_angle_gamma   59.99999319
_symmetry_Int_Tables_number   1
_chemical_formula_structural   Ta6VCo6
_chemical_formula_sum   'Ta6 V1 Co6'
_cell_volume   181.67622241
_cell_formula_units_Z   1
loop_
 _symmetry_equiv_pos_site_id
 _symmetry_equiv_pos_as_xyz
  1  'x, y, z'
loop_
 _atom_site_type_symbol
 _atom_site_label
 _atom_site_symmetry_multiplicity
 _atom_site_fract_x
 _atom_site_fract_y
 _atom_site_fract_z
 _atom_site_occupancy
  Ta  Ta0  1  0.166488  0.166488  0.500537  1
  Ta  Ta1  1  0.833512  0.833512  0.499463  1
  Ta  Ta2  1  0.345167  0.345167  0.964499  1
  Ta  Ta3  1  0.654833  0.654833  0.035501  1
  Ta  Ta4  1  0.449414  0.449414  0.651758  1
  Ta  Ta5  1  0.550586  0.550586  0.348242  1
  V  V6  1  0.000000  0.000000  0.000000  1
  Co  Co7  1  0.588391  0.091637  0.228333  1
  Co  Co8  1  0.091637  0.091637  0.228333  1
  Co  Co9  1  0.091637  0.588391  0.228333  1
  Co  Co10  1  0.411609  0.908363  0.771667  1
  Co  Co11  1  0.908363  0.908363  0.771667  1
  Co  Co12  1  0.908363  0.411609  0.771667  1
