# generated using pymatgen
data_Pb(S8Br)3
_symmetry_space_group_name_H-M   'P 1'
_cell_length_a   15.10999276
_cell_length_b   15.10999283
_cell_length_c   15.10999260
_cell_angle_alpha   118.80886267
_cell_angle_beta   118.80886325
_cell_angle_gamma   118.80885256
_symmetry_Int_Tables_number   1
_chemical_formula_structural   Pb(S8Br)3
_chemical_formula_sum   'Pb1 S24 Br3'
_cell_volume   972.95481752
_cell_formula_units_Z   1
loop_
 _symmetry_equiv_pos_site_id
 _symmetry_equiv_pos_as_xyz
  1  'x, y, z'
loop_
 _atom_site_type_symbol
 _atom_site_label
 _atom_site_symmetry_multiplicity
 _atom_site_fract_x
 _atom_site_fract_y
 _atom_site_fract_z
 _atom_site_occupancy
  Pb  Pb0  1  0.268263  0.268263  0.268263  1
  S  S1  1  0.011068  0.606792  0.606792  1
  S  S2  1  0.606792  0.606792  0.011068  1
  S  S3  1  0.606792  0.011068  0.606792  1
  S  S4  1  0.234572  0.845788  0.717002  1
  S  S5  1  0.845788  0.717002  0.234572  1
  S  S6  1  0.717002  0.234572  0.845788  1
  S  S7  1  0.845788  0.234572  0.717002  1
  S  S8  1  0.234572  0.717002  0.845788  1
  S  S9  1  0.717002  0.845788  0.234572  1
  S  S10  1  0.099891  0.628224  0.446072  1
  S  S11  1  0.628224  0.446072  0.099891  1
  S  S12  1  0.446072  0.099891  0.628224  1
  S  S13  1  0.628224  0.099891  0.446072  1
  S  S14  1  0.099891  0.446072  0.628224  1
  S  S15  1  0.446072  0.628224  0.099891  1
  S  S16  1  0.359331  0.746902  0.617845  1
  S  S17  1  0.746902  0.617845  0.359331  1
  S  S18  1  0.617845  0.359331  0.746902  1
  S  S19  1  0.746902  0.359331  0.617845  1
  S  S20  1  0.359331  0.617845  0.746902  1
  S  S21  1  0.617845  0.746902  0.359331  1
  S  S22  1  0.187146  0.466328  0.466328  1
  S  S23  1  0.466328  0.466328  0.187146  1
  S  S24  1  0.466328  0.187146  0.466328  1
  Br  Br25  1  0.120491  0.961319  0.961319  1
  Br  Br26  1  0.961319  0.961319  0.120491  1
  Br  Br27  1  0.961319  0.120491  0.961319  1
