# generated using pymatgen
data_Be6Tc3Ni2Mo
_symmetry_space_group_name_H-M   'P 1'
_cell_length_a   4.49990800
_cell_length_b   4.49990694
_cell_length_c   7.12393200
_cell_angle_alpha   90.00000000
_cell_angle_beta   90.00000000
_cell_angle_gamma   119.99999306
_symmetry_Int_Tables_number   1
_chemical_formula_structural   Be6Tc3Ni2Mo
_chemical_formula_sum   'Be6 Tc3 Ni2 Mo1'
_cell_volume   124.92736936
_cell_formula_units_Z   1
loop_
 _symmetry_equiv_pos_site_id
 _symmetry_equiv_pos_as_xyz
  1  'x, y, z'
loop_
 _atom_site_type_symbol
 _atom_site_label
 _atom_site_symmetry_multiplicity
 _atom_site_fract_x
 _atom_site_fract_y
 _atom_site_fract_z
 _atom_site_occupancy
  Be  Be0  1  0.829433  0.170567  0.252481  1
  Be  Be1  1  0.829433  0.658865  0.252481  1
  Be  Be2  1  0.341135  0.170567  0.252481  1
  Be  Be3  1  0.169344  0.830656  0.748285  1
  Be  Be4  1  0.169344  0.338690  0.748285  1
  Be  Be5  1  0.661310  0.830656  0.748285  1
  Tc  Tc6  1  0.333333  0.666667  0.429880  1
  Tc  Tc7  1  0.666667  0.333333  0.569765  1
  Tc  Tc8  1  0.666667  0.333333  0.927609  1
  Ni  Ni9  1  0.000000  0.000000  0.500897  1
  Ni  Ni10  1  0.000000  0.000000  0.002063  1
  Mo  Mo11  1  0.333333  0.666667  0.067487  1
