# generated using pymatgen
data_Y6Ti4Al12Os7
_symmetry_space_group_name_H-M   'P 1'
_cell_length_a   8.97936098
_cell_length_b   8.97936133
_cell_length_c   8.97936300
_cell_angle_alpha   60.00000490
_cell_angle_beta   60.00000361
_cell_angle_gamma   59.99999945
_symmetry_Int_Tables_number   1
_chemical_formula_structural   Y6Ti4Al12Os7
_chemical_formula_sum   'Y6 Ti4 Al12 Os7'
_cell_volume   511.94279590
_cell_formula_units_Z   1
loop_
 _symmetry_equiv_pos_site_id
 _symmetry_equiv_pos_as_xyz
  1  'x, y, z'
loop_
 _atom_site_type_symbol
 _atom_site_label
 _atom_site_symmetry_multiplicity
 _atom_site_fract_x
 _atom_site_fract_y
 _atom_site_fract_z
 _atom_site_occupancy
  Y  Y0  1  0.708034  0.708034  0.291966  1
  Y  Y1  1  0.291966  0.708034  0.291966  1
  Y  Y2  1  0.708034  0.291966  0.291966  1
  Y  Y3  1  0.291966  0.291966  0.708034  1
  Y  Y4  1  0.708034  0.291966  0.708034  1
  Y  Y5  1  0.291966  0.708034  0.708034  1
  Ti  Ti6  1  0.879981  0.879981  0.360056  1
  Ti  Ti7  1  0.879981  0.360056  0.879981  1
  Ti  Ti8  1  0.360056  0.879981  0.879981  1
  Ti  Ti9  1  0.879981  0.879981  0.879981  1
  Al  Al10  1  0.119097  0.119097  0.642710  1
  Al  Al11  1  0.119097  0.642710  0.119097  1
  Al  Al12  1  0.642710  0.119097  0.119097  1
  Al  Al13  1  0.119097  0.119097  0.119097  1
  Al  Al14  1  0.669558  0.669558  0.991324  1
  Al  Al15  1  0.669558  0.991324  0.669558  1
  Al  Al16  1  0.991324  0.669558  0.669558  1
  Al  Al17  1  0.669558  0.669558  0.669558  1
  Al  Al18  1  0.330925  0.330925  0.007225  1
  Al  Al19  1  0.330925  0.007225  0.330925  1
  Al  Al20  1  0.007225  0.330925  0.330925  1
  Al  Al21  1  0.330925  0.330925  0.330925  1
  Os  Os22  1  0.000000  0.000000  0.000000  1
  Os  Os23  1  0.998439  0.998439  0.501561  1
  Os  Os24  1  0.501561  0.998439  0.501561  1
  Os  Os25  1  0.998439  0.501561  0.501561  1
  Os  Os26  1  0.501561  0.501561  0.998439  1
  Os  Os27  1  0.998439  0.501561  0.998439  1
  Os  Os28  1  0.501561  0.998439  0.998439  1
