# generated using pymatgen
data_DyEr5Ni2
_symmetry_space_group_name_H-M   'P 1'
_cell_length_a   6.30226001
_cell_length_b   6.77369712
_cell_length_c   9.46802700
_cell_angle_alpha   90.00000000
_cell_angle_beta   90.00000000
_cell_angle_gamma   90.00761837
_symmetry_Int_Tables_number   1
_chemical_formula_structural   DyEr5Ni2
_chemical_formula_sum   'Dy2 Er10 Ni4'
_cell_volume   404.18628642
_cell_formula_units_Z   2
loop_
 _symmetry_equiv_pos_site_id
 _symmetry_equiv_pos_as_xyz
  1  'x, y, z'
loop_
 _atom_site_type_symbol
 _atom_site_label
 _atom_site_symmetry_multiplicity
 _atom_site_fract_x
 _atom_site_fract_y
 _atom_site_fract_z
 _atom_site_occupancy
  Dy  Dy0  1  0.636914  0.030325  0.250000  1
  Dy  Dy1  1  0.363086  0.969675  0.750000  1
  Er  Er2  1  0.136859  0.467185  0.750000  1
  Er  Er3  1  0.863141  0.532815  0.250000  1
  Er  Er4  1  0.178998  0.179108  0.066267  1
  Er  Er5  1  0.821002  0.820892  0.933733  1
  Er  Er6  1  0.681099  0.322693  0.934416  1
  Er  Er7  1  0.821002  0.820892  0.566267  1
  Er  Er8  1  0.318901  0.677307  0.065584  1
  Er  Er9  1  0.178998  0.179108  0.433733  1
  Er  Er10  1  0.318901  0.677307  0.434416  1
  Er  Er11  1  0.681099  0.322693  0.565584  1
  Ni  Ni12  1  0.449819  0.393113  0.250000  1
  Ni  Ni13  1  0.550181  0.606887  0.750000  1
  Ni  Ni14  1  0.945370  0.109348  0.750000  1
  Ni  Ni15  1  0.054630  0.890652  0.250000  1
