# generated using pymatgen
data_KTm2Ag3Te5
_symmetry_space_group_name_H-M   'P 1'
_cell_length_a   4.56219300
_cell_length_b   8.34820568
_cell_length_c   18.12527000
_cell_angle_alpha   90.00000000
_cell_angle_beta   90.00000000
_cell_angle_gamma   74.14261261
_symmetry_Int_Tables_number   1
_chemical_formula_structural   KTm2Ag3Te5
_chemical_formula_sum   'K2 Tm4 Ag6 Te10'
_cell_volume   664.05098921
_cell_formula_units_Z   2
loop_
 _symmetry_equiv_pos_site_id
 _symmetry_equiv_pos_as_xyz
  1  'x, y, z'
loop_
 _atom_site_type_symbol
 _atom_site_label
 _atom_site_symmetry_multiplicity
 _atom_site_fract_x
 _atom_site_fract_y
 _atom_site_fract_z
 _atom_site_occupancy
  K  K0  1  0.559140  0.881719  0.250000  1
  K  K1  1  0.440860  0.118280  0.750000  1
  Tm  Tm2  1  0.310350  0.379299  0.094323  1
  Tm  Tm3  1  0.310350  0.379299  0.405677  1
  Tm  Tm4  1  0.689649  0.620702  0.594323  1
  Tm  Tm5  1  0.689649  0.620702  0.905677  1
  Ag  Ag6  1  0.086019  0.827960  0.034632  1
  Ag  Ag7  1  0.836528  0.326943  0.250000  1
  Ag  Ag8  1  0.086019  0.827960  0.465368  1
  Ag  Ag9  1  0.913981  0.172039  0.534632  1
  Ag  Ag10  1  0.163473  0.673057  0.750000  1
  Ag  Ag11  1  0.913981  0.172039  0.965368  1
  Te  Te12  1  0.678867  0.642267  0.074052  1
  Te  Te13  1  0.937792  0.124418  0.121381  1
  Te  Te14  1  0.237048  0.525903  0.250000  1
  Te  Te15  1  0.937792  0.124418  0.378619  1
  Te  Te16  1  0.678867  0.642267  0.425948  1
  Te  Te17  1  0.321133  0.357734  0.574052  1
  Te  Te18  1  0.062207  0.875583  0.621382  1
  Te  Te19  1  0.762952  0.474096  0.750000  1
  Te  Te20  1  0.062207  0.875583  0.878619  1
  Te  Te21  1  0.321133  0.357734  0.925948  1
