# generated using pymatgen
data_RbLa2PrF10
_symmetry_space_group_name_H-M   'P 1'
_cell_length_a   8.74053015
_cell_length_b   8.74053147
_cell_length_c   8.79455900
_cell_angle_alpha   59.79531014
_cell_angle_beta   59.79530509
_cell_angle_gamma   60.40937638
_symmetry_Int_Tables_number   1
_chemical_formula_structural   RbLa2PrF10
_chemical_formula_sum   'Rb2 La4 Pr2 F20'
_cell_volume   475.05212081
_cell_formula_units_Z   2
loop_
 _symmetry_equiv_pos_site_id
 _symmetry_equiv_pos_as_xyz
  1  'x, y, z'
loop_
 _atom_site_type_symbol
 _atom_site_label
 _atom_site_symmetry_multiplicity
 _atom_site_fract_x
 _atom_site_fract_y
 _atom_site_fract_z
 _atom_site_occupancy
  Rb  Rb0  1  0.250000  0.250000  0.250000  1
  Rb  Rb1  1  0.750000  0.750000  0.750000  1
  La  La2  1  0.759179  0.240821  0.240821  1
  La  La3  1  0.240821  0.759179  0.759179  1
  La  La4  1  0.240821  0.759179  0.240821  1
  La  La5  1  0.759179  0.240821  0.759179  1
  Pr  Pr6  1  0.238915  0.238915  0.761085  1
  Pr  Pr7  1  0.761085  0.761085  0.238915  1
  F  F8  1  0.828060  0.501942  0.498058  1
  F  F9  1  0.171940  0.498058  0.501942  1
  F  F10  1  0.501942  0.828060  0.171940  1
  F  F11  1  0.498058  0.171940  0.828060  1
  F  F12  1  0.501942  0.828060  0.498058  1
  F  F13  1  0.171940  0.498058  0.828060  1
  F  F14  1  0.498058  0.171940  0.501942  1
  F  F15  1  0.828060  0.501942  0.171940  1
  F  F16  1  0.500000  0.500000  0.833033  1
  F  F17  1  0.500000  0.500000  0.166967  1
  F  F18  1  0.166967  0.833033  0.500000  1
  F  F19  1  0.833033  0.166967  0.500000  1
  F  F20  1  0.112805  0.112805  0.108041  1
  F  F21  1  0.887195  0.887195  0.891959  1
  F  F22  1  0.112805  0.112805  0.666349  1
  F  F23  1  0.108041  0.666349  0.112805  1
  F  F24  1  0.887195  0.887195  0.333651  1
  F  F25  1  0.891959  0.333651  0.887195  1
  F  F26  1  0.666349  0.108041  0.112805  1
  F  F27  1  0.333651  0.891959  0.887195  1
