# generated using pymatgen
data_Y4VCo2ReB16
_symmetry_space_group_name_H-M   'P 1'
_cell_length_a   3.48297000
_cell_length_b   5.94899602
_cell_length_c   11.51064784
_cell_angle_alpha   90.13214417
_cell_angle_beta   90.00000000
_cell_angle_gamma   90.00000000
_symmetry_Int_Tables_number   1
_chemical_formula_structural   Y4VCo2ReB16
_chemical_formula_sum   'Y4 V1 Co2 Re1 B16'
_cell_volume   238.50199932
_cell_formula_units_Z   1
loop_
 _symmetry_equiv_pos_site_id
 _symmetry_equiv_pos_as_xyz
  1  'x, y, z'
loop_
 _atom_site_type_symbol
 _atom_site_label
 _atom_site_symmetry_multiplicity
 _atom_site_fract_x
 _atom_site_fract_y
 _atom_site_fract_z
 _atom_site_occupancy
  Y  Y0  1  0.500000  0.372900  0.146089  1
  Y  Y1  1  0.500000  0.627137  0.852394  1
  Y  Y2  1  0.500000  0.126020  0.653706  1
  Y  Y3  1  0.500000  0.873791  0.346959  1
  V  V4  1  0.500000  0.626990  0.584237  1
  Co  Co5  1  0.500000  0.134918  0.912519  1
  Co  Co6  1  0.500000  0.863896  0.089163  1
  Re  Re7  1  0.500000  0.373607  0.414992  1
  B  B8  1  0.000000  0.111527  0.045450  1
  B  B9  1  0.000000  0.888287  0.954152  1
  B  B10  1  0.000000  0.385784  0.547205  1
  B  B11  1  0.000000  0.614636  0.453326  1
  B  B12  1  0.000000  0.134236  0.467701  1
  B  B13  1  0.000000  0.865529  0.533072  1
  B  B14  1  0.000000  0.360692  0.967645  1
  B  B15  1  0.000000  0.639417  0.031654  1
  B  B16  1  0.000000  0.022005  0.188612  1
  B  B17  1  0.000000  0.977974  0.810945  1
  B  B18  1  0.000000  0.474506  0.694179  1
  B  B19  1  0.000000  0.526281  0.305796  1
  B  B20  1  0.000000  0.213297  0.312436  1
  B  B21  1  0.000000  0.786341  0.687979  1
  B  B22  1  0.000000  0.281220  0.817865  1
  B  B23  1  0.000000  0.719010  0.181924  1
