# generated using pymatgen
data_Ca8Si6PdPt7
_symmetry_space_group_name_H-M   'P 1'
_cell_length_a   10.75206640
_cell_length_b   10.78659593
_cell_length_c   7.80571257
_cell_angle_alpha   71.51899938
_cell_angle_beta   71.32519643
_cell_angle_gamma   31.40294616
_symmetry_Int_Tables_number   1
_chemical_formula_structural   Ca8Si6PdPt7
_chemical_formula_sum   'Ca8 Si6 Pd1 Pt7'
_cell_volume   445.11686767
_cell_formula_units_Z   1
loop_
 _symmetry_equiv_pos_site_id
 _symmetry_equiv_pos_as_xyz
  1  'x, y, z'
loop_
 _atom_site_type_symbol
 _atom_site_label
 _atom_site_symmetry_multiplicity
 _atom_site_fract_x
 _atom_site_fract_y
 _atom_site_fract_z
 _atom_site_occupancy
  Ca  Ca0  1  0.936068  0.200823  0.326053  1
  Ca  Ca1  1  0.064927  0.798915  0.673159  1
  Ca  Ca2  1  0.797131  0.066077  0.174012  1
  Ca  Ca3  1  0.448882  0.210035  0.910535  1
  Ca  Ca4  1  0.791206  0.549362  0.591362  1
  Ca  Ca5  1  0.209853  0.449394  0.409641  1
  Ca  Ca6  1  0.200587  0.935632  0.826627  1
  Ca  Ca7  1  0.548486  0.792452  0.087058  1
  Si  Si8  1  0.309131  0.036819  0.427049  1
  Si  Si9  1  0.407753  0.592295  0.248892  1
  Si  Si10  1  0.038119  0.309691  0.925136  1
  Si  Si11  1  0.691173  0.959333  0.575437  1
  Si  Si12  1  0.959990  0.695192  0.071985  1
  Si  Si13  1  0.594030  0.406085  0.751248  1
  Pd  Pd14  1  0.081089  0.358250  0.179500  1
  Pt  Pt15  1  0.582548  0.292110  0.531539  1
  Pt  Pt16  1  0.708496  0.416482  0.969940  1
  Pt  Pt17  1  0.290341  0.585022  0.030737  1
  Pt  Pt18  1  0.420410  0.704421  0.468450  1
  Pt  Pt19  1  0.645810  0.915661  0.321090  1
  Pt  Pt20  1  0.919775  0.643237  0.822366  1
  Pt  Pt21  1  0.354196  0.082711  0.678184  1
