# generated using pymatgen
data_LiHo9In3Ni
_symmetry_space_group_name_H-M   'P 1'
_cell_length_a   9.41457000
_cell_length_b   9.41456969
_cell_length_c   9.56755300
_cell_angle_alpha   90.00000000
_cell_angle_beta   90.00000000
_cell_angle_gamma   119.99999408
_symmetry_Int_Tables_number   1
_chemical_formula_structural   LiHo9In3Ni
_chemical_formula_sum   'Li2 Ho18 In6 Ni2'
_cell_volume   734.39971151
_cell_formula_units_Z   2
loop_
 _symmetry_equiv_pos_site_id
 _symmetry_equiv_pos_as_xyz
  1  'x, y, z'
loop_
 _atom_site_type_symbol
 _atom_site_label
 _atom_site_symmetry_multiplicity
 _atom_site_fract_x
 _atom_site_fract_y
 _atom_site_fract_z
 _atom_site_occupancy
  Li  Li0  1  0.000000  0.000000  0.500000  1
  Li  Li1  1  0.000000  0.000000  0.000000  1
  Ho  Ho2  1  0.543072  0.456928  0.250000  1
  Ho  Ho3  1  0.543072  0.086143  0.250000  1
  Ho  Ho4  1  0.913857  0.456928  0.250000  1
  Ho  Ho5  1  0.456928  0.543072  0.750000  1
  Ho  Ho6  1  0.456928  0.913857  0.750000  1
  Ho  Ho7  1  0.086143  0.543072  0.750000  1
  Ho  Ho8  1  0.207709  0.792291  0.436681  1
  Ho  Ho9  1  0.207709  0.415418  0.436681  1
  Ho  Ho10  1  0.584582  0.792291  0.436681  1
  Ho  Ho11  1  0.792291  0.207709  0.563319  1
  Ho  Ho12  1  0.792291  0.584582  0.563319  1
  Ho  Ho13  1  0.415418  0.207709  0.563319  1
  Ho  Ho14  1  0.792291  0.207709  0.936681  1
  Ho  Ho15  1  0.792291  0.584582  0.936681  1
  Ho  Ho16  1  0.415418  0.207709  0.936681  1
  Ho  Ho17  1  0.207709  0.792291  0.063319  1
  Ho  Ho18  1  0.207709  0.415418  0.063319  1
  Ho  Ho19  1  0.584582  0.792291  0.063319  1
  In  In20  1  0.890731  0.109269  0.250000  1
  In  In21  1  0.890731  0.781459  0.250000  1
  In  In22  1  0.218541  0.109269  0.250000  1
  In  In23  1  0.109269  0.890731  0.750000  1
  In  In24  1  0.109269  0.218541  0.750000  1
  In  In25  1  0.781459  0.890731  0.750000  1
  Ni  Ni26  1  0.333333  0.666667  0.250000  1
  Ni  Ni27  1  0.666667  0.333333  0.750000  1
