# generated using pymatgen
data_Tb4Er8Tc3Rh
_symmetry_space_group_name_H-M   'P 1'
_cell_length_a   6.29313600
_cell_length_b   7.37518500
_cell_length_c   9.08865100
_cell_angle_alpha   90.00000000
_cell_angle_beta   90.00000000
_cell_angle_gamma   89.88254374
_symmetry_Int_Tables_number   1
_chemical_formula_structural   Tb4Er8Tc3Rh
_chemical_formula_sum   'Tb4 Er8 Tc3 Rh1'
_cell_volume   421.83105635
_cell_formula_units_Z   1
loop_
 _symmetry_equiv_pos_site_id
 _symmetry_equiv_pos_as_xyz
  1  'x, y, z'
loop_
 _atom_site_type_symbol
 _atom_site_label
 _atom_site_symmetry_multiplicity
 _atom_site_fract_x
 _atom_site_fract_y
 _atom_site_fract_z
 _atom_site_occupancy
  Tb  Tb0  1  0.876172  0.961194  0.750000  1
  Tb  Tb1  1  0.370286  0.542618  0.250000  1
  Tb  Tb2  1  0.625649  0.459241  0.750000  1
  Tb  Tb3  1  0.126852  0.040811  0.250000  1
  Er  Er4  1  0.662325  0.173796  0.061479  1
  Er  Er5  1  0.167972  0.323252  0.934302  1
  Er  Er6  1  0.836871  0.678462  0.438316  1
  Er  Er7  1  0.337230  0.824061  0.563228  1
  Er  Er8  1  0.337230  0.824061  0.936772  1
  Er  Er9  1  0.836871  0.678462  0.061684  1
  Er  Er10  1  0.167972  0.323252  0.565698  1
  Er  Er11  1  0.662325  0.173796  0.438521  1
  Tc  Tc12  1  0.038547  0.612923  0.750000  1
  Tc  Tc13  1  0.540384  0.883963  0.250000  1
  Tc  Tc14  1  0.459537  0.115387  0.750000  1
  Rh  Rh15  1  0.953779  0.384719  0.250000  1
