# generated using pymatgen
data_CsPtF5
_symmetry_space_group_name_H-M   'P 1'
_cell_length_a   5.70992400
_cell_length_b   8.30382400
_cell_length_c   11.77735300
_cell_angle_alpha   90.00000000
_cell_angle_beta   90.00000000
_cell_angle_gamma   90.00000000
_symmetry_Int_Tables_number   1
_chemical_formula_structural   CsPtF5
_chemical_formula_sum   'Cs4 Pt4 F20'
_cell_volume   558.41381713
_cell_formula_units_Z   4
loop_
 _symmetry_equiv_pos_site_id
 _symmetry_equiv_pos_as_xyz
  1  'x, y, z'
loop_
 _atom_site_type_symbol
 _atom_site_label
 _atom_site_symmetry_multiplicity
 _atom_site_fract_x
 _atom_site_fract_y
 _atom_site_fract_z
 _atom_site_occupancy
  Cs  Cs0  1  0.500000  0.883609  0.966976  1
  Cs  Cs1  1  0.500000  0.116391  0.466976  1
  Cs  Cs2  1  0.000000  0.337930  0.113997  1
  Cs  Cs3  1  0.000000  0.662070  0.613997  1
  Pt  Pt4  1  0.000000  0.861368  0.244393  1
  Pt  Pt5  1  0.500000  0.580812  0.335738  1
  Pt  Pt6  1  0.500000  0.419188  0.835738  1
  Pt  Pt7  1  0.000000  0.138632  0.744393  1
  F  F8  1  0.261067  0.531646  0.920735  1
  F  F9  1  0.750129  0.684667  0.234362  1
  F  F10  1  0.239134  0.026532  0.239301  1
  F  F11  1  0.750129  0.315333  0.734362  1
  F  F12  1  0.500000  0.246975  0.950344  1
  F  F13  1  0.760866  0.973468  0.739301  1
  F  F14  1  0.500000  0.595195  0.723149  1
  F  F15  1  0.239134  0.973468  0.739301  1
  F  F16  1  0.000000  0.851483  0.077392  1
  F  F17  1  0.760866  0.026532  0.239301  1
  F  F18  1  0.500000  0.404805  0.223149  1
  F  F19  1  0.738933  0.468354  0.420735  1
  F  F20  1  0.249871  0.684667  0.234362  1
  F  F21  1  0.000000  0.872087  0.410724  1
  F  F22  1  0.000000  0.148517  0.577392  1
  F  F23  1  0.249871  0.315333  0.734362  1
  F  F24  1  0.000000  0.127913  0.910724  1
  F  F25  1  0.261067  0.468354  0.420735  1
  F  F26  1  0.500000  0.753025  0.450344  1
  F  F27  1  0.738933  0.531646  0.920735  1
