# generated using pymatgen
data_Hf3Al2GaCu2Ni
_symmetry_space_group_name_H-M   'P 1'
_cell_length_a   6.48597743
_cell_length_b   6.48597835
_cell_length_c   3.93533000
_cell_angle_alpha   90.00000000
_cell_angle_beta   90.00000000
_cell_angle_gamma   119.95836899
_symmetry_Int_Tables_number   1
_chemical_formula_structural   Hf3Al2GaCu2Ni
_chemical_formula_sum   'Hf3 Al2 Ga1 Cu2 Ni1'
_cell_volume   143.43156932
_cell_formula_units_Z   1
loop_
 _symmetry_equiv_pos_site_id
 _symmetry_equiv_pos_as_xyz
  1  'x, y, z'
loop_
 _atom_site_type_symbol
 _atom_site_label
 _atom_site_symmetry_multiplicity
 _atom_site_fract_x
 _atom_site_fract_y
 _atom_site_fract_z
 _atom_site_occupancy
  Hf  Hf0  1  0.412993  0.412993  0.500000  1
  Hf  Hf1  1  0.588406  0.999653  0.500000  1
  Hf  Hf2  1  0.999653  0.588406  0.500000  1
  Al  Al3  1  0.243444  0.000514  0.000000  1
  Al  Al4  1  0.000514  0.243444  0.000000  1
  Ga  Ga5  1  0.753480  0.753480  0.000000  1
  Cu  Cu6  1  0.666814  0.331268  0.000000  1
  Cu  Cu7  1  0.331268  0.666814  0.000000  1
  Ni  Ni8  1  0.003427  0.003427  0.500000  1
