# generated using pymatgen
data_TaNb2Zn3(Co5B2)2
_symmetry_space_group_name_H-M   'P 1'
_cell_length_a   8.61856368
_cell_length_b   8.61856432
_cell_length_c   2.94305600
_cell_angle_alpha   90.00000000
_cell_angle_beta   90.00000000
_cell_angle_gamma   91.08846550
_symmetry_Int_Tables_number   1
_chemical_formula_structural   TaNb2Zn3(Co5B2)2
_chemical_formula_sum   'Ta1 Nb2 Zn3 Co10 B4'
_cell_volume   218.56970955
_cell_formula_units_Z   1
loop_
 _symmetry_equiv_pos_site_id
 _symmetry_equiv_pos_as_xyz
  1  'x, y, z'
loop_
 _atom_site_type_symbol
 _atom_site_label
 _atom_site_symmetry_multiplicity
 _atom_site_fract_x
 _atom_site_fract_y
 _atom_site_fract_z
 _atom_site_occupancy
  Ta  Ta0  1  0.326440  0.826440  0.000000  1
  Nb  Nb1  1  0.175802  0.320531  0.000000  1
  Nb  Nb2  1  0.820531  0.675802  0.000000  1
  Zn  Zn3  1  0.679086  0.179086  0.000000  1
  Zn  Zn4  1  0.002189  0.998450  0.000000  1
  Zn  Zn5  1  0.498450  0.502189  0.000000  1
  Co  Co6  1  0.504617  0.004617  0.500000  1
  Co  Co7  1  0.998862  0.498862  0.500000  1
  Co  Co8  1  0.223920  0.064906  0.500000  1
  Co  Co9  1  0.779479  0.929233  0.500000  1
  Co  Co10  1  0.070951  0.777808  0.500000  1
  Co  Co11  1  0.720102  0.431111  0.500000  1
  Co  Co12  1  0.931111  0.220102  0.500000  1
  Co  Co13  1  0.277808  0.570951  0.500000  1
  Co  Co14  1  0.564906  0.723920  0.500000  1
  Co  Co15  1  0.429233  0.279479  0.500000  1
  B  B16  1  0.120945  0.620945  0.000000  1
  B  B17  1  0.875550  0.375550  0.000000  1
  B  B18  1  0.621012  0.879009  0.000000  1
  B  B19  1  0.379009  0.121012  0.000000  1
