# generated using pymatgen
data_Nd2Al2(SiIr)3
_symmetry_space_group_name_H-M   'P 1'
_cell_length_a   8.44787716
_cell_length_b   8.44787686
_cell_length_c   8.44788832
_cell_angle_alpha   139.86140620
_cell_angle_beta   106.41852044
_cell_angle_gamma   87.29806434
_symmetry_Int_Tables_number   1
_chemical_formula_structural   Nd2Al2(SiIr)3
_chemical_formula_sum   'Nd4 Al4 Si6 Ir6'
_cell_volume   358.61871222
_cell_formula_units_Z   2
loop_
 _symmetry_equiv_pos_site_id
 _symmetry_equiv_pos_as_xyz
  1  'x, y, z'
loop_
 _atom_site_type_symbol
 _atom_site_label
 _atom_site_symmetry_multiplicity
 _atom_site_fract_x
 _atom_site_fract_y
 _atom_site_fract_z
 _atom_site_occupancy
  Nd  Nd0  1  0.638032  0.869401  0.768630  1
  Nd  Nd1  1  0.361968  0.130599  0.231370  1
  Nd  Nd2  1  0.100772  0.369403  0.731370  1
  Nd  Nd3  1  0.899228  0.630597  0.268630  1
  Al  Al4  1  0.276225  0.026225  0.750000  1
  Al  Al5  1  0.723775  0.973775  0.250000  1
  Al  Al6  1  0.723776  0.473776  0.750000  1
  Al  Al7  1  0.276224  0.526224  0.250000  1
  Si  Si8  1  0.447549  0.602152  0.845398  1
  Si  Si9  1  0.552451  0.397848  0.154602  1
  Si  Si10  1  0.756752  0.102151  0.654602  1
  Si  Si11  1  0.243248  0.897849  0.345398  1
  Si  Si12  1  0.999999  0.749999  0.750000  1
  Si  Si13  1  0.000001  0.250001  0.250000  1
  Ir  Ir14  1  0.243818  0.632205  0.611618  1
  Ir  Ir15  1  0.756182  0.367795  0.388382  1
  Ir  Ir16  1  0.020587  0.132201  0.888382  1
  Ir  Ir17  1  0.979413  0.867799  0.111618  1
  Ir  Ir18  1  0.500000  0.750000  0.250000  1
  Ir  Ir19  1  0.500000  0.250000  0.750000  1
