# generated using pymatgen
data_Sc12Mn(RhI8)2
_symmetry_space_group_name_H-M   'P 1'
_cell_length_a   9.10294832
_cell_length_b   12.12123080
_cell_length_c   12.79641796
_cell_angle_alpha   116.67133215
_cell_angle_beta   101.06617869
_cell_angle_gamma   100.41344119
_symmetry_Int_Tables_number   1
_chemical_formula_structural   Sc12Mn(RhI8)2
_chemical_formula_sum   'Sc12 Mn1 Rh2 I16'
_cell_volume   1179.50547671
_cell_formula_units_Z   1
loop_
 _symmetry_equiv_pos_site_id
 _symmetry_equiv_pos_as_xyz
  1  'x, y, z'
loop_
 _atom_site_type_symbol
 _atom_site_label
 _atom_site_symmetry_multiplicity
 _atom_site_fract_x
 _atom_site_fract_y
 _atom_site_fract_z
 _atom_site_occupancy
  Sc  Sc0  1  0.096322  0.281667  0.365678  1
  Sc  Sc1  1  0.910991  0.724377  0.638752  1
  Sc  Sc2  1  0.782351  0.533907  0.332325  1
  Sc  Sc3  1  0.221279  0.466324  0.662330  1
  Sc  Sc4  1  0.274268  0.718577  0.633938  1
  Sc  Sc5  1  0.727828  0.275389  0.361600  1
  Sc  Sc6  1  0.150657  0.533904  0.337444  1
  Sc  Sc7  1  0.855967  0.465939  0.668008  1
  Sc  Sc8  1  0.402962  0.368308  0.288552  1
  Sc  Sc9  1  0.579978  0.631601  0.711378  1
  Sc  Sc10  1  0.455055  0.321280  0.519971  1
  Sc  Sc11  1  0.531045  0.678601  0.479983  1
  Mn  Mn12  1  0.335003  0.499534  0.499741  1
  Rh  Rh13  1  0.998026  0.499960  0.500058  1
  Rh  Rh14  1  0.662697  0.500092  0.499990  1
  I  I15  1  0.390983  0.734211  0.877366  1
  I  I16  1  0.608988  0.267625  0.125340  1
  I  I17  1  0.184548  0.952772  0.775795  1
  I  I18  1  0.817919  0.047201  0.224239  1
  I  I19  1  0.343762  0.105761  0.260073  1
  I  I20  1  0.662664  0.894229  0.740021  1
  I  I21  1  0.566074  0.436383  0.791987  1
  I  I22  1  0.440923  0.563625  0.207945  1
  I  I23  1  0.302143  0.820923  0.462427  1
  I  I24  1  0.698378  0.182376  0.537241  1
  I  I25  1  0.166561  0.179651  0.537181  1
  I  I26  1  0.832101  0.817263  0.463220  1
  I  I27  1  0.928257  0.573607  0.164880  1
  I  I28  1  0.074689  0.426620  0.835229  1
  I  I29  1  0.922231  0.731939  0.874840  1
  I  I30  1  0.075348  0.266353  0.122468  1
