# generated using pymatgen
data_Ca11Yb(PrSn2)8
_symmetry_space_group_name_H-M   'P 1'
_cell_length_a   8.00015301
_cell_length_b   8.54889300
_cell_length_c   16.18802703
_cell_angle_alpha   89.99737647
_cell_angle_beta   90.00654334
_cell_angle_gamma   89.99874654
_symmetry_Int_Tables_number   1
_chemical_formula_structural   Ca11Yb(PrSn2)8
_chemical_formula_sum   'Ca11 Yb1 Pr8 Sn16'
_cell_volume   1107.13885494
_cell_formula_units_Z   1
loop_
 _symmetry_equiv_pos_site_id
 _symmetry_equiv_pos_as_xyz
  1  'x, y, z'
loop_
 _atom_site_type_symbol
 _atom_site_label
 _atom_site_symmetry_multiplicity
 _atom_site_fract_x
 _atom_site_fract_y
 _atom_site_fract_z
 _atom_site_occupancy
  Ca  Ca0  1  0.334169  0.826595  0.876588  1
  Ca  Ca1  1  0.834160  0.673378  0.623455  1
  Ca  Ca2  1  0.665829  0.173400  0.376555  1
  Ca  Ca3  1  0.165836  0.326639  0.123441  1
  Ca  Ca4  1  0.665838  0.173414  0.123436  1
  Ca  Ca5  1  0.165847  0.326607  0.376552  1
  Ca  Ca6  1  0.334154  0.826600  0.623452  1
  Ca  Ca7  1  0.162365  0.503276  0.750062  1
  Ca  Ca8  1  0.662549  0.996683  0.750050  1
  Ca  Ca9  1  0.837489  0.496770  0.250001  1
  Ca  Ca10  1  0.337490  0.003220  0.249994  1
  Yb  Yb11  1  0.834204  0.673395  0.876452  1
  Pr  Pr12  1  0.493914  0.315065  0.904002  1
  Pr  Pr13  1  0.993896  0.185020  0.595996  1
  Pr  Pr14  1  0.506125  0.685003  0.404001  1
  Pr  Pr15  1  0.006078  0.814972  0.095948  1
  Pr  Pr16  1  0.506086  0.685029  0.095983  1
  Pr  Pr17  1  0.006110  0.814983  0.404014  1
  Pr  Pr18  1  0.493898  0.314973  0.595990  1
  Pr  Pr19  1  0.993992  0.184991  0.903980  1
  Sn  Sn20  1  0.330343  0.034624  0.038443  1
  Sn  Sn21  1  0.830325  0.465391  0.461560  1
  Sn  Sn22  1  0.669660  0.965403  0.538433  1
  Sn  Sn23  1  0.169314  0.534774  0.961434  1
  Sn  Sn24  1  0.669834  0.964819  0.961409  1
  Sn  Sn25  1  0.169663  0.534608  0.538431  1
  Sn  Sn26  1  0.330335  0.034604  0.461567  1
  Sn  Sn27  1  0.830342  0.465668  0.038243  1
  Sn  Sn28  1  0.535761  0.601352  0.750163  1
  Sn  Sn29  1  0.035121  0.898465  0.750273  1
  Sn  Sn30  1  0.464625  0.398717  0.250001  1
  Sn  Sn31  1  0.964616  0.101241  0.249990  1
  Sn  Sn32  1  0.289808  0.141965  0.749969  1
  Sn  Sn33  1  0.789919  0.358356  0.750129  1
  Sn  Sn34  1  0.710156  0.858016  0.249999  1
  Sn  Sn35  1  0.210151  0.641983  0.250002  1
