# generated using pymatgen
data_Li2PrSmSi2Pb
_symmetry_space_group_name_H-M   'P 1'
_cell_length_a   9.83055516
_cell_length_b   9.83055459
_cell_length_c   6.92550400
_cell_angle_alpha   90.00000000
_cell_angle_beta   90.00000000
_cell_angle_gamma   153.29863427
_symmetry_Int_Tables_number   1
_chemical_formula_structural   Li2PrSmSi2Pb
_chemical_formula_sum   'Li4 Pr2 Sm2 Si4 Pb2'
_cell_volume   300.73419506
_cell_formula_units_Z   2
loop_
 _symmetry_equiv_pos_site_id
 _symmetry_equiv_pos_as_xyz
  1  'x, y, z'
loop_
 _atom_site_type_symbol
 _atom_site_label
 _atom_site_symmetry_multiplicity
 _atom_site_fract_x
 _atom_site_fract_y
 _atom_site_fract_z
 _atom_site_occupancy
  Li  Li0  1  0.816450  0.183550  0.554274  1
  Li  Li1  1  0.183550  0.816450  0.445726  1
  Li  Li2  1  0.183550  0.816450  0.054274  1
  Li  Li3  1  0.816450  0.183550  0.945726  1
  Pr  Pr4  1  0.548594  0.451406  0.250000  1
  Pr  Pr5  1  0.451406  0.548594  0.750000  1
  Sm  Sm6  1  0.352548  0.647452  0.250000  1
  Sm  Sm7  1  0.647452  0.352548  0.750000  1
  Si  Si8  1  0.942811  0.057189  0.075225  1
  Si  Si9  1  0.057189  0.942811  0.924775  1
  Si  Si10  1  0.057189  0.942811  0.575225  1
  Si  Si11  1  0.942811  0.057189  0.424775  1
  Pb  Pb12  1  0.720618  0.279382  0.250000  1
  Pb  Pb13  1  0.279382  0.720618  0.750000  1
