# generated using pymatgen
data_Er2TmFe(Co4P3)2
_symmetry_space_group_name_H-M   'P 1'
_cell_length_a   3.67616700
_cell_length_b   10.49150900
_cell_length_c   12.12811000
_cell_angle_alpha   90.00000000
_cell_angle_beta   90.00000000
_cell_angle_gamma   90.00000000
_symmetry_Int_Tables_number   1
_chemical_formula_structural   Er2TmFe(Co4P3)2
_chemical_formula_sum   'Er4 Tm2 Fe2 Co16 P12'
_cell_volume   467.76348554
_cell_formula_units_Z   2
loop_
 _symmetry_equiv_pos_site_id
 _symmetry_equiv_pos_as_xyz
  1  'x, y, z'
loop_
 _atom_site_type_symbol
 _atom_site_label
 _atom_site_symmetry_multiplicity
 _atom_site_fract_x
 _atom_site_fract_y
 _atom_site_fract_z
 _atom_site_occupancy
  Er  Er0  1  0.750000  0.250000  0.477914  1
  Er  Er1  1  0.250000  0.750000  0.522372  1
  Er  Er2  1  0.750000  0.068092  0.205090  1
  Er  Er3  1  0.750000  0.431908  0.205090  1
  Tm  Tm4  1  0.250000  0.931687  0.794878  1
  Tm  Tm5  1  0.250000  0.568313  0.794878  1
  Fe  Fe6  1  0.250000  0.250000  0.842286  1
  Fe  Fe7  1  0.750000  0.750000  0.157252  1
  Co  Co8  1  0.250000  0.250000  0.298052  1
  Co  Co9  1  0.750000  0.750000  0.702132  1
  Co  Co10  1  0.750000  0.250000  0.013427  1
  Co  Co11  1  0.250000  0.750000  0.985816  1
  Co  Co12  1  0.250000  0.417286  0.005777  1
  Co  Co13  1  0.250000  0.082714  0.005777  1
  Co  Co14  1  0.750000  0.583053  0.993630  1
  Co  Co15  1  0.750000  0.916947  0.993630  1
  Co  Co16  1  0.250000  0.453075  0.569572  1
  Co  Co17  1  0.250000  0.046925  0.569572  1
  Co  Co18  1  0.750000  0.547028  0.431010  1
  Co  Co19  1  0.750000  0.952972  0.431010  1
  Co  Co20  1  0.250000  0.871494  0.291166  1
  Co  Co21  1  0.250000  0.628506  0.291166  1
  Co  Co22  1  0.750000  0.128242  0.709188  1
  Co  Co23  1  0.750000  0.371758  0.709188  1
  P  P24  1  0.250000  0.250000  0.117989  1
  P  P25  1  0.750000  0.750000  0.881335  1
  P  P26  1  0.250000  0.250000  0.656454  1
  P  P27  1  0.750000  0.750000  0.343736  1
  P  P28  1  0.250000  0.438874  0.383744  1
  P  P29  1  0.250000  0.061126  0.383744  1
  P  P30  1  0.750000  0.561250  0.616871  1
  P  P31  1  0.750000  0.938750  0.616871  1
  P  P32  1  0.250000  0.902647  0.107716  1
  P  P33  1  0.250000  0.597353  0.107716  1
  P  P34  1  0.750000  0.096746  0.891975  1
  P  P35  1  0.750000  0.403254  0.891975  1
