# generated using pymatgen
data_Cs2La2Zr12BeCCl36
_symmetry_space_group_name_H-M   'P 1'
_cell_length_a   9.66630600
_cell_length_b   9.66630688
_cell_length_c   18.30880700
_cell_angle_alpha   90.00000000
_cell_angle_beta   90.00000000
_cell_angle_gamma   120.00000382
_symmetry_Int_Tables_number   1
_chemical_formula_structural   Cs2La2Zr12BeCCl36
_chemical_formula_sum   'Cs2 La2 Zr12 Be1 C1 Cl36'
_cell_volume   1481.53453591
_cell_formula_units_Z   1
loop_
 _symmetry_equiv_pos_site_id
 _symmetry_equiv_pos_as_xyz
  1  'x, y, z'
loop_
 _atom_site_type_symbol
 _atom_site_label
 _atom_site_symmetry_multiplicity
 _atom_site_fract_x
 _atom_site_fract_y
 _atom_site_fract_z
 _atom_site_occupancy
  Cs  Cs0  1  0.333333  0.666667  0.749933  1
  Cs  Cs1  1  0.666667  0.333333  0.250067  1
  La  La2  1  0.666667  0.333333  0.748503  1
  La  La3  1  0.333333  0.666667  0.251497  1
  Zr  Zr4  1  0.829117  0.038663  0.572023  1
  Zr  Zr5  1  0.170883  0.961337  0.427977  1
  Zr  Zr6  1  0.961337  0.790454  0.572023  1
  Zr  Zr7  1  0.820312  0.779531  0.924854  1
  Zr  Zr8  1  0.038663  0.209546  0.427977  1
  Zr  Zr9  1  0.179688  0.220469  0.075146  1
  Zr  Zr10  1  0.209546  0.170883  0.572023  1
  Zr  Zr11  1  0.959219  0.179688  0.924854  1
  Zr  Zr12  1  0.790454  0.829117  0.427977  1
  Zr  Zr13  1  0.040781  0.820312  0.075146  1
  Zr  Zr14  1  0.220469  0.040781  0.924854  1
  Zr  Zr15  1  0.779531  0.959219  0.075146  1
  Be  Be16  1  0.000000  0.000000  0.000000  1
  C  C17  1  0.000000  0.000000  0.500000  1
  Cl  Cl18  1  0.272799  0.421056  0.500771  1
  Cl  Cl19  1  0.727201  0.578944  0.499229  1
  Cl  Cl20  1  0.578944  0.851743  0.500771  1
  Cl  Cl21  1  0.275686  0.850208  0.999148  1
  Cl  Cl22  1  0.421056  0.148257  0.499229  1
  Cl  Cl23  1  0.724314  0.149792  0.000852  1
  Cl  Cl24  1  0.148257  0.727201  0.500771  1
  Cl  Cl25  1  0.574523  0.724314  0.999148  1
  Cl  Cl26  1  0.851743  0.272799  0.499229  1
  Cl  Cl27  1  0.425477  0.275686  0.000852  1
  Cl  Cl28  1  0.149792  0.425477  0.999148  1
  Cl  Cl29  1  0.850208  0.574523  0.000852  1
  Cl  Cl30  1  0.042477  0.232608  0.659684  1
  Cl  Cl31  1  0.957523  0.767392  0.340316  1
  Cl  Cl32  1  0.767392  0.809869  0.659684  1
  Cl  Cl33  1  0.043130  0.808502  0.838799  1
  Cl  Cl34  1  0.232608  0.190131  0.340316  1
  Cl  Cl35  1  0.956870  0.191498  0.161201  1
  Cl  Cl36  1  0.190131  0.957523  0.659684  1
  Cl  Cl37  1  0.765372  0.956870  0.838799  1
  Cl  Cl38  1  0.809869  0.042477  0.340316  1
  Cl  Cl39  1  0.234628  0.043130  0.161201  1
  Cl  Cl40  1  0.191498  0.234628  0.838799  1
  Cl  Cl41  1  0.808502  0.765372  0.161201  1
  Cl  Cl42  1  0.624749  0.076524  0.660961  1
  Cl  Cl43  1  0.375251  0.923476  0.339039  1
  Cl  Cl44  1  0.923476  0.548226  0.660961  1
  Cl  Cl45  1  0.619991  0.543625  0.837246  1
  Cl  Cl46  1  0.076524  0.451774  0.339039  1
  Cl  Cl47  1  0.380009  0.456375  0.162754  1
  Cl  Cl48  1  0.451774  0.375251  0.660961  1
  Cl  Cl49  1  0.923634  0.380009  0.837246  1
  Cl  Cl50  1  0.548226  0.624749  0.339039  1
  Cl  Cl51  1  0.076366  0.619991  0.162754  1
  Cl  Cl52  1  0.456375  0.076366  0.837246  1
  Cl  Cl53  1  0.543625  0.923634  0.162754  1
