# generated using pymatgen
data_YHo2Co(P3Ir4)2
_symmetry_space_group_name_H-M   'P 1'
_cell_length_a   3.92430400
_cell_length_b   11.08235500
_cell_length_c   12.76964100
_cell_angle_alpha   90.00000000
_cell_angle_beta   90.00000000
_cell_angle_gamma   90.00000000
_symmetry_Int_Tables_number   1
_chemical_formula_structural   YHo2Co(P3Ir4)2
_chemical_formula_sum   'Y2 Ho4 Co2 P12 Ir16'
_cell_volume   555.35845571
_cell_formula_units_Z   2
loop_
 _symmetry_equiv_pos_site_id
 _symmetry_equiv_pos_as_xyz
  1  'x, y, z'
loop_
 _atom_site_type_symbol
 _atom_site_label
 _atom_site_symmetry_multiplicity
 _atom_site_fract_x
 _atom_site_fract_y
 _atom_site_fract_z
 _atom_site_occupancy
  Y  Y0  1  0.000000  0.500000  0.522452  1
  Y  Y1  1  0.500000  0.000000  0.477548  1
  Ho  Ho2  1  0.500000  0.815909  0.200417  1
  Ho  Ho3  1  0.500000  0.184091  0.200417  1
  Ho  Ho4  1  0.000000  0.684091  0.799583  1
  Ho  Ho5  1  0.000000  0.315909  0.799583  1
  Co  Co6  1  0.000000  0.500000  0.977036  1
  Co  Co7  1  0.500000  0.000000  0.022964  1
  P  P8  1  0.500000  0.500000  0.880265  1
  P  P9  1  0.000000  0.000000  0.119735  1
  P  P10  1  0.500000  0.500000  0.357999  1
  P  P11  1  0.000000  0.000000  0.642001  1
  P  P12  1  0.500000  0.315651  0.619524  1
  P  P13  1  0.500000  0.684349  0.619524  1
  P  P14  1  0.000000  0.184349  0.380476  1
  P  P15  1  0.000000  0.815651  0.380476  1
  P  P16  1  0.500000  0.851858  0.896454  1
  P  P17  1  0.500000  0.148142  0.896454  1
  P  P18  1  0.000000  0.648142  0.103546  1
  P  P19  1  0.000000  0.351858  0.103546  1
  Ir  Ir20  1  0.500000  0.500000  0.177710  1
  Ir  Ir21  1  0.000000  0.000000  0.822290  1
  Ir  Ir22  1  0.500000  0.500000  0.702938  1
  Ir  Ir23  1  0.000000  0.000000  0.297062  1
  Ir  Ir24  1  0.500000  0.338992  0.997886  1
  Ir  Ir25  1  0.500000  0.661008  0.997886  1
  Ir  Ir26  1  0.000000  0.161008  0.002114  1
  Ir  Ir27  1  0.000000  0.838992  0.002114  1
  Ir  Ir28  1  0.500000  0.292844  0.429191  1
  Ir  Ir29  1  0.500000  0.707156  0.429191  1
  Ir  Ir30  1  0.000000  0.207156  0.570809  1
  Ir  Ir31  1  0.000000  0.792844  0.570809  1
  Ir  Ir32  1  0.500000  0.870068  0.714848  1
  Ir  Ir33  1  0.500000  0.129932  0.714848  1
  Ir  Ir34  1  0.000000  0.629932  0.285152  1
  Ir  Ir35  1  0.000000  0.370068  0.285152  1
