# generated using pymatgen
data_Dy4Ho6SnBi5
_symmetry_space_group_name_H-M   'P 1'
_cell_length_a   9.12274700
_cell_length_b   9.13738759
_cell_length_c   6.43476500
_cell_angle_alpha   90.00000000
_cell_angle_beta   90.00000000
_cell_angle_gamma   120.05310320
_symmetry_Int_Tables_number   1
_chemical_formula_structural   Dy4Ho6SnBi5
_chemical_formula_sum   'Dy4 Ho6 Sn1 Bi5'
_cell_volume   464.27827241
_cell_formula_units_Z   1
loop_
 _symmetry_equiv_pos_site_id
 _symmetry_equiv_pos_as_xyz
  1  'x, y, z'
loop_
 _atom_site_type_symbol
 _atom_site_label
 _atom_site_symmetry_multiplicity
 _atom_site_fract_x
 _atom_site_fract_y
 _atom_site_fract_z
 _atom_site_occupancy
  Dy  Dy0  1  0.758455  0.757336  0.750000  1
  Dy  Dy1  1  0.241545  0.998880  0.750000  1
  Dy  Dy2  1  0.236648  0.243683  0.250000  1
  Dy  Dy3  1  0.763352  0.007035  0.250000  1
  Ho  Ho4  1  0.671001  0.334024  0.001403  1
  Ho  Ho5  1  0.328999  0.663024  0.001403  1
  Ho  Ho6  1  0.328999  0.663024  0.498597  1
  Ho  Ho7  1  0.671001  0.334024  0.498597  1
  Ho  Ho8  1  0.000000  0.241711  0.750000  1
  Ho  Ho9  1  0.000000  0.754953  0.250000  1
  Sn  Sn10  1  0.000000  0.394757  0.250000  1
  Bi  Bi11  1  0.391630  0.389419  0.750000  1
  Bi  Bi12  1  0.608370  0.997789  0.750000  1
  Bi  Bi13  1  0.000000  0.608014  0.750000  1
  Bi  Bi14  1  0.610190  0.611257  0.250000  1
  Bi  Bi15  1  0.389810  0.001066  0.250000  1
