# generated using pymatgen
data_TbDy2Y4RhI12
_symmetry_space_group_name_H-M   'P 1'
_cell_length_a   9.81992905
_cell_length_b   9.81793549
_cell_length_c   9.81653411
_cell_angle_alpha   106.90180317
_cell_angle_beta   106.91216520
_cell_angle_gamma   106.91043078
_symmetry_Int_Tables_number   1
_chemical_formula_structural   TbDy2Y4RhI12
_chemical_formula_sum   'Tb1 Dy2 Y4 Rh1 I12'
_cell_volume   790.15961161
_cell_formula_units_Z   1
loop_
 _symmetry_equiv_pos_site_id
 _symmetry_equiv_pos_as_xyz
  1  'x, y, z'
loop_
 _atom_site_type_symbol
 _atom_site_label
 _atom_site_symmetry_multiplicity
 _atom_site_fract_x
 _atom_site_fract_y
 _atom_site_fract_z
 _atom_site_occupancy
  Tb  Tb0  1  0.295636  0.094715  0.022578  1
  Dy  Dy1  1  0.094089  0.022405  0.294666  1
  Dy  Dy2  1  0.022274  0.294605  0.094254  1
  Y  Y3  1  0.499931  0.499982  0.499997  1
  Y  Y4  1  0.905186  0.977372  0.703976  1
  Y  Y5  1  0.977228  0.703969  0.905459  1
  Y  Y6  1  0.704203  0.905510  0.977443  1
  Rh  Rh7  1  0.000340  0.000540  0.000601  1
  I  I8  1  0.536711  0.837917  0.613604  1
  I  I9  1  0.837946  0.613628  0.536710  1
  I  I10  1  0.613633  0.536698  0.837927  1
  I  I11  1  0.463714  0.162688  0.387002  1
  I  I12  1  0.162682  0.386674  0.463671  1
  I  I13  1  0.386643  0.464040  0.162799  1
  I  I14  1  0.675855  0.223901  0.070302  1
  I  I15  1  0.223575  0.070166  0.675118  1
  I  I16  1  0.070234  0.675493  0.223781  1
  I  I17  1  0.324788  0.775348  0.929315  1
  I  I18  1  0.775870  0.929472  0.324932  1
  I  I19  1  0.929461  0.324877  0.775865  1
