# generated using pymatgen
data_CaPr(RhO3)2
_symmetry_space_group_name_H-M   'P 1'
_cell_length_a   5.40554300
_cell_length_b   5.79600500
_cell_length_c   7.81163700
_cell_angle_alpha   90.00000000
_cell_angle_beta   90.00000000
_cell_angle_gamma   90.00000000
_symmetry_Int_Tables_number   1
_chemical_formula_structural   CaPr(RhO3)2
_chemical_formula_sum   'Ca2 Pr2 Rh4 O12'
_cell_volume   244.74291685
_cell_formula_units_Z   2
loop_
 _symmetry_equiv_pos_site_id
 _symmetry_equiv_pos_as_xyz
  1  'x, y, z'
loop_
 _atom_site_type_symbol
 _atom_site_label
 _atom_site_symmetry_multiplicity
 _atom_site_fract_x
 _atom_site_fract_y
 _atom_site_fract_z
 _atom_site_occupancy
  Ca  Ca0  1  0.478905  0.569731  0.750000  1
  Ca  Ca1  1  0.978905  0.930269  0.250000  1
  Pr  Pr2  1  0.021883  0.069700  0.750000  1
  Pr  Pr3  1  0.521883  0.430300  0.250000  1
  Rh  Rh4  1  0.499702  0.997229  0.499381  1
  Rh  Rh5  1  0.999702  0.502771  0.500619  1
  Rh  Rh6  1  0.999702  0.502771  0.999381  1
  Rh  Rh7  1  0.499702  0.997229  0.000619  1
  O  O8  1  0.812149  0.195275  0.447348  1
  O  O9  1  0.312149  0.304725  0.552652  1
  O  O10  1  0.690430  0.699018  0.052807  1
  O  O11  1  0.190430  0.800982  0.947193  1
  O  O12  1  0.190430  0.800982  0.552807  1
  O  O13  1  0.690430  0.699018  0.447193  1
  O  O14  1  0.312149  0.304725  0.947348  1
  O  O15  1  0.812149  0.195275  0.052652  1
  O  O16  1  0.390612  0.034515  0.250000  1
  O  O17  1  0.890612  0.465485  0.750000  1
  O  O18  1  0.104040  0.541451  0.250000  1
  O  O19  1  0.604040  0.958549  0.750000  1
