# generated using pymatgen
data_Ba3UGa3(SiO7)2
_symmetry_space_group_name_H-M   'P 1'
_cell_length_a   8.72356800
_cell_length_b   8.72356793
_cell_length_c   5.37709100
_cell_angle_alpha   90.00000000
_cell_angle_beta   90.00000000
_cell_angle_gamma   119.99999267
_symmetry_Int_Tables_number   1
_chemical_formula_structural   Ba3UGa3(SiO7)2
_chemical_formula_sum   'Ba3 U1 Ga3 Si2 O14'
_cell_volume   354.37766995
_cell_formula_units_Z   1
loop_
 _symmetry_equiv_pos_site_id
 _symmetry_equiv_pos_as_xyz
  1  'x, y, z'
loop_
 _atom_site_type_symbol
 _atom_site_label
 _atom_site_symmetry_multiplicity
 _atom_site_fract_x
 _atom_site_fract_y
 _atom_site_fract_z
 _atom_site_occupancy
  Ba  Ba0  1  0.563676  0.563676  0.000000  1
  Ba  Ba1  1  0.000000  0.436324  0.000000  1
  Ba  Ba2  1  0.436324  0.000000  0.000000  1
  U  U3  1  0.000000  0.000000  0.000000  1
  Ga  Ga4  1  0.265665  0.265665  0.500000  1
  Ga  Ga5  1  0.000000  0.734335  0.500000  1
  Ga  Ga6  1  0.734335  0.000000  0.500000  1
  Si  Si7  1  0.666667  0.333333  0.521881  1
  Si  Si8  1  0.333333  0.666667  0.478119  1
  O  O9  1  0.115664  0.230507  0.763432  1
  O  O10  1  0.769493  0.885157  0.763432  1
  O  O11  1  0.114843  0.884336  0.763432  1
  O  O12  1  0.885157  0.769493  0.236568  1
  O  O13  1  0.884336  0.114843  0.236568  1
  O  O14  1  0.230507  0.115664  0.236568  1
  O  O15  1  0.308175  0.480650  0.351563  1
  O  O16  1  0.519350  0.827525  0.351563  1
  O  O17  1  0.172475  0.691825  0.351563  1
  O  O18  1  0.333333  0.666667  0.777881  1
  O  O19  1  0.666667  0.333333  0.222119  1
  O  O20  1  0.480650  0.308175  0.648437  1
  O  O21  1  0.691825  0.172475  0.648437  1
  O  O22  1  0.827525  0.519350  0.648437  1
