# generated using pymatgen
data_U3As3Se
_symmetry_space_group_name_H-M   'P 1'
_cell_length_a   7.40696128
_cell_length_b   7.40755092
_cell_length_c   7.40696093
_cell_angle_alpha   109.44975189
_cell_angle_beta   109.52784754
_cell_angle_gamma   109.44973973
_symmetry_Int_Tables_number   1
_chemical_formula_structural   U3As3Se
_chemical_formula_sum   'U6 As6 Se2'
_cell_volume   312.79467605
_cell_formula_units_Z   2
loop_
 _symmetry_equiv_pos_site_id
 _symmetry_equiv_pos_as_xyz
  1  'x, y, z'
loop_
 _atom_site_type_symbol
 _atom_site_label
 _atom_site_symmetry_multiplicity
 _atom_site_fract_x
 _atom_site_fract_y
 _atom_site_fract_z
 _atom_site_occupancy
  U  U0  1  0.878124  0.250022  0.125745  1
  U  U1  1  0.125698  0.877074  0.252427  1
  U  U2  1  0.373039  0.623099  0.746111  1
  U  U3  1  0.246111  0.123099  0.873039  1
  U  U4  1  0.752427  0.377074  0.625698  1
  U  U5  1  0.625745  0.750022  0.378124  1
  As  As6  1  0.500740  0.000349  0.659048  1
  As  As7  1  0.159048  0.500349  0.000740  1
  As  As8  1  0.341793  0.341057  0.341031  1
  As  As9  1  0.999929  0.158973  0.500671  1
  As  As10  1  0.841031  0.841057  0.841793  1
  As  As11  1  0.000671  0.658973  0.499929  1
  Se  Se12  1  0.499797  0.999426  0.155847  1
  Se  Se13  1  0.655847  0.499426  0.999797  1
