# generated using pymatgen
data_Mn5CrH6
_symmetry_space_group_name_H-M   'P 1'
_cell_length_a   6.25467183
_cell_length_b   4.26461737
_cell_length_c   4.58540041
_cell_angle_alpha   90.00056064
_cell_angle_beta   111.40581471
_cell_angle_gamma   132.98691738
_symmetry_Int_Tables_number   1
_chemical_formula_structural   Mn5CrH6
_chemical_formula_sum   'Mn5 Cr1 H6'
_cell_volume   77.53884134
_cell_formula_units_Z   1
loop_
 _symmetry_equiv_pos_site_id
 _symmetry_equiv_pos_as_xyz
  1  'x, y, z'
loop_
 _atom_site_type_symbol
 _atom_site_label
 _atom_site_symmetry_multiplicity
 _atom_site_fract_x
 _atom_site_fract_y
 _atom_site_fract_z
 _atom_site_occupancy
  Mn  Mn0  1  0.783310  0.209282  0.534053  1
  Mn  Mn1  1  0.449640  0.375741  0.200361  1
  Mn  Mn2  1  0.114167  0.040234  0.530915  1
  Mn  Mn3  1  0.785773  0.711917  0.865583  1
  Mn  Mn4  1  0.117159  0.543445  0.200856  1
  Cr  Cr5  1  0.450700  0.876838  0.867084  1
  H  H6  1  0.116169  0.794625  0.867290  1
  H  H7  1  0.783507  0.462394  0.199936  1
  H  H8  1  0.451100  0.129676  0.534372  1
  H  H9  1  0.116284  0.289983  0.867638  1
  H  H10  1  0.450536  0.623858  0.534011  1
  H  H11  1  0.783953  0.957247  0.200194  1
