# generated using pymatgen
data_Na3In(BrO3)6
_symmetry_space_group_name_H-M   'P 1'
_cell_length_a   7.16043213
_cell_length_b   6.89989758
_cell_length_c   10.31474116
_cell_angle_alpha   97.32290288
_cell_angle_beta   110.49921210
_cell_angle_gamma   104.36572001
_symmetry_Int_Tables_number   1
_chemical_formula_structural   Na3In(BrO3)6
_chemical_formula_sum   'Na3 In1 Br6 O18'
_cell_volume   449.32966336
_cell_formula_units_Z   1
loop_
 _symmetry_equiv_pos_site_id
 _symmetry_equiv_pos_as_xyz
  1  'x, y, z'
loop_
 _atom_site_type_symbol
 _atom_site_label
 _atom_site_symmetry_multiplicity
 _atom_site_fract_x
 _atom_site_fract_y
 _atom_site_fract_z
 _atom_site_occupancy
  Na  Na0  1  0.380501  0.540197  0.282607  1
  Na  Na1  1  0.619499  0.459803  0.717393  1
  Na  Na2  1  0.000000  0.500000  0.500000  1
  In  In3  1  0.000000  0.000000  0.000000  1
  Br  Br4  1  0.522194  0.037773  0.199624  1
  Br  Br5  1  0.477806  0.962227  0.800376  1
  Br  Br6  1  0.789309  0.553449  0.118627  1
  Br  Br7  1  0.210691  0.446551  0.881373  1
  Br  Br8  1  0.133924  0.118861  0.386819  1
  Br  Br9  1  0.866076  0.881139  0.613181  1
  O  O10  1  0.625843  0.671124  0.148988  1
  O  O11  1  0.374157  0.328876  0.851012  1
  O  O12  1  0.994795  0.370929  0.729693  1
  O  O13  1  0.005205  0.629071  0.270307  1
  O  O14  1  0.568081  0.291127  0.250288  1
  O  O15  1  0.431919  0.708873  0.749712  1
  O  O16  1  0.081986  0.165256  0.218714  1
  O  O17  1  0.918014  0.834744  0.781286  1
  O  O18  1  0.300818  0.952395  0.037585  1
  O  O19  1  0.699182  0.047605  0.962415  1
  O  O20  1  0.309292  0.347398  0.483736  1
  O  O21  1  0.690708  0.652602  0.516264  1
  O  O22  1  0.916873  0.131771  0.410309  1
  O  O23  1  0.083127  0.868229  0.589691  1
  O  O24  1  0.565076  0.069745  0.687771  1
  O  O25  1  0.434924  0.930255  0.312229  1
  O  O26  1  0.132336  0.330664  0.002187  1
  O  O27  1  0.867664  0.669336  0.997813  1
