# generated using pymatgen
data_GaFe4Ir7O24
_symmetry_space_group_name_H-M   'P 1'
_cell_length_a   4.57450500
_cell_length_b   9.14697585
_cell_length_c   9.41890100
_cell_angle_alpha   90.00000000
_cell_angle_beta   90.00000000
_cell_angle_gamma   89.90776397
_symmetry_Int_Tables_number   1
_chemical_formula_structural   GaFe4Ir7O24
_chemical_formula_sum   'Ga1 Fe4 Ir7 O24'
_cell_volume   394.11349737
_cell_formula_units_Z   1
loop_
 _symmetry_equiv_pos_site_id
 _symmetry_equiv_pos_as_xyz
  1  'x, y, z'
loop_
 _atom_site_type_symbol
 _atom_site_label
 _atom_site_symmetry_multiplicity
 _atom_site_fract_x
 _atom_site_fract_y
 _atom_site_fract_z
 _atom_site_occupancy
  Ga  Ga0  1  0.000000  0.000000  0.334156  1
  Fe  Fe1  1  0.000000  0.500000  0.000078  1
  Fe  Fe2  1  0.501587  0.756395  0.496691  1
  Fe  Fe3  1  0.000000  0.000000  0.006541  1
  Fe  Fe4  1  0.498413  0.243605  0.496691  1
  Ir  Ir5  1  0.000000  0.500000  0.331659  1
  Ir  Ir6  1  0.501143  0.249748  0.830937  1
  Ir  Ir7  1  0.498857  0.750252  0.830937  1
  Ir  Ir8  1  0.503609  0.250664  0.167810  1
  Ir  Ir9  1  0.496391  0.749336  0.167810  1
  Ir  Ir10  1  0.000000  0.000000  0.667504  1
  Ir  Ir11  1  0.000000  0.500000  0.668134  1
  O  O12  1  0.311641  0.156431  0.000086  1
  O  O13  1  0.311206  0.654123  0.998687  1
  O  O14  1  0.190134  0.405834  0.500242  1
  O  O15  1  0.190712  0.904081  0.503266  1
  O  O16  1  0.809288  0.095919  0.503266  1
  O  O17  1  0.809866  0.594166  0.500242  1
  O  O18  1  0.688794  0.345877  0.998687  1
  O  O19  1  0.688359  0.843569  0.000086  1
  O  O20  1  0.306230  0.154007  0.330444  1
  O  O21  1  0.302889  0.651190  0.332171  1
  O  O22  1  0.195942  0.401682  0.832817  1
  O  O23  1  0.195531  0.902204  0.833150  1
  O  O24  1  0.804469  0.097796  0.833150  1
  O  O25  1  0.804058  0.598318  0.832817  1
  O  O26  1  0.801415  0.100464  0.167577  1
  O  O27  1  0.802445  0.598511  0.167432  1
  O  O28  1  0.197555  0.401489  0.167432  1
  O  O29  1  0.198585  0.899536  0.167577  1
  O  O30  1  0.697111  0.348810  0.332171  1
  O  O31  1  0.693770  0.845993  0.330444  1
  O  O32  1  0.299845  0.151548  0.667958  1
  O  O33  1  0.304814  0.650753  0.666695  1
  O  O34  1  0.695186  0.349247  0.666695  1
  O  O35  1  0.700155  0.848452  0.667958  1
