# generated using pymatgen
data_Y14Er2MgCo4Ag3
_symmetry_space_group_name_H-M   'P 1'
_cell_length_a   9.46931791
_cell_length_b   9.48976899
_cell_length_c   9.48621300
_cell_angle_alpha   60.01239828
_cell_angle_beta   59.94096528
_cell_angle_gamma   59.93111279
_symmetry_Int_Tables_number   1
_chemical_formula_structural   Y14Er2MgCo4Ag3
_chemical_formula_sum   'Y14 Er2 Mg1 Co4 Ag3'
_cell_volume   602.24369647
_cell_formula_units_Z   1
loop_
 _symmetry_equiv_pos_site_id
 _symmetry_equiv_pos_as_xyz
  1  'x, y, z'
loop_
 _atom_site_type_symbol
 _atom_site_label
 _atom_site_symmetry_multiplicity
 _atom_site_fract_x
 _atom_site_fract_y
 _atom_site_fract_z
 _atom_site_occupancy
  Y  Y0  1  0.346779  0.963437  0.344892  1
  Y  Y1  1  0.950943  0.350203  0.349427  1
  Y  Y2  1  0.808551  0.188931  0.190148  1
  Y  Y3  1  0.185735  0.812731  0.814005  1
  Y  Y4  1  0.185735  0.812731  0.187528  1
  Y  Y5  1  0.808551  0.188931  0.812370  1
  Y  Y6  1  0.186110  0.187024  0.813433  1
  Y  Y7  1  0.809108  0.811624  0.189634  1
  Y  Y8  1  0.936339  0.562133  0.562553  1
  Y  Y9  1  0.562217  0.937956  0.937058  1
  Y  Y10  1  0.562217  0.937956  0.562769  1
  Y  Y11  1  0.936339  0.562133  0.938976  1
  Y  Y12  1  0.561030  0.562027  0.938471  1
  Y  Y13  1  0.936028  0.937904  0.563034  1
  Er  Er14  1  0.345578  0.344551  0.344062  1
  Er  Er15  1  0.345578  0.344551  0.965809  1
  Mg  Mg16  1  0.289965  0.569233  0.570400  1
  Co  Co17  1  0.140223  0.144354  0.139898  1
  Co  Co18  1  0.140223  0.144354  0.575526  1
  Co  Co19  1  0.142106  0.574052  0.141921  1
  Co  Co20  1  0.574204  0.144792  0.140502  1
  Ag  Ag21  1  0.582208  0.582668  0.582850  1
  Ag  Ag22  1  0.582208  0.582668  0.252275  1
  Ag  Ag23  1  0.582025  0.253056  0.582459  1
