# generated using pymatgen
data_YbNi8(B3Ir2)2
_symmetry_space_group_name_H-M   'P 1'
_cell_length_a   6.27902546
_cell_length_b   6.16401181
_cell_length_c   6.27902600
_cell_angle_alpha   103.71298209
_cell_angle_beta   104.28763535
_cell_angle_gamma   103.71299179
_symmetry_Int_Tables_number   1
_chemical_formula_structural   YbNi8(B3Ir2)2
_chemical_formula_sum   'Yb1 Ni8 B6 Ir4'
_cell_volume   217.22587847
_cell_formula_units_Z   1
loop_
 _symmetry_equiv_pos_site_id
 _symmetry_equiv_pos_as_xyz
  1  'x, y, z'
loop_
 _atom_site_type_symbol
 _atom_site_label
 _atom_site_symmetry_multiplicity
 _atom_site_fract_x
 _atom_site_fract_y
 _atom_site_fract_z
 _atom_site_occupancy
  Yb  Yb0  1  0.002385  0.000000  0.997615  1
  Ni  Ni1  1  0.492840  0.134454  0.857640  1
  Ni  Ni2  1  0.142360  0.865546  0.507160  1
  Ni  Ni3  1  0.799386  0.549214  0.545013  1
  Ni  Ni4  1  0.542625  0.539722  0.799844  1
  Ni  Ni5  1  0.537013  0.806484  0.544622  1
  Ni  Ni6  1  0.200156  0.460278  0.457375  1
  Ni  Ni7  1  0.454987  0.450786  0.200614  1
  Ni  Ni8  1  0.455378  0.193516  0.462987  1
  B  B9  1  0.345141  0.771000  0.764127  1
  B  B10  1  0.766955  0.765155  0.340248  1
  B  B11  1  0.764530  0.342117  0.765470  1
  B  B12  1  0.659752  0.234845  0.233045  1
  B  B13  1  0.235873  0.229000  0.654859  1
  B  B14  1  0.234530  0.657883  0.235470  1
  Ir  Ir15  1  0.868597  0.130954  0.501349  1
  Ir  Ir16  1  0.136447  0.500000  0.863553  1
  Ir  Ir17  1  0.498651  0.869046  0.131403  1
  Ir  Ir18  1  0.862394  0.500000  0.137606  1
