# generated using pymatgen
data_CeDy2(ErAl6)3
_symmetry_space_group_name_H-M   'P 1'
_cell_length_a   14.54105075
_cell_length_b   14.54105088
_cell_length_c   14.54105201
_cell_angle_alpha   24.50204706
_cell_angle_beta   24.50204701
_cell_angle_gamma   24.50204813
_symmetry_Int_Tables_number   1
_chemical_formula_structural   CeDy2(ErAl6)3
_chemical_formula_sum   'Ce1 Dy2 Er3 Al18'
_cell_volume   464.94817687
_cell_formula_units_Z   1
loop_
 _symmetry_equiv_pos_site_id
 _symmetry_equiv_pos_as_xyz
  1  'x, y, z'
loop_
 _atom_site_type_symbol
 _atom_site_label
 _atom_site_symmetry_multiplicity
 _atom_site_fract_x
 _atom_site_fract_y
 _atom_site_fract_z
 _atom_site_occupancy
  Ce  Ce0  1  0.108846  0.108846  0.108846  1
  Dy  Dy1  1  0.891221  0.891221  0.891221  1
  Dy  Dy2  1  0.390818  0.390818  0.390818  1
  Er  Er3  1  0.999575  0.999575  0.999575  1
  Er  Er4  1  0.500065  0.500065  0.500065  1
  Er  Er5  1  0.609076  0.609076  0.609076  1
  Al  Al6  1  0.924111  0.371237  0.371237  1
  Al  Al7  1  0.422031  0.870749  0.870749  1
  Al  Al8  1  0.371237  0.371237  0.924111  1
  Al  Al9  1  0.870749  0.870749  0.422031  1
  Al  Al10  1  0.371237  0.924111  0.371237  1
  Al  Al11  1  0.870749  0.422031  0.870749  1
  Al  Al12  1  0.575614  0.129835  0.129835  1
  Al  Al13  1  0.077978  0.628729  0.628729  1
  Al  Al14  1  0.129835  0.129835  0.575614  1
  Al  Al15  1  0.628729  0.628729  0.077978  1
  Al  Al16  1  0.129835  0.575614  0.129835  1
  Al  Al17  1  0.628729  0.077978  0.628729  1
  Al  Al18  1  0.499512  0.499512  0.999599  1
  Al  Al19  1  0.002563  0.002563  0.495817  1
  Al  Al20  1  0.499512  0.999599  0.499512  1
  Al  Al21  1  0.002563  0.495817  0.002563  1
  Al  Al22  1  0.999599  0.499512  0.499512  1
  Al  Al23  1  0.495817  0.002563  0.002563  1
