# generated using pymatgen
data_NaLa3Pr3OsBr12
_symmetry_space_group_name_H-M   'P 1'
_cell_length_a   9.70358083
_cell_length_b   9.71067229
_cell_length_c   9.68239567
_cell_angle_alpha   107.26202111
_cell_angle_beta   107.15101495
_cell_angle_gamma   107.19997229
_symmetry_Int_Tables_number   1
_chemical_formula_structural   NaLa3Pr3OsBr12
_chemical_formula_sum   'Na1 La3 Pr3 Os1 Br12'
_cell_volume   755.54266162
_cell_formula_units_Z   1
loop_
 _symmetry_equiv_pos_site_id
 _symmetry_equiv_pos_as_xyz
  1  'x, y, z'
loop_
 _atom_site_type_symbol
 _atom_site_label
 _atom_site_symmetry_multiplicity
 _atom_site_fract_x
 _atom_site_fract_y
 _atom_site_fract_z
 _atom_site_occupancy
  Na  Na0  1  0.500464  0.500398  0.500470  1
  La  La1  1  0.113028  0.321087  0.031309  1
  La  La2  1  0.320975  0.031049  0.112978  1
  La  La3  1  0.031084  0.112726  0.320784  1
  Pr  Pr4  1  0.968668  0.886269  0.681413  1
  Pr  Pr5  1  0.681387  0.968627  0.886044  1
  Pr  Pr6  1  0.886106  0.681397  0.968522  1
  Os  Os7  1  0.003567  0.003472  0.003499  1
  Br  Br8  1  0.213104  0.682373  0.069481  1
  Br  Br9  1  0.456093  0.373742  0.158764  1
  Br  Br10  1  0.682552  0.069906  0.213216  1
  Br  Br11  1  0.928015  0.780980  0.313977  1
  Br  Br12  1  0.158539  0.455944  0.373846  1
  Br  Br13  1  0.373799  0.158560  0.456101  1
  Br  Br14  1  0.628838  0.842827  0.546359  1
  Br  Br15  1  0.842899  0.546604  0.628857  1
  Br  Br16  1  0.069697  0.213354  0.682473  1
  Br  Br17  1  0.313733  0.927837  0.781048  1
  Br  Br18  1  0.546363  0.628888  0.842688  1
  Br  Br19  1  0.781089  0.313963  0.928172  1
