# generated using pymatgen
data_Pr4Y3Tm3Sn8
_symmetry_space_group_name_H-M   'P 1'
_cell_length_a   8.10633900
_cell_length_b   8.29385153
_cell_length_c   15.64627200
_cell_angle_alpha   90.04089098
_cell_angle_beta   90.00000000
_cell_angle_gamma   90.00000000
_symmetry_Int_Tables_number   1
_chemical_formula_structural   Pr4Y3Tm3Sn8
_chemical_formula_sum   'Pr8 Y6 Tm6 Sn16'
_cell_volume   1051.94197147
_cell_formula_units_Z   2
loop_
 _symmetry_equiv_pos_site_id
 _symmetry_equiv_pos_as_xyz
  1  'x, y, z'
loop_
 _atom_site_type_symbol
 _atom_site_label
 _atom_site_symmetry_multiplicity
 _atom_site_fract_x
 _atom_site_fract_y
 _atom_site_fract_z
 _atom_site_occupancy
  Pr  Pr0  1  0.513626  0.323110  0.902885  1
  Pr  Pr1  1  0.013626  0.176890  0.597115  1
  Pr  Pr2  1  0.486767  0.678115  0.404025  1
  Pr  Pr3  1  0.986767  0.821885  0.095975  1
  Pr  Pr4  1  0.487146  0.678193  0.095488  1
  Pr  Pr5  1  0.987146  0.821807  0.404512  1
  Pr  Pr6  1  0.512599  0.322282  0.597252  1
  Pr  Pr7  1  0.012599  0.177718  0.902748  1
  Y  Y8  1  0.643012  0.163953  0.377696  1
  Y  Y9  1  0.143012  0.336047  0.122304  1
  Y  Y10  1  0.642448  0.164065  0.123379  1
  Y  Y11  1  0.142448  0.335935  0.376621  1
  Y  Y12  1  0.357676  0.836453  0.623238  1
  Y  Y13  1  0.857676  0.663547  0.876762  1
  Tm  Tm14  1  0.357003  0.836195  0.874757  1
  Tm  Tm15  1  0.857003  0.663805  0.625243  1
  Tm  Tm16  1  0.191068  0.503035  0.750151  1
  Tm  Tm17  1  0.691068  0.996965  0.749849  1
  Tm  Tm18  1  0.809164  0.497511  0.250335  1
  Tm  Tm19  1  0.309164  0.002489  0.249665  1
  Sn  Sn20  1  0.306861  0.038942  0.040672  1
  Sn  Sn21  1  0.806861  0.461058  0.459328  1
  Sn  Sn22  1  0.696205  0.957556  0.543584  1
  Sn  Sn23  1  0.196205  0.542444  0.956416  1
  Sn  Sn24  1  0.690067  0.959575  0.956672  1
  Sn  Sn25  1  0.190067  0.540425  0.543328  1
  Sn  Sn26  1  0.305715  0.040092  0.457146  1
  Sn  Sn27  1  0.805715  0.459908  0.042854  1
  Sn  Sn28  1  0.555753  0.624441  0.749804  1
  Sn  Sn29  1  0.055753  0.875559  0.750196  1
  Sn  Sn30  1  0.444304  0.376580  0.250242  1
  Sn  Sn31  1  0.944304  0.123420  0.249758  1
  Sn  Sn32  1  0.322082  0.143347  0.750445  1
  Sn  Sn33  1  0.822082  0.356653  0.749555  1
  Sn  Sn34  1  0.678507  0.855869  0.250096  1
  Sn  Sn35  1  0.178507  0.644131  0.249904  1
