# generated using pymatgen
data_HoLu5ReBi2
_symmetry_space_group_name_H-M   'P 1'
_cell_length_a   8.12878589
_cell_length_b   8.12878704
_cell_length_c   4.30481900
_cell_angle_alpha   90.00000000
_cell_angle_beta   90.00000000
_cell_angle_gamma   119.90865994
_symmetry_Int_Tables_number   1
_chemical_formula_structural   HoLu5ReBi2
_chemical_formula_sum   'Ho1 Lu5 Re1 Bi2'
_cell_volume   246.56756627
_cell_formula_units_Z   1
loop_
 _symmetry_equiv_pos_site_id
 _symmetry_equiv_pos_as_xyz
  1  'x, y, z'
loop_
 _atom_site_type_symbol
 _atom_site_label
 _atom_site_symmetry_multiplicity
 _atom_site_fract_x
 _atom_site_fract_y
 _atom_site_fract_z
 _atom_site_occupancy
  Ho  Ho0  1  0.385581  0.385581  0.000000  1
  Lu  Lu1  1  0.230078  0.999179  0.500000  1
  Lu  Lu2  1  0.999179  0.230078  0.500000  1
  Lu  Lu3  1  0.767750  0.767750  0.500000  1
  Lu  Lu4  1  0.619124  0.000481  0.000000  1
  Lu  Lu5  1  0.000481  0.619124  0.000000  1
  Re  Re6  1  0.997374  0.997374  0.000000  1
  Bi  Bi7  1  0.332705  0.667725  0.500000  1
  Bi  Bi8  1  0.667725  0.332705  0.500000  1
