# generated using pymatgen
data_Dy3Cd3GaAgPb
_symmetry_space_group_name_H-M   'P 1'
_cell_length_a   7.42901300
_cell_length_b   7.42901276
_cell_length_c   4.51904400
_cell_angle_alpha   90.00000000
_cell_angle_beta   90.00000000
_cell_angle_gamma   119.99999660
_symmetry_Int_Tables_number   1
_chemical_formula_structural   Dy3Cd3GaAgPb
_chemical_formula_sum   'Dy3 Cd3 Ga1 Ag1 Pb1'
_cell_volume   215.99288203
_cell_formula_units_Z   1
loop_
 _symmetry_equiv_pos_site_id
 _symmetry_equiv_pos_as_xyz
  1  'x, y, z'
loop_
 _atom_site_type_symbol
 _atom_site_label
 _atom_site_symmetry_multiplicity
 _atom_site_fract_x
 _atom_site_fract_y
 _atom_site_fract_z
 _atom_site_occupancy
  Dy  Dy0  1  0.411602  0.426160  0.500000  1
  Dy  Dy1  1  0.573840  0.985442  0.500000  1
  Dy  Dy2  1  0.014558  0.588398  0.500000  1
  Cd  Cd3  1  0.748557  0.768958  0.000000  1
  Cd  Cd4  1  0.231042  0.979600  0.000000  1
  Cd  Cd5  1  0.020400  0.251443  0.000000  1
  Ga  Ga6  1  0.333333  0.666667  0.000000  1
  Ag  Ag7  1  0.000000  0.000000  0.500000  1
  Pb  Pb8  1  0.666667  0.333333  0.000000  1
