# generated using pymatgen
data_Rb2Hg(BrF)2
_symmetry_space_group_name_H-M   'P 1'
_cell_length_a   8.94078020
_cell_length_b   8.94077999
_cell_length_c   6.98747700
_cell_angle_alpha   90.00000000
_cell_angle_beta   90.00000000
_cell_angle_gamma   133.99972933
_symmetry_Int_Tables_number   1
_chemical_formula_structural   Rb2Hg(BrF)2
_chemical_formula_sum   'Rb4 Hg2 Br4 F4'
_cell_volume   401.79755451
_cell_formula_units_Z   2
loop_
 _symmetry_equiv_pos_site_id
 _symmetry_equiv_pos_as_xyz
  1  'x, y, z'
loop_
 _atom_site_type_symbol
 _atom_site_label
 _atom_site_symmetry_multiplicity
 _atom_site_fract_x
 _atom_site_fract_y
 _atom_site_fract_z
 _atom_site_occupancy
  Rb  Rb0  1  0.886215  0.113785  0.500000  1
  Rb  Rb1  1  0.386215  0.613785  0.000000  1
  Rb  Rb2  1  0.113785  0.886215  0.500000  1
  Rb  Rb3  1  0.613785  0.386215  0.000000  1
  Hg  Hg4  1  0.000000  0.000000  0.000000  1
  Hg  Hg5  1  0.500000  0.500000  0.500000  1
  Br  Br6  1  0.839191  0.160809  0.000000  1
  Br  Br7  1  0.160809  0.839191  0.000000  1
  Br  Br8  1  0.339191  0.660809  0.500000  1
  Br  Br9  1  0.660809  0.339191  0.500000  1
  F  F10  1  0.750579  0.750579  0.249082  1
  F  F11  1  0.249421  0.249421  0.750918  1
  F  F12  1  0.250579  0.250579  0.250918  1
  F  F13  1  0.749421  0.749421  0.749082  1
