# generated using pymatgen
data_Li3Zr(TaIr3)2
_symmetry_space_group_name_H-M   'P 1'
_cell_length_a   4.39817504
_cell_length_b   6.20316800
_cell_length_c   13.18428223
_cell_angle_alpha   90.00000000
_cell_angle_beta   90.00270919
_cell_angle_gamma   90.00000000
_symmetry_Int_Tables_number   1
_chemical_formula_structural   Li3Zr(TaIr3)2
_chemical_formula_sum   'Li6 Zr2 Ta4 Ir12'
_cell_volume   359.70174407
_cell_formula_units_Z   2
loop_
 _symmetry_equiv_pos_site_id
 _symmetry_equiv_pos_as_xyz
  1  'x, y, z'
loop_
 _atom_site_type_symbol
 _atom_site_label
 _atom_site_symmetry_multiplicity
 _atom_site_fract_x
 _atom_site_fract_y
 _atom_site_fract_z
 _atom_site_occupancy
  Li  Li0  1  0.999999  0.000000  0.000904  1
  Li  Li1  1  0.499994  0.500001  0.167563  1
  Li  Li2  1  0.999985  0.000000  0.332431  1
  Li  Li3  1  0.500003  0.500001  0.499094  1
  Li  Li4  1  0.000013  0.000000  0.666280  1
  Li  Li5  1  0.500010  0.500001  0.833729  1
  Zr  Zr6  1  0.000010  0.500001  0.665657  1
  Zr  Zr7  1  0.500007  0.000000  0.834337  1
  Ta  Ta8  1  0.000000  0.500001  0.001428  1
  Ta  Ta9  1  0.499995  0.000000  0.167202  1
  Ta  Ta10  1  0.999987  0.500001  0.332809  1
  Ta  Ta11  1  0.499999  0.000000  0.498574  1
  Ir  Ir12  1  0.499998  0.255002  0.005680  1
  Ir  Ir13  1  0.499998  0.744998  0.005680  1
  Ir  Ir14  1  0.999993  0.248640  0.167816  1
  Ir  Ir15  1  0.999993  0.751361  0.167816  1
  Ir  Ir16  1  0.499985  0.251345  0.332185  1
  Ir  Ir17  1  0.499985  0.748655  0.332185  1
  Ir  Ir18  1  0.000001  0.245009  0.494323  1
  Ir  Ir19  1  0.000001  0.754991  0.494323  1
  Ir  Ir20  1  0.500017  0.244957  0.662010  1
  Ir  Ir21  1  0.500017  0.755043  0.662010  1
  Ir  Ir22  1  0.000006  0.255038  0.837982  1
  Ir  Ir23  1  0.000006  0.744963  0.837982  1
