# generated using pymatgen
data_Tb2Nd3Dy2Y(CdPt)2
_symmetry_space_group_name_H-M   'P 1'
_cell_length_a   9.81113043
_cell_length_b   9.81113011
_cell_length_c   9.81074900
_cell_angle_alpha   60.00128159
_cell_angle_beta   60.00128266
_cell_angle_gamma   59.99743058
_symmetry_Int_Tables_number   1
_chemical_formula_structural   Tb2Nd3Dy2Y(CdPt)2
_chemical_formula_sum   'Tb4 Nd6 Dy4 Y2 Cd4 Pt4'
_cell_volume   667.76743024
_cell_formula_units_Z   2
loop_
 _symmetry_equiv_pos_site_id
 _symmetry_equiv_pos_as_xyz
  1  'x, y, z'
loop_
 _atom_site_type_symbol
 _atom_site_label
 _atom_site_symmetry_multiplicity
 _atom_site_fract_x
 _atom_site_fract_y
 _atom_site_fract_z
 _atom_site_occupancy
  Tb  Tb0  1  0.350883  0.350883  0.350871  1
  Tb  Tb1  1  0.350883  0.350883  0.947361  1
  Tb  Tb2  1  0.350871  0.947361  0.350883  1
  Tb  Tb3  1  0.947361  0.350871  0.350883  1
  Nd  Nd4  1  0.937839  0.562161  0.562161  1
  Nd  Nd5  1  0.562161  0.937839  0.937839  1
  Nd  Nd6  1  0.562161  0.937839  0.562161  1
  Nd  Nd7  1  0.937839  0.562161  0.937839  1
  Nd  Nd8  1  0.562173  0.562173  0.937827  1
  Nd  Nd9  1  0.937827  0.937827  0.562173  1
  Dy  Dy10  1  0.811920  0.188080  0.188080  1
  Dy  Dy11  1  0.188080  0.811920  0.811920  1
  Dy  Dy12  1  0.188080  0.811920  0.188080  1
  Dy  Dy13  1  0.811920  0.188080  0.811920  1
  Y  Y14  1  0.188322  0.188322  0.811678  1
  Y  Y15  1  0.811678  0.811678  0.188322  1
  Cd  Cd16  1  0.580083  0.580083  0.579843  1
  Cd  Cd17  1  0.580083  0.580083  0.259989  1
  Cd  Cd18  1  0.579843  0.259989  0.580083  1
  Cd  Cd19  1  0.259989  0.579843  0.580083  1
  Pt  Pt20  1  0.142557  0.142557  0.143354  1
  Pt  Pt21  1  0.142557  0.142557  0.571535  1
  Pt  Pt22  1  0.143354  0.571535  0.142557  1
  Pt  Pt23  1  0.571535  0.143354  0.142557  1
