# generated using pymatgen
data_U3Ga(PO4)6
_symmetry_space_group_name_H-M   'P 1'
_cell_length_a   9.05293855
_cell_length_b   9.05332561
_cell_length_c   9.36507377
_cell_angle_alpha   90.08911332
_cell_angle_beta   118.79524330
_cell_angle_gamma   119.99585679
_symmetry_Int_Tables_number   1
_chemical_formula_structural   U3Ga(PO4)6
_chemical_formula_sum   'U3 Ga1 P6 O24'
_cell_volume   552.04934105
_cell_formula_units_Z   1
loop_
 _symmetry_equiv_pos_site_id
 _symmetry_equiv_pos_as_xyz
  1  'x, y, z'
loop_
 _atom_site_type_symbol
 _atom_site_label
 _atom_site_symmetry_multiplicity
 _atom_site_fract_x
 _atom_site_fract_y
 _atom_site_fract_z
 _atom_site_occupancy
  U  U0  1  0.783461  0.640472  0.424900  1
  U  U1  1  0.208280  0.355243  0.563174  1
  U  U2  1  0.785208  0.141485  0.926910  1
  Ga  Ga3  1  0.209391  0.856310  0.064822  1
  P  P4  1  0.016816  0.963719  0.242058  1
  P  P5  1  0.278046  0.553639  0.244207  1
  P  P6  1  0.278351  0.746870  0.760331  1
  P  P7  1  0.689416  0.223934  0.245092  1
  P  P8  1  0.730628  0.484470  0.761622  1
  P  P9  1  0.017992  0.033442  0.763763  1
  O  O10  1  0.280186  0.716943  0.213435  1
  O  O11  1  0.874172  0.990924  0.081107  1
  O  O12  1  0.871468  0.864628  0.600337  1
  O  O13  1  0.871463  0.804252  0.276735  1
  O  O14  1  0.153984  0.932863  0.220156  1
  O  O15  1  0.474081  0.570515  0.280701  1
  O  O16  1  0.094767  0.724978  0.590781  1
  O  O17  1  0.914870  0.646760  0.917458  1
  O  O18  1  0.273651  0.776438  0.915901  1
  O  O19  1  0.475512  0.904331  0.776987  1
  O  O20  1  0.731507  0.497287  0.595375  1
  O  O21  1  0.703082  0.401502  0.272401  1
  O  O22  1  0.268995  0.572361  0.727919  1
  O  O23  1  0.264186  0.517656  0.402790  1
  O  O24  1  0.498481  0.062650  0.219471  1
  O  O25  1  0.708486  0.205711  0.089595  1
  O  O26  1  0.091334  0.377731  0.088325  1
  O  O27  1  0.886997  0.254233  0.406837  1
  O  O28  1  0.528813  0.458823  0.720064  1
  O  O29  1  0.876095  0.074515  0.776583  1
  O  O30  1  0.155246  0.193484  0.723630  1
  O  O31  1  0.146322  0.136971  0.397770  1
  O  O32  1  0.149264  0.009043  0.924735  1
  O  O33  1  0.709449  0.305814  0.784030  1
