# generated using pymatgen
data_TbLuHf4Pb5
_symmetry_space_group_name_H-M   'P 1'
_cell_length_a   6.04618889
_cell_length_b   9.15746378
_cell_length_c   11.31322996
_cell_angle_alpha   113.99801469
_cell_angle_beta   105.49876304
_cell_angle_gamma   90.00000479
_symmetry_Int_Tables_number   1
_chemical_formula_structural   TbLuHf4Pb5
_chemical_formula_sum   'Tb2 Lu2 Hf8 Pb10'
_cell_volume   547.21586165
_cell_formula_units_Z   2
loop_
 _symmetry_equiv_pos_site_id
 _symmetry_equiv_pos_as_xyz
  1  'x, y, z'
loop_
 _atom_site_type_symbol
 _atom_site_label
 _atom_site_symmetry_multiplicity
 _atom_site_fract_x
 _atom_site_fract_y
 _atom_site_fract_z
 _atom_site_occupancy
  Tb  Tb0  1  0.143791  0.253589  0.287583  1
  Tb  Tb1  1  0.856209  0.746411  0.712417  1
  Lu  Lu2  1  0.643938  0.033834  0.287876  1
  Lu  Lu3  1  0.356062  0.966166  0.712124  1
  Hf  Hf4  1  0.562176  0.312437  0.624425  1
  Hf  Hf5  1  0.437824  0.687563  0.375575  1
  Hf  Hf6  1  0.937750  0.687563  0.375575  1
  Hf  Hf7  1  0.062250  0.312437  0.624425  1
  Hf  Hf8  1  0.434191  0.671350  0.868381  1
  Hf  Hf9  1  0.565809  0.328650  0.131619  1
  Hf  Hf10  1  0.934291  0.196225  0.868583  1
  Hf  Hf11  1  0.065709  0.803775  0.131417  1
  Pb  Pb12  1  0.289064  0.591183  0.578127  1
  Pb  Pb13  1  0.710936  0.408817  0.421873  1
  Pb  Pb14  1  0.788404  0.988135  0.576808  1
  Pb  Pb15  1  0.211596  0.011865  0.423192  1
  Pb  Pb16  1  0.250805  0.000000  0.000000  1
  Pb  Pb17  1  0.749195  0.000000  0.000000  1
  Pb  Pb18  1  0.066715  0.462507  0.133430  1
  Pb  Pb19  1  0.933285  0.537493  0.866570  1
  Pb  Pb20  1  0.567177  0.673467  0.134354  1
  Pb  Pb21  1  0.432823  0.326533  0.865646  1
