# generated using pymatgen
data_Zr8Co2Ir2N
_symmetry_space_group_name_H-M   'P 1'
_cell_length_a   8.70545193
_cell_length_b   8.70545255
_cell_length_c   8.70545268
_cell_angle_alpha   120.30620375
_cell_angle_beta   119.60228410
_cell_angle_gamma   90.08034860
_symmetry_Int_Tables_number   1
_chemical_formula_structural   Zr8Co2Ir2N
_chemical_formula_sum   'Zr16 Co4 Ir4 N2'
_cell_volume   466.80809889
_cell_formula_units_Z   2
loop_
 _symmetry_equiv_pos_site_id
 _symmetry_equiv_pos_as_xyz
  1  'x, y, z'
loop_
 _atom_site_type_symbol
 _atom_site_label
 _atom_site_symmetry_multiplicity
 _atom_site_fract_x
 _atom_site_fract_y
 _atom_site_fract_z
 _atom_site_occupancy
  Zr  Zr0  1  0.937942  0.187942  0.750000  1
  Zr  Zr1  1  0.320994  0.570994  0.750000  1
  Zr  Zr2  1  0.933849  0.568117  0.756970  1
  Zr  Zr3  1  0.311147  0.176879  0.743030  1
  Zr  Zr4  1  0.933849  0.176879  0.365731  1
  Zr  Zr5  1  0.311147  0.568117  0.134269  1
  Zr  Zr6  1  0.058529  0.808529  0.250000  1
  Zr  Zr7  1  0.687348  0.437348  0.250000  1
  Zr  Zr8  1  0.060317  0.438597  0.246431  1
  Zr  Zr9  1  0.692166  0.813886  0.253569  1
  Zr  Zr10  1  0.060317  0.813886  0.621720  1
  Zr  Zr11  1  0.692166  0.438597  0.878280  1
  Zr  Zr12  1  0.481089  0.019285  0.038196  1
  Zr  Zr13  1  0.481089  0.442892  0.461804  1
  Zr  Zr14  1  0.482252  0.018094  0.464159  1
  Zr  Zr15  1  0.053935  0.018094  0.035841  1
  Co  Co16  1  0.271648  0.235298  0.463650  1
  Co  Co17  1  0.271648  0.807998  0.036350  1
  Co  Co18  1  0.273665  0.232370  0.041294  1
  Co  Co19  1  0.691075  0.232370  0.458706  1
  Ir  Ir20  1  0.706682  0.785849  0.579169  1
  Ir  Ir21  1  0.706682  0.127513  0.920831  1
  Ir  Ir22  1  0.703834  0.791345  0.912490  1
  Ir  Ir23  1  0.378856  0.791345  0.587510  1
  N  N24  1  0.998889  0.499923  0.001033  1
  N  N25  1  0.998889  0.997855  0.498967  1
