# generated using pymatgen
data_Dy3TmAl18ZnRh5
_symmetry_space_group_name_H-M   'P 1'
_cell_length_a   7.57789662
_cell_length_b   7.57957736
_cell_length_c   9.44747213
_cell_angle_alpha   89.97608392
_cell_angle_beta   90.00859305
_cell_angle_gamma   119.46999797
_symmetry_Int_Tables_number   1
_chemical_formula_structural   Dy3TmAl18ZnRh5
_chemical_formula_sum   'Dy3 Tm1 Al18 Zn1 Rh5'
_cell_volume   472.42688770
_cell_formula_units_Z   1
loop_
 _symmetry_equiv_pos_site_id
 _symmetry_equiv_pos_as_xyz
  1  'x, y, z'
loop_
 _atom_site_type_symbol
 _atom_site_label
 _atom_site_symmetry_multiplicity
 _atom_site_fract_x
 _atom_site_fract_y
 _atom_site_fract_z
 _atom_site_occupancy
  Dy  Dy0  1  0.995107  0.675545  0.248989  1
  Dy  Dy1  1  0.004894  0.324400  0.751122  1
  Dy  Dy2  1  0.675080  0.995078  0.248949  1
  Tm  Tm3  1  0.324538  0.004751  0.750539  1
  Al  Al4  1  0.135047  0.134839  0.257360  1
  Al  Al5  1  0.865927  0.865462  0.742934  1
  Al  Al6  1  0.002129  0.344856  0.078897  1
  Al  Al7  1  0.998690  0.656218  0.920277  1
  Al  Al8  1  0.001691  0.665064  0.573047  1
  Al  Al9  1  0.335688  0.999074  0.428525  1
  Al  Al10  1  0.999024  0.335581  0.427857  1
  Al  Al11  1  0.663707  0.000892  0.572924  1
  Al  Al12  1  0.654429  0.997986  0.920160  1
  Al  Al13  1  0.344487  0.002119  0.078095  1
  Al  Al14  1  0.332851  0.332263  0.551861  1
  Al  Al15  1  0.667246  0.667219  0.449156  1
  Al  Al16  1  0.657690  0.657670  0.057145  1
  Al  Al17  1  0.342106  0.341380  0.941834  1
  Al  Al18  1  0.338750  0.551570  0.251584  1
  Al  Al19  1  0.660549  0.447639  0.748453  1
  Al  Al20  1  0.551459  0.338615  0.251536  1
  Al  Al21  1  0.448441  0.661866  0.748468  1
  Zn  Zn22  1  0.999997  0.999954  0.999973  1
  Rh  Rh23  1  0.671786  0.327980  0.999610  1
  Rh  Rh24  1  0.328220  0.671981  0.999598  1
  Rh  Rh25  1  0.328318  0.671389  0.500237  1
  Rh  Rh26  1  0.671573  0.328404  0.500468  1
  Rh  Rh27  1  0.000576  0.000205  0.500401  1
