# generated using pymatgen
data_TbYbPd2Pb
_symmetry_space_group_name_H-M   'P 1'
_cell_length_a   7.86497800
_cell_length_b   7.85699800
_cell_length_c   3.70046500
_cell_angle_alpha   90.00000000
_cell_angle_beta   90.00000000
_cell_angle_gamma   90.00000000
_symmetry_Int_Tables_number   1
_chemical_formula_structural   TbYbPd2Pb
_chemical_formula_sum   'Tb2 Yb2 Pd4 Pb2'
_cell_volume   228.67066547
_cell_formula_units_Z   2
loop_
 _symmetry_equiv_pos_site_id
 _symmetry_equiv_pos_as_xyz
  1  'x, y, z'
loop_
 _atom_site_type_symbol
 _atom_site_label
 _atom_site_symmetry_multiplicity
 _atom_site_fract_x
 _atom_site_fract_y
 _atom_site_fract_z
 _atom_site_occupancy
  Tb  Tb0  1  0.827594  0.671613  0.500000  1
  Tb  Tb1  1  0.327594  0.828387  0.500000  1
  Yb  Yb2  1  0.671915  0.172766  0.500000  1
  Yb  Yb3  1  0.171915  0.327234  0.500000  1
  Pd  Pd4  1  0.374909  0.124751  0.000000  1
  Pd  Pd5  1  0.126039  0.625004  0.000000  1
  Pd  Pd6  1  0.626039  0.874996  0.000000  1
  Pd  Pd7  1  0.874909  0.375249  0.000000  1
  Pb  Pb8  1  0.999544  0.001580  0.000000  1
  Pb  Pb9  1  0.499544  0.498420  0.000000  1
