# generated using pymatgen
data_Rb4Er3Zr5Se16
_symmetry_space_group_name_H-M   'P 1'
_cell_length_a   6.83960781
_cell_length_b   7.87229500
_cell_length_c   17.01121885
_cell_angle_alpha   90.00000000
_cell_angle_beta   90.08487723
_cell_angle_gamma   90.00000000
_symmetry_Int_Tables_number   1
_chemical_formula_structural   Rb4Er3Zr5Se16
_chemical_formula_sum   'Rb4 Er3 Zr5 Se16'
_cell_volume   915.94103148
_cell_formula_units_Z   1
loop_
 _symmetry_equiv_pos_site_id
 _symmetry_equiv_pos_as_xyz
  1  'x, y, z'
loop_
 _atom_site_type_symbol
 _atom_site_label
 _atom_site_symmetry_multiplicity
 _atom_site_fract_x
 _atom_site_fract_y
 _atom_site_fract_z
 _atom_site_occupancy
  Rb  Rb0  1  0.347242  0.000000  0.000580  1
  Rb  Rb1  1  0.651115  0.500000  0.499337  1
  Rb  Rb2  1  0.029392  0.000000  0.499029  1
  Rb  Rb3  1  0.970841  0.500000  0.001204  1
  Er  Er4  1  0.001139  0.000000  0.248081  1
  Er  Er5  1  0.000951  0.000000  0.751849  1
  Er  Er6  1  0.998846  0.500000  0.251930  1
  Zr  Zr7  1  0.999476  0.500000  0.748451  1
  Zr  Zr8  1  0.500042  0.249985  0.250003  1
  Zr  Zr9  1  0.499465  0.750303  0.750058  1
  Zr  Zr10  1  0.500042  0.750015  0.250003  1
  Zr  Zr11  1  0.499465  0.249697  0.750058  1
  Se  Se12  1  0.820746  0.247828  0.344778  1
  Se  Se13  1  0.828332  0.743107  0.656468  1
  Se  Se14  1  0.179295  0.747831  0.155259  1
  Se  Se15  1  0.172430  0.260304  0.843572  1
  Se  Se16  1  0.179295  0.252169  0.155259  1
  Se  Se17  1  0.172430  0.739696  0.843572  1
  Se  Se18  1  0.820746  0.752172  0.344778  1
  Se  Se19  1  0.828332  0.256893  0.656468  1
  Se  Se20  1  0.657534  0.000000  0.157694  1
  Se  Se21  1  0.657779  0.000000  0.842967  1
  Se  Se22  1  0.342414  0.500000  0.342327  1
  Se  Se23  1  0.329553  0.500000  0.658923  1
  Se  Se24  1  0.345776  0.000000  0.341861  1
  Se  Se25  1  0.345899  0.000000  0.657536  1
  Se  Se26  1  0.654227  0.500000  0.158183  1
  Se  Se27  1  0.667195  0.500000  0.839771  1
