# generated using pymatgen
data_Ba8Sb5I
_symmetry_space_group_name_H-M   'P 1'
_cell_length_a   9.21860387
_cell_length_b   9.21860515
_cell_length_c   9.21860464
_cell_angle_alpha   109.48132488
_cell_angle_beta   109.48132928
_cell_angle_gamma   109.45101536
_symmetry_Int_Tables_number   1
_chemical_formula_structural   Ba8Sb5I
_chemical_formula_sum   'Ba8 Sb5 I1'
_cell_volume   603.07815158
_cell_formula_units_Z   1
loop_
 _symmetry_equiv_pos_site_id
 _symmetry_equiv_pos_as_xyz
  1  'x, y, z'
loop_
 _atom_site_type_symbol
 _atom_site_label
 _atom_site_symmetry_multiplicity
 _atom_site_fract_x
 _atom_site_fract_y
 _atom_site_fract_z
 _atom_site_occupancy
  Ba  Ba0  1  0.743486  0.362867  0.242352  1
  Ba  Ba1  1  0.975112  0.731388  0.092887  1
  Ba  Ba2  1  0.638502  0.882225  0.907113  1
  Ba  Ba3  1  0.120514  0.501135  0.757648  1
  Ba  Ba4  1  0.637133  0.879486  0.380620  1
  Ba  Ba5  1  0.498865  0.256514  0.619380  1
  Ba  Ba6  1  0.268612  0.361498  0.243723  1
  Ba  Ba7  1  0.117775  0.024888  0.756277  1
  Sb  Sb8  1  0.748365  0.631977  0.622900  1
  Sb  Sb9  1  0.368023  0.990922  0.116388  1
  Sb  Sb10  1  0.009078  0.125466  0.377100  1
  Sb  Sb11  1  0.500000  0.500000  0.000000  1
  Sb  Sb12  1  0.874534  0.251635  0.883612  1
  I  I13  1  0.250000  0.750000  0.500000  1
