# generated using pymatgen
data_V4B6W
_symmetry_space_group_name_H-M   'P 1'
_cell_length_a   10.89993822
_cell_length_b   10.89993918
_cell_length_c   3.06373100
_cell_angle_alpha   90.00000000
_cell_angle_beta   90.00000000
_cell_angle_gamma   164.12534193
_symmetry_Int_Tables_number   1
_chemical_formula_structural   V4B6W
_chemical_formula_sum   'V4 B6 W1'
_cell_volume   99.56570250
_cell_formula_units_Z   1
loop_
 _symmetry_equiv_pos_site_id
 _symmetry_equiv_pos_as_xyz
  1  'x, y, z'
loop_
 _atom_site_type_symbol
 _atom_site_label
 _atom_site_symmetry_multiplicity
 _atom_site_fract_x
 _atom_site_fract_y
 _atom_site_fract_z
 _atom_site_occupancy
  V  V0  1  0.192301  0.807699  0.500000  1
  V  V1  1  0.615268  0.384732  0.000000  1
  V  V2  1  0.386791  0.613209  0.000000  1
  V  V3  1  0.000871  0.999129  0.000000  1
  B  B4  1  0.917928  0.082072  0.500000  1
  B  B5  1  0.084631  0.915369  0.500000  1
  B  B6  1  0.541474  0.458526  0.500000  1
  B  B7  1  0.460914  0.539086  0.500000  1
  B  B8  1  0.723311  0.276689  0.000000  1
  B  B9  1  0.269656  0.730344  0.000000  1
  W  W10  1  0.806855  0.193145  0.500000  1
