# generated using pymatgen
data_Tb8Be(Si4Ir)3
_symmetry_space_group_name_H-M   'P 1'
_cell_length_a   8.10878600
_cell_length_b   8.10878592
_cell_length_c   8.11486700
_cell_angle_alpha   90.00000000
_cell_angle_beta   90.00000000
_cell_angle_gamma   120.00000849
_symmetry_Int_Tables_number   1
_chemical_formula_structural   Tb8Be(Si4Ir)3
_chemical_formula_sum   'Tb8 Be1 Si12 Ir3'
_cell_volume   462.08691920
_cell_formula_units_Z   1
loop_
 _symmetry_equiv_pos_site_id
 _symmetry_equiv_pos_as_xyz
  1  'x, y, z'
loop_
 _atom_site_type_symbol
 _atom_site_label
 _atom_site_symmetry_multiplicity
 _atom_site_fract_x
 _atom_site_fract_y
 _atom_site_fract_z
 _atom_site_occupancy
  Tb  Tb0  1  0.500989  0.001977  0.251569  1
  Tb  Tb1  1  0.500309  0.000620  0.748447  1
  Tb  Tb2  1  0.998023  0.499011  0.251569  1
  Tb  Tb3  1  0.999380  0.499691  0.748447  1
  Tb  Tb4  1  0.500989  0.499011  0.251569  1
  Tb  Tb5  1  0.500309  0.499691  0.748447  1
  Tb  Tb6  1  0.000000  0.000000  0.248047  1
  Tb  Tb7  1  0.000000  0.000000  0.752293  1
  Be  Be8  1  0.333333  0.666667  0.999212  1
  Si  Si9  1  0.171277  0.342553  0.999929  1
  Si  Si10  1  0.833999  0.667998  0.000434  1
  Si  Si11  1  0.657447  0.828723  0.999929  1
  Si  Si12  1  0.833359  0.666719  0.500862  1
  Si  Si13  1  0.332002  0.166001  0.000434  1
  Si  Si14  1  0.166338  0.332678  0.499141  1
  Si  Si15  1  0.171277  0.828723  0.999929  1
  Si  Si16  1  0.333281  0.166641  0.500862  1
  Si  Si17  1  0.833999  0.166001  0.000434  1
  Si  Si18  1  0.667322  0.833662  0.499141  1
  Si  Si19  1  0.833359  0.166641  0.500862  1
  Si  Si20  1  0.166338  0.833662  0.499141  1
  Ir  Ir21  1  0.666667  0.333333  0.999002  1
  Ir  Ir22  1  0.666667  0.333333  0.500601  1
  Ir  Ir23  1  0.333333  0.666667  0.499705  1
