# generated using pymatgen
data_SmY15Cd4(CoNi)2
_symmetry_space_group_name_H-M   'P 1'
_cell_length_a   9.61376135
_cell_length_b   9.61376126
_cell_length_c   9.61005404
_cell_angle_alpha   59.76039897
_cell_angle_beta   59.76039823
_cell_angle_gamma   59.88394312
_symmetry_Int_Tables_number   1
_chemical_formula_structural   SmY15Cd4(CoNi)2
_chemical_formula_sum   'Sm1 Y15 Cd4 Co2 Ni2'
_cell_volume   625.22387493
_cell_formula_units_Z   1
loop_
 _symmetry_equiv_pos_site_id
 _symmetry_equiv_pos_as_xyz
  1  'x, y, z'
loop_
 _atom_site_type_symbol
 _atom_site_label
 _atom_site_symmetry_multiplicity
 _atom_site_fract_x
 _atom_site_fract_y
 _atom_site_fract_z
 _atom_site_occupancy
  Sm  Sm0  1  0.595307  0.595307  0.600071  1
  Y  Y1  1  0.598216  0.598216  0.203259  1
  Y  Y2  1  0.595767  0.207059  0.599167  1
  Y  Y3  1  0.207059  0.595767  0.599167  1
  Y  Y4  1  0.064848  0.438229  0.439181  1
  Y  Y5  1  0.437134  0.065554  0.058004  1
  Y  Y6  1  0.438229  0.064848  0.439181  1
  Y  Y7  1  0.065554  0.437134  0.058004  1
  Y  Y8  1  0.438341  0.438341  0.062261  1
  Y  Y9  1  0.061372  0.061372  0.437573  1
  Y  Y10  1  0.186883  0.812415  0.814894  1
  Y  Y11  1  0.810910  0.187167  0.188089  1
  Y  Y12  1  0.812415  0.186883  0.814894  1
  Y  Y13  1  0.187167  0.810910  0.188089  1
  Y  Y14  1  0.813183  0.813183  0.188035  1
  Y  Y15  1  0.187606  0.187606  0.812520  1
  Cd  Cd16  1  0.829562  0.829562  0.830259  1
  Cd  Cd17  1  0.830715  0.830715  0.508005  1
  Cd  Cd18  1  0.831480  0.506084  0.831369  1
  Cd  Cd19  1  0.506084  0.831480  0.831369  1
  Co  Co20  1  0.393038  0.393038  0.391262  1
  Co  Co21  1  0.392122  0.392122  0.824719  1
  Ni  Ni22  1  0.391318  0.825690  0.390313  1
  Ni  Ni23  1  0.825690  0.391318  0.390313  1
