# generated using pymatgen
data_Tb8Pr4Fe2I17
_symmetry_space_group_name_H-M   'P 1'
_cell_length_a   9.86667642
_cell_length_b   11.92994560
_cell_length_c   11.84582146
_cell_angle_alpha   74.48030409
_cell_angle_beta   75.72826587
_cell_angle_gamma   65.78513235
_symmetry_Int_Tables_number   1
_chemical_formula_structural   Tb8Pr4Fe2I17
_chemical_formula_sum   'Tb8 Pr4 Fe2 I17'
_cell_volume   1210.37445317
_cell_formula_units_Z   1
loop_
 _symmetry_equiv_pos_site_id
 _symmetry_equiv_pos_as_xyz
  1  'x, y, z'
loop_
 _atom_site_type_symbol
 _atom_site_label
 _atom_site_symmetry_multiplicity
 _atom_site_fract_x
 _atom_site_fract_y
 _atom_site_fract_z
 _atom_site_occupancy
  Tb  Tb0  1  0.451753  0.494611  0.318191  1
  Tb  Tb1  1  0.547379  0.673251  0.013612  1
  Tb  Tb2  1  0.275977  0.980553  0.106943  1
  Tb  Tb3  1  0.854442  0.287660  0.849946  1
  Tb  Tb4  1  0.413241  0.240348  0.719630  1
  Tb  Tb5  1  0.719850  0.027306  0.890546  1
  Tb  Tb6  1  0.551961  0.497015  0.681763  1
  Tb  Tb7  1  0.458528  0.326772  0.977735  1
  Pr  Pr8  1  0.585776  0.760380  0.280267  1
  Pr  Pr9  1  0.819784  0.189296  0.586090  1
  Pr  Pr10  1  0.175711  0.811122  0.421749  1
  Pr  Pr11  1  0.145107  0.714215  0.149054  1
  Fe  Fe12  1  0.364463  0.738894  0.213493  1
  Fe  Fe13  1  0.635773  0.261146  0.785541  1
  I  I14  1  0.058891  0.105877  0.317604  1
  I  I15  1  0.466197  0.947349  0.845838  1
  I  I16  1  0.434724  0.802408  0.548202  1
  I  I17  1  0.558179  0.192533  0.460716  1
  I  I18  1  0.832807  0.718251  0.037077  1
  I  I19  1  0.236197  0.415227  0.232261  1
  I  I20  1  0.685746  0.375703  0.101425  1
  I  I21  1  0.527931  0.056296  0.153107  1
  I  I22  1  0.737696  0.472289  0.417991  1
  I  I23  1  0.883779  0.785165  0.370321  1
  I  I24  1  0.942527  0.892689  0.685565  1
  I  I25  1  0.166606  0.284628  0.954213  1
  I  I26  1  0.321515  0.626779  0.894363  1
  I  I27  1  0.996403  0.005902  0.001852  1
  I  I28  1  0.113977  0.217789  0.640723  1
  I  I29  1  0.773787  0.577280  0.765633  1
  I  I30  1  0.263292  0.521265  0.578548  1
