# generated using pymatgen
data_Ba4Fe(OsO6)2
_symmetry_space_group_name_H-M   'P 1'
_cell_length_a   5.84671298
_cell_length_b   5.84576819
_cell_length_c   10.08810409
_cell_angle_alpha   89.99641698
_cell_angle_beta   73.16878248
_cell_angle_gamma   119.99230043
_symmetry_Int_Tables_number   1
_chemical_formula_structural   Ba4Fe(OsO6)2
_chemical_formula_sum   'Ba4 Fe1 Os2 O12'
_cell_volume   281.43872216
_cell_formula_units_Z   1
loop_
 _symmetry_equiv_pos_site_id
 _symmetry_equiv_pos_as_xyz
  1  'x, y, z'
loop_
 _atom_site_type_symbol
 _atom_site_label
 _atom_site_symmetry_multiplicity
 _atom_site_fract_x
 _atom_site_fract_y
 _atom_site_fract_z
 _atom_site_occupancy
  Ba  Ba0  1  0.567180  0.283591  0.149124  1
  Ba  Ba1  1  0.419885  0.709912  0.870220  1
  Ba  Ba2  1  0.250226  0.125107  0.624570  1
  Ba  Ba3  1  0.742740  0.871430  0.385926  1
  Fe  Fe4  1  0.818400  0.409174  0.772258  1
  Os  Os5  1  0.997071  0.998487  0.004504  1
  Os  Os6  1  0.013126  0.506599  0.480312  1
  O  O7  1  0.770009  0.610718  0.619290  1
  O  O8  1  0.221160  0.610617  0.619260  1
  O  O9  1  0.770041  0.159271  0.619267  1
  O  O10  1  0.237468  0.380002  0.383158  1
  O  O11  1  0.759315  0.379765  0.383287  1
  O  O12  1  0.237359  0.857579  0.383122  1
  O  O13  1  0.082119  0.809177  0.108403  1
  O  O14  1  0.618927  0.809417  0.108467  1
  O  O15  1  0.082005  0.272725  0.108488  1
  O  O16  1  0.920674  0.202815  0.876460  1
  O  O17  1  0.405661  0.202821  0.876436  1
  O  O18  1  0.920634  0.717793  0.876452  1
