# generated using pymatgen
data_Tb4Er7TmRu4
_symmetry_space_group_name_H-M   'P 1'
_cell_length_a   6.28831276
_cell_length_b   7.31199125
_cell_length_c   9.09313200
_cell_angle_alpha   89.99360593
_cell_angle_beta   89.97190933
_cell_angle_gamma   89.98636246
_symmetry_Int_Tables_number   1
_chemical_formula_structural   Tb4Er7TmRu4
_chemical_formula_sum   'Tb4 Er7 Tm1 Ru4'
_cell_volume   418.10294362
_cell_formula_units_Z   1
loop_
 _symmetry_equiv_pos_site_id
 _symmetry_equiv_pos_as_xyz
  1  'x, y, z'
loop_
 _atom_site_type_symbol
 _atom_site_label
 _atom_site_symmetry_multiplicity
 _atom_site_fract_x
 _atom_site_fract_y
 _atom_site_fract_z
 _atom_site_occupancy
  Tb  Tb0  1  0.867127  0.540589  0.249801  1
  Tb  Tb1  1  0.632751  0.040308  0.249894  1
  Tb  Tb2  1  0.133119  0.459653  0.750157  1
  Tb  Tb3  1  0.366904  0.959441  0.750129  1
  Er  Er4  1  0.168739  0.176007  0.435212  1
  Er  Er5  1  0.668593  0.323920  0.564742  1
  Er  Er6  1  0.831259  0.823846  0.935401  1
  Er  Er7  1  0.668489  0.324109  0.935355  1
  Er  Er8  1  0.831317  0.823889  0.564766  1
  Er  Er9  1  0.331386  0.676171  0.434942  1
  Er  Er10  1  0.168864  0.176119  0.064739  1
  Tm  Tm11  1  0.331402  0.675985  0.064889  1
  Ru  Ru12  1  0.042977  0.884791  0.249875  1
  Ru  Ru13  1  0.457199  0.385157  0.249907  1
  Ru  Ru14  1  0.957221  0.114959  0.750001  1
  Ru  Ru15  1  0.542655  0.615055  0.750192  1
