# generated using pymatgen
data_Pr16Er4(Ir3Ru)3
_symmetry_space_group_name_H-M   'P 1'
_cell_length_a   11.22816200
_cell_length_b   11.22816200
_cell_length_c   6.57024800
_cell_angle_alpha   90.00000000
_cell_angle_beta   90.00000000
_cell_angle_gamma   90.00000000
_symmetry_Int_Tables_number   1
_chemical_formula_structural   Pr16Er4(Ir3Ru)3
_chemical_formula_sum   'Pr16 Er4 Ir9 Ru3'
_cell_volume   828.32182163
_cell_formula_units_Z   1
loop_
 _symmetry_equiv_pos_site_id
 _symmetry_equiv_pos_as_xyz
  1  'x, y, z'
loop_
 _atom_site_type_symbol
 _atom_site_label
 _atom_site_symmetry_multiplicity
 _atom_site_fract_x
 _atom_site_fract_y
 _atom_site_fract_z
 _atom_site_occupancy
  Pr  Pr0  1  0.290982  0.086160  0.380646  1
  Pr  Pr1  1  0.291144  0.914230  0.881169  1
  Pr  Pr2  1  0.708856  0.085770  0.881169  1
  Pr  Pr3  1  0.709018  0.913840  0.380646  1
  Pr  Pr4  1  0.585770  0.791144  0.881169  1
  Pr  Pr5  1  0.586160  0.209018  0.380646  1
  Pr  Pr6  1  0.413840  0.790982  0.380646  1
  Pr  Pr7  1  0.414230  0.208856  0.881169  1
  Pr  Pr8  1  0.210644  0.413016  0.621000  1
  Pr  Pr9  1  0.210491  0.586962  0.118465  1
  Pr  Pr10  1  0.789509  0.413038  0.118465  1
  Pr  Pr11  1  0.789356  0.586984  0.621000  1
  Pr  Pr12  1  0.913038  0.710491  0.118465  1
  Pr  Pr13  1  0.913016  0.289356  0.621000  1
  Pr  Pr14  1  0.086984  0.710644  0.621000  1
  Pr  Pr15  1  0.086962  0.289509  0.118465  1
  Er  Er16  1  0.000000  0.000000  0.498960  1
  Er  Er17  1  0.000000  0.000000  0.999079  1
  Er  Er18  1  0.500000  0.500000  0.999079  1
  Er  Er19  1  0.500000  0.500000  0.498960  1
  Ir  Ir20  1  0.853798  0.147019  0.250065  1
  Ir  Ir21  1  0.853507  0.852787  0.749606  1
  Ir  Ir22  1  0.146493  0.147213  0.749606  1
  Ir  Ir23  1  0.146202  0.852981  0.250065  1
  Ir  Ir24  1  0.647213  0.353507  0.749606  1
  Ir  Ir25  1  0.647019  0.646202  0.250065  1
  Ir  Ir26  1  0.352981  0.353798  0.250065  1
  Ir  Ir27  1  0.352787  0.646493  0.749606  1
  Ir  Ir28  1  0.000000  0.500000  0.382332  1
  Ru  Ru29  1  0.500000  0.000000  0.117452  1
  Ru  Ru30  1  0.500000  0.000000  0.616620  1
  Ru  Ru31  1  0.000000  0.500000  0.883713  1
