# generated using pymatgen
data_Tb4Ga4IrPd3
_symmetry_space_group_name_H-M   'P 1'
_cell_length_a   4.46839800
_cell_length_b   6.94532786
_cell_length_c   7.69657331
_cell_angle_alpha   89.86492746
_cell_angle_beta   90.00000000
_cell_angle_gamma   90.00000000
_symmetry_Int_Tables_number   1
_chemical_formula_structural   Tb4Ga4IrPd3
_chemical_formula_sum   'Tb4 Ga4 Ir1 Pd3'
_cell_volume   238.85855684
_cell_formula_units_Z   1
loop_
 _symmetry_equiv_pos_site_id
 _symmetry_equiv_pos_as_xyz
  1  'x, y, z'
loop_
 _atom_site_type_symbol
 _atom_site_label
 _atom_site_symmetry_multiplicity
 _atom_site_fract_x
 _atom_site_fract_y
 _atom_site_fract_z
 _atom_site_occupancy
  Tb  Tb0  1  0.250000  0.489689  0.197435  1
  Tb  Tb1  1  0.750000  0.522871  0.806026  1
  Tb  Tb2  1  0.250000  0.979710  0.297733  1
  Tb  Tb3  1  0.750000  0.017858  0.698962  1
  Ga  Ga4  1  0.250000  0.823054  0.925817  1
  Ga  Ga5  1  0.750000  0.170589  0.075696  1
  Ga  Ga6  1  0.250000  0.323864  0.574607  1
  Ga  Ga7  1  0.750000  0.677813  0.422420  1
  Ir  Ir8  1  0.750000  0.776747  0.097316  1
  Pd  Pd9  1  0.250000  0.218349  0.902757  1
  Pd  Pd10  1  0.750000  0.281610  0.403718  1
  Pd  Pd11  1  0.250000  0.717846  0.597514  1
