# generated using pymatgen
data_Ba7Tc3SbO19
_symmetry_space_group_name_H-M   'P 1'
_cell_length_a   7.83004609
_cell_length_b   7.83005326
_cell_length_c   10.98682305
_cell_angle_alpha   81.71795300
_cell_angle_beta   81.71794427
_cell_angle_gamma   44.29387149
_symmetry_Int_Tables_number   1
_chemical_formula_structural   Ba7Tc3SbO19
_chemical_formula_sum   'Ba7 Tc3 Sb1 O19'
_cell_volume   464.67646413
_cell_formula_units_Z   1
loop_
 _symmetry_equiv_pos_site_id
 _symmetry_equiv_pos_as_xyz
  1  'x, y, z'
loop_
 _atom_site_type_symbol
 _atom_site_label
 _atom_site_symmetry_multiplicity
 _atom_site_fract_x
 _atom_site_fract_y
 _atom_site_fract_z
 _atom_site_occupancy
  Ba  Ba0  1  0.203870  0.203870  0.407065  1
  Ba  Ba1  1  0.803517  0.803517  0.585807  1
  Ba  Ba2  1  0.421519  0.421519  0.174257  1
  Ba  Ba3  1  0.581307  0.581307  0.827527  1
  Ba  Ba4  1  0.498302  0.498302  0.497077  1
  Ba  Ba5  1  0.861727  0.861727  0.952600  1
  Ba  Ba6  1  0.136581  0.136581  0.051476  1
  Tc  Tc7  1  0.030972  0.030971  0.677523  1
  Tc  Tc8  1  0.673130  0.673130  0.215605  1
  Tc  Tc9  1  0.326130  0.326130  0.785351  1
  Sb  Sb10  1  0.966608  0.966609  0.319158  1
  O  O11  1  0.999357  0.999357  0.504769  1
  O  O12  1  0.688268  0.688268  0.375479  1
  O  O13  1  0.312873  0.312873  0.625265  1
  O  O14  1  0.048077  0.048077  0.842134  1
  O  O15  1  0.954137  0.954137  0.140805  1
  O  O16  1  0.394859  0.394859  0.918257  1
  O  O17  1  0.607371  0.607371  0.078966  1
  O  O18  1  0.833295  0.306478  0.285117  1
  O  O19  1  0.699136  0.165496  0.717327  1
  O  O20  1  0.165496  0.699136  0.717326  1
  O  O21  1  0.306478  0.833295  0.285116  1
  O  O22  1  0.632953  0.121524  0.378575  1
  O  O23  1  0.889466  0.347152  0.628112  1
  O  O24  1  0.347153  0.889466  0.628112  1
  O  O25  1  0.121524  0.632954  0.378575  1
  O  O26  1  0.984534  0.521533  0.158603  1
  O  O27  1  0.475457  0.014371  0.842706  1
  O  O28  1  0.014370  0.475457  0.842706  1
  O  O29  1  0.521533  0.984533  0.158603  1
