# generated using pymatgen
data_Li2Tb3HoAs4
_symmetry_space_group_name_H-M   'P 1'
_cell_length_a   4.18504800
_cell_length_b   4.18504723
_cell_length_c   14.19228200
_cell_angle_alpha   90.00000000
_cell_angle_beta   90.00000000
_cell_angle_gamma   120.00000605
_symmetry_Int_Tables_number   1
_chemical_formula_structural   Li2Tb3HoAs4
_chemical_formula_sum   'Li2 Tb3 Ho1 As4'
_cell_volume   215.27006634
_cell_formula_units_Z   1
loop_
 _symmetry_equiv_pos_site_id
 _symmetry_equiv_pos_as_xyz
  1  'x, y, z'
loop_
 _atom_site_type_symbol
 _atom_site_label
 _atom_site_symmetry_multiplicity
 _atom_site_fract_x
 _atom_site_fract_y
 _atom_site_fract_z
 _atom_site_occupancy
  Li  Li0  1  0.000000  0.000000  0.749901  1
  Li  Li1  1  0.000000  0.000000  0.249655  1
  Tb  Tb2  1  0.666667  0.333333  0.389178  1
  Tb  Tb3  1  0.333333  0.666667  0.889433  1
  Tb  Tb4  1  0.333333  0.666667  0.610588  1
  Ho  Ho5  1  0.666667  0.333333  0.110498  1
  As  As6  1  0.333333  0.666667  0.249118  1
  As  As7  1  0.000000  0.000000  0.001487  1
  As  As8  1  0.000000  0.000000  0.499970  1
  As  As9  1  0.666667  0.333333  0.750172  1
