# generated using pymatgen
data_KSi3WO9
_symmetry_space_group_name_H-M   'P 1'
_cell_length_a   6.94641700
_cell_length_b   6.94641761
_cell_length_c   9.97741900
_cell_angle_alpha   90.00000000
_cell_angle_beta   90.00000000
_cell_angle_gamma   120.00000187
_symmetry_Int_Tables_number   1
_chemical_formula_structural   KSi3WO9
_chemical_formula_sum   'K2 Si6 W2 O18'
_cell_volume   416.93713130
_cell_formula_units_Z   2
loop_
 _symmetry_equiv_pos_site_id
 _symmetry_equiv_pos_as_xyz
  1  'x, y, z'
loop_
 _atom_site_type_symbol
 _atom_site_label
 _atom_site_symmetry_multiplicity
 _atom_site_fract_x
 _atom_site_fract_y
 _atom_site_fract_z
 _atom_site_occupancy
  K  K0  1  0.670167  0.336622  0.499990  1
  K  K1  1  0.670167  0.336622  0.000010  1
  Si  Si2  1  0.206221  0.926350  0.250000  1
  Si  Si3  1  0.207071  0.281766  0.750000  1
  Si  Si4  1  0.720735  0.927652  0.750000  1
  Si  Si5  1  0.719747  0.791853  0.250000  1
  Si  Si6  1  0.074182  0.282755  0.250000  1
  Si  Si7  1  0.073075  0.791195  0.750000  1
  W  W8  1  0.334334  0.667808  0.499983  1
  W  W9  1  0.334334  0.667808  0.000017  1
  O  O10  1  0.096990  0.669395  0.616535  1
  O  O11  1  0.323525  0.894169  0.383723  1
  O  O12  1  0.573446  0.897273  0.616338  1
  O  O13  1  0.326508  0.430699  0.883824  1
  O  O14  1  0.573446  0.897273  0.883662  1
  O  O15  1  0.096990  0.669395  0.883465  1
  O  O16  1  0.573881  0.672463  0.116579  1
  O  O17  1  0.099185  0.429467  0.116224  1
  O  O18  1  0.247190  0.182162  0.250000  1
  O  O19  1  0.936358  0.752767  0.250000  1
  O  O20  1  0.819494  0.064307  0.250000  1
  O  O21  1  0.818144  0.754457  0.750000  1
  O  O22  1  0.573881  0.672463  0.383421  1
  O  O23  1  0.245924  0.065284  0.750000  1
  O  O24  1  0.935802  0.183652  0.750000  1
  O  O25  1  0.099185  0.429467  0.383776  1
  O  O26  1  0.323525  0.894169  0.116277  1
  O  O27  1  0.326508  0.430699  0.616176  1
