# generated using pymatgen
data_Tb3ErAl24Pd8Au
_symmetry_space_group_name_H-M   'P 1'
_cell_length_a   7.57045683
_cell_length_b   7.59364832
_cell_length_c   13.18120500
_cell_angle_alpha   84.52783887
_cell_angle_beta   78.99112165
_cell_angle_gamma   59.91446626
_symmetry_Int_Tables_number   1
_chemical_formula_structural   Tb3ErAl24Pd8Au
_chemical_formula_sum   'Tb3 Er1 Al24 Pd8 Au1'
_cell_volume   643.60113573
_cell_formula_units_Z   1
loop_
 _symmetry_equiv_pos_site_id
 _symmetry_equiv_pos_as_xyz
  1  'x, y, z'
loop_
 _atom_site_type_symbol
 _atom_site_label
 _atom_site_symmetry_multiplicity
 _atom_site_fract_x
 _atom_site_fract_y
 _atom_site_fract_z
 _atom_site_occupancy
  Tb  Tb0  1  0.391790  0.169710  0.809324  1
  Tb  Tb1  1  0.606623  0.831616  0.191384  1
  Tb  Tb2  1  0.734500  0.498171  0.809140  1
  Er  Er3  1  0.266692  0.501523  0.191390  1
  Al  Al4  1  0.683232  0.834194  0.945528  1
  Al  Al5  1  0.315223  0.166737  0.056051  1
  Al  Al6  1  0.146170  0.838985  0.560034  1
  Al  Al7  1  0.854883  0.166476  0.436269  1
  Al  Al8  1  0.487243  0.160274  0.557866  1
  Al  Al9  1  0.520527  0.833485  0.439395  1
  Al  Al10  1  0.217674  0.165672  0.328268  1
  Al  Al11  1  0.777109  0.839763  0.673247  1
  Al  Al12  1  0.440210  0.507378  0.673651  1
  Al  Al13  1  0.563372  0.492943  0.327813  1
  Al  Al14  1  0.108619  0.153078  0.672035  1
  Al  Al15  1  0.891513  0.839895  0.329152  1
  Al  Al16  1  0.353222  0.499161  0.945658  1
  Al  Al17  1  0.646682  0.500266  0.056092  1
  Al  Al18  1  0.014941  0.167276  0.955307  1
  Al  Al19  1  0.984888  0.832079  0.046582  1
  Al  Al20  1  0.188443  0.499739  0.435782  1
  Al  Al21  1  0.807316  0.499705  0.557727  1
  Al  Al22  1  0.733293  0.164239  0.183752  1
  Al  Al23  1  0.267347  0.835900  0.816695  1
  Al  Al24  1  0.060490  0.634619  0.818466  1
  Al  Al25  1  0.938804  0.368986  0.185141  1
  Al  Al26  1  0.853850  0.042811  0.816447  1
  Al  Al27  1  0.144762  0.957584  0.183941  1
  Pd  Pd28  1  0.879990  0.507903  0.361532  1
  Pd  Pd29  1  0.657160  0.171393  0.999738  1
  Pd  Pd30  1  0.342862  0.828257  0.999934  1
  Pd  Pd31  1  0.537601  0.166945  0.361677  1
  Pd  Pd32  1  0.462318  0.833014  0.637616  1
  Pd  Pd33  1  0.778903  0.174835  0.637045  1
  Pd  Pd34  1  0.221596  0.824657  0.362175  1
  Pd  Pd35  1  0.000035  0.499823  0.000227  1
  Au  Au36  1  0.120113  0.490907  0.637918  1
