# generated using pymatgen
data_Zr6Tc5Ge6Os
_symmetry_space_group_name_H-M   'P 1'
_cell_length_a   7.90766207
_cell_length_b   7.91255376
_cell_length_c   7.90796316
_cell_angle_alpha   126.64534847
_cell_angle_beta   127.70986855
_cell_angle_gamma   77.95061981
_symmetry_Int_Tables_number   1
_chemical_formula_structural   Zr6Tc5Ge6Os
_chemical_formula_sum   'Zr6 Tc5 Ge6 Os1'
_cell_volume   304.40063752
_cell_formula_units_Z   1
loop_
 _symmetry_equiv_pos_site_id
 _symmetry_equiv_pos_as_xyz
  1  'x, y, z'
loop_
 _atom_site_type_symbol
 _atom_site_label
 _atom_site_symmetry_multiplicity
 _atom_site_fract_x
 _atom_site_fract_y
 _atom_site_fract_z
 _atom_site_occupancy
  Zr  Zr0  1  0.452326  0.408176  0.457244  1
  Zr  Zr1  1  0.549567  0.003249  0.954664  1
  Zr  Zr2  1  0.048189  0.003375  0.454172  1
  Zr  Zr3  1  0.951345  0.408939  0.956296  1
  Zr  Zr4  1  0.249405  0.597537  0.849046  1
  Zr  Zr5  1  0.748792  0.597864  0.348099  1
  Tc  Tc6  1  0.000626  0.257328  0.256683  1
  Tc  Tc7  1  0.499783  0.257758  0.758110  1
  Tc  Tc8  1  0.372646  0.748278  0.376079  1
  Tc  Tc9  1  0.627440  0.003339  0.375142  1
  Tc  Tc10  1  0.873371  0.749589  0.875577  1
  Ge  Ge11  1  0.250844  0.002984  0.254781  1
  Ge  Ge12  1  0.748725  0.003424  0.752032  1
  Ge  Ge13  1  0.166673  0.670093  0.503853  1
  Ge  Ge14  1  0.832984  0.336254  0.502791  1
  Ge  Ge15  1  0.666464  0.670559  0.003720  1
  Ge  Ge16  1  0.333045  0.336124  0.003546  1
  Os  Os17  1  0.127772  0.003129  0.876167  1
