# generated using pymatgen
data_PuZr(Nb2N3)4
_symmetry_space_group_name_H-M   'P 1'
_cell_length_a   5.33782300
_cell_length_b   5.33782161
_cell_length_c   10.65140700
_cell_angle_alpha   90.00000000
_cell_angle_beta   90.00000000
_cell_angle_gamma   120.00000243
_symmetry_Int_Tables_number   1
_chemical_formula_structural   PuZr(Nb2N3)4
_chemical_formula_sum   'Pu1 Zr1 Nb8 N12'
_cell_volume   262.82448670
_cell_formula_units_Z   1
loop_
 _symmetry_equiv_pos_site_id
 _symmetry_equiv_pos_as_xyz
  1  'x, y, z'
loop_
 _atom_site_type_symbol
 _atom_site_label
 _atom_site_symmetry_multiplicity
 _atom_site_fract_x
 _atom_site_fract_y
 _atom_site_fract_z
 _atom_site_occupancy
  Pu  Pu0  1  0.666667  0.333333  0.000000  1
  Zr  Zr1  1  0.333333  0.666667  0.500000  1
  Nb  Nb2  1  0.666667  0.333333  0.500000  1
  Nb  Nb3  1  0.333333  0.666667  0.000000  1
  Nb  Nb4  1  0.675697  0.000252  0.747495  1
  Nb  Nb5  1  0.675697  0.675444  0.252505  1
  Nb  Nb6  1  0.999748  0.324303  0.252505  1
  Nb  Nb7  1  0.999748  0.675444  0.747495  1
  Nb  Nb8  1  0.324556  0.324303  0.747495  1
  Nb  Nb9  1  0.324556  0.000252  0.252505  1
  N  N10  1  0.346461  0.339240  0.377000  1
  N  N11  1  0.660760  0.007222  0.377000  1
  N  N12  1  0.992778  0.653539  0.377000  1
  N  N13  1  0.009713  0.348452  0.870214  1
  N  N14  1  0.651548  0.990287  0.129786  1
  N  N15  1  0.651548  0.661261  0.870214  1
  N  N16  1  0.338739  0.990287  0.870214  1
  N  N17  1  0.660760  0.653539  0.623000  1
  N  N18  1  0.992778  0.339240  0.623000  1
  N  N19  1  0.009713  0.661261  0.129786  1
  N  N20  1  0.346461  0.007222  0.623000  1
  N  N21  1  0.338739  0.348452  0.129786  1
