# generated using pymatgen
data_SmGd2In3O9
_symmetry_space_group_name_H-M   'P 1'
_cell_length_a   6.43820200
_cell_length_b   6.43820194
_cell_length_c   12.45122200
_cell_angle_alpha   90.00000000
_cell_angle_beta   90.00000000
_cell_angle_gamma   119.99999001
_symmetry_Int_Tables_number   1
_chemical_formula_structural   SmGd2In3O9
_chemical_formula_sum   'Sm2 Gd4 In6 O18'
_cell_volume   446.96328006
_cell_formula_units_Z   2
loop_
 _symmetry_equiv_pos_site_id
 _symmetry_equiv_pos_as_xyz
  1  'x, y, z'
loop_
 _atom_site_type_symbol
 _atom_site_label
 _atom_site_symmetry_multiplicity
 _atom_site_fract_x
 _atom_site_fract_y
 _atom_site_fract_z
 _atom_site_occupancy
  Sm  Sm0  1  0.666667  0.333333  0.960893  1
  Sm  Sm1  1  0.333333  0.666667  0.460893  1
  Gd  Gd2  1  0.666667  0.333333  0.461725  1
  Gd  Gd3  1  0.333333  0.666667  0.961725  1
  Gd  Gd4  1  0.000000  0.000000  0.996788  1
  Gd  Gd5  1  0.000000  0.000000  0.496788  1
  In  In6  1  0.666801  0.667008  0.726626  1
  In  In7  1  0.000206  0.333199  0.726626  1
  In  In8  1  0.333199  0.332992  0.226626  1
  In  In9  1  0.999794  0.666801  0.226626  1
  In  In10  1  0.332992  0.999794  0.726626  1
  In  In11  1  0.667008  0.000206  0.226626  1
  O  O12  1  0.692284  0.694883  0.897076  1
  O  O13  1  0.002599  0.307716  0.897076  1
  O  O14  1  0.307716  0.305117  0.397076  1
  O  O15  1  0.997401  0.692284  0.397076  1
  O  O16  1  0.305117  0.997401  0.897076  1
  O  O17  1  0.694883  0.002599  0.397076  1
  O  O18  1  0.642372  0.640126  0.557692  1
  O  O19  1  0.997754  0.357628  0.557692  1
  O  O20  1  0.357628  0.359874  0.057692  1
  O  O21  1  0.002246  0.642372  0.057692  1
  O  O22  1  0.359874  0.002246  0.557692  1
  O  O23  1  0.640126  0.997754  0.057692  1
  O  O24  1  0.000000  0.000000  0.696548  1
  O  O25  1  0.000000  0.000000  0.196548  1
  O  O26  1  0.666667  0.333333  0.753250  1
  O  O27  1  0.333333  0.666667  0.253250  1
  O  O28  1  0.666667  0.333333  0.252506  1
  O  O29  1  0.333333  0.666667  0.752506  1
