# generated using pymatgen
data_DyCoNiP2
_symmetry_space_group_name_H-M   'P 1'
_cell_length_a   3.92906900
_cell_length_b   3.92908300
_cell_length_c   9.07214300
_cell_angle_alpha   90.00000000
_cell_angle_beta   90.00000000
_cell_angle_gamma   90.00000000
_symmetry_Int_Tables_number   1
_chemical_formula_structural   DyCoNiP2
_chemical_formula_sum   'Dy2 Co2 Ni2 P4'
_cell_volume   140.05246146
_cell_formula_units_Z   2
loop_
 _symmetry_equiv_pos_site_id
 _symmetry_equiv_pos_as_xyz
  1  'x, y, z'
loop_
 _atom_site_type_symbol
 _atom_site_label
 _atom_site_symmetry_multiplicity
 _atom_site_fract_x
 _atom_site_fract_y
 _atom_site_fract_z
 _atom_site_occupancy
  Dy  Dy0  1  0.000000  0.500000  0.745492  1
  Dy  Dy1  1  0.500000  0.000000  0.254508  1
  Co  Co2  1  0.000000  0.500000  0.387610  1
  Co  Co3  1  0.500000  0.000000  0.612390  1
  Ni  Ni4  1  0.500000  0.500000  0.000001  1
  Ni  Ni5  1  0.000000  0.000000  0.999999  1
  P  P6  1  0.500000  0.000000  0.860494  1
  P  P7  1  0.000000  0.500000  0.139506  1
  P  P8  1  0.000000  0.000000  0.500000  1
  P  P9  1  0.500000  0.500000  0.500000  1
