# generated using pymatgen
data_LiNb5Re5Si6Mo
_symmetry_space_group_name_H-M   'P 1'
_cell_length_a   7.64963652
_cell_length_b   7.58717741
_cell_length_c   7.64708671
_cell_angle_alpha   126.00160024
_cell_angle_beta   128.90611612
_cell_angle_gamma   77.69084077
_symmetry_Int_Tables_number   1
_chemical_formula_structural   LiNb5Re5Si6Mo
_chemical_formula_sum   'Li1 Nb5 Re5 Si6 Mo1'
_cell_volume   270.69865424
_cell_formula_units_Z   1
loop_
 _symmetry_equiv_pos_site_id
 _symmetry_equiv_pos_as_xyz
  1  'x, y, z'
loop_
 _atom_site_type_symbol
 _atom_site_label
 _atom_site_symmetry_multiplicity
 _atom_site_fract_x
 _atom_site_fract_y
 _atom_site_fract_z
 _atom_site_occupancy
  Li  Li0  1  0.556848  0.107521  0.051820  1
  Nb  Nb1  1  0.448296  0.488884  0.541010  1
  Nb  Nb2  1  0.948978  0.488842  0.038334  1
  Nb  Nb3  1  0.049794  0.091720  0.543825  1
  Nb  Nb4  1  0.753080  0.909259  0.654851  1
  Nb  Nb5  1  0.242432  0.892435  0.150842  1
  Re  Re6  1  0.003434  0.240156  0.239692  1
  Re  Re7  1  0.123097  0.753250  0.620276  1
  Re  Re8  1  0.874991  0.500387  0.633780  1
  Re  Re9  1  0.632858  0.754246  0.129723  1
  Re  Re10  1  0.366336  0.500391  0.125989  1
  Si  Si11  1  0.746228  0.492734  0.246291  1
  Si  Si12  1  0.250938  0.498754  0.748223  1
  Si  Si13  1  0.341941  0.832343  0.514001  1
  Si  Si14  1  0.658642  0.158307  0.474741  1
  Si  Si15  1  0.818648  0.835982  0.992250  1
  Si  Si16  1  0.182980  0.158876  0.001193  1
  Mo  Mo17  1  0.500478  0.238110  0.735357  1
