# generated using pymatgen
data_Tb3TmTc2Pt2F28
_symmetry_space_group_name_H-M   'P 1'
_cell_length_a   5.58212535
_cell_length_b   8.91166186
_cell_length_c   12.00496105
_cell_angle_alpha   62.46296967
_cell_angle_beta   90.13783829
_cell_angle_gamma   90.05561961
_symmetry_Int_Tables_number   1
_chemical_formula_structural   Tb3TmTc2Pt2F28
_chemical_formula_sum   'Tb3 Tm1 Tc2 Pt2 F28'
_cell_volume   529.54207250
_cell_formula_units_Z   1
loop_
 _symmetry_equiv_pos_site_id
 _symmetry_equiv_pos_as_xyz
  1  'x, y, z'
loop_
 _atom_site_type_symbol
 _atom_site_label
 _atom_site_symmetry_multiplicity
 _atom_site_fract_x
 _atom_site_fract_y
 _atom_site_fract_z
 _atom_site_occupancy
  Tb  Tb0  1  0.741063  0.187010  0.733371  1
  Tb  Tb1  1  0.760097  0.183738  0.237192  1
  Tb  Tb2  1  0.239292  0.813520  0.763064  1
  Tm  Tm3  1  0.259846  0.812814  0.266009  1
  Tc  Tc4  1  0.757886  0.727090  0.045395  1
  Tc  Tc5  1  0.244253  0.271856  0.957741  1
  Pt  Pt6  1  0.258494  0.275075  0.455514  1
  Pt  Pt7  1  0.740755  0.727454  0.541407  1
  F  F8  1  0.936285  0.703115  0.414446  1
  F  F9  1  0.066604  0.297366  0.584274  1
  F  F10  1  0.451438  0.292415  0.081710  1
  F  F11  1  0.548570  0.707807  0.921464  1
  F  F12  1  0.480029  0.731830  0.143989  1
  F  F13  1  0.524534  0.269341  0.860678  1
  F  F14  1  0.965609  0.274256  0.364500  1
  F  F15  1  0.032548  0.725664  0.634021  1
  F  F16  1  0.964331  0.748355  0.171351  1
  F  F17  1  0.043484  0.252656  0.829823  1
  F  F18  1  0.444899  0.257860  0.322745  1
  F  F19  1  0.552136  0.744020  0.674069  1
  F  F20  1  0.771640  0.479870  0.143196  1
  F  F21  1  0.229736  0.519355  0.858774  1
  F  F22  1  0.268975  0.523924  0.357339  1
  F  F23  1  0.728162  0.479487  0.640115  1
  F  F24  1  0.953098  0.279092  0.047943  1
  F  F25  1  0.046168  0.720033  0.953261  1
  F  F26  1  0.440453  0.720267  0.455942  1
  F  F27  1  0.558715  0.282589  0.539634  1
  F  F28  1  0.743428  0.975670  0.450038  1
  F  F29  1  0.257479  0.026637  0.548175  1
  F  F30  1  0.244380  0.025139  0.055797  1
  F  F31  1  0.757733  0.973616  0.946860  1
  F  F32  1  0.575856  0.967302  0.235462  1
  F  F33  1  0.414912  0.031211  0.765736  1
  F  F34  1  0.082874  0.022717  0.269824  1
  F  F35  1  0.914235  0.969849  0.729141  1
