# generated using pymatgen
data_CsRb(CO3)2
_symmetry_space_group_name_H-M   'P 1'
_cell_length_a   6.03270100
_cell_length_b   7.73643369
_cell_length_c   9.80180149
_cell_angle_alpha   74.33324668
_cell_angle_beta   89.99996444
_cell_angle_gamma   89.99988071
_symmetry_Int_Tables_number   1
_chemical_formula_structural   CsRb(CO3)2
_chemical_formula_sum   'Cs2 Rb2 C4 O12'
_cell_volume   440.47018431
_cell_formula_units_Z   2
loop_
 _symmetry_equiv_pos_site_id
 _symmetry_equiv_pos_as_xyz
  1  'x, y, z'
loop_
 _atom_site_type_symbol
 _atom_site_label
 _atom_site_symmetry_multiplicity
 _atom_site_fract_x
 _atom_site_fract_y
 _atom_site_fract_z
 _atom_site_occupancy
  Cs  Cs0  1  0.004819  0.723608  0.635298  1
  Cs  Cs1  1  0.504820  0.276393  0.364702  1
  Rb  Rb2  1  0.503364  0.218678  0.880118  1
  Rb  Rb3  1  0.003363  0.781322  0.119882  1
  C  C4  1  0.007921  0.247032  0.124287  1
  C  C5  1  0.490038  0.746811  0.387693  1
  C  C6  1  0.507920  0.752969  0.875713  1
  C  C7  1  0.990038  0.253189  0.612307  1
  O  O8  1  0.975641  0.397548  0.152013  1
  O  O9  1  0.797584  0.308288  0.637060  1
  O  O10  1  0.297584  0.691712  0.362940  1
  O  O11  1  0.662324  0.696691  0.332035  1
  O  O12  1  0.162324  0.303309  0.667965  1
  O  O13  1  0.341855  0.842660  0.901595  1
  O  O14  1  0.475641  0.602452  0.847987  1
  O  O15  1  0.705302  0.814293  0.876206  1
  O  O16  1  0.511152  0.849622  0.469900  1
  O  O17  1  0.841856  0.157341  0.098405  1
  O  O18  1  0.205303  0.185707  0.123794  1
  O  O19  1  0.011153  0.150378  0.530100  1
