# generated using pymatgen
data_Tb2Dy18Sn7Pb9
_symmetry_space_group_name_H-M   'P 1'
_cell_length_a   8.15493900
_cell_length_b   8.21321861
_cell_length_c   15.58899000
_cell_angle_alpha   90.00000000
_cell_angle_beta   90.00000000
_cell_angle_gamma   90.02206523
_symmetry_Int_Tables_number   1
_chemical_formula_structural   Tb2Dy18Sn7Pb9
_chemical_formula_sum   'Tb2 Dy18 Sn7 Pb9'
_cell_volume   1044.12392083
_cell_formula_units_Z   1
loop_
 _symmetry_equiv_pos_site_id
 _symmetry_equiv_pos_as_xyz
  1  'x, y, z'
loop_
 _atom_site_type_symbol
 _atom_site_label
 _atom_site_symmetry_multiplicity
 _atom_site_fract_x
 _atom_site_fract_y
 _atom_site_fract_z
 _atom_site_occupancy
  Tb  Tb0  1  0.211078  0.503255  0.750000  1
  Tb  Tb1  1  0.711030  0.996618  0.750000  1
  Dy  Dy2  1  0.380123  0.838402  0.876907  1
  Dy  Dy3  1  0.880427  0.661139  0.623206  1
  Dy  Dy4  1  0.619728  0.161227  0.377525  1
  Dy  Dy5  1  0.119594  0.337331  0.122654  1
  Dy  Dy6  1  0.619728  0.161227  0.122475  1
  Dy  Dy7  1  0.119594  0.337331  0.377346  1
  Dy  Dy8  1  0.380123  0.838402  0.623093  1
  Dy  Dy9  1  0.880427  0.661139  0.876794  1
  Dy  Dy10  1  0.537543  0.324710  0.895702  1
  Dy  Dy11  1  0.037996  0.174811  0.604491  1
  Dy  Dy12  1  0.465008  0.675348  0.397064  1
  Dy  Dy13  1  0.960301  0.826894  0.101682  1
  Dy  Dy14  1  0.465008  0.675348  0.102936  1
  Dy  Dy15  1  0.960301  0.826894  0.398318  1
  Dy  Dy16  1  0.537543  0.324710  0.604298  1
  Dy  Dy17  1  0.037996  0.174811  0.895509  1
  Dy  Dy18  1  0.787085  0.495146  0.250000  1
  Dy  Dy19  1  0.290888  0.006194  0.250000  1
  Sn  Sn20  1  0.576918  0.622169  0.750000  1
  Sn  Sn21  1  0.077070  0.877391  0.750000  1
  Sn  Sn22  1  0.423921  0.376832  0.250000  1
  Sn  Sn23  1  0.923115  0.121371  0.250000  1
  Sn  Sn24  1  0.345114  0.148086  0.750000  1
  Sn  Sn25  1  0.845050  0.351779  0.750000  1
  Sn  Sn26  1  0.655685  0.851188  0.250000  1
  Pb  Pb27  1  0.280663  0.031583  0.041064  1
  Pb  Pb28  1  0.781572  0.467425  0.459022  1
  Pb  Pb29  1  0.718465  0.968463  0.541997  1
  Pb  Pb30  1  0.219091  0.531574  0.958762  1
  Pb  Pb31  1  0.718465  0.968463  0.958003  1
  Pb  Pb32  1  0.219091  0.531574  0.541238  1
  Pb  Pb33  1  0.280663  0.031583  0.458936  1
  Pb  Pb34  1  0.781572  0.467425  0.040978  1
  Pb  Pb35  1  0.152018  0.652157  0.250000  1
