# generated using pymatgen
data_Lu8HfSi16W11
_symmetry_space_group_name_H-M   'P 1'
_cell_length_a   6.69832519
_cell_length_b   6.89883492
_cell_length_c   12.92430060
_cell_angle_alpha   89.93695077
_cell_angle_beta   89.96247953
_cell_angle_gamma   90.08424001
_symmetry_Int_Tables_number   1
_chemical_formula_structural   Lu8HfSi16W11
_chemical_formula_sum   'Lu8 Hf1 Si16 W11'
_cell_volume   597.23906259
_cell_formula_units_Z   1
loop_
 _symmetry_equiv_pos_site_id
 _symmetry_equiv_pos_as_xyz
  1  'x, y, z'
loop_
 _atom_site_type_symbol
 _atom_site_label
 _atom_site_symmetry_multiplicity
 _atom_site_fract_x
 _atom_site_fract_y
 _atom_site_fract_z
 _atom_site_occupancy
  Lu  Lu0  1  0.495735  0.669836  0.593224  1
  Lu  Lu1  1  0.995498  0.828857  0.907998  1
  Lu  Lu2  1  0.505735  0.330124  0.092882  1
  Lu  Lu3  1  0.002909  0.168025  0.406685  1
  Lu  Lu4  1  0.504962  0.331608  0.405558  1
  Lu  Lu5  1  0.004680  0.168696  0.093223  1
  Lu  Lu6  1  0.495311  0.671740  0.908256  1
  Lu  Lu7  1  0.996576  0.828567  0.593879  1
  Hf  Hf8  1  0.667021  0.169090  0.624383  1
  Si  Si9  1  0.663038  0.955448  0.450913  1
  Si  Si10  1  0.163992  0.539914  0.046983  1
  Si  Si11  1  0.334729  0.043118  0.956890  1
  Si  Si12  1  0.840093  0.466982  0.541937  1
  Si  Si13  1  0.328270  0.040610  0.541351  1
  Si  Si14  1  0.834555  0.458939  0.955880  1
  Si  Si15  1  0.665432  0.957495  0.045092  1
  Si  Si16  1  0.164076  0.539125  0.453473  1
  Si  Si17  1  0.462219  0.380296  0.754508  1
  Si  Si18  1  0.969968  0.123732  0.752703  1
  Si  Si19  1  0.534933  0.625088  0.248946  1
  Si  Si20  1  0.032837  0.873844  0.248949  1
  Si  Si21  1  0.701698  0.860554  0.750544  1
  Si  Si22  1  0.199499  0.637335  0.750429  1
  Si  Si23  1  0.301670  0.137079  0.249878  1
  Si  Si24  1  0.802879  0.362572  0.249384  1
  W  W25  1  0.166935  0.337154  0.876629  1
  W  W26  1  0.329772  0.838223  0.124632  1
  W  W27  1  0.834548  0.663784  0.371461  1
  W  W28  1  0.327053  0.835289  0.373488  1
  W  W29  1  0.830560  0.662544  0.124185  1
  W  W30  1  0.668816  0.160820  0.877963  1
  W  W31  1  0.169491  0.334140  0.624881  1
  W  W32  1  0.835287  0.499898  0.752610  1
  W  W33  1  0.339072  0.004732  0.752191  1
  W  W34  1  0.167851  0.497235  0.249303  1
  W  W35  1  0.662301  0.997506  0.248709  1
