# generated using pymatgen
data_Ho2Si7(IrRu)6
_symmetry_space_group_name_H-M   'P 1'
_cell_length_a   9.57256300
_cell_length_b   9.57256348
_cell_length_c   3.88405500
_cell_angle_alpha   90.00000000
_cell_angle_beta   90.00000000
_cell_angle_gamma   120.00000181
_symmetry_Int_Tables_number   1
_chemical_formula_structural   Ho2Si7(IrRu)6
_chemical_formula_sum   'Ho2 Si7 Ir6 Ru6'
_cell_volume   308.22828018
_cell_formula_units_Z   1
loop_
 _symmetry_equiv_pos_site_id
 _symmetry_equiv_pos_as_xyz
  1  'x, y, z'
loop_
 _atom_site_type_symbol
 _atom_site_label
 _atom_site_symmetry_multiplicity
 _atom_site_fract_x
 _atom_site_fract_y
 _atom_site_fract_z
 _atom_site_occupancy
  Ho  Ho0  1  0.000000  0.000000  0.000000  1
  Ho  Ho1  1  0.333333  0.666667  0.500000  1
  Si  Si2  1  0.552303  0.922997  0.000000  1
  Si  Si3  1  0.370693  0.447697  0.000000  1
  Si  Si4  1  0.077003  0.629307  0.000000  1
  Si  Si5  1  0.951663  0.222318  0.500000  1
  Si  Si6  1  0.270655  0.048337  0.500000  1
  Si  Si7  1  0.777682  0.729345  0.500000  1
  Si  Si8  1  0.666667  0.333333  0.000000  1
  Ir  Ir9  1  0.298543  0.901114  0.000000  1
  Ir  Ir10  1  0.602572  0.701457  0.000000  1
  Ir  Ir11  1  0.098886  0.397428  0.000000  1
  Ir  Ir12  1  0.721989  0.946235  0.500000  1
  Ir  Ir13  1  0.224247  0.278011  0.500000  1
  Ir  Ir14  1  0.053765  0.775753  0.500000  1
  Ru  Ru15  1  0.785968  0.177471  0.000000  1
  Ru  Ru16  1  0.391502  0.214032  0.000000  1
  Ru  Ru17  1  0.822529  0.608498  0.000000  1
  Ru  Ru18  1  0.551850  0.119320  0.500000  1
  Ru  Ru19  1  0.567469  0.448150  0.500000  1
  Ru  Ru20  1  0.880680  0.432531  0.500000  1
