# generated using pymatgen
data_Li3Ta2Ni9P7
_symmetry_space_group_name_H-M   'P 1'
_cell_length_a   9.14716802
_cell_length_b   9.17112360
_cell_length_c   3.62724000
_cell_angle_alpha   90.00000000
_cell_angle_beta   90.00000000
_cell_angle_gamma   119.92237338
_symmetry_Int_Tables_number   1
_chemical_formula_structural   Li3Ta2Ni9P7
_chemical_formula_sum   'Li3 Ta2 Ni9 P7'
_cell_volume   263.72743361
_cell_formula_units_Z   1
loop_
 _symmetry_equiv_pos_site_id
 _symmetry_equiv_pos_as_xyz
  1  'x, y, z'
loop_
 _atom_site_type_symbol
 _atom_site_label
 _atom_site_symmetry_multiplicity
 _atom_site_fract_x
 _atom_site_fract_y
 _atom_site_fract_z
 _atom_site_occupancy
  Li  Li0  1  0.232481  0.104910  0.500000  1
  Li  Li1  1  0.330862  0.667467  0.000000  1
  Li  Li2  1  0.665381  0.333257  0.500000  1
  Ta  Ta3  1  0.872824  0.776968  0.500000  1
  Ta  Ta4  1  0.900008  0.123945  0.500000  1
  Ni  Ni5  1  0.706810  0.873275  0.000000  1
  Ni  Ni6  1  0.169321  0.285499  0.000000  1
  Ni  Ni7  1  0.127469  0.843710  0.000000  1
  Ni  Ni8  1  0.626760  0.565939  0.000000  1
  Ni  Ni9  1  0.938165  0.371126  0.000000  1
  Ni  Ni10  1  0.432378  0.063286  0.000000  1
  Ni  Ni11  1  0.554740  0.944791  0.500000  1
  Ni  Ni12  1  0.389587  0.433024  0.500000  1
  Ni  Ni13  1  0.054497  0.612603  0.500000  1
  P  P14  1  0.574569  0.706769  0.500000  1
  P  P15  1  0.131139  0.420348  0.500000  1
  P  P16  1  0.288044  0.870869  0.500000  1
  P  P17  1  0.002352  0.002028  0.000000  1
  P  P18  1  0.881464  0.578496  0.000000  1
  P  P19  1  0.695543  0.120174  0.000000  1
  P  P20  1  0.425607  0.301515  0.000000  1
