# generated using pymatgen
data_Ca2HfZrAs4
_symmetry_space_group_name_H-M   'P 1'
_cell_length_a   3.95733000
_cell_length_b   3.95732886
_cell_length_c   13.86969600
_cell_angle_alpha   90.00000000
_cell_angle_beta   90.00000000
_cell_angle_gamma   120.00000949
_symmetry_Int_Tables_number   1
_chemical_formula_structural   Ca2HfZrAs4
_chemical_formula_sum   'Ca2 Hf1 Zr1 As4'
_cell_volume   188.10569426
_cell_formula_units_Z   1
loop_
 _symmetry_equiv_pos_site_id
 _symmetry_equiv_pos_as_xyz
  1  'x, y, z'
loop_
 _atom_site_type_symbol
 _atom_site_label
 _atom_site_symmetry_multiplicity
 _atom_site_fract_x
 _atom_site_fract_y
 _atom_site_fract_z
 _atom_site_occupancy
  Ca  Ca0  1  0.333333  0.666667  0.378126  1
  Ca  Ca1  1  0.666667  0.333333  0.879724  1
  Hf  Hf2  1  0.333333  0.666667  0.122317  1
  Zr  Zr3  1  0.666667  0.333333  0.621910  1
  As  As4  1  0.666667  0.333333  0.235050  1
  As  As5  1  0.333333  0.666667  0.737740  1
  As  As6  1  0.000000  0.000000  0.511104  1
  As  As7  1  0.000000  0.000000  0.014030  1
