# generated using pymatgen
data_Sc2TaNb3Si7Ni16
_symmetry_space_group_name_H-M   'P 1'
_cell_length_a   7.98795588
_cell_length_b   7.99823531
_cell_length_c   7.99919115
_cell_angle_alpha   59.84769048
_cell_angle_beta   59.87364324
_cell_angle_gamma   59.95012069
_symmetry_Int_Tables_number   1
_chemical_formula_structural   Sc2TaNb3Si7Ni16
_chemical_formula_sum   'Sc2 Ta1 Nb3 Si7 Ni16'
_cell_volume   360.47880040
_cell_formula_units_Z   1
loop_
 _symmetry_equiv_pos_site_id
 _symmetry_equiv_pos_as_xyz
  1  'x, y, z'
loop_
 _atom_site_type_symbol
 _atom_site_label
 _atom_site_symmetry_multiplicity
 _atom_site_fract_x
 _atom_site_fract_y
 _atom_site_fract_z
 _atom_site_occupancy
  Sc  Sc0  1  0.795572  0.794930  0.205032  1
  Sc  Sc1  1  0.795439  0.205535  0.794443  1
  Ta  Ta2  1  0.203333  0.799176  0.200865  1
  Nb  Nb3  1  0.799192  0.204101  0.203996  1
  Nb  Nb4  1  0.207325  0.795998  0.795865  1
  Nb  Nb5  1  0.202461  0.200257  0.799792  1
  Si  Si6  1  0.505794  0.499428  0.500594  1
  Si  Si7  1  0.498869  0.001929  0.500803  1
  Si  Si8  1  0.001597  0.499106  0.998216  1
  Si  Si9  1  0.000930  0.998070  0.500649  1
  Si  Si10  1  0.498057  0.000231  0.999639  1
  Si  Si11  1  0.002322  0.499145  0.500905  1
  Si  Si12  1  0.499605  0.499492  0.001947  1
  Ni  Ni13  1  0.167843  0.168704  0.495189  1
  Ni  Ni14  1  0.494621  0.168305  0.168585  1
  Ni  Ni15  1  0.169080  0.166215  0.168541  1
  Ni  Ni16  1  0.503717  0.831639  0.833405  1
  Ni  Ni17  1  0.831618  0.830870  0.831991  1
  Ni  Ni18  1  0.834633  0.831415  0.501407  1
  Ni  Ni19  1  0.167315  0.498508  0.168793  1
  Ni  Ni20  1  0.614917  0.147432  0.615971  1
  Ni  Ni21  1  0.378370  0.384077  0.852559  1
  Ni  Ni22  1  0.855815  0.379233  0.378865  1
  Ni  Ni23  1  0.382954  0.385326  0.383170  1
  Ni  Ni24  1  0.151370  0.616895  0.614786  1
  Ni  Ni25  1  0.613946  0.621353  0.620459  1
  Ni  Ni26  1  0.613336  0.616277  0.148712  1
  Ni  Ni27  1  0.378208  0.851507  0.383395  1
  Ni  Ni28  1  0.831763  0.504848  0.831427  1
