# generated using pymatgen
data_La17Pr3Si15Pt
_symmetry_space_group_name_H-M   'P 1'
_cell_length_a   8.00786118
_cell_length_b   8.02204160
_cell_length_c   15.51181321
_cell_angle_alpha   89.95151079
_cell_angle_beta   89.59642170
_cell_angle_gamma   90.16286431
_symmetry_Int_Tables_number   1
_chemical_formula_structural   La17Pr3Si15Pt
_chemical_formula_sum   'La17 Pr3 Si15 Pt1'
_cell_volume   996.44038548
_cell_formula_units_Z   1
loop_
 _symmetry_equiv_pos_site_id
 _symmetry_equiv_pos_as_xyz
  1  'x, y, z'
loop_
 _atom_site_type_symbol
 _atom_site_label
 _atom_site_symmetry_multiplicity
 _atom_site_fract_x
 _atom_site_fract_y
 _atom_site_fract_z
 _atom_site_occupancy
  La  La0  1  0.305606  0.307137  0.998140  1
  La  La1  1  0.195397  0.806461  0.249809  1
  La  La2  1  0.816574  0.187702  0.751456  1
  La  La3  1  0.691185  0.684702  0.499023  1
  La  La4  1  0.374345  0.010121  0.447629  1
  La  La5  1  0.491028  0.873274  0.698337  1
  La  La6  1  0.509928  0.122678  0.197556  1
  La  La7  1  0.876294  0.488271  0.300377  1
  La  La8  1  0.124015  0.514098  0.800342  1
  La  La9  1  0.627819  0.988277  0.949069  1
  La  La10  1  0.003608  0.377991  0.551807  1
  La  La11  1  0.989687  0.624904  0.052594  1
  La  La12  1  0.134929  0.987541  0.874949  1
  La  La13  1  0.516979  0.631350  0.126786  1
  La  La14  1  0.474625  0.364597  0.628224  1
  La  La15  1  0.629404  0.518217  0.874250  1
  La  La16  1  0.370449  0.482259  0.372917  1
  Pr  Pr17  1  0.872650  0.018953  0.376365  1
  Pr  Pr18  1  0.981642  0.126200  0.124825  1
  Pr  Pr19  1  0.019665  0.875692  0.622481  1
  Si  Si20  1  0.332880  0.697652  0.951963  1
  Si  Si21  1  0.663330  0.299556  0.452538  1
  Si  Si22  1  0.699308  0.334660  0.049870  1
  Si  Si23  1  0.301652  0.669594  0.547678  1
  Si  Si24  1  0.806415  0.833090  0.203949  1
  Si  Si25  1  0.165752  0.195889  0.296822  1
  Si  Si26  1  0.835759  0.802972  0.796705  1
  Si  Si27  1  0.287621  0.922527  0.058440  1
  Si  Si28  1  0.582098  0.789760  0.310003  1
  Si  Si29  1  0.431422  0.207830  0.811770  1
  Si  Si30  1  0.787491  0.582296  0.690234  1
  Si  Si31  1  0.209605  0.419299  0.190274  1
  Si  Si32  1  0.704556  0.074178  0.558182  1
  Si  Si33  1  0.919100  0.288865  0.942873  1
  Si  Si34  1  0.078554  0.715456  0.441768  1
  Pt  Pt35  1  0.188630  0.175950  0.699994  1
