# generated using pymatgen
data_Sr3Th5(Si3Rh)4
_symmetry_space_group_name_H-M   'P 1'
_cell_length_a   8.31001700
_cell_length_b   8.31001777
_cell_length_c   8.66918800
_cell_angle_alpha   90.00000000
_cell_angle_beta   90.00000000
_cell_angle_gamma   119.99999297
_symmetry_Int_Tables_number   1
_chemical_formula_structural   Sr3Th5(Si3Rh)4
_chemical_formula_sum   'Sr3 Th5 Si12 Rh4'
_cell_volume   518.45724536
_cell_formula_units_Z   1
loop_
 _symmetry_equiv_pos_site_id
 _symmetry_equiv_pos_as_xyz
  1  'x, y, z'
loop_
 _atom_site_type_symbol
 _atom_site_label
 _atom_site_symmetry_multiplicity
 _atom_site_fract_x
 _atom_site_fract_y
 _atom_site_fract_z
 _atom_site_occupancy
  Sr  Sr0  1  0.499829  0.500171  0.750000  1
  Sr  Sr1  1  0.000341  0.500171  0.750000  1
  Sr  Sr2  1  0.499829  0.999659  0.750000  1
  Th  Th3  1  0.499915  0.500085  0.250000  1
  Th  Th4  1  0.000169  0.500085  0.250000  1
  Th  Th5  1  0.499915  0.999831  0.250000  1
  Th  Th6  1  0.000000  0.000000  0.750000  1
  Th  Th7  1  0.000000  0.000000  0.250000  1
  Si  Si8  1  0.834421  0.165579  0.006681  1
  Si  Si9  1  0.165578  0.834422  0.006787  1
  Si  Si10  1  0.331158  0.165579  0.006681  1
  Si  Si11  1  0.165578  0.834422  0.493213  1
  Si  Si12  1  0.668842  0.834422  0.006787  1
  Si  Si13  1  0.834421  0.165579  0.493319  1
  Si  Si14  1  0.834421  0.668842  0.006681  1
  Si  Si15  1  0.668842  0.834422  0.493213  1
  Si  Si16  1  0.165578  0.331158  0.006787  1
  Si  Si17  1  0.331158  0.165579  0.493319  1
  Si  Si18  1  0.165578  0.331158  0.493213  1
  Si  Si19  1  0.834421  0.668842  0.493319  1
  Rh  Rh20  1  0.666667  0.333333  0.025598  1
  Rh  Rh21  1  0.333333  0.666667  0.025240  1
  Rh  Rh22  1  0.333333  0.666667  0.474760  1
  Rh  Rh23  1  0.666667  0.333333  0.474402  1
