# generated using pymatgen
data_AcPr5(RuI3)2
_symmetry_space_group_name_H-M   'P 1'
_cell_length_a   4.37676200
_cell_length_b   9.61572711
_cell_length_c   12.73363663
_cell_angle_alpha   86.81239691
_cell_angle_beta   90.00000000
_cell_angle_gamma   90.00000000
_symmetry_Int_Tables_number   1
_chemical_formula_structural   AcPr5(RuI3)2
_chemical_formula_sum   'Ac1 Pr5 Ru2 I6'
_cell_volume   535.07549395
_cell_formula_units_Z   1
loop_
 _symmetry_equiv_pos_site_id
 _symmetry_equiv_pos_as_xyz
  1  'x, y, z'
loop_
 _atom_site_type_symbol
 _atom_site_label
 _atom_site_symmetry_multiplicity
 _atom_site_fract_x
 _atom_site_fract_y
 _atom_site_fract_z
 _atom_site_occupancy
  Ac  Ac0  1  0.750000  0.684948  0.117494  1
  Pr  Pr1  1  0.250000  0.307125  0.880606  1
  Pr  Pr2  1  0.250000  0.890286  0.330393  1
  Pr  Pr3  1  0.750000  0.115411  0.670258  1
  Pr  Pr4  1  0.250000  0.908661  0.891732  1
  Pr  Pr5  1  0.750000  0.095436  0.106322  1
  Ru  Ru6  1  0.250000  0.892043  0.121896  1
  Ru  Ru7  1  0.750000  0.110384  0.878994  1
  I  I8  1  0.250000  0.873856  0.618823  1
  I  I9  1  0.750000  0.131163  0.381682  1
  I  I10  1  0.750000  0.645665  0.384346  1
  I  I11  1  0.250000  0.359672  0.623730  1
  I  I12  1  0.250000  0.384851  0.134605  1
  I  I13  1  0.750000  0.600499  0.859118  1
