# generated using pymatgen
data_HoTm5Al16Os7
_symmetry_space_group_name_H-M   'P 1'
_cell_length_a   8.90019463
_cell_length_b   8.90019464
_cell_length_c   8.90743000
_cell_angle_alpha   59.97309695
_cell_angle_beta   59.97309691
_cell_angle_gamma   60.05380032
_symmetry_Int_Tables_number   1
_chemical_formula_structural   HoTm5Al16Os7
_chemical_formula_sum   'Ho1 Tm5 Al16 Os7'
_cell_volume   498.92565346
_cell_formula_units_Z   1
loop_
 _symmetry_equiv_pos_site_id
 _symmetry_equiv_pos_as_xyz
  1  'x, y, z'
loop_
 _atom_site_type_symbol
 _atom_site_label
 _atom_site_symmetry_multiplicity
 _atom_site_fract_x
 _atom_site_fract_y
 _atom_site_fract_z
 _atom_site_occupancy
  Ho  Ho0  1  0.211098  0.211098  0.788902  1
  Tm  Tm1  1  0.211473  0.788455  0.788527  1
  Tm  Tm2  1  0.788455  0.211473  0.211545  1
  Tm  Tm3  1  0.788455  0.211473  0.788527  1
  Tm  Tm4  1  0.788669  0.788669  0.211331  1
  Tm  Tm5  1  0.211473  0.788455  0.211545  1
  Al  Al6  1  0.832768  0.832768  0.832802  1
  Al  Al7  1  0.832768  0.832768  0.501661  1
  Al  Al8  1  0.502054  0.832338  0.832804  1
  Al  Al9  1  0.832338  0.502054  0.832804  1
  Al  Al10  1  0.167196  0.167196  0.167662  1
  Al  Al11  1  0.167196  0.167196  0.497946  1
  Al  Al12  1  0.167198  0.498339  0.167232  1
  Al  Al13  1  0.498339  0.167198  0.167232  1
  Al  Al14  1  0.620868  0.620868  0.620811  1
  Al  Al15  1  0.620868  0.620868  0.137452  1
  Al  Al16  1  0.137344  0.621284  0.620686  1
  Al  Al17  1  0.621284  0.137344  0.620686  1
  Al  Al18  1  0.379314  0.379314  0.378716  1
  Al  Al19  1  0.379314  0.379314  0.862656  1
  Al  Al20  1  0.379189  0.862548  0.379132  1
  Al  Al21  1  0.862548  0.379189  0.379132  1
  Os  Os22  1  0.500064  0.500064  0.499936  1
  Os  Os23  1  0.999627  0.500299  0.499701  1
  Os  Os24  1  0.500299  0.999627  0.000373  1
  Os  Os25  1  0.500299  0.999627  0.499701  1
  Os  Os26  1  0.499938  0.499938  0.000062  1
  Os  Os27  1  0.999627  0.500299  0.000373  1
  Os  Os28  1  0.999938  0.999938  0.500062  1
