# generated using pymatgen
data_Ho3Er2CoBi2
_symmetry_space_group_name_H-M   'P 1'
_cell_length_a   7.91748100
_cell_length_b   8.86044700
_cell_length_c   12.32839400
_cell_angle_alpha   90.00000000
_cell_angle_beta   90.00000000
_cell_angle_gamma   90.00000000
_symmetry_Int_Tables_number   1
_chemical_formula_structural   Ho3Er2CoBi2
_chemical_formula_sum   'Ho12 Er8 Co4 Bi8'
_cell_volume   864.86668336
_cell_formula_units_Z   4
loop_
 _symmetry_equiv_pos_site_id
 _symmetry_equiv_pos_as_xyz
  1  'x, y, z'
loop_
 _atom_site_type_symbol
 _atom_site_label
 _atom_site_symmetry_multiplicity
 _atom_site_fract_x
 _atom_site_fract_y
 _atom_site_fract_z
 _atom_site_occupancy
  Ho  Ho0  1  0.346674  0.750000  0.699813  1
  Ho  Ho1  1  0.653326  0.250000  0.300187  1
  Ho  Ho2  1  0.846674  0.250000  0.800187  1
  Ho  Ho3  1  0.153326  0.750000  0.199813  1
  Ho  Ho4  1  0.885157  0.750000  0.811241  1
  Ho  Ho5  1  0.114843  0.250000  0.188759  1
  Ho  Ho6  1  0.385157  0.250000  0.688759  1
  Ho  Ho7  1  0.614843  0.750000  0.311241  1
  Ho  Ho8  1  0.052898  0.750000  0.498007  1
  Ho  Ho9  1  0.947102  0.250000  0.501993  1
  Ho  Ho10  1  0.552898  0.250000  0.001993  1
  Ho  Ho11  1  0.447102  0.750000  0.998007  1
  Er  Er12  1  0.674689  0.538368  0.562838  1
  Er  Er13  1  0.325311  0.461632  0.437162  1
  Er  Er14  1  0.174689  0.461632  0.937162  1
  Er  Er15  1  0.325311  0.038368  0.437162  1
  Er  Er16  1  0.825311  0.538368  0.062838  1
  Er  Er17  1  0.674689  0.961632  0.562838  1
  Er  Er18  1  0.825311  0.961632  0.062838  1
  Er  Er19  1  0.174689  0.038368  0.937162  1
  Co  Co20  1  0.066204  0.750000  0.991855  1
  Co  Co21  1  0.933796  0.250000  0.008145  1
  Co  Co22  1  0.566204  0.250000  0.508145  1
  Co  Co23  1  0.433796  0.750000  0.491855  1
  Bi  Bi24  1  0.571457  0.509797  0.826675  1
  Bi  Bi25  1  0.428543  0.490203  0.173325  1
  Bi  Bi26  1  0.071457  0.490203  0.673325  1
  Bi  Bi27  1  0.428543  0.009797  0.173325  1
  Bi  Bi28  1  0.928543  0.509797  0.326675  1
  Bi  Bi29  1  0.571457  0.990203  0.826675  1
  Bi  Bi30  1  0.928543  0.990203  0.326675  1
  Bi  Bi31  1  0.071457  0.009797  0.673325  1
