# generated using pymatgen
data_Dy5Tm5(Bi3C)2
_symmetry_space_group_name_H-M   'P 1'
_cell_length_a   9.15105211
_cell_length_b   9.13272178
_cell_length_c   6.43383300
_cell_angle_alpha   90.00000000
_cell_angle_beta   90.00000000
_cell_angle_gamma   119.93377073
_symmetry_Int_Tables_number   1
_chemical_formula_structural   Dy5Tm5(Bi3C)2
_chemical_formula_sum   'Dy5 Tm5 Bi6 C2'
_cell_volume   465.97339377
_cell_formula_units_Z   1
loop_
 _symmetry_equiv_pos_site_id
 _symmetry_equiv_pos_as_xyz
  1  'x, y, z'
loop_
 _atom_site_type_symbol
 _atom_site_label
 _atom_site_symmetry_multiplicity
 _atom_site_fract_x
 _atom_site_fract_y
 _atom_site_fract_z
 _atom_site_occupancy
  Dy  Dy0  1  0.666709  0.333609  0.000252  1
  Dy  Dy1  1  0.333291  0.666901  0.000252  1
  Dy  Dy2  1  0.333291  0.666901  0.499748  1
  Dy  Dy3  1  0.666709  0.333609  0.499748  1
  Dy  Dy4  1  0.000000  0.789021  0.250000  1
  Tm  Tm5  1  0.796415  0.797432  0.750000  1
  Tm  Tm6  1  0.203585  0.001016  0.750000  1
  Tm  Tm7  1  0.000000  0.204716  0.750000  1
  Tm  Tm8  1  0.203064  0.202388  0.250000  1
  Tm  Tm9  1  0.796936  0.999325  0.250000  1
  Bi  Bi10  1  0.399023  0.398884  0.750000  1
  Bi  Bi11  1  0.600977  0.999861  0.750000  1
  Bi  Bi12  1  0.000000  0.602439  0.750000  1
  Bi  Bi13  1  0.600089  0.601593  0.250000  1
  Bi  Bi14  1  0.399911  0.001504  0.250000  1
  Bi  Bi15  1  0.000000  0.397622  0.250000  1
  C  C16  1  0.000000  0.001590  0.998914  1
  C  C17  1  0.000000  0.001590  0.501086  1
