# generated using pymatgen
data_Pr3MgMnC6
_symmetry_space_group_name_H-M   'P 1'
_cell_length_a   8.44266300
_cell_length_b   8.44266267
_cell_length_c   5.35663800
_cell_angle_alpha   90.00000000
_cell_angle_beta   90.00000000
_cell_angle_gamma   119.99999109
_symmetry_Int_Tables_number   1
_chemical_formula_structural   Pr3MgMnC6
_chemical_formula_sum   'Pr6 Mg2 Mn2 C12'
_cell_volume   330.66015097
_cell_formula_units_Z   2
loop_
 _symmetry_equiv_pos_site_id
 _symmetry_equiv_pos_as_xyz
  1  'x, y, z'
loop_
 _atom_site_type_symbol
 _atom_site_label
 _atom_site_symmetry_multiplicity
 _atom_site_fract_x
 _atom_site_fract_y
 _atom_site_fract_z
 _atom_site_occupancy
  Pr  Pr0  1  0.607302  0.678449  0.750000  1
  Pr  Pr1  1  0.928852  0.607302  0.250000  1
  Pr  Pr2  1  0.678449  0.071148  0.250000  1
  Pr  Pr3  1  0.321551  0.928852  0.750000  1
  Pr  Pr4  1  0.071148  0.392698  0.750000  1
  Pr  Pr5  1  0.392698  0.321551  0.250000  1
  Mg  Mg6  1  0.000000  0.000000  0.500000  1
  Mg  Mg7  1  0.000000  0.000000  0.000000  1
  Mn  Mn8  1  0.666667  0.333333  0.750000  1
  Mn  Mn9  1  0.333333  0.666667  0.250000  1
  C  C10  1  0.966082  0.751165  0.750000  1
  C  C11  1  0.214918  0.966082  0.250000  1
  C  C12  1  0.751165  0.785082  0.250000  1
  C  C13  1  0.248835  0.214918  0.750000  1
  C  C14  1  0.785082  0.033918  0.750000  1
  C  C15  1  0.033918  0.248835  0.250000  1
  C  C16  1  0.851349  0.569126  0.750000  1
  C  C17  1  0.282222  0.851349  0.250000  1
  C  C18  1  0.569126  0.717778  0.250000  1
  C  C19  1  0.430874  0.282222  0.750000  1
  C  C20  1  0.148651  0.430874  0.250000  1
  C  C21  1  0.717778  0.148651  0.750000  1
