# generated using pymatgen
data_Ta4Co2AuSe12
_symmetry_space_group_name_H-M   'P 1'
_cell_length_a   7.27515440
_cell_length_b   7.27515502
_cell_length_c   19.49578156
_cell_angle_alpha   70.56453222
_cell_angle_beta   70.56453015
_cell_angle_gamma   27.29614031
_symmetry_Int_Tables_number   1
_chemical_formula_structural   Ta4Co2AuSe12
_chemical_formula_sum   'Ta4 Co2 Au1 Se12'
_cell_volume   444.59952377
_cell_formula_units_Z   1
loop_
 _symmetry_equiv_pos_site_id
 _symmetry_equiv_pos_as_xyz
  1  'x, y, z'
loop_
 _atom_site_type_symbol
 _atom_site_label
 _atom_site_symmetry_multiplicity
 _atom_site_fract_x
 _atom_site_fract_y
 _atom_site_fract_z
 _atom_site_occupancy
  Ta  Ta0  1  0.625397  0.625397  0.846887  1
  Ta  Ta1  1  0.374603  0.374603  0.153113  1
  Ta  Ta2  1  0.745795  0.745795  0.591332  1
  Ta  Ta3  1  0.254205  0.254205  0.408668  1
  Co  Co4  1  0.229938  0.229938  0.715648  1
  Co  Co5  1  0.770062  0.770062  0.284352  1
  Au  Au6  1  0.000000  0.000000  0.000000  1
  Se  Se7  1  0.976142  0.976142  0.877296  1
  Se  Se8  1  0.023858  0.023858  0.122704  1
  Se  Se9  1  0.627682  0.627682  0.393452  1
  Se  Se10  1  0.372318  0.372318  0.606548  1
  Se  Se11  1  0.135299  0.135299  0.549272  1
  Se  Se12  1  0.864701  0.864701  0.450728  1
  Se  Se13  1  0.807005  0.807005  0.763355  1
  Se  Se14  1  0.192995  0.192995  0.236645  1
  Se  Se15  1  0.186914  0.186914  0.923611  1
  Se  Se16  1  0.813086  0.813086  0.076389  1
  Se  Se17  1  0.607126  0.607126  0.717396  1
  Se  Se18  1  0.392874  0.392874  0.282604  1
