# generated using pymatgen
data_Tb14Dy2CdCo4Hg3
_symmetry_space_group_name_H-M   'P 1'
_cell_length_a   9.51211365
_cell_length_b   9.50383145
_cell_length_c   9.51190609
_cell_angle_alpha   59.98553357
_cell_angle_beta   60.01312013
_cell_angle_gamma   59.99351278
_symmetry_Int_Tables_number   1
_chemical_formula_structural   Tb14Dy2CdCo4Hg3
_chemical_formula_sum   'Tb14 Dy2 Cd1 Co4 Hg3'
_cell_volume   607.99855441
_cell_formula_units_Z   1
loop_
 _symmetry_equiv_pos_site_id
 _symmetry_equiv_pos_as_xyz
  1  'x, y, z'
loop_
 _atom_site_type_symbol
 _atom_site_label
 _atom_site_symmetry_multiplicity
 _atom_site_fract_x
 _atom_site_fract_y
 _atom_site_fract_z
 _atom_site_occupancy
  Tb  Tb0  1  0.188372  0.811313  0.812539  1
  Tb  Tb1  1  0.061749  0.061544  0.438382  1
  Tb  Tb2  1  0.438452  0.061854  0.061762  1
  Tb  Tb3  1  0.812465  0.187029  0.812694  1
  Tb  Tb4  1  0.438467  0.061647  0.437998  1
  Tb  Tb5  1  0.597770  0.206922  0.597782  1
  Tb  Tb6  1  0.812466  0.811388  0.188230  1
  Tb  Tb7  1  0.208458  0.597468  0.597112  1
  Tb  Tb8  1  0.812341  0.186986  0.188066  1
  Tb  Tb9  1  0.062479  0.437251  0.437703  1
  Tb  Tb10  1  0.188205  0.811299  0.187901  1
  Tb  Tb11  1  0.596975  0.597317  0.208509  1
  Tb  Tb12  1  0.188183  0.186842  0.812472  1
  Tb  Tb13  1  0.062671  0.437277  0.062369  1
  Dy  Dy14  1  0.438024  0.437147  0.062190  1
  Dy  Dy15  1  0.596808  0.597019  0.597239  1
  Cd  Cd16  1  0.828649  0.512909  0.829044  1
  Co  Co17  1  0.390915  0.390793  0.390851  1
  Co  Co18  1  0.826892  0.391006  0.391199  1
  Co  Co19  1  0.391226  0.826409  0.391396  1
  Co  Co20  1  0.391082  0.391074  0.827082  1
  Hg  Hg21  1  0.833814  0.832500  0.499470  1
  Hg  Hg22  1  0.834027  0.832697  0.834093  1
  Hg  Hg23  1  0.499512  0.832310  0.833919  1
