# generated using pymatgen
data_Lu2Th5PaH24
_symmetry_space_group_name_H-M   'P 1'
_cell_length_a   6.74935000
_cell_length_b   6.71248100
_cell_length_c   6.74935000
_cell_angle_alpha   90.00000000
_cell_angle_beta   90.00000000
_cell_angle_gamma   90.00000000
_symmetry_Int_Tables_number   1
_chemical_formula_structural   Lu2Th5PaH24
_chemical_formula_sum   'Lu2 Th5 Pa1 H24'
_cell_volume   305.77851638
_cell_formula_units_Z   1
loop_
 _symmetry_equiv_pos_site_id
 _symmetry_equiv_pos_as_xyz
  1  'x, y, z'
loop_
 _atom_site_type_symbol
 _atom_site_label
 _atom_site_symmetry_multiplicity
 _atom_site_fract_x
 _atom_site_fract_y
 _atom_site_fract_z
 _atom_site_occupancy
  Lu  Lu0  1  0.000000  0.002117  0.000000  1
  Lu  Lu1  1  0.500000  0.497883  0.500000  1
  Th  Th2  1  0.250359  0.000440  0.500000  1
  Th  Th3  1  0.749641  0.000440  0.500000  1
  Th  Th4  1  0.000000  0.499560  0.249641  1
  Th  Th5  1  0.000000  0.499560  0.750359  1
  Th  Th6  1  0.500000  0.750000  0.000000  1
  Pa  Pa7  1  0.500000  0.250000  0.000000  1
  H  H8  1  0.000000  0.151310  0.298389  1
  H  H9  1  0.500000  0.202626  0.658299  1
  H  H10  1  0.500000  0.795746  0.348164  1
  H  H11  1  0.796515  0.651740  0.500000  1
  H  H12  1  0.203485  0.651740  0.500000  1
  H  H13  1  0.350350  0.491936  0.801320  1
  H  H14  1  0.649650  0.491936  0.801320  1
  H  H15  1  0.301320  0.008064  0.149650  1
  H  H16  1  0.158299  0.297374  0.000000  1
  H  H17  1  0.848164  0.704254  0.000000  1
  H  H18  1  0.301320  0.008064  0.850350  1
  H  H19  1  0.841701  0.297374  0.000000  1
  H  H20  1  0.698680  0.008064  0.149650  1
  H  H21  1  0.698680  0.008064  0.850350  1
  H  H22  1  0.151836  0.704254  0.000000  1
  H  H23  1  0.000000  0.848260  0.703485  1
  H  H24  1  0.000000  0.151310  0.701611  1
  H  H25  1  0.000000  0.848260  0.296515  1
  H  H26  1  0.649650  0.491936  0.198680  1
  H  H27  1  0.350350  0.491936  0.198680  1
  H  H28  1  0.798389  0.348690  0.500000  1
  H  H29  1  0.201611  0.348690  0.500000  1
  H  H30  1  0.500000  0.795746  0.651836  1
  H  H31  1  0.500000  0.202626  0.341701  1
