# generated using pymatgen
data_Hf3Mg2Pt3
_symmetry_space_group_name_H-M   'P 1'
_cell_length_a   7.99529600
_cell_length_b   7.99530168
_cell_length_c   5.37055800
_cell_angle_alpha   89.99985404
_cell_angle_beta   90.00015351
_cell_angle_gamma   120.00036349
_symmetry_Int_Tables_number   1
_chemical_formula_structural   Hf3Mg2Pt3
_chemical_formula_sum   'Hf6 Mg4 Pt6'
_cell_volume   297.31570737
_cell_formula_units_Z   2
loop_
 _symmetry_equiv_pos_site_id
 _symmetry_equiv_pos_as_xyz
  1  'x, y, z'
loop_
 _atom_site_type_symbol
 _atom_site_label
 _atom_site_symmetry_multiplicity
 _atom_site_fract_x
 _atom_site_fract_y
 _atom_site_fract_z
 _atom_site_occupancy
  Hf  Hf0  1  0.249452  0.000000  0.250002  1
  Hf  Hf1  1  0.000000  0.249452  0.249999  1
  Hf  Hf2  1  0.750550  0.750550  0.250001  1
  Hf  Hf3  1  0.750549  0.000001  0.749998  1
  Hf  Hf4  1  0.000000  0.750549  0.750000  1
  Hf  Hf5  1  0.249450  0.249450  0.750000  1
  Mg  Mg6  1  0.666667  0.333336  0.000002  1
  Mg  Mg7  1  0.333337  0.666669  0.999997  1
  Mg  Mg8  1  0.666663  0.333332  0.499998  1
  Mg  Mg9  1  0.333332  0.666664  0.500002  1
  Pt  Pt10  1  0.389794  0.389793  0.249997  1
  Pt  Pt11  1  0.610208  0.000001  0.249999  1
  Pt  Pt12  1  0.000001  0.610208  0.250000  1
  Pt  Pt13  1  0.610206  0.610206  0.749998  1
  Pt  Pt14  1  0.389795  0.999999  0.750001  1
  Pt  Pt15  1  0.999999  0.389793  0.750002  1
