# generated using pymatgen
data_Rb8UBi4
_symmetry_space_group_name_H-M   'P 1'
_cell_length_a   12.32597211
_cell_length_b   12.32597211
_cell_length_c   12.32597200
_cell_angle_alpha   60.00000030
_cell_angle_beta   60.00000028
_cell_angle_gamma   59.99999866
_symmetry_Int_Tables_number   1
_chemical_formula_structural   Rb8UBi4
_chemical_formula_sum   'Rb16 U2 Bi8'
_cell_volume   1324.18461542
_cell_formula_units_Z   2
loop_
 _symmetry_equiv_pos_site_id
 _symmetry_equiv_pos_as_xyz
  1  'x, y, z'
loop_
 _atom_site_type_symbol
 _atom_site_label
 _atom_site_symmetry_multiplicity
 _atom_site_fract_x
 _atom_site_fract_y
 _atom_site_fract_z
 _atom_site_occupancy
  Rb  Rb0  1  0.625000  0.125000  0.625000  1
  Rb  Rb1  1  0.625000  0.625000  0.125000  1
  Rb  Rb2  1  0.125000  0.625000  0.625000  1
  Rb  Rb3  1  0.625000  0.625000  0.625000  1
  Rb  Rb4  1  0.031495  0.031495  0.468505  1
  Rb  Rb5  1  0.781495  0.218505  0.218505  1
  Rb  Rb6  1  0.218505  0.781495  0.781495  1
  Rb  Rb7  1  0.781495  0.781495  0.218505  1
  Rb  Rb8  1  0.781495  0.218505  0.781495  1
  Rb  Rb9  1  0.218505  0.781495  0.218505  1
  Rb  Rb10  1  0.468505  0.031495  0.468505  1
  Rb  Rb11  1  0.468505  0.031495  0.031495  1
  Rb  Rb12  1  0.031495  0.468505  0.468505  1
  Rb  Rb13  1  0.031495  0.468505  0.031495  1
  Rb  Rb14  1  0.218505  0.218505  0.781495  1
  Rb  Rb15  1  0.468505  0.468505  0.031495  1
  U  U16  1  0.750000  0.750000  0.750000  1
  U  U17  1  0.500000  0.500000  0.500000  1
  Bi  Bi18  1  0.397014  0.808957  0.397014  1
  Bi  Bi19  1  0.852986  0.852986  0.441043  1
  Bi  Bi20  1  0.441043  0.852986  0.852986  1
  Bi  Bi21  1  0.852986  0.852986  0.852986  1
  Bi  Bi22  1  0.808957  0.397014  0.397014  1
  Bi  Bi23  1  0.397014  0.397014  0.397014  1
  Bi  Bi24  1  0.397014  0.397014  0.808957  1
  Bi  Bi25  1  0.852986  0.441043  0.852986  1
