# generated using pymatgen
data_CrTc5As14
_symmetry_space_group_name_H-M   'P 1'
_cell_length_a   7.60598797
_cell_length_b   7.60600345
_cell_length_c   7.60598819
_cell_angle_alpha   109.27683890
_cell_angle_beta   109.86072105
_cell_angle_gamma   109.27684690
_symmetry_Int_Tables_number   1
_chemical_formula_structural   CrTc5As14
_chemical_formula_sum   'Cr1 Tc5 As14'
_cell_volume   338.71203001
_cell_formula_units_Z   1
loop_
 _symmetry_equiv_pos_site_id
 _symmetry_equiv_pos_as_xyz
  1  'x, y, z'
loop_
 _atom_site_type_symbol
 _atom_site_label
 _atom_site_symmetry_multiplicity
 _atom_site_fract_x
 _atom_site_fract_y
 _atom_site_fract_z
 _atom_site_occupancy
  Cr  Cr0  1  0.341003  0.000069  0.341003  1
  Tc  Tc1  1  0.001047  0.340774  0.341824  1
  Tc  Tc2  1  0.001046  0.659220  0.660270  1
  Tc  Tc3  1  0.341824  0.340774  0.001047  1
  Tc  Tc4  1  0.660270  0.659220  0.001046  1
  Tc  Tc5  1  0.657239  0.999994  0.657239  1
  As  As6  1  0.750367  0.499993  0.250368  1
  As  As7  1  0.495502  0.752041  0.247547  1
  As  As8  1  0.495503  0.247955  0.743461  1
  As  As9  1  0.743461  0.247955  0.495503  1
  As  As10  1  0.247547  0.752041  0.495502  1
  As  As11  1  0.250368  0.499993  0.750367  1
  As  As12  1  0.007205  0.999996  0.331680  1
  As  As13  1  0.668648  0.999994  0.999875  1
  As  As14  1  0.007211  0.675527  0.007211  1
  As  As15  1  0.331681  0.324477  0.331681  1
  As  As16  1  0.999876  0.331221  0.999876  1
  As  As17  1  0.668648  0.668767  0.668648  1
  As  As18  1  0.331680  0.999996  0.007205  1
  As  As19  1  0.999875  0.999994  0.668648  1
