# generated using pymatgen
data_PrThSiPd14
_symmetry_space_group_name_H-M   'P 1'
_cell_length_a   9.02915100
_cell_length_b   9.02915100
_cell_length_c   7.11419300
_cell_angle_alpha   90.00000000
_cell_angle_beta   90.00000000
_cell_angle_gamma   90.00000000
_symmetry_Int_Tables_number   1
_chemical_formula_structural   PrThSiPd14
_chemical_formula_sum   'Pr2 Th2 Si2 Pd28'
_cell_volume   579.98862363
_cell_formula_units_Z   2
loop_
 _symmetry_equiv_pos_site_id
 _symmetry_equiv_pos_as_xyz
  1  'x, y, z'
loop_
 _atom_site_type_symbol
 _atom_site_label
 _atom_site_symmetry_multiplicity
 _atom_site_fract_x
 _atom_site_fract_y
 _atom_site_fract_z
 _atom_site_occupancy
  Pr  Pr0  1  0.500000  0.000000  0.935151  1
  Pr  Pr1  1  0.000000  0.500000  0.064849  1
  Th  Th2  1  0.000000  0.000000  0.500000  1
  Th  Th3  1  0.500000  0.500000  0.500000  1
  Si  Si4  1  0.500000  0.000000  0.449817  1
  Si  Si5  1  0.000000  0.500000  0.550183  1
  Pd  Pd6  1  0.334650  0.834650  0.613711  1
  Pd  Pd7  1  0.334650  0.165350  0.613711  1
  Pd  Pd8  1  0.665350  0.834650  0.613711  1
  Pd  Pd9  1  0.665350  0.165350  0.613711  1
  Pd  Pd10  1  0.165350  0.665350  0.386289  1
  Pd  Pd11  1  0.165350  0.334650  0.386289  1
  Pd  Pd12  1  0.834650  0.665350  0.386289  1
  Pd  Pd13  1  0.834650  0.334650  0.386289  1
  Pd  Pd14  1  0.500000  0.768818  0.260125  1
  Pd  Pd15  1  0.500000  0.231182  0.260125  1
  Pd  Pd16  1  0.268818  0.000000  0.260125  1
  Pd  Pd17  1  0.731182  0.000000  0.260125  1
  Pd  Pd18  1  0.000000  0.731182  0.739875  1
  Pd  Pd19  1  0.000000  0.268818  0.739875  1
  Pd  Pd20  1  0.231182  0.500000  0.739875  1
  Pd  Pd21  1  0.768818  0.500000  0.739875  1
  Pd  Pd22  1  0.500000  0.349829  0.851631  1
  Pd  Pd23  1  0.500000  0.650171  0.851631  1
  Pd  Pd24  1  0.849829  0.000000  0.851631  1
  Pd  Pd25  1  0.150171  0.000000  0.851631  1
  Pd  Pd26  1  0.000000  0.150171  0.148369  1
  Pd  Pd27  1  0.000000  0.849829  0.148369  1
  Pd  Pd28  1  0.650171  0.500000  0.148369  1
  Pd  Pd29  1  0.349829  0.500000  0.148369  1
  Pd  Pd30  1  0.250000  0.750000  0.000000  1
  Pd  Pd31  1  0.250000  0.250000  0.000000  1
  Pd  Pd32  1  0.750000  0.750000  0.000000  1
  Pd  Pd33  1  0.750000  0.250000  0.000000  1
