# generated using pymatgen
data_TaNbZn6(SbO8)2
_symmetry_space_group_name_H-M   'P 1'
_cell_length_a   6.18076321
_cell_length_b   6.18731494
_cell_length_c   9.69300437
_cell_angle_alpha   71.41745603
_cell_angle_beta   71.49910266
_cell_angle_gamma   86.94320859
_symmetry_Int_Tables_number   1
_chemical_formula_structural   TaNbZn6(SbO8)2
_chemical_formula_sum   'Ta1 Nb1 Zn6 Sb2 O16'
_cell_volume   332.72772654
_cell_formula_units_Z   1
loop_
 _symmetry_equiv_pos_site_id
 _symmetry_equiv_pos_as_xyz
  1  'x, y, z'
loop_
 _atom_site_type_symbol
 _atom_site_label
 _atom_site_symmetry_multiplicity
 _atom_site_fract_x
 _atom_site_fract_y
 _atom_site_fract_z
 _atom_site_occupancy
  Ta  Ta0  1  0.772957  0.061087  0.130260  1
  Nb  Nb1  1  0.940460  0.230992  0.369119  1
  Zn  Zn2  1  0.762843  0.236259  0.750403  1
  Zn  Zn3  1  0.239820  0.764792  0.249037  1
  Zn  Zn4  1  0.674064  0.644797  0.997796  1
  Zn  Zn5  1  0.353851  0.325365  0.504197  1
  Zn  Zn6  1  0.316158  0.365231  0.987810  1
  Zn  Zn7  1  0.633550  0.687592  0.513014  1
  Sb  Sb8  1  0.065247  0.787207  0.624271  1
  Sb  Sb9  1  0.212098  0.933888  0.875998  1
  O  O10  1  0.181613  0.427444  0.354757  1
  O  O11  1  0.575128  0.821402  0.143575  1
  O  O12  1  0.823499  0.571429  0.645111  1
  O  O13  1  0.427443  0.176234  0.854563  1
  O  O14  1  0.312023  0.577791  0.596205  1
  O  O15  1  0.421658  0.687911  0.904329  1
  O  O16  1  0.686937  0.410459  0.417302  1
  O  O17  1  0.588865  0.312045  0.082947  1
  O  O18  1  0.989570  0.710048  0.856418  1
  O  O19  1  0.289717  0.009939  0.643581  1
  O  O20  1  0.060802  0.858334  0.105224  1
  O  O21  1  0.141352  0.937489  0.395501  1
  O  O22  1  0.943750  0.141077  0.895387  1
  O  O23  1  0.857740  0.055124  0.605504  1
  O  O24  1  0.713084  0.982027  0.351340  1
  O  O25  1  0.015772  0.284037  0.146352  1
