# generated using pymatgen
data_Hf8Nb2AlSi2Ge3N2
_symmetry_space_group_name_H-M   'P 1'
_cell_length_a   7.86701408
_cell_length_b   7.86701298
_cell_length_c   5.50906000
_cell_angle_alpha   89.99174103
_cell_angle_beta   89.99174832
_cell_angle_gamma   120.17082537
_symmetry_Int_Tables_number   1
_chemical_formula_structural   Hf8Nb2AlSi2Ge3N2
_chemical_formula_sum   'Hf8 Nb2 Al1 Si2 Ge3 N2'
_cell_volume   294.76625291
_cell_formula_units_Z   1
loop_
 _symmetry_equiv_pos_site_id
 _symmetry_equiv_pos_as_xyz
  1  'x, y, z'
loop_
 _atom_site_type_symbol
 _atom_site_label
 _atom_site_symmetry_multiplicity
 _atom_site_fract_x
 _atom_site_fract_y
 _atom_site_fract_z
 _atom_site_occupancy
  Hf  Hf0  1  0.233297  0.002241  0.250004  1
  Hf  Hf1  1  0.766587  0.997668  0.750725  1
  Hf  Hf2  1  0.002501  0.233636  0.250085  1
  Hf  Hf3  1  0.998106  0.765852  0.749379  1
  Hf  Hf4  1  0.763363  0.763283  0.249284  1
  Hf  Hf5  1  0.237464  0.237347  0.750134  1
  Hf  Hf6  1  0.334738  0.662034  0.000150  1
  Hf  Hf7  1  0.663804  0.337990  0.000190  1
  Nb  Nb8  1  0.664460  0.338477  0.499232  1
  Nb  Nb9  1  0.333206  0.661477  0.499428  1
  Al  Al10  1  0.592690  0.001317  0.259317  1
  Si  Si11  1  0.405897  0.406142  0.261055  1
  Si  Si12  1  0.593831  0.594912  0.738895  1
  Ge  Ge13  1  0.408984  0.998728  0.743034  1
  Ge  Ge14  1  0.001128  0.595296  0.255338  1
  Ge  Ge15  1  0.997392  0.403531  0.744588  1
  N  N16  1  0.001397  0.000034  0.999134  1
  N  N17  1  0.001157  0.000035  0.500028  1
