# generated using pymatgen
data_Yb2Eu(SiP2)2
_symmetry_space_group_name_H-M   'P 1'
_cell_length_a   9.09359097
_cell_length_b   9.09359074
_cell_length_c   7.05607900
_cell_angle_alpha   74.79794390
_cell_angle_beta   74.79795081
_cell_angle_gamma   122.03849596
_symmetry_Int_Tables_number   1
_chemical_formula_structural   Yb2Eu(SiP2)2
_chemical_formula_sum   'Yb4 Eu2 Si4 P8'
_cell_volume   415.92100793
_cell_formula_units_Z   2
loop_
 _symmetry_equiv_pos_site_id
 _symmetry_equiv_pos_as_xyz
  1  'x, y, z'
loop_
 _atom_site_type_symbol
 _atom_site_label
 _atom_site_symmetry_multiplicity
 _atom_site_fract_x
 _atom_site_fract_y
 _atom_site_fract_z
 _atom_site_occupancy
  Yb  Yb0  1  0.564308  0.435693  0.750000  1
  Yb  Yb1  1  0.435693  0.564307  0.250000  1
  Yb  Yb2  1  0.813872  0.186129  0.750000  1
  Yb  Yb3  1  0.186129  0.813871  0.250000  1
  Eu  Eu4  1  0.941106  0.058894  0.250000  1
  Eu  Eu5  1  0.058894  0.941106  0.750000  1
  Si  Si6  1  0.163975  0.520014  0.847889  1
  Si  Si7  1  0.479986  0.836025  0.652111  1
  Si  Si8  1  0.836025  0.479986  0.152111  1
  Si  Si9  1  0.520014  0.163975  0.347889  1
  P  P10  1  0.948271  0.555404  0.776157  1
  P  P11  1  0.444596  0.051729  0.723843  1
  P  P12  1  0.683204  0.812088  0.751391  1
  P  P13  1  0.187912  0.316796  0.748609  1
  P  P14  1  0.316796  0.187912  0.248609  1
  P  P15  1  0.812088  0.683204  0.251391  1
  P  P16  1  0.555404  0.948271  0.276157  1
  P  P17  1  0.051729  0.444596  0.223843  1
