# generated using pymatgen
data_Rb4Na2TmInSb4
_symmetry_space_group_name_H-M   'P 1'
_cell_length_a   10.02751977
_cell_length_b   10.02797669
_cell_length_c   10.02739191
_cell_angle_alpha   136.38775410
_cell_angle_beta   62.36696098
_cell_angle_gamma   137.71518891
_symmetry_Int_Tables_number   1
_chemical_formula_structural   Rb4Na2TmInSb4
_chemical_formula_sum   'Rb4 Na2 Tm1 In1 Sb4'
_cell_volume   462.30944989
_cell_formula_units_Z   1
loop_
 _symmetry_equiv_pos_site_id
 _symmetry_equiv_pos_as_xyz
  1  'x, y, z'
loop_
 _atom_site_type_symbol
 _atom_site_label
 _atom_site_symmetry_multiplicity
 _atom_site_fract_x
 _atom_site_fract_y
 _atom_site_fract_z
 _atom_site_occupancy
  Rb  Rb0  1  0.832952  0.240615  0.059611  1
  Rb  Rb1  1  0.667014  0.726605  0.407572  1
  Rb  Rb2  1  0.319116  0.259545  0.592469  1
  Rb  Rb3  1  0.180972  0.773545  0.940497  1
  Na  Na4  1  0.249983  0.250125  0.000048  1
  Na  Na5  1  0.749960  0.750049  0.999982  1
  Tm  Tm6  1  0.750061  0.249784  0.499937  1
  In  In7  1  0.250006  0.750037  0.499981  1
  Sb  Sb8  1  0.396945  0.774697  0.177601  1
  Sb  Sb9  1  0.103173  0.280553  0.377621  1
  Sb  Sb10  1  0.902782  0.725087  0.622238  1
  Sb  Sb11  1  0.597035  0.219359  0.822447  1
