# generated using pymatgen
data_Ce5Ga2Os3
_symmetry_space_group_name_H-M   'P 1'
_cell_length_a   8.38970420
_cell_length_b   8.38970412
_cell_length_c   8.38970400
_cell_angle_alpha   109.47122036
_cell_angle_beta   109.47122015
_cell_angle_gamma   109.47121791
_symmetry_Int_Tables_number   1
_chemical_formula_structural   Ce5Ga2Os3
_chemical_formula_sum   'Ce10 Ga4 Os6'
_cell_volume   454.58809724
_cell_formula_units_Z   2
loop_
 _symmetry_equiv_pos_site_id
 _symmetry_equiv_pos_as_xyz
  1  'x, y, z'
loop_
 _atom_site_type_symbol
 _atom_site_label
 _atom_site_symmetry_multiplicity
 _atom_site_fract_x
 _atom_site_fract_y
 _atom_site_fract_z
 _atom_site_occupancy
  Ce  Ce0  1  0.782099  0.782099  0.782099  1
  Ce  Ce1  1  0.308771  0.558771  0.750000  1
  Ce  Ce2  1  0.750000  0.308771  0.558771  1
  Ce  Ce3  1  0.558771  0.750000  0.308771  1
  Ce  Ce4  1  0.717901  0.500000  0.000000  1
  Ce  Ce5  1  0.000000  0.717901  0.500000  1
  Ce  Ce6  1  0.500000  0.000000  0.717901  1
  Ce  Ce7  1  0.250000  0.191229  0.941229  1
  Ce  Ce8  1  0.941229  0.250000  0.191229  1
  Ce  Ce9  1  0.191229  0.941229  0.250000  1
  Ga  Ga10  1  0.400780  0.400780  0.400780  1
  Ga  Ga11  1  0.099220  0.500000  0.000000  1
  Ga  Ga12  1  0.000000  0.099220  0.500000  1
  Ga  Ga13  1  0.500000  0.000000  0.099220  1
  Os  Os14  1  0.872444  0.122444  0.750000  1
  Os  Os15  1  0.750000  0.872444  0.122444  1
  Os  Os16  1  0.122444  0.750000  0.872444  1
  Os  Os17  1  0.250000  0.627556  0.377556  1
  Os  Os18  1  0.377556  0.250000  0.627556  1
  Os  Os19  1  0.627556  0.377556  0.250000  1
