# generated using pymatgen
data_HoFe2SiC
_symmetry_space_group_name_H-M   'P 1'
_cell_length_a   5.52733626
_cell_length_b   5.52733660
_cell_length_c   6.75286100
_cell_angle_alpha   90.00000000
_cell_angle_beta   90.00000000
_cell_angle_gamma   140.49576068
_symmetry_Int_Tables_number   1
_chemical_formula_structural   HoFe2SiC
_chemical_formula_sum   'Ho2 Fe4 Si2 C2'
_cell_volume   131.24087366
_cell_formula_units_Z   2
loop_
 _symmetry_equiv_pos_site_id
 _symmetry_equiv_pos_as_xyz
  1  'x, y, z'
loop_
 _atom_site_type_symbol
 _atom_site_label
 _atom_site_symmetry_multiplicity
 _atom_site_fract_x
 _atom_site_fract_y
 _atom_site_fract_z
 _atom_site_occupancy
  Ho  Ho0  1  0.549680  0.450320  0.250000  1
  Ho  Ho1  1  0.450320  0.549680  0.750000  1
  Fe  Fe2  1  0.833941  0.166059  0.061433  1
  Fe  Fe3  1  0.166059  0.833941  0.938567  1
  Fe  Fe4  1  0.166059  0.833941  0.561433  1
  Fe  Fe5  1  0.833941  0.166059  0.438567  1
  Si  Si6  1  0.270158  0.729842  0.250000  1
  Si  Si7  1  0.729842  0.270158  0.750000  1
  C  C8  1  0.000000  0.000000  0.000000  1
  C  C9  1  0.000000  0.000000  0.500000  1
