# generated using pymatgen
data_Nb6Si6MoRu4W
_symmetry_space_group_name_H-M   'P 1'
_cell_length_a   7.52903314
_cell_length_b   7.52783243
_cell_length_c   7.52783219
_cell_angle_alpha   126.80769927
_cell_angle_beta   124.13182300
_cell_angle_gamma   80.77603578
_symmetry_Int_Tables_number   1
_chemical_formula_structural   Nb6Si6MoRu4W
_chemical_formula_sum   'Nb6 Si6 Mo1 Ru4 W1'
_cell_volume   272.62307468
_cell_formula_units_Z   1
loop_
 _symmetry_equiv_pos_site_id
 _symmetry_equiv_pos_as_xyz
  1  'x, y, z'
loop_
 _atom_site_type_symbol
 _atom_site_label
 _atom_site_symmetry_multiplicity
 _atom_site_fract_x
 _atom_site_fract_y
 _atom_site_fract_z
 _atom_site_occupancy
  Nb  Nb0  1  0.558008  0.092927  0.034873  1
  Nb  Nb1  1  0.441992  0.476865  0.534919  1
  Nb  Nb2  1  0.961158  0.490072  0.030462  1
  Nb  Nb3  1  0.038842  0.069304  0.528915  1
  Nb  Nb4  1  0.752819  0.921439  0.668804  1
  Nb  Nb5  1  0.247181  0.915985  0.168621  1
  Si  Si6  1  0.778955  0.552844  0.272832  1
  Si  Si7  1  0.221045  0.493877  0.773890  1
  Si  Si8  1  0.334273  0.817466  0.491884  1
  Si  Si9  1  0.665727  0.157609  0.483191  1
  Si  Si10  1  0.825655  0.817208  0.983065  1
  Si  Si11  1  0.174345  0.157410  0.991554  1
  Mo  Mo12  1  0.500000  0.249587  0.749587  1
  Ru  Ru13  1  0.161219  0.746300  0.654771  1
  Ru  Ru14  1  0.838781  0.493553  0.585082  1
  Ru  Ru15  1  0.591994  0.746429  0.085232  1
  Ru  Ru16  1  0.408006  0.493239  0.154436  1
  W  W17  1  0.000000  0.250083  0.250083  1
