# generated using pymatgen
data_NaLi4Nd3Si8
_symmetry_space_group_name_H-M   'P 1'
_cell_length_a   3.84423400
_cell_length_b   7.85709213
_cell_length_c   10.59484183
_cell_angle_alpha   89.78146333
_cell_angle_beta   90.00000000
_cell_angle_gamma   90.00000000
_symmetry_Int_Tables_number   1
_chemical_formula_structural   NaLi4Nd3Si8
_chemical_formula_sum   'Na1 Li4 Nd3 Si8'
_cell_volume   320.00957992
_cell_formula_units_Z   1
loop_
 _symmetry_equiv_pos_site_id
 _symmetry_equiv_pos_as_xyz
  1  'x, y, z'
loop_
 _atom_site_type_symbol
 _atom_site_label
 _atom_site_symmetry_multiplicity
 _atom_site_fract_x
 _atom_site_fract_y
 _atom_site_fract_z
 _atom_site_occupancy
  Na  Na0  1  0.750000  0.363575  0.365608  1
  Li  Li1  1  0.250000  0.004385  0.391110  1
  Li  Li2  1  0.750000  0.005889  0.608930  1
  Li  Li3  1  0.250000  0.493676  0.114325  1
  Li  Li4  1  0.750000  0.502619  0.891153  1
  Nd  Nd5  1  0.250000  0.132295  0.864403  1
  Nd  Nd6  1  0.750000  0.867137  0.133279  1
  Nd  Nd7  1  0.250000  0.630443  0.632128  1
  Si  Si8  1  0.750000  0.263783  0.067623  1
  Si  Si9  1  0.250000  0.728841  0.929885  1
  Si  Si10  1  0.750000  0.775407  0.428630  1
  Si  Si11  1  0.250000  0.235768  0.571806  1
  Si  Si12  1  0.750000  0.832646  0.820411  1
  Si  Si13  1  0.250000  0.161016  0.173329  1
  Si  Si14  1  0.750000  0.332741  0.682779  1
  Si  Si15  1  0.250000  0.669778  0.324600  1
