# generated using pymatgen
data_Ce3SmLu4(ReB6)4
_symmetry_space_group_name_H-M   'P 1'
_cell_length_a   3.69135400
_cell_length_b   9.14341770
_cell_length_c   11.55167703
_cell_angle_alpha   90.06775858
_cell_angle_beta   90.00000000
_cell_angle_gamma   90.00000000
_symmetry_Int_Tables_number   1
_chemical_formula_structural   Ce3SmLu4(ReB6)4
_chemical_formula_sum   'Ce3 Sm1 Lu4 Re4 B24'
_cell_volume   389.88721130
_cell_formula_units_Z   1
loop_
 _symmetry_equiv_pos_site_id
 _symmetry_equiv_pos_as_xyz
  1  'x, y, z'
loop_
 _atom_site_type_symbol
 _atom_site_label
 _atom_site_symmetry_multiplicity
 _atom_site_fract_x
 _atom_site_fract_y
 _atom_site_fract_z
 _atom_site_occupancy
  Ce  Ce0  1  0.000000  0.321595  0.414918  1
  Ce  Ce1  1  0.000000  0.678113  0.585521  1
  Ce  Ce2  1  0.000000  0.822794  0.085460  1
  Sm  Sm3  1  0.000000  0.177856  0.914191  1
  Lu  Lu4  1  0.000000  0.944612  0.372807  1
  Lu  Lu5  1  0.000000  0.056007  0.627930  1
  Lu  Lu6  1  0.000000  0.443427  0.128123  1
  Lu  Lu7  1  0.000000  0.555971  0.871625  1
  Re  Re8  1  0.000000  0.639315  0.319997  1
  Re  Re9  1  0.000000  0.361973  0.678919  1
  Re  Re10  1  0.000000  0.139858  0.181483  1
  Re  Re11  1  0.000000  0.859496  0.819254  1
  B  B12  1  0.500000  0.554923  0.431066  1
  B  B13  1  0.500000  0.445251  0.568614  1
  B  B14  1  0.500000  0.054388  0.068920  1
  B  B15  1  0.500000  0.944467  0.931739  1
  B  B16  1  0.500000  0.750671  0.417862  1
  B  B17  1  0.500000  0.249035  0.582071  1
  B  B18  1  0.500000  0.250694  0.082534  1
  B  B19  1  0.500000  0.749402  0.917806  1
  B  B20  1  0.500000  0.792396  0.265674  1
  B  B21  1  0.500000  0.207412  0.733839  1
  B  B22  1  0.500000  0.292456  0.234399  1
  B  B23  1  0.500000  0.707530  0.765668  1
  B  B24  1  0.500000  0.630427  0.185031  1
  B  B25  1  0.500000  0.370021  0.814732  1
  B  B26  1  0.500000  0.130604  0.315086  1
  B  B27  1  0.500000  0.869381  0.685015  1
  B  B28  1  0.500000  0.983173  0.213460  1
  B  B29  1  0.500000  0.016845  0.786080  1
  B  B30  1  0.500000  0.483092  0.286475  1
  B  B31  1  0.500000  0.517101  0.713468  1
  B  B32  1  0.500000  0.599525  0.027477  1
  B  B33  1  0.500000  0.400344  0.972364  1
  B  B34  1  0.500000  0.102246  0.472162  1
  B  B35  1  0.500000  0.897599  0.528231  1
