# generated using pymatgen
data_Zr4VSe8
_symmetry_space_group_name_H-M   'P 1'
_cell_length_a   7.32942178
_cell_length_b   7.32942209
_cell_length_c   8.98532414
_cell_angle_alpha   53.54257925
_cell_angle_beta   53.54257622
_cell_angle_gamma   61.65907474
_symmetry_Int_Tables_number   1
_chemical_formula_structural   Zr4VSe8
_chemical_formula_sum   'Zr4 V1 Se8'
_cell_volume   306.68641664
_cell_formula_units_Z   1
loop_
 _symmetry_equiv_pos_site_id
 _symmetry_equiv_pos_as_xyz
  1  'x, y, z'
loop_
 _atom_site_type_symbol
 _atom_site_label
 _atom_site_symmetry_multiplicity
 _atom_site_fract_x
 _atom_site_fract_y
 _atom_site_fract_z
 _atom_site_occupancy
  Zr  Zr0  1  0.741070  0.741070  0.007589  1
  Zr  Zr1  1  0.258930  0.258930  0.992411  1
  Zr  Zr2  1  0.739867  0.260133  0.500000  1
  Zr  Zr3  1  0.260133  0.739867  0.500000  1
  V  V4  1  0.000000  0.000000  0.000000  1
  Se  Se5  1  0.553016  0.044468  0.169017  1
  Se  Se6  1  0.446984  0.955532  0.830983  1
  Se  Se7  1  0.955532  0.446984  0.830983  1
  Se  Se8  1  0.044468  0.553016  0.169017  1
  Se  Se9  1  0.960570  0.960570  0.326485  1
  Se  Se10  1  0.039430  0.039430  0.673515  1
  Se  Se11  1  0.449755  0.449755  0.333653  1
  Se  Se12  1  0.550245  0.550245  0.666347  1
