# generated using pymatgen
data_Dy2Pa(GeIr)3
_symmetry_space_group_name_H-M   'P 1'
_cell_length_a   7.19853700
_cell_length_b   7.18884125
_cell_length_c   3.87271000
_cell_angle_alpha   90.00000000
_cell_angle_beta   90.00000000
_cell_angle_gamma   120.04462079
_symmetry_Int_Tables_number   1
_chemical_formula_structural   Dy2Pa(GeIr)3
_chemical_formula_sum   'Dy2 Pa1 Ge3 Ir3'
_cell_volume   173.48155108
_cell_formula_units_Z   1
loop_
 _symmetry_equiv_pos_site_id
 _symmetry_equiv_pos_as_xyz
  1  'x, y, z'
loop_
 _atom_site_type_symbol
 _atom_site_label
 _atom_site_symmetry_multiplicity
 _atom_site_fract_x
 _atom_site_fract_y
 _atom_site_fract_z
 _atom_site_occupancy
  Dy  Dy0  1  0.406889  0.407714  0.000000  1
  Dy  Dy1  1  0.999175  0.592286  0.000000  1
  Pa  Pa2  1  0.584031  0.000000  0.000000  1
  Ge  Ge3  1  0.240115  0.000000  0.500001  1
  Ge  Ge4  1  0.011424  0.261993  0.500001  1
  Ge  Ge5  1  0.749430  0.738006  0.500001  1
  Ir  Ir6  1  0.988016  0.000000  0.000000  1
  Ir  Ir7  1  0.664999  0.309079  0.500001  1
  Ir  Ir8  1  0.355919  0.690920  0.500001  1
