# generated using pymatgen
data_Er4Tm4Sc11Si16W
_symmetry_space_group_name_H-M   'P 1'
_cell_length_a   7.04410542
_cell_length_b   7.29422534
_cell_length_c   13.83333231
_cell_angle_alpha   90.17950398
_cell_angle_beta   89.62220729
_cell_angle_gamma   89.71670606
_symmetry_Int_Tables_number   1
_chemical_formula_structural   Er4Tm4Sc11Si16W
_chemical_formula_sum   'Er4 Tm4 Sc11 Si16 W1'
_cell_volume   710.74678955
_cell_formula_units_Z   1
loop_
 _symmetry_equiv_pos_site_id
 _symmetry_equiv_pos_as_xyz
  1  'x, y, z'
loop_
 _atom_site_type_symbol
 _atom_site_label
 _atom_site_symmetry_multiplicity
 _atom_site_fract_x
 _atom_site_fract_y
 _atom_site_fract_z
 _atom_site_occupancy
  Er  Er0  1  0.011797  0.175143  0.096757  1
  Er  Er1  1  0.989226  0.825201  0.899037  1
  Er  Er2  1  0.487333  0.678284  0.899909  1
  Er  Er3  1  0.993013  0.828908  0.595548  1
  Tm  Tm4  1  0.512931  0.322773  0.096327  1
  Tm  Tm5  1  0.009979  0.175660  0.404007  1
  Tm  Tm6  1  0.506967  0.323078  0.410147  1
  Tm  Tm7  1  0.488066  0.676287  0.595681  1
  Sc  Sc8  1  0.162652  0.496418  0.745237  1
  Sc  Sc9  1  0.838319  0.497178  0.251810  1
  Sc  Sc10  1  0.337709  0.003563  0.252426  1
  Sc  Sc11  1  0.658232  0.001378  0.747246  1
  Sc  Sc12  1  0.665921  0.825323  0.379032  1
  Sc  Sc13  1  0.168088  0.678467  0.378349  1
  Sc  Sc14  1  0.669272  0.824188  0.124691  1
  Sc  Sc15  1  0.832339  0.323278  0.623540  1
  Sc  Sc16  1  0.332937  0.176254  0.874662  1
  Sc  Sc17  1  0.829711  0.322912  0.872033  1
  Sc  Sc18  1  0.170473  0.676830  0.125765  1
  Si  Si19  1  0.041867  0.119520  0.744971  1
  Si  Si20  1  0.964636  0.887485  0.251419  1
  Si  Si21  1  0.467544  0.614619  0.250843  1
  Si  Si22  1  0.530213  0.376868  0.745875  1
  Si  Si23  1  0.287148  0.877753  0.745564  1
  Si  Si24  1  0.711668  0.129086  0.251019  1
  Si  Si25  1  0.216105  0.371235  0.250780  1
  Si  Si26  1  0.783618  0.626335  0.746584  1
  Si  Si27  1  0.177109  0.451275  0.540492  1
  Si  Si28  1  0.841008  0.531148  0.460658  1
  Si  Si29  1  0.332133  0.970246  0.470997  1
  Si  Si30  1  0.843898  0.534327  0.039069  1
  Si  Si31  1  0.647516  0.034767  0.544748  1
  Si  Si32  1  0.155502  0.466630  0.959109  1
  Si  Si33  1  0.661686  0.035492  0.959006  1
  Si  Si34  1  0.340503  0.963985  0.038606  1
  W  W35  1  0.332883  0.178105  0.628056  1
