# generated using pymatgen
data_CeSi2(TcOs)2
_symmetry_space_group_name_H-M   'P 1'
_cell_length_a   7.28449925
_cell_length_b   7.28450017
_cell_length_c   4.05726500
_cell_angle_alpha   90.00000000
_cell_angle_beta   90.00000000
_cell_angle_gamma   147.75448824
_symmetry_Int_Tables_number   1
_chemical_formula_structural   CeSi2(TcOs)2
_chemical_formula_sum   'Ce1 Si2 Tc2 Os2'
_cell_volume   114.86998036
_cell_formula_units_Z   1
loop_
 _symmetry_equiv_pos_site_id
 _symmetry_equiv_pos_as_xyz
  1  'x, y, z'
loop_
 _atom_site_type_symbol
 _atom_site_label
 _atom_site_symmetry_multiplicity
 _atom_site_fract_x
 _atom_site_fract_y
 _atom_site_fract_z
 _atom_site_occupancy
  Ce  Ce0  1  0.000000  0.000000  0.000000  1
  Si  Si1  1  0.413095  0.586905  0.500000  1
  Si  Si2  1  0.586905  0.413095  0.500000  1
  Tc  Tc3  1  0.306581  0.693419  0.000000  1
  Tc  Tc4  1  0.693419  0.306581  0.000000  1
  Os  Os5  1  0.185722  0.814278  0.500000  1
  Os  Os6  1  0.814278  0.185722  0.500000  1
