# generated using pymatgen
data_DyHoMn12P7
_symmetry_space_group_name_H-M   'P 1'
_cell_length_a   9.28797700
_cell_length_b   9.28797722
_cell_length_c   3.59092000
_cell_angle_alpha   90.00000000
_cell_angle_beta   90.00000000
_cell_angle_gamma   120.00000277
_symmetry_Int_Tables_number   1
_chemical_formula_structural   DyHoMn12P7
_chemical_formula_sum   'Dy1 Ho1 Mn12 P7'
_cell_volume   268.27402328
_cell_formula_units_Z   1
loop_
 _symmetry_equiv_pos_site_id
 _symmetry_equiv_pos_as_xyz
  1  'x, y, z'
loop_
 _atom_site_type_symbol
 _atom_site_label
 _atom_site_symmetry_multiplicity
 _atom_site_fract_x
 _atom_site_fract_y
 _atom_site_fract_z
 _atom_site_occupancy
  Dy  Dy0  1  0.666667  0.333333  0.500000  1
  Ho  Ho1  1  0.000000  0.000000  0.000000  1
  Mn  Mn2  1  0.709401  0.618168  0.000000  1
  Mn  Mn3  1  0.381832  0.091232  0.000000  1
  Mn  Mn4  1  0.908768  0.290599  0.000000  1
  Mn  Mn5  1  0.213993  0.390349  0.000000  1
  Mn  Mn6  1  0.609651  0.823644  0.000000  1
  Mn  Mn7  1  0.176356  0.786007  0.000000  1
  Mn  Mn8  1  0.288866  0.229287  0.500000  1
  Mn  Mn9  1  0.770713  0.059579  0.500000  1
  Mn  Mn10  1  0.940421  0.711134  0.500000  1
  Mn  Mn11  1  0.458395  0.563394  0.500000  1
  Mn  Mn12  1  0.436606  0.895002  0.500000  1
  Mn  Mn13  1  0.104998  0.541605  0.500000  1
  P  P14  1  0.453109  0.375483  0.000000  1
  P  P15  1  0.624517  0.077625  0.000000  1
  P  P16  1  0.922375  0.546891  0.000000  1
  P  P17  1  0.053035  0.258118  0.500000  1
  P  P18  1  0.741882  0.794919  0.500000  1
  P  P19  1  0.205081  0.946965  0.500000  1
  P  P20  1  0.333333  0.666667  0.000000  1
