# generated using pymatgen
data_PrThPPt8
_symmetry_space_group_name_H-M   'P 1'
_cell_length_a   9.23716570
_cell_length_b   9.19902067
_cell_length_c   4.31872700
_cell_angle_alpha   90.00000000
_cell_angle_beta   90.00000000
_cell_angle_gamma   145.63031121
_symmetry_Int_Tables_number   1
_chemical_formula_structural   PrThPPt8
_chemical_formula_sum   'Pr1 Th1 P1 Pt8'
_cell_volume   207.16835863
_cell_formula_units_Z   1
loop_
 _symmetry_equiv_pos_site_id
 _symmetry_equiv_pos_as_xyz
  1  'x, y, z'
loop_
 _atom_site_type_symbol
 _atom_site_label
 _atom_site_symmetry_multiplicity
 _atom_site_fract_x
 _atom_site_fract_y
 _atom_site_fract_z
 _atom_site_occupancy
  Pr  Pr0  1  0.372952  0.617574  0.500000  1
  Th  Th1  1  0.623270  0.372530  0.500000  1
  P  P2  1  0.220743  0.224236  0.000000  1
  Pt  Pt3  1  0.112802  0.893906  0.000000  1
  Pt  Pt4  1  0.886883  0.107836  0.000000  1
  Pt  Pt5  1  0.489776  0.987520  0.000000  1
  Pt  Pt6  1  0.978780  0.489927  0.000000  1
  Pt  Pt7  1  0.196393  0.794643  0.500000  1
  Pt  Pt8  1  0.792651  0.196059  0.500000  1
  Pt  Pt9  1  0.002551  0.000488  0.500000  1
  Pt  Pt10  1  0.636798  0.628877  0.000000  1
