# generated using pymatgen
data_Rb3Li2O6
_symmetry_space_group_name_H-M   'P 1'
_cell_length_a   9.74244896
_cell_length_b   9.74244871
_cell_length_c   5.58530100
_cell_angle_alpha   90.00000000
_cell_angle_beta   90.00000000
_cell_angle_gamma   133.72786644
_symmetry_Int_Tables_number   1
_chemical_formula_structural   Rb3Li2O6
_chemical_formula_sum   'Rb6 Li4 O12'
_cell_volume   383.08880739
_cell_formula_units_Z   2
loop_
 _symmetry_equiv_pos_site_id
 _symmetry_equiv_pos_as_xyz
  1  'x, y, z'
loop_
 _atom_site_type_symbol
 _atom_site_label
 _atom_site_symmetry_multiplicity
 _atom_site_fract_x
 _atom_site_fract_y
 _atom_site_fract_z
 _atom_site_occupancy
  Rb  Rb0  1  0.219691  0.219691  0.750000  1
  Rb  Rb1  1  0.780309  0.780309  0.250000  1
  Rb  Rb2  1  0.010169  0.635741  0.750000  1
  Rb  Rb3  1  0.364259  0.989831  0.250000  1
  Rb  Rb4  1  0.989831  0.364259  0.250000  1
  Rb  Rb5  1  0.635741  0.010169  0.750000  1
  Li  Li6  1  0.401730  0.598270  0.500000  1
  Li  Li7  1  0.401730  0.598270  0.000000  1
  Li  Li8  1  0.598270  0.401730  0.500000  1
  Li  Li9  1  0.598270  0.401730  0.000000  1
  O  O10  1  0.525488  0.219753  0.750000  1
  O  O11  1  0.780247  0.474512  0.250000  1
  O  O12  1  0.474512  0.780247  0.250000  1
  O  O13  1  0.219753  0.525488  0.750000  1
  O  O14  1  0.025382  0.339591  0.750000  1
  O  O15  1  0.660409  0.974618  0.250000  1
  O  O16  1  0.974618  0.660409  0.250000  1
  O  O17  1  0.339591  0.025382  0.750000  1
  O  O18  1  0.666245  0.584908  0.750000  1
  O  O19  1  0.415092  0.333755  0.250000  1
  O  O20  1  0.333755  0.415092  0.250000  1
  O  O21  1  0.584908  0.666245  0.750000  1
