# generated using pymatgen
data_Tb5Dy4YBi6
_symmetry_space_group_name_H-M   'P 1'
_cell_length_a   9.22960556
_cell_length_b   9.22960510
_cell_length_c   6.37107200
_cell_angle_alpha   90.00000000
_cell_angle_beta   90.00000000
_cell_angle_gamma   119.96026376
_symmetry_Int_Tables_number   1
_chemical_formula_structural   Tb5Dy4YBi6
_chemical_formula_sum   'Tb5 Dy4 Y1 Bi6'
_cell_volume   470.20058113
_cell_formula_units_Z   1
loop_
 _symmetry_equiv_pos_site_id
 _symmetry_equiv_pos_as_xyz
  1  'x, y, z'
loop_
 _atom_site_type_symbol
 _atom_site_label
 _atom_site_symmetry_multiplicity
 _atom_site_fract_x
 _atom_site_fract_y
 _atom_site_fract_z
 _atom_site_occupancy
  Tb  Tb0  1  0.244326  0.000053  0.750000  1
  Tb  Tb1  1  0.000053  0.244326  0.750000  1
  Tb  Tb2  1  0.244347  0.244347  0.250000  1
  Tb  Tb3  1  0.755681  0.000019  0.250000  1
  Tb  Tb4  1  0.000019  0.755681  0.250000  1
  Dy  Dy5  1  0.666686  0.333312  0.000091  1
  Dy  Dy6  1  0.333312  0.666686  0.000091  1
  Dy  Dy7  1  0.333312  0.666686  0.499909  1
  Dy  Dy8  1  0.666686  0.333312  0.499909  1
  Y  Y9  1  0.755669  0.755669  0.750000  1
  Bi  Bi10  1  0.388760  0.388760  0.750000  1
  Bi  Bi11  1  0.611379  0.999833  0.750000  1
  Bi  Bi12  1  0.999833  0.611379  0.750000  1
  Bi  Bi13  1  0.611337  0.611337  0.250000  1
  Bi  Bi14  1  0.388633  0.999965  0.250000  1
  Bi  Bi15  1  0.999965  0.388633  0.250000  1
