# generated using pymatgen
data_LaGd7Hf4O20
_symmetry_space_group_name_H-M   'P 1'
_cell_length_a   3.81715900
_cell_length_b   10.87398923
_cell_length_c   11.73434064
_cell_angle_alpha   89.79027489
_cell_angle_beta   90.00000000
_cell_angle_gamma   90.00000000
_symmetry_Int_Tables_number   1
_chemical_formula_structural   LaGd7Hf4O20
_chemical_formula_sum   'La1 Gd7 Hf4 O20'
_cell_volume   487.06276581
_cell_formula_units_Z   1
loop_
 _symmetry_equiv_pos_site_id
 _symmetry_equiv_pos_as_xyz
  1  'x, y, z'
loop_
 _atom_site_type_symbol
 _atom_site_label
 _atom_site_symmetry_multiplicity
 _atom_site_fract_x
 _atom_site_fract_y
 _atom_site_fract_z
 _atom_site_occupancy
  La  La0  1  0.750000  0.116800  0.278634  1
  Gd  Gd1  1  0.750000  0.130944  0.939019  1
  Gd  Gd2  1  0.250000  0.371439  0.441785  1
  Gd  Gd3  1  0.250000  0.379679  0.777170  1
  Gd  Gd4  1  0.750000  0.620174  0.222382  1
  Gd  Gd5  1  0.750000  0.630071  0.561628  1
  Gd  Gd6  1  0.250000  0.866545  0.056248  1
  Gd  Gd7  1  0.250000  0.880595  0.723042  1
  Hf  Hf8  1  0.750000  0.172085  0.617298  1
  Hf  Hf9  1  0.250000  0.331369  0.113385  1
  Hf  Hf10  1  0.750000  0.670360  0.883860  1
  Hf  Hf11  1  0.250000  0.824424  0.386405  1
  O  O12  1  0.250000  0.002903  0.893597  1
  O  O13  1  0.750000  0.997584  0.654870  1
  O  O14  1  0.750000  0.235937  0.454011  1
  O  O15  1  0.250000  0.240675  0.614427  1
  O  O16  1  0.250000  0.254232  0.270088  1
  O  O17  1  0.750000  0.253529  0.770818  1
  O  O18  1  0.750000  0.261981  0.109169  1
  O  O19  1  0.250000  0.268960  0.949181  1
  O  O20  1  0.250000  0.505205  0.151803  1
  O  O21  1  0.750000  0.498361  0.396492  1
  O  O22  1  0.250000  0.503183  0.605020  1
  O  O23  1  0.750000  0.496972  0.844167  1
  O  O24  1  0.750000  0.728742  0.048653  1
  O  O25  1  0.250000  0.739781  0.886675  1
  O  O26  1  0.250000  0.747981  0.229413  1
  O  O27  1  0.750000  0.753256  0.730005  1
  O  O28  1  0.750000  0.756736  0.388078  1
  O  O29  1  0.250000  0.766857  0.550983  1
  O  O30  1  0.250000  0.999267  0.353605  1
  O  O31  1  0.750000  0.993375  0.098091  1
