# generated using pymatgen
data_Li3La8Al(ZnRh2)4
_symmetry_space_group_name_H-M   'P 1'
_cell_length_a   4.09608800
_cell_length_b   7.42359468
_cell_length_c   16.64367633
_cell_angle_alpha   89.65727783
_cell_angle_beta   90.00000000
_cell_angle_gamma   90.00000000
_symmetry_Int_Tables_number   1
_chemical_formula_structural   Li3La8Al(ZnRh2)4
_chemical_formula_sum   'Li3 La8 Al1 Zn4 Rh8'
_cell_volume   506.08681378
_cell_formula_units_Z   1
loop_
 _symmetry_equiv_pos_site_id
 _symmetry_equiv_pos_as_xyz
  1  'x, y, z'
loop_
 _atom_site_type_symbol
 _atom_site_label
 _atom_site_symmetry_multiplicity
 _atom_site_fract_x
 _atom_site_fract_y
 _atom_site_fract_z
 _atom_site_occupancy
  Li  Li0  1  0.250000  0.992411  0.441172  1
  Li  Li1  1  0.750000  0.862812  0.851446  1
  Li  Li2  1  0.250000  0.491486  0.059548  1
  La  La3  1  0.750000  0.334366  0.441535  1
  La  La4  1  0.250000  0.047087  0.714982  1
  La  La5  1  0.250000  0.542089  0.783383  1
  La  La6  1  0.250000  0.672905  0.560503  1
  La  La7  1  0.750000  0.828063  0.059233  1
  La  La8  1  0.250000  0.169010  0.939821  1
  La  La9  1  0.750000  0.459620  0.220375  1
  La  La10  1  0.750000  0.952464  0.283914  1
  Al  Al11  1  0.250000  0.132469  0.149243  1
  Zn  Zn12  1  0.750000  0.003258  0.557091  1
  Zn  Zn13  1  0.750000  0.373946  0.648150  1
  Zn  Zn14  1  0.750000  0.501895  0.941138  1
  Zn  Zn15  1  0.250000  0.630298  0.352117  1
  Rh  Rh16  1  0.750000  0.263382  0.812148  1
  Rh  Rh17  1  0.250000  0.249773  0.304827  1
  Rh  Rh18  1  0.250000  0.744203  0.938264  1
  Rh  Rh19  1  0.250000  0.242056  0.566029  1
  Rh  Rh20  1  0.250000  0.769430  0.185491  1
  Rh  Rh21  1  0.750000  0.744514  0.436636  1
  Rh  Rh22  1  0.750000  0.241920  0.070161  1
  Rh  Rh23  1  0.750000  0.750544  0.682790  1
