# generated using pymatgen
data_LaPr6Dy9(CdPt)4
_symmetry_space_group_name_H-M   'P 1'
_cell_length_a   9.81650852
_cell_length_b   9.81650863
_cell_length_c   9.81650940
_cell_angle_alpha   60.51412966
_cell_angle_beta   60.51413266
_cell_angle_gamma   60.51413062
_symmetry_Int_Tables_number   1
_chemical_formula_structural   LaPr6Dy9(CdPt)4
_chemical_formula_sum   'La1 Pr6 Dy9 Cd4 Pt4'
_cell_volume   676.66363420
_cell_formula_units_Z   1
loop_
 _symmetry_equiv_pos_site_id
 _symmetry_equiv_pos_as_xyz
  1  'x, y, z'
loop_
 _atom_site_type_symbol
 _atom_site_label
 _atom_site_symmetry_multiplicity
 _atom_site_fract_x
 _atom_site_fract_y
 _atom_site_fract_z
 _atom_site_occupancy
  La  La0  1  0.350008  0.350008  0.350008  1
  Pr  Pr1  1  0.940303  0.561670  0.561670  1
  Pr  Pr2  1  0.560482  0.938098  0.938098  1
  Pr  Pr3  1  0.561670  0.940303  0.561670  1
  Pr  Pr4  1  0.938098  0.560482  0.938098  1
  Pr  Pr5  1  0.561670  0.561670  0.940303  1
  Pr  Pr6  1  0.938098  0.938098  0.560482  1
  Dy  Dy7  1  0.351250  0.351250  0.945458  1
  Dy  Dy8  1  0.351250  0.945458  0.351250  1
  Dy  Dy9  1  0.945458  0.351250  0.351250  1
  Dy  Dy10  1  0.815064  0.186774  0.186774  1
  Dy  Dy11  1  0.188095  0.811866  0.811866  1
  Dy  Dy12  1  0.186774  0.815064  0.186774  1
  Dy  Dy13  1  0.811866  0.188095  0.811866  1
  Dy  Dy14  1  0.186774  0.186774  0.815064  1
  Dy  Dy15  1  0.811866  0.811866  0.188095  1
  Cd  Cd16  1  0.579842  0.579842  0.579842  1
  Cd  Cd17  1  0.582024  0.582024  0.260980  1
  Cd  Cd18  1  0.582024  0.260980  0.582024  1
  Cd  Cd19  1  0.260980  0.582024  0.582024  1
  Pt  Pt20  1  0.143279  0.143279  0.143279  1
  Pt  Pt21  1  0.139338  0.139338  0.574443  1
  Pt  Pt22  1  0.139338  0.574443  0.139338  1
  Pt  Pt23  1  0.574443  0.139338  0.139338  1
