# generated using pymatgen
data_Yb2InSn3Rh2
_symmetry_space_group_name_H-M   'P 1'
_cell_length_a   5.74562512
_cell_length_b   5.74562467
_cell_length_c   7.66138294
_cell_angle_alpha   89.70904261
_cell_angle_beta   90.29095805
_cell_angle_gamma   135.22597067
_symmetry_Int_Tables_number   1
_chemical_formula_structural   Yb2InSn3Rh2
_chemical_formula_sum   'Yb2 In1 Sn3 Rh2'
_cell_volume   178.13143256
_cell_formula_units_Z   1
loop_
 _symmetry_equiv_pos_site_id
 _symmetry_equiv_pos_as_xyz
  1  'x, y, z'
loop_
 _atom_site_type_symbol
 _atom_site_label
 _atom_site_symmetry_multiplicity
 _atom_site_fract_x
 _atom_site_fract_y
 _atom_site_fract_z
 _atom_site_occupancy
  Yb  Yb0  1  0.066115  0.933885  0.249057  1
  Yb  Yb1  1  0.933892  0.066108  0.748387  1
  In  In2  1  0.357134  0.642866  0.047230  1
  Sn  Sn3  1  0.642806  0.357194  0.548634  1
  Sn  Sn4  1  0.355650  0.644350  0.451031  1
  Sn  Sn5  1  0.647538  0.352462  0.953745  1
  Rh  Rh6  1  0.209539  0.790461  0.745340  1
  Rh  Rh7  1  0.787326  0.212674  0.256575  1
