# generated using pymatgen
data_Ca5PdRh
_symmetry_space_group_name_H-M   'P 1'
_cell_length_a   8.86436115
_cell_length_b   8.86436187
_cell_length_c   7.62477627
_cell_angle_alpha   83.04003235
_cell_angle_beta   83.04003138
_cell_angle_gamma   43.74043171
_symmetry_Int_Tables_number   1
_chemical_formula_structural   Ca5PdRh
_chemical_formula_sum   'Ca10 Pd2 Rh2'
_cell_volume   410.68844922
_cell_formula_units_Z   2
loop_
 _symmetry_equiv_pos_site_id
 _symmetry_equiv_pos_as_xyz
  1  'x, y, z'
loop_
 _atom_site_type_symbol
 _atom_site_label
 _atom_site_symmetry_multiplicity
 _atom_site_fract_x
 _atom_site_fract_y
 _atom_site_fract_z
 _atom_site_occupancy
  Ca  Ca0  1  0.026431  0.794461  0.912739  1
  Ca  Ca1  1  0.205539  0.973569  0.587261  1
  Ca  Ca2  1  0.986751  0.195894  0.077531  1
  Ca  Ca3  1  0.804106  0.013249  0.422469  1
  Ca  Ca4  1  0.360645  0.202860  0.815918  1
  Ca  Ca5  1  0.797140  0.639355  0.684082  1
  Ca  Ca6  1  0.631971  0.798979  0.174791  1
  Ca  Ca7  1  0.201021  0.368029  0.325209  1
  Ca  Ca8  1  0.569436  0.430564  0.750000  1
  Ca  Ca9  1  0.418775  0.581225  0.250000  1
  Pd  Pd10  1  0.818967  0.402913  0.418945  1
  Pd  Pd11  1  0.597087  0.181033  0.081055  1
  Rh  Rh12  1  0.179603  0.597472  0.580621  1
  Rh  Rh13  1  0.402528  0.820397  0.919379  1
