# generated using pymatgen
data_Pr8DyCuPd23
_symmetry_space_group_name_H-M   'P 1'
_cell_length_a   8.52712700
_cell_length_b   8.56602800
_cell_length_c   8.63139500
_cell_angle_alpha   90.00000000
_cell_angle_beta   90.00000000
_cell_angle_gamma   90.00000000
_symmetry_Int_Tables_number   1
_chemical_formula_structural   Pr8DyCuPd23
_chemical_formula_sum   'Pr8 Dy1 Cu1 Pd23'
_cell_volume   630.46823841
_cell_formula_units_Z   1
loop_
 _symmetry_equiv_pos_site_id
 _symmetry_equiv_pos_as_xyz
  1  'x, y, z'
loop_
 _atom_site_type_symbol
 _atom_site_label
 _atom_site_symmetry_multiplicity
 _atom_site_fract_x
 _atom_site_fract_y
 _atom_site_fract_z
 _atom_site_occupancy
  Pr  Pr0  1  0.251431  0.250110  0.255580  1
  Pr  Pr1  1  0.747206  0.747148  0.748936  1
  Pr  Pr2  1  0.747206  0.747148  0.251064  1
  Pr  Pr3  1  0.747206  0.252852  0.748936  1
  Pr  Pr4  1  0.251431  0.250110  0.744420  1
  Pr  Pr5  1  0.251431  0.749890  0.255580  1
  Pr  Pr6  1  0.251431  0.749890  0.744420  1
  Pr  Pr7  1  0.747206  0.252852  0.251064  1
  Dy  Dy8  1  0.998238  0.000000  0.000000  1
  Cu  Cu9  1  0.278603  0.500000  0.000000  1
  Pd  Pd10  1  0.735348  0.500000  0.000000  1
  Pd  Pd11  1  0.997697  0.267483  0.500000  1
  Pd  Pd12  1  0.494179  0.272574  0.000000  1
  Pd  Pd13  1  0.997697  0.732517  0.500000  1
  Pd  Pd14  1  0.494179  0.727426  0.000000  1
  Pd  Pd15  1  0.499813  0.000000  0.268686  1
  Pd  Pd16  1  0.267534  0.000000  0.500000  1
  Pd  Pd17  1  0.499813  0.000000  0.731314  1
  Pd  Pd18  1  0.731241  0.000000  0.500000  1
  Pd  Pd19  1  0.000692  0.500000  0.269937  1
  Pd  Pd20  1  0.000692  0.500000  0.730063  1
  Pd  Pd21  1  0.254468  0.500000  0.500000  1
  Pd  Pd22  1  0.744344  0.500000  0.500000  1
  Pd  Pd23  1  0.500685  0.255271  0.500000  1
  Pd  Pd24  1  0.500685  0.744729  0.500000  1
  Pd  Pd25  1  0.496203  0.500000  0.252431  1
  Pd  Pd26  1  0.496203  0.500000  0.747569  1
  Pd  Pd27  1  0.318829  0.000000  0.000000  1
  Pd  Pd28  1  0.675859  0.000000  0.000000  1
  Pd  Pd29  1  0.012585  0.325360  0.000000  1
  Pd  Pd30  1  0.012585  0.674640  0.000000  1
  Pd  Pd31  1  0.998641  0.000000  0.318530  1
  Pd  Pd32  1  0.998641  0.000000  0.681470  1
