# generated using pymatgen
data_HfZr15Ir3Pd5N4
_symmetry_space_group_name_H-M   'P 1'
_cell_length_a   8.86200261
_cell_length_b   8.86567892
_cell_length_c   8.86567900
_cell_angle_alpha   60.00000343
_cell_angle_beta   59.98627971
_cell_angle_gamma   59.98628226
_symmetry_Int_Tables_number   1
_chemical_formula_structural   HfZr15Ir3Pd5N4
_chemical_formula_sum   'Hf1 Zr15 Ir3 Pd5 N4'
_cell_volume   492.43714067
_cell_formula_units_Z   1
loop_
 _symmetry_equiv_pos_site_id
 _symmetry_equiv_pos_as_xyz
  1  'x, y, z'
loop_
 _atom_site_type_symbol
 _atom_site_label
 _atom_site_symmetry_multiplicity
 _atom_site_fract_x
 _atom_site_fract_y
 _atom_site_fract_z
 _atom_site_occupancy
  Hf  Hf0  1  0.109718  0.630094  0.630094  1
  Zr  Zr1  1  0.630303  0.114101  0.627797  1
  Zr  Zr2  1  0.630303  0.627797  0.114101  1
  Zr  Zr3  1  0.630303  0.627797  0.627797  1
  Zr  Zr4  1  0.817809  0.817946  0.182123  1
  Zr  Zr5  1  0.178689  0.185005  0.818153  1
  Zr  Zr6  1  0.817809  0.182123  0.817946  1
  Zr  Zr7  1  0.178689  0.818153  0.185005  1
  Zr  Zr8  1  0.178689  0.818153  0.818153  1
  Zr  Zr9  1  0.817809  0.182123  0.182123  1
  Zr  Zr10  1  0.431664  0.431216  0.068560  1
  Zr  Zr11  1  0.066811  0.067162  0.433013  1
  Zr  Zr12  1  0.431664  0.068560  0.431216  1
  Zr  Zr13  1  0.066811  0.433013  0.067162  1
  Zr  Zr14  1  0.066811  0.433013  0.433013  1
  Zr  Zr15  1  0.431664  0.068560  0.068560  1
  Ir  Ir16  1  0.846976  0.465213  0.843905  1
  Ir  Ir17  1  0.846976  0.843905  0.465213  1
  Ir  Ir18  1  0.846976  0.843905  0.843905  1
  Pd  Pd19  1  0.763564  0.412145  0.412145  1
  Pd  Pd20  1  0.410284  0.763144  0.413287  1
  Pd  Pd21  1  0.410284  0.413287  0.763144  1
  Pd  Pd22  1  0.410284  0.413287  0.413287  1
  Pd  Pd23  1  0.474478  0.841840  0.841840  1
  N  N24  1  0.624319  0.125227  0.125227  1
  N  N25  1  0.126772  0.622975  0.125127  1
  N  N26  1  0.126772  0.125127  0.622975  1
  N  N27  1  0.126772  0.125127  0.125127  1
