# generated using pymatgen
data_ZrZn4Tc
_symmetry_space_group_name_H-M   'P 1'
_cell_length_a   5.03502923
_cell_length_b   5.03502937
_cell_length_c   5.03502900
_cell_angle_alpha   59.99999589
_cell_angle_beta   59.99999494
_cell_angle_gamma   59.99999378
_symmetry_Int_Tables_number   1
_chemical_formula_structural   ZrZn4Tc
_chemical_formula_sum   'Zr1 Zn4 Tc1'
_cell_volume   90.25908626
_cell_formula_units_Z   1
loop_
 _symmetry_equiv_pos_site_id
 _symmetry_equiv_pos_as_xyz
  1  'x, y, z'
loop_
 _atom_site_type_symbol
 _atom_site_label
 _atom_site_symmetry_multiplicity
 _atom_site_fract_x
 _atom_site_fract_y
 _atom_site_fract_z
 _atom_site_occupancy
  Zr  Zr0  1  0.250000  0.250000  0.250000  1
  Zn  Zn1  1  0.625865  0.625865  0.625865  1
  Zn  Zn2  1  0.122406  0.625865  0.625865  1
  Zn  Zn3  1  0.625865  0.122406  0.625865  1
  Zn  Zn4  1  0.625865  0.625865  0.122406  1
  Tc  Tc5  1  0.000000  0.000000  0.000000  1
