# generated using pymatgen
data_Tb4Dy3CoI12
_symmetry_space_group_name_H-M   'P 1'
_cell_length_a   9.77203838
_cell_length_b   9.76895363
_cell_length_c   9.76997013
_cell_angle_alpha   106.85657734
_cell_angle_beta   106.86213209
_cell_angle_gamma   106.86758779
_symmetry_Int_Tables_number   1
_chemical_formula_structural   Tb4Dy3CoI12
_chemical_formula_sum   'Tb4 Dy3 Co1 I12'
_cell_volume   779.63715687
_cell_formula_units_Z   1
loop_
 _symmetry_equiv_pos_site_id
 _symmetry_equiv_pos_as_xyz
  1  'x, y, z'
loop_
 _atom_site_type_symbol
 _atom_site_label
 _atom_site_symmetry_multiplicity
 _atom_site_fract_x
 _atom_site_fract_y
 _atom_site_fract_z
 _atom_site_occupancy
  Tb  Tb0  1  0.288742  0.022409  0.092481  1
  Tb  Tb1  1  0.977839  0.907823  0.711221  1
  Tb  Tb2  1  0.907632  0.711246  0.977952  1
  Tb  Tb3  1  0.711428  0.978021  0.907885  1
  Dy  Dy4  1  0.499983  0.500018  0.500011  1
  Dy  Dy5  1  0.022136  0.092109  0.287920  1
  Dy  Dy6  1  0.091971  0.287956  0.022240  1
  Co  Co7  1  0.000108  0.000325  0.000265  1
  I  I8  1  0.161164  0.463745  0.386740  1
  I  I9  1  0.463787  0.386966  0.161177  1
  I  I10  1  0.386736  0.161255  0.464001  1
  I  I11  1  0.838779  0.535979  0.613065  1
  I  I12  1  0.535974  0.613047  0.838761  1
  I  I13  1  0.613060  0.838764  0.535967  1
  I  I14  1  0.678404  0.071992  0.225480  1
  I  I15  1  0.071953  0.225409  0.678207  1
  I  I16  1  0.225276  0.677928  0.071911  1
  I  I17  1  0.321846  0.928043  0.774657  1
  I  I18  1  0.928156  0.775029  0.321902  1
  I  I19  1  0.775028  0.321937  0.928158  1
