# generated using pymatgen
data_Ce8Ta11Si16Tc
_symmetry_space_group_name_H-M   'P 1'
_cell_length_a   6.93309979
_cell_length_b   7.11409082
_cell_length_c   13.40541400
_cell_angle_alpha   90.00000000
_cell_angle_beta   90.00000000
_cell_angle_gamma   89.87495613
_symmetry_Int_Tables_number   1
_chemical_formula_structural   Ce8Ta11Si16Tc
_chemical_formula_sum   'Ce8 Ta11 Si16 Tc1'
_cell_volume   661.18965943
_cell_formula_units_Z   1
loop_
 _symmetry_equiv_pos_site_id
 _symmetry_equiv_pos_as_xyz
  1  'x, y, z'
loop_
 _atom_site_type_symbol
 _atom_site_label
 _atom_site_symmetry_multiplicity
 _atom_site_fract_x
 _atom_site_fract_y
 _atom_site_fract_z
 _atom_site_occupancy
  Ce  Ce0  1  0.996546  0.167696  0.093493  1
  Ce  Ce1  1  0.497510  0.331478  0.406068  1
  Ce  Ce2  1  0.502339  0.666279  0.905551  1
  Ce  Ce3  1  0.002046  0.832763  0.594721  1
  Ce  Ce4  1  0.002046  0.832763  0.905279  1
  Ce  Ce5  1  0.502339  0.666279  0.594449  1
  Ce  Ce6  1  0.497510  0.331478  0.093932  1
  Ce  Ce7  1  0.996546  0.167696  0.406507  1
  Ta  Ta8  1  0.662067  0.993330  0.250000  1
  Ta  Ta9  1  0.161966  0.506647  0.250000  1
  Ta  Ta10  1  0.836977  0.494366  0.750000  1
  Ta  Ta11  1  0.836675  0.673195  0.125658  1
  Ta  Ta12  1  0.336961  0.827946  0.375450  1
  Ta  Ta13  1  0.665441  0.172797  0.874337  1
  Ta  Ta14  1  0.163558  0.327667  0.625935  1
  Ta  Ta15  1  0.163558  0.327667  0.874065  1
  Ta  Ta16  1  0.665441  0.172797  0.625663  1
  Ta  Ta17  1  0.336961  0.827946  0.124550  1
  Ta  Ta18  1  0.836675  0.673195  0.374342  1
  Si  Si19  1  0.797430  0.376252  0.250000  1
  Si  Si20  1  0.297184  0.124226  0.250000  1
  Si  Si21  1  0.696000  0.879019  0.750000  1
  Si  Si22  1  0.201174  0.623857  0.750000  1
  Si  Si23  1  0.040112  0.875771  0.250000  1
  Si  Si24  1  0.538508  0.624108  0.250000  1
  Si  Si25  1  0.457929  0.368902  0.750000  1
  Si  Si26  1  0.964219  0.124637  0.750000  1
  Si  Si27  1  0.840691  0.460871  0.956623  1
  Si  Si28  1  0.340934  0.041367  0.544904  1
  Si  Si29  1  0.660773  0.958640  0.042001  1
  Si  Si30  1  0.160539  0.541002  0.457458  1
  Si  Si31  1  0.160539  0.541002  0.042542  1
  Si  Si32  1  0.660773  0.958640  0.457999  1
  Si  Si33  1  0.340934  0.041367  0.955096  1
  Si  Si34  1  0.840691  0.460871  0.543377  1
  Tc  Tc35  1  0.338408  0.005477  0.750000  1
