# generated using pymatgen
data_Yb2Dy3Th3(Pt2Pb)4
_symmetry_space_group_name_H-M   'P 1'
_cell_length_a   8.04889692
_cell_length_b   8.04889727
_cell_length_c   7.29535000
_cell_angle_alpha   90.00000000
_cell_angle_beta   90.00000000
_cell_angle_gamma   90.82909084
_symmetry_Int_Tables_number   1
_chemical_formula_structural   Yb2Dy3Th3(Pt2Pb)4
_chemical_formula_sum   'Yb2 Dy3 Th3 Pt8 Pb4'
_cell_volume   472.57790419
_cell_formula_units_Z   1
loop_
 _symmetry_equiv_pos_site_id
 _symmetry_equiv_pos_as_xyz
  1  'x, y, z'
loop_
 _atom_site_type_symbol
 _atom_site_label
 _atom_site_symmetry_multiplicity
 _atom_site_fract_x
 _atom_site_fract_y
 _atom_site_fract_z
 _atom_site_occupancy
  Yb  Yb0  1  0.174381  0.825619  0.500000  1
  Yb  Yb1  1  0.163355  0.836645  0.000000  1
  Dy  Dy2  1  0.337293  0.341243  0.500000  1
  Dy  Dy3  1  0.658757  0.662707  0.500000  1
  Dy  Dy4  1  0.839697  0.160303  0.000000  1
  Th  Th5  1  0.675249  0.675021  0.000000  1
  Th  Th6  1  0.827682  0.172318  0.500000  1
  Th  Th7  1  0.324979  0.324751  0.000000  1
  Pt  Pt8  1  0.868377  0.872702  0.738531  1
  Pt  Pt9  1  0.127298  0.131623  0.738531  1
  Pt  Pt10  1  0.632391  0.367609  0.761511  1
  Pt  Pt11  1  0.632391  0.367609  0.238489  1
  Pt  Pt12  1  0.377534  0.622466  0.236894  1
  Pt  Pt13  1  0.127298  0.131623  0.261469  1
  Pt  Pt14  1  0.868377  0.872702  0.261469  1
  Pt  Pt15  1  0.377534  0.622466  0.763106  1
  Pb  Pb16  1  0.489886  0.996181  0.743937  1
  Pb  Pb17  1  0.489886  0.996181  0.256063  1
  Pb  Pb18  1  0.003819  0.510114  0.743937  1
  Pb  Pb19  1  0.003819  0.510114  0.256063  1
