# generated using pymatgen
data_La17Pr3Ir11Os
_symmetry_space_group_name_H-M   'P 1'
_cell_length_a   11.43297308
_cell_length_b   11.42834208
_cell_length_c   6.62783600
_cell_angle_alpha   90.00000000
_cell_angle_beta   90.00000000
_cell_angle_gamma   89.98620569
_symmetry_Int_Tables_number   1
_chemical_formula_structural   La17Pr3Ir11Os
_chemical_formula_sum   'La17 Pr3 Ir11 Os1'
_cell_volume   865.99254557
_cell_formula_units_Z   1
loop_
 _symmetry_equiv_pos_site_id
 _symmetry_equiv_pos_as_xyz
  1  'x, y, z'
loop_
 _atom_site_type_symbol
 _atom_site_label
 _atom_site_symmetry_multiplicity
 _atom_site_fract_x
 _atom_site_fract_y
 _atom_site_fract_z
 _atom_site_occupancy
  La  La0  1  0.292879  0.089851  0.383819  1
  La  La1  1  0.292709  0.909814  0.889243  1
  La  La2  1  0.707291  0.090186  0.889243  1
  La  La3  1  0.707121  0.910149  0.383819  1
  La  La4  1  0.590102  0.792605  0.888911  1
  La  La5  1  0.589652  0.207459  0.384618  1
  La  La6  1  0.410348  0.792541  0.384618  1
  La  La7  1  0.409898  0.207395  0.888911  1
  La  La8  1  0.209224  0.408430  0.614826  1
  La  La9  1  0.209120  0.590670  0.114617  1
  La  La10  1  0.790880  0.409330  0.114617  1
  La  La11  1  0.790776  0.591570  0.614826  1
  La  La12  1  0.909250  0.708904  0.114228  1
  La  La13  1  0.908322  0.291147  0.615571  1
  La  La14  1  0.091678  0.708853  0.615571  1
  La  La15  1  0.090750  0.291096  0.114228  1
  La  La16  1  0.000000  0.000000  0.497712  1
  Pr  Pr17  1  0.000000  0.000000  0.997577  1
  Pr  Pr18  1  0.500000  0.500000  0.997676  1
  Pr  Pr19  1  0.500000  0.500000  0.497828  1
  Ir  Ir20  1  0.847710  0.155483  0.249993  1
  Ir  Ir21  1  0.847063  0.845441  0.748261  1
  Ir  Ir22  1  0.152937  0.154559  0.748261  1
  Ir  Ir23  1  0.152290  0.844517  0.249993  1
  Ir  Ir24  1  0.654785  0.346545  0.749319  1
  Ir  Ir25  1  0.656003  0.652553  0.248960  1
  Ir  Ir26  1  0.343997  0.347447  0.248960  1
  Ir  Ir27  1  0.345215  0.653455  0.749319  1
  Ir  Ir28  1  0.500000  0.000000  0.620058  1
  Ir  Ir29  1  0.000000  0.500000  0.880636  1
  Ir  Ir30  1  0.000000  0.500000  0.381957  1
  Os  Os31  1  0.500000  0.000000  0.121825  1
