# generated using pymatgen
data_Li2Ni3C
_symmetry_space_group_name_H-M   'P 1'
_cell_length_a   6.18847700
_cell_length_b   6.18847700
_cell_length_c   6.18847700
_cell_angle_alpha   90.00000000
_cell_angle_beta   90.00000000
_cell_angle_gamma   90.00000000
_symmetry_Int_Tables_number   1
_chemical_formula_structural   Li2Ni3C
_chemical_formula_sum   'Li8 Ni12 C4'
_cell_volume   237.00163581
_cell_formula_units_Z   4
loop_
 _symmetry_equiv_pos_site_id
 _symmetry_equiv_pos_as_xyz
  1  'x, y, z'
loop_
 _atom_site_type_symbol
 _atom_site_label
 _atom_site_symmetry_multiplicity
 _atom_site_fract_x
 _atom_site_fract_y
 _atom_site_fract_z
 _atom_site_occupancy
  Li  Li0  1  0.305668  0.305668  0.305668  1
  Li  Li1  1  0.055668  0.444332  0.555668  1
  Li  Li2  1  0.555668  0.055668  0.444332  1
  Li  Li3  1  0.444332  0.555668  0.055668  1
  Li  Li4  1  0.194332  0.694332  0.805668  1
  Li  Li5  1  0.944332  0.944332  0.944332  1
  Li  Li6  1  0.805668  0.194332  0.694332  1
  Li  Li7  1  0.694332  0.805668  0.194332  1
  Ni  Ni8  1  0.195234  0.054766  0.625000  1
  Ni  Ni9  1  0.445234  0.375000  0.695234  1
  Ni  Ni10  1  0.054766  0.625000  0.195234  1
  Ni  Ni11  1  0.945234  0.125000  0.304766  1
  Ni  Ni12  1  0.304766  0.945234  0.125000  1
  Ni  Ni13  1  0.695234  0.445234  0.375000  1
  Ni  Ni14  1  0.554766  0.875000  0.804766  1
  Ni  Ni15  1  0.625000  0.195234  0.054766  1
  Ni  Ni16  1  0.375000  0.695234  0.445234  1
  Ni  Ni17  1  0.875000  0.804766  0.554766  1
  Ni  Ni18  1  0.125000  0.304766  0.945234  1
  Ni  Ni19  1  0.804766  0.554766  0.875000  1
  C  C20  1  0.875000  0.375000  0.125000  1
  C  C21  1  0.375000  0.125000  0.875000  1
  C  C22  1  0.625000  0.625000  0.625000  1
  C  C23  1  0.125000  0.875000  0.375000  1
