# generated using pymatgen
data_Ac12Zn(IrI4)3
_symmetry_space_group_name_H-M   'P 1'
_cell_length_a   11.53399811
_cell_length_b   11.53133104
_cell_length_c   11.23983803
_cell_angle_alpha   108.95115426
_cell_angle_beta   108.95987777
_cell_angle_gamma   109.97726195
_symmetry_Int_Tables_number   1
_chemical_formula_structural   Ac12Zn(IrI4)3
_chemical_formula_sum   'Ac12 Zn1 Ir3 I12'
_cell_volume   1158.10252191
_cell_formula_units_Z   1
loop_
 _symmetry_equiv_pos_site_id
 _symmetry_equiv_pos_as_xyz
  1  'x, y, z'
loop_
 _atom_site_type_symbol
 _atom_site_label
 _atom_site_symmetry_multiplicity
 _atom_site_fract_x
 _atom_site_fract_y
 _atom_site_fract_z
 _atom_site_occupancy
  Ac  Ac0  1  0.261383  0.733627  0.224644  1
  Ac  Ac1  1  0.472234  0.733628  0.008971  1
  Ac  Ac2  1  0.228763  0.457493  0.478739  1
  Ac  Ac3  1  0.021614  0.043218  0.271598  1
  Ac  Ac4  1  0.228763  0.271270  0.750024  1
  Ac  Ac5  1  0.021613  0.478395  0.750015  1
  Ac  Ac6  1  0.472234  0.238606  0.463263  1
  Ac  Ac7  1  0.261382  0.027755  0.036739  1
  Ac  Ac8  1  0.766358  0.238613  0.275330  1
  Ac  Ac9  1  0.766357  0.027744  0.491027  1
  Ac  Ac10  1  0.456756  0.478378  0.228378  1
  Ac  Ac11  1  0.042533  0.271266  0.021267  1
  Zn  Zn12  1  0.499982  0.999991  0.249991  1
  Ir  Ir13  1  0.248942  0.497880  0.998954  1
  Ir  Ir14  1  0.002117  0.251058  0.501058  1
  Ir  Ir15  1  0.248942  0.251063  0.249989  1
  I  I16  1  0.250810  0.989039  0.508301  1
  I  I17  1  0.527163  0.513582  0.763582  1
  I  I18  1  0.250810  0.761772  0.742509  1
  I  I19  1  0.983354  0.741677  0.991677  1
  I  I20  1  0.986417  0.513578  0.249988  1
  I  I21  1  0.738217  0.989012  0.980727  1
  I  I22  1  0.758330  0.741692  0.249980  1
  I  I23  1  0.510981  0.761797  0.519298  1
  I  I24  1  0.510981  0.249184  0.991683  1
  I  I25  1  0.758330  0.516638  0.508349  1
  I  I26  1  0.738217  0.249205  0.757489  1
  I  I27  1  0.986417  0.972838  0.736429  1
