# generated using pymatgen
data_Tb4DyEr7TlCo5
_symmetry_space_group_name_H-M   'P 1'
_cell_length_a   8.25672628
_cell_length_b   8.25672547
_cell_length_c   8.25554445
_cell_angle_alpha   107.04291543
_cell_angle_beta   110.78988280
_cell_angle_gamma   110.61354892
_symmetry_Int_Tables_number   1
_chemical_formula_structural   Tb4DyEr7TlCo5
_chemical_formula_sum   'Tb4 Dy1 Er7 Tl1 Co5'
_cell_volume   432.63830244
_cell_formula_units_Z   1
loop_
 _symmetry_equiv_pos_site_id
 _symmetry_equiv_pos_as_xyz
  1  'x, y, z'
loop_
 _atom_site_type_symbol
 _atom_site_label
 _atom_site_symmetry_multiplicity
 _atom_site_fract_x
 _atom_site_fract_y
 _atom_site_fract_z
 _atom_site_occupancy
  Tb  Tb0  1  0.477774  0.291381  0.186722  1
  Tb  Tb1  1  0.105092  0.291862  0.812714  1
  Tb  Tb2  1  0.895341  0.708948  0.186722  1
  Tb  Tb3  1  0.520852  0.707622  0.812714  1
  Dy  Dy4  1  0.808728  0.208544  0.017274  1
  Er  Er5  1  0.307430  0.621636  0.314991  1
  Er  Er6  1  0.306163  0.991994  0.684973  1
  Er  Er7  1  0.692979  0.378809  0.684973  1
  Er  Er8  1  0.693355  0.007562  0.314991  1
  Er  Er9  1  0.191866  0.208339  0.400206  1
  Er  Er10  1  0.808711  0.791522  0.600234  1
  Er  Er11  1  0.191462  0.791530  0.982992  1
  Tl  Tl12  1  0.000127  0.500663  0.500790  1
  Co  Co13  1  0.500017  0.613207  0.113225  1
  Co  Co14  1  0.499529  0.387164  0.886693  1
  Co  Co15  1  0.378648  0.000073  0.378720  1
  Co  Co16  1  0.621121  0.999719  0.620842  1
  Co  Co17  1  0.000804  0.999420  0.000225  1
