# generated using pymatgen
data_Hf8Ti12Si7Ge9
_symmetry_space_group_name_H-M   'P 1'
_cell_length_a   6.71669752
_cell_length_b   6.81359153
_cell_length_c   13.05915700
_cell_angle_alpha   90.00000000
_cell_angle_beta   90.00000000
_cell_angle_gamma   90.04501334
_symmetry_Int_Tables_number   1
_chemical_formula_structural   Hf8Ti12Si7Ge9
_chemical_formula_sum   'Hf8 Ti12 Si7 Ge9'
_cell_volume   597.64995858
_cell_formula_units_Z   1
loop_
 _symmetry_equiv_pos_site_id
 _symmetry_equiv_pos_as_xyz
  1  'x, y, z'
loop_
 _atom_site_type_symbol
 _atom_site_label
 _atom_site_symmetry_multiplicity
 _atom_site_fract_x
 _atom_site_fract_y
 _atom_site_fract_z
 _atom_site_occupancy
  Hf  Hf0  1  0.490948  0.676457  0.598799  1
  Hf  Hf1  1  0.991142  0.823563  0.901161  1
  Hf  Hf2  1  0.506331  0.323932  0.097544  1
  Hf  Hf3  1  0.011966  0.173683  0.403574  1
  Hf  Hf4  1  0.506331  0.323932  0.402456  1
  Hf  Hf5  1  0.011966  0.173683  0.096426  1
  Hf  Hf6  1  0.490948  0.676457  0.901201  1
  Hf  Hf7  1  0.991142  0.823563  0.598839  1
  Ti  Ti8  1  0.654948  0.168592  0.628316  1
  Ti  Ti9  1  0.154821  0.331731  0.871671  1
  Ti  Ti10  1  0.344530  0.832080  0.127861  1
  Ti  Ti11  1  0.844653  0.670686  0.372391  1
  Ti  Ti12  1  0.344530  0.832080  0.372139  1
  Ti  Ti13  1  0.844653  0.670686  0.127609  1
  Ti  Ti14  1  0.654948  0.168592  0.871684  1
  Ti  Ti15  1  0.154821  0.331731  0.628329  1
  Ti  Ti16  1  0.829363  0.496269  0.750000  1
  Ti  Ti17  1  0.329460  0.003590  0.750000  1
  Ti  Ti18  1  0.173295  0.505016  0.250000  1
  Ti  Ti19  1  0.669690  0.992751  0.250000  1
  Si  Si20  1  0.454478  0.382788  0.750000  1
  Si  Si21  1  0.954508  0.117336  0.750000  1
  Si  Si22  1  0.543791  0.620234  0.250000  1
  Si  Si23  1  0.045662  0.882631  0.250000  1
  Si  Si24  1  0.695913  0.863380  0.750000  1
  Si  Si25  1  0.196005  0.636568  0.750000  1
  Si  Si26  1  0.304625  0.136885  0.250000  1
  Ge  Ge27  1  0.683135  0.960604  0.460518  1
  Ge  Ge28  1  0.182799  0.540632  0.039630  1
  Ge  Ge29  1  0.316743  0.040041  0.959690  1
  Ge  Ge30  1  0.816206  0.459847  0.539594  1
  Ge  Ge31  1  0.316743  0.040041  0.540310  1
  Ge  Ge32  1  0.816206  0.459847  0.960406  1
  Ge  Ge33  1  0.683135  0.960604  0.039482  1
  Ge  Ge34  1  0.182799  0.540632  0.460370  1
  Ge  Ge35  1  0.806765  0.358856  0.250000  1
