# generated using pymatgen
data_Tb2HoSn3Ir2Ru
_symmetry_space_group_name_H-M   'P 1'
_cell_length_a   7.58728809
_cell_length_b   7.58933260
_cell_length_c   3.84942300
_cell_angle_alpha   90.00000000
_cell_angle_beta   90.00000000
_cell_angle_gamma   120.00891577
_symmetry_Int_Tables_number   1
_chemical_formula_structural   Tb2HoSn3Ir2Ru
_chemical_formula_sum   'Tb2 Ho1 Sn3 Ir2 Ru1'
_cell_volume   191.94526562
_cell_formula_units_Z   1
loop_
 _symmetry_equiv_pos_site_id
 _symmetry_equiv_pos_as_xyz
  1  'x, y, z'
loop_
 _atom_site_type_symbol
 _atom_site_label
 _atom_site_symmetry_multiplicity
 _atom_site_fract_x
 _atom_site_fract_y
 _atom_site_fract_z
 _atom_site_occupancy
  Tb  Tb0  1  0.407180  0.407193  0.500000  1
  Tb  Tb1  1  0.592820  0.000013  0.500000  1
  Ho  Ho2  1  0.000000  0.592950  0.500000  1
  Sn  Sn3  1  0.740085  0.739739  0.000000  1
  Sn  Sn4  1  0.259915  0.999654  0.000000  1
  Sn  Sn5  1  0.000000  0.260583  0.000000  1
  Ir  Ir6  1  0.667240  0.333722  0.000000  1
  Ir  Ir7  1  0.332760  0.666483  0.000000  1
  Ru  Ru8  1  0.000000  0.999664  0.500000  1
