# generated using pymatgen
data_LiTb3Y13Cd3Pt4
_symmetry_space_group_name_H-M   'P 1'
_cell_length_a   9.73967704
_cell_length_b   9.73915766
_cell_length_c   9.73915817
_cell_angle_alpha   59.92094360
_cell_angle_beta   59.90860431
_cell_angle_gamma   59.90859777
_symmetry_Int_Tables_number   1
_chemical_formula_structural   LiTb3Y13Cd3Pt4
_chemical_formula_sum   'Li1 Tb3 Y13 Cd3 Pt4'
_cell_volume   651.94593861
_cell_formula_units_Z   1
loop_
 _symmetry_equiv_pos_site_id
 _symmetry_equiv_pos_as_xyz
  1  'x, y, z'
loop_
 _atom_site_type_symbol
 _atom_site_label
 _atom_site_symmetry_multiplicity
 _atom_site_fract_x
 _atom_site_fract_y
 _atom_site_fract_z
 _atom_site_occupancy
  Li  Li0  1  0.571669  0.571269  0.571269  1
  Tb  Tb1  1  0.351092  0.351377  0.351377  1
  Tb  Tb2  1  0.352338  0.352335  0.944181  1
  Tb  Tb3  1  0.352338  0.944181  0.352335  1
  Y  Y4  1  0.942905  0.352887  0.352887  1
  Y  Y5  1  0.809821  0.192058  0.192058  1
  Y  Y6  1  0.188280  0.812387  0.812387  1
  Y  Y7  1  0.192156  0.809951  0.191890  1
  Y  Y8  1  0.812385  0.188187  0.812374  1
  Y  Y9  1  0.192156  0.191890  0.809951  1
  Y  Y10  1  0.812385  0.812374  0.188187  1
  Y  Y11  1  0.937279  0.564838  0.564838  1
  Y  Y12  1  0.563179  0.936561  0.936561  1
  Y  Y13  1  0.564480  0.937071  0.564615  1
  Y  Y14  1  0.936595  0.563409  0.936242  1
  Y  Y15  1  0.564480  0.564615  0.937071  1
  Y  Y16  1  0.936595  0.936242  0.563409  1
  Cd  Cd17  1  0.582551  0.582145  0.253423  1
  Cd  Cd18  1  0.582551  0.253423  0.582145  1
  Cd  Cd19  1  0.253352  0.582240  0.582240  1
  Pt  Pt20  1  0.144539  0.143940  0.143940  1
  Pt  Pt21  1  0.143270  0.142953  0.570538  1
  Pt  Pt22  1  0.143270  0.570538  0.142953  1
  Pt  Pt23  1  0.570333  0.143129  0.143129  1
