# generated using pymatgen
data_Lu12Ni4BiOs
_symmetry_space_group_name_H-M   'P 1'
_cell_length_a   8.17069561
_cell_length_b   8.17069649
_cell_length_c   8.17069632
_cell_angle_alpha   111.40747937
_cell_angle_beta   110.80260001
_cell_angle_gamma   106.25138703
_symmetry_Int_Tables_number   1
_chemical_formula_structural   Lu12Ni4BiOs
_chemical_formula_sum   'Lu12 Ni4 Bi1 Os1'
_cell_volume   418.90927529
_cell_formula_units_Z   1
loop_
 _symmetry_equiv_pos_site_id
 _symmetry_equiv_pos_as_xyz
  1  'x, y, z'
loop_
 _atom_site_type_symbol
 _atom_site_label
 _atom_site_symmetry_multiplicity
 _atom_site_fract_x
 _atom_site_fract_y
 _atom_site_fract_z
 _atom_site_occupancy
  Lu  Lu0  1  0.682264  0.873712  0.191448  1
  Lu  Lu1  1  0.317736  0.509184  0.191448  1
  Lu  Lu2  1  0.822286  0.776028  0.598314  1
  Lu  Lu3  1  0.177714  0.776028  0.953742  1
  Lu  Lu4  1  0.822286  0.223972  0.046258  1
  Lu  Lu5  1  0.177714  0.223972  0.401686  1
  Lu  Lu6  1  0.682264  0.490816  0.808552  1
  Lu  Lu7  1  0.317736  0.126288  0.808552  1
  Lu  Lu8  1  0.584398  0.279096  0.305301  1
  Lu  Lu9  1  0.415602  0.720904  0.694699  1
  Lu  Lu10  1  0.026205  0.720904  0.305301  1
  Lu  Lu11  1  0.973795  0.279096  0.694699  1
  Ni  Ni12  1  0.357613  0.500000  0.857613  1
  Ni  Ni13  1  0.642387  0.500000  0.142387  1
  Ni  Ni14  1  0.881463  0.881463  0.000000  1
  Ni  Ni15  1  0.118537  0.118537  0.000000  1
  Bi  Bi16  1  0.500000  0.000000  0.500000  1
  Os  Os17  1  0.000000  0.500000  0.500000  1
