# generated using pymatgen
data_Sm8Hf11Si16Tc
_symmetry_space_group_name_H-M   'P 1'
_cell_length_a   7.31843729
_cell_length_b   7.31843805
_cell_length_c   13.40717215
_cell_angle_alpha   89.90827031
_cell_angle_beta   90.09172922
_cell_angle_gamma   90.03030230
_symmetry_Int_Tables_number   1
_chemical_formula_structural   Sm8Hf11Si16Tc
_chemical_formula_sum   'Sm8 Hf11 Si16 Tc1'
_cell_volume   718.07989745
_cell_formula_units_Z   1
loop_
 _symmetry_equiv_pos_site_id
 _symmetry_equiv_pos_as_xyz
  1  'x, y, z'
loop_
 _atom_site_type_symbol
 _atom_site_label
 _atom_site_symmetry_multiplicity
 _atom_site_fract_x
 _atom_site_fract_y
 _atom_site_fract_z
 _atom_site_occupancy
  Sm  Sm0  1  0.998569  0.342235  0.212092  1
  Sm  Sm1  1  0.005104  0.656197  0.717152  1
  Sm  Sm2  1  0.157095  0.494327  0.465524  1
  Sm  Sm3  1  0.501679  0.845377  0.033429  1
  Sm  Sm4  1  0.845377  0.501679  0.966571  1
  Sm  Sm5  1  0.494327  0.157095  0.534476  1
  Sm  Sm6  1  0.342235  0.998569  0.787908  1
  Sm  Sm7  1  0.656197  0.005104  0.282848  1
  Hf  Hf8  1  0.825164  0.825164  0.500000  1
  Hf  Hf9  1  0.323856  0.674909  0.248623  1
  Hf  Hf10  1  0.674909  0.323856  0.751377  1
  Hf  Hf11  1  0.149137  0.995955  0.372982  1
  Hf  Hf12  1  0.853091  0.005762  0.877786  1
  Hf  Hf13  1  0.504786  0.648750  0.624974  1
  Hf  Hf14  1  0.349294  0.492415  0.877752  1
  Hf  Hf15  1  0.492415  0.349294  0.122248  1
  Hf  Hf16  1  0.648750  0.504786  0.375026  1
  Hf  Hf17  1  0.995955  0.149137  0.627018  1
  Hf  Hf18  1  0.005762  0.853091  0.122214  1
  Si  Si19  1  0.363518  0.295792  0.314608  1
  Si  Si20  1  0.635464  0.704728  0.817202  1
  Si  Si21  1  0.204743  0.863772  0.566270  1
  Si  Si22  1  0.134958  0.795359  0.933407  1
  Si  Si23  1  0.795359  0.134958  0.066593  1
  Si  Si24  1  0.863772  0.204743  0.433730  1
  Si  Si25  1  0.295792  0.363518  0.685392  1
  Si  Si26  1  0.704728  0.635464  0.182798  1
  Si  Si27  1  0.291598  0.053131  0.181845  1
  Si  Si28  1  0.706383  0.950920  0.686100  1
  Si  Si29  1  0.449723  0.793702  0.435020  1
  Si  Si30  1  0.207477  0.549076  0.064363  1
  Si  Si31  1  0.549076  0.207477  0.935637  1
  Si  Si32  1  0.793702  0.449723  0.564980  1
  Si  Si33  1  0.053131  0.291598  0.818155  1
  Si  Si34  1  0.950920  0.706383  0.313900  1
  Tc  Tc35  1  0.175958  0.175958  0.000000  1
