# generated using pymatgen
data_Sm2DyY(B6Os)2
_symmetry_space_group_name_H-M   'P 1'
_cell_length_a   3.68874700
_cell_length_b   9.21270600
_cell_length_c   11.61403600
_cell_angle_alpha   90.00307041
_cell_angle_beta   90.00000000
_cell_angle_gamma   90.00000000
_symmetry_Int_Tables_number   1
_chemical_formula_structural   Sm2DyY(B6Os)2
_chemical_formula_sum   'Sm4 Dy2 Y2 B24 Os4'
_cell_volume   394.68375268
_cell_formula_units_Z   2
loop_
 _symmetry_equiv_pos_site_id
 _symmetry_equiv_pos_as_xyz
  1  'x, y, z'
loop_
 _atom_site_type_symbol
 _atom_site_label
 _atom_site_symmetry_multiplicity
 _atom_site_fract_x
 _atom_site_fract_y
 _atom_site_fract_z
 _atom_site_occupancy
  Sm  Sm0  1  0.000000  0.322667  0.413898  1
  Sm  Sm1  1  0.000000  0.677333  0.586102  1
  Sm  Sm2  1  0.000000  0.822610  0.086057  1
  Sm  Sm3  1  0.000000  0.177390  0.913943  1
  Dy  Dy4  1  0.000000  0.444149  0.127376  1
  Dy  Dy5  1  0.000000  0.555851  0.872624  1
  Y  Y6  1  0.000000  0.944221  0.372787  1
  Y  Y7  1  0.000000  0.055779  0.627213  1
  B  B8  1  0.500000  0.555069  0.431618  1
  B  B9  1  0.500000  0.444931  0.568382  1
  B  B10  1  0.500000  0.055062  0.068384  1
  B  B11  1  0.500000  0.944938  0.931616  1
  B  B12  1  0.500000  0.748432  0.418653  1
  B  B13  1  0.500000  0.251568  0.581347  1
  B  B14  1  0.500000  0.248522  0.081384  1
  B  B15  1  0.500000  0.751478  0.918616  1
  B  B16  1  0.500000  0.790443  0.267028  1
  B  B17  1  0.500000  0.209557  0.732972  1
  B  B18  1  0.500000  0.290483  0.232888  1
  B  B19  1  0.500000  0.709517  0.767112  1
  B  B20  1  0.500000  0.631541  0.185598  1
  B  B21  1  0.500000  0.368459  0.814402  1
  B  B22  1  0.500000  0.131643  0.314376  1
  B  B23  1  0.500000  0.868357  0.685624  1
  B  B24  1  0.500000  0.985041  0.213505  1
  B  B25  1  0.500000  0.014959  0.786495  1
  B  B26  1  0.500000  0.485063  0.286403  1
  B  B27  1  0.500000  0.514937  0.713597  1
  B  B28  1  0.500000  0.606251  0.029281  1
  B  B29  1  0.500000  0.393749  0.970719  1
  B  B30  1  0.500000  0.106344  0.470696  1
  B  B31  1  0.500000  0.893655  0.529304  1
  Os  Os32  1  0.000000  0.638307  0.320544  1
  Os  Os33  1  0.000000  0.361693  0.679456  1
  Os  Os34  1  0.000000  0.138508  0.179359  1
  Os  Os35  1  0.000000  0.861492  0.820641  1
