# generated using pymatgen
data_Mg2ZnCo(BrO3)8
_symmetry_space_group_name_H-M   'P 1'
_cell_length_a   5.70803511
_cell_length_b   10.53692453
_cell_length_c   10.58067582
_cell_angle_alpha   119.12926589
_cell_angle_beta   90.12203280
_cell_angle_gamma   89.86481207
_symmetry_Int_Tables_number   1
_chemical_formula_structural   Mg2ZnCo(BrO3)8
_chemical_formula_sum   'Mg2 Zn1 Co1 Br8 O24'
_cell_volume   555.88777183
_cell_formula_units_Z   1
loop_
 _symmetry_equiv_pos_site_id
 _symmetry_equiv_pos_as_xyz
  1  'x, y, z'
loop_
 _atom_site_type_symbol
 _atom_site_label
 _atom_site_symmetry_multiplicity
 _atom_site_fract_x
 _atom_site_fract_y
 _atom_site_fract_z
 _atom_site_occupancy
  Mg  Mg0  1  0.138131  0.262502  0.006184  1
  Mg  Mg1  1  0.637676  0.737732  0.993653  1
  Zn  Zn2  1  0.145678  0.763164  0.506313  1
  Co  Co3  1  0.642446  0.237638  0.493306  1
  Br  Br4  1  0.263574  0.415936  0.349937  1
  Br  Br5  1  0.760122  0.583046  0.650079  1
  Br  Br6  1  0.258676  0.914826  0.849046  1
  Br  Br7  1  0.758426  0.085754  0.150500  1
  Br  Br8  1  0.784147  0.085985  0.687893  1
  Br  Br9  1  0.288113  0.915311  0.311977  1
  Br  Br10  1  0.288375  0.411711  0.808196  1
  Br  Br11  1  0.788262  0.587557  0.190629  1
  O  O12  1  0.427430  0.882790  0.960909  1
  O  O13  1  0.930272  0.117762  0.040133  1
  O  O14  1  0.368992  0.802677  0.681845  1
  O  O15  1  0.863327  0.199841  0.318628  1
  O  O16  1  0.367845  0.302000  0.182464  1
  O  O17  1  0.862741  0.697372  0.817958  1
  O  O18  1  0.930007  0.225414  0.823478  1
  O  O19  1  0.430773  0.775526  0.175019  1
  O  O20  1  0.925693  0.932912  0.660049  1
  O  O21  1  0.429746  0.068150  0.339590  1
  O  O22  1  0.352243  0.080526  0.882532  1
  O  O23  1  0.852392  0.920222  0.118248  1
  O  O24  1  0.436080  0.270901  0.673229  1
  O  O25  1  0.934732  0.728098  0.325890  1
  O  O26  1  0.348189  0.393339  0.955019  1
  O  O27  1  0.848443  0.606076  0.044253  1
  O  O28  1  0.430473  0.564519  0.839951  1
  O  O29  1  0.932607  0.435343  0.159673  1
  O  O30  1  0.360478  0.581050  0.379953  1
  O  O31  1  0.852611  0.417955  0.623271  1
  O  O32  1  0.431237  0.386333  0.465208  1
  O  O33  1  0.933606  0.611628  0.537306  1
  O  O34  1  0.848659  0.100900  0.538887  1
  O  O35  1  0.357400  0.897508  0.458790  1
