# generated using pymatgen
data_HoSc15(Ga3Fe)2
_symmetry_space_group_name_H-M   'P 1'
_cell_length_a   9.38411000
_cell_length_b   9.38411030
_cell_length_c   6.48716700
_cell_angle_alpha   90.00000000
_cell_angle_beta   90.00000000
_cell_angle_gamma   119.99999894
_symmetry_Int_Tables_number   1
_chemical_formula_structural   HoSc15(Ga3Fe)2
_chemical_formula_sum   'Ho1 Sc15 Ga6 Fe2'
_cell_volume   494.73417149
_cell_formula_units_Z   1
loop_
 _symmetry_equiv_pos_site_id
 _symmetry_equiv_pos_as_xyz
  1  'x, y, z'
loop_
 _atom_site_type_symbol
 _atom_site_label
 _atom_site_symmetry_multiplicity
 _atom_site_fract_x
 _atom_site_fract_y
 _atom_site_fract_z
 _atom_site_occupancy
  Ho  Ho0  1  0.000000  0.000000  0.728822  1
  Sc  Sc1  1  0.176192  0.823808  0.505043  1
  Sc  Sc2  1  0.647617  0.823808  0.505043  1
  Sc  Sc3  1  0.176192  0.352383  0.505043  1
  Sc  Sc4  1  0.824205  0.175795  0.009467  1
  Sc  Sc5  1  0.351590  0.175795  0.009467  1
  Sc  Sc6  1  0.824205  0.648410  0.009467  1
  Sc  Sc7  1  0.333333  0.666667  0.829599  1
  Sc  Sc8  1  0.666667  0.333333  0.327831  1
  Sc  Sc9  1  0.465710  0.534290  0.209582  1
  Sc  Sc10  1  0.068579  0.534290  0.209582  1
  Sc  Sc11  1  0.465710  0.931421  0.209582  1
  Sc  Sc12  1  0.534316  0.465684  0.709466  1
  Sc  Sc13  1  0.931368  0.465684  0.709466  1
  Sc  Sc14  1  0.534316  0.068632  0.709466  1
  Sc  Sc15  1  0.000000  0.000000  0.230243  1
  Ga  Ga16  1  0.165186  0.834814  0.964710  1
  Ga  Ga17  1  0.669627  0.834814  0.964710  1
  Ga  Ga18  1  0.165186  0.330373  0.964710  1
  Ga  Ga19  1  0.835401  0.164599  0.459414  1
  Ga  Ga20  1  0.329200  0.164599  0.459414  1
  Ga  Ga21  1  0.835401  0.670800  0.459414  1
  Fe  Fe22  1  0.333333  0.666667  0.442902  1
  Fe  Fe23  1  0.666667  0.333333  0.941595  1
