# generated using pymatgen
data_GdLuMnB6
_symmetry_space_group_name_H-M   'P 1'
_cell_length_a   3.53542300
_cell_length_b   9.06605800
_cell_length_c   11.46355200
_cell_angle_alpha   90.00000000
_cell_angle_beta   90.00000000
_cell_angle_gamma   90.00000000
_symmetry_Int_Tables_number   1
_chemical_formula_structural   GdLuMnB6
_chemical_formula_sum   'Gd4 Lu4 Mn4 B24'
_cell_volume   367.43378063
_cell_formula_units_Z   4
loop_
 _symmetry_equiv_pos_site_id
 _symmetry_equiv_pos_as_xyz
  1  'x, y, z'
loop_
 _atom_site_type_symbol
 _atom_site_label
 _atom_site_symmetry_multiplicity
 _atom_site_fract_x
 _atom_site_fract_y
 _atom_site_fract_z
 _atom_site_occupancy
  Gd  Gd0  1  0.000000  0.823698  0.085143  1
  Gd  Gd1  1  0.000000  0.176302  0.914857  1
  Gd  Gd2  1  0.000000  0.323698  0.414857  1
  Gd  Gd3  1  0.000000  0.676302  0.585143  1
  Lu  Lu4  1  0.000000  0.442767  0.131233  1
  Lu  Lu5  1  0.000000  0.557233  0.868767  1
  Lu  Lu6  1  0.000000  0.942767  0.368767  1
  Lu  Lu7  1  0.000000  0.057233  0.631233  1
  Mn  Mn8  1  0.000000  0.140278  0.181385  1
  Mn  Mn9  1  0.000000  0.859722  0.818615  1
  Mn  Mn10  1  0.000000  0.640278  0.318615  1
  Mn  Mn11  1  0.000000  0.359722  0.681385  1
  B  B12  1  0.500000  0.055098  0.069090  1
  B  B13  1  0.500000  0.944902  0.930910  1
  B  B14  1  0.500000  0.555098  0.430910  1
  B  B15  1  0.500000  0.444902  0.569090  1
  B  B16  1  0.500000  0.248800  0.083067  1
  B  B17  1  0.500000  0.751200  0.916933  1
  B  B18  1  0.500000  0.748800  0.416933  1
  B  B19  1  0.500000  0.251200  0.583067  1
  B  B20  1  0.500000  0.290990  0.234289  1
  B  B21  1  0.500000  0.709010  0.765711  1
  B  B22  1  0.500000  0.790990  0.265711  1
  B  B23  1  0.500000  0.209010  0.734289  1
  B  B24  1  0.500000  0.130744  0.314168  1
  B  B25  1  0.500000  0.869256  0.685832  1
  B  B26  1  0.500000  0.630744  0.185832  1
  B  B27  1  0.500000  0.369256  0.814168  1
  B  B28  1  0.500000  0.484894  0.287581  1
  B  B29  1  0.500000  0.515106  0.712419  1
  B  B30  1  0.500000  0.984894  0.212419  1
  B  B31  1  0.500000  0.015106  0.787581  1
  B  B32  1  0.500000  0.099631  0.472630  1
  B  B33  1  0.500000  0.900369  0.527370  1
  B  B34  1  0.500000  0.599631  0.027370  1
  B  B35  1  0.500000  0.400369  0.972630  1
