# generated using pymatgen
data_Pr2Nd3P12Ru19
_symmetry_space_group_name_H-M   'P 1'
_cell_length_a   12.66216500
_cell_length_b   12.66292391
_cell_length_c   4.02427700
_cell_angle_alpha   90.00000000
_cell_angle_beta   90.00000000
_cell_angle_gamma   119.99802532
_symmetry_Int_Tables_number   1
_chemical_formula_structural   Pr2Nd3P12Ru19
_chemical_formula_sum   'Pr2 Nd3 P12 Ru19'
_cell_volume   558.81635139
_cell_formula_units_Z   1
loop_
 _symmetry_equiv_pos_site_id
 _symmetry_equiv_pos_as_xyz
  1  'x, y, z'
loop_
 _atom_site_type_symbol
 _atom_site_label
 _atom_site_symmetry_multiplicity
 _atom_site_fract_x
 _atom_site_fract_y
 _atom_site_fract_z
 _atom_site_occupancy
  Pr  Pr0  1  0.000087  0.183749  0.500000  1
  Pr  Pr1  1  0.816338  0.816251  0.500000  1
  Nd  Nd2  1  0.183789  0.000000  0.500000  1
  Nd  Nd3  1  0.666538  0.333286  0.000000  1
  Nd  Nd4  1  0.333250  0.666714  0.000000  1
  P  P5  1  0.000583  0.812477  0.000000  1
  P  P6  1  0.188106  0.187523  0.000000  1
  P  P7  1  0.812073  0.000000  0.000000  1
  P  P8  1  0.694436  0.171293  0.500000  1
  P  P9  1  0.828902  0.523552  0.500000  1
  P  P10  1  0.476607  0.305351  0.500000  1
  P  P11  1  0.171256  0.694649  0.500000  1
  P  P12  1  0.523143  0.828707  0.500000  1
  P  P13  1  0.305350  0.476448  0.500000  1
  P  P14  1  0.000019  0.375024  0.000000  1
  P  P15  1  0.624995  0.624976  0.000000  1
  P  P16  1  0.374665  0.000000  0.000000  1
  Ru  Ru17  1  0.000149  0.554931  0.000000  1
  Ru  Ru18  1  0.445218  0.445069  0.000000  1
  Ru  Ru19  1  0.554430  0.000000  0.000000  1
  Ru  Ru20  1  0.000277  0.714519  0.500000  1
  Ru  Ru21  1  0.285758  0.285481  0.500000  1
  Ru  Ru22  1  0.714050  0.000000  0.500000  1
  Ru  Ru23  1  0.805404  0.184496  0.000000  1
  Ru  Ru24  1  0.815735  0.621111  0.000000  1
  Ru  Ru25  1  0.378695  0.194011  0.000000  1
  Ru  Ru26  1  0.184684  0.805989  0.000000  1
  Ru  Ru27  1  0.620907  0.815504  0.000000  1
  Ru  Ru28  1  0.194624  0.378889  0.000000  1
  Ru  Ru29  1  0.875468  0.367038  0.500000  1
  Ru  Ru30  1  0.633040  0.508549  0.500000  1
  Ru  Ru31  1  0.491238  0.124466  0.500000  1
  Ru  Ru32  1  0.366771  0.875534  0.500000  1
  Ru  Ru33  1  0.508429  0.632962  0.500000  1
  Ru  Ru34  1  0.124491  0.491451  0.500000  1
  Ru  Ru35  1  0.000498  0.000000  0.000000  1
