# generated using pymatgen
data_Yb4B16OsRu13
_symmetry_space_group_name_H-M   'P 1'
_cell_length_a   6.42775500
_cell_length_b   6.42775500
_cell_length_c   10.04286000
_cell_angle_alpha   90.00000000
_cell_angle_beta   90.00000000
_cell_angle_gamma   90.00000000
_symmetry_Int_Tables_number   1
_chemical_formula_structural   Yb4B16OsRu13
_chemical_formula_sum   'Yb4 B16 Os1 Ru13'
_cell_volume   414.93114863
_cell_formula_units_Z   1
loop_
 _symmetry_equiv_pos_site_id
 _symmetry_equiv_pos_as_xyz
  1  'x, y, z'
loop_
 _atom_site_type_symbol
 _atom_site_label
 _atom_site_symmetry_multiplicity
 _atom_site_fract_x
 _atom_site_fract_y
 _atom_site_fract_z
 _atom_site_occupancy
  Yb  Yb0  1  0.733258  0.883117  0.998515  1
  Yb  Yb1  1  0.116883  0.733258  0.501485  1
  Yb  Yb2  1  0.883117  0.266742  0.501485  1
  Yb  Yb3  1  0.266742  0.116883  0.998515  1
  B  B4  1  0.500000  0.000000  0.588674  1
  B  B5  1  0.500000  0.000000  0.411633  1
  B  B6  1  0.899129  0.271172  0.163842  1
  B  B7  1  0.101233  0.727522  0.833872  1
  B  B8  1  0.500000  0.500000  0.340737  1
  B  B9  1  0.500000  0.500000  0.840669  1
  B  B10  1  0.272478  0.101233  0.666128  1
  B  B11  1  0.100871  0.728828  0.163842  1
  B  B12  1  0.271172  0.100871  0.336158  1
  B  B13  1  0.898767  0.272478  0.833872  1
  B  B14  1  0.500000  0.500000  0.659331  1
  B  B15  1  0.500000  0.500000  0.159263  1
  B  B16  1  0.000000  0.500000  0.911326  1
  B  B17  1  0.727522  0.898767  0.666128  1
  B  B18  1  0.728828  0.899129  0.336158  1
  B  B19  1  0.000000  0.500000  0.088367  1
  Os  Os20  1  0.000000  0.000000  0.250000  1
  Ru  Ru21  1  0.204199  0.392958  0.755079  1
  Ru  Ru22  1  0.405414  0.288765  0.499997  1
  Ru  Ru23  1  0.392984  0.795386  0.255474  1
  Ru  Ru24  1  0.204614  0.392984  0.244526  1
  Ru  Ru25  1  0.594586  0.711235  0.499997  1
  Ru  Ru26  1  0.607042  0.204199  0.744921  1
  Ru  Ru27  1  0.288765  0.594586  0.000003  1
  Ru  Ru28  1  0.711235  0.405414  0.000003  1
  Ru  Ru29  1  0.795386  0.607016  0.244526  1
  Ru  Ru30  1  0.795801  0.607042  0.755079  1
  Ru  Ru31  1  0.392958  0.795801  0.744921  1
  Ru  Ru32  1  0.607016  0.204614  0.255474  1
  Ru  Ru33  1  0.000000  0.000000  0.750000  1
