# generated using pymatgen
data_YbY3(MnB4)4
_symmetry_space_group_name_H-M   'P 1'
_cell_length_a   3.40000900
_cell_length_b   5.91759702
_cell_length_c   11.44423903
_cell_angle_alpha   89.99124792
_cell_angle_beta   90.00000000
_cell_angle_gamma   90.00000000
_symmetry_Int_Tables_number   1
_chemical_formula_structural   YbY3(MnB4)4
_chemical_formula_sum   'Yb1 Y3 Mn4 B16'
_cell_volume   230.25674903
_cell_formula_units_Z   1
loop_
 _symmetry_equiv_pos_site_id
 _symmetry_equiv_pos_as_xyz
  1  'x, y, z'
loop_
 _atom_site_type_symbol
 _atom_site_label
 _atom_site_symmetry_multiplicity
 _atom_site_fract_x
 _atom_site_fract_y
 _atom_site_fract_z
 _atom_site_occupancy
  Yb  Yb0  1  0.000000  0.625892  0.349653  1
  Y  Y1  1  0.000000  0.374520  0.650069  1
  Y  Y2  1  0.000000  0.126512  0.151303  1
  Y  Y3  1  0.000000  0.874035  0.848996  1
  Mn  Mn4  1  0.000000  0.627162  0.082958  1
  Mn  Mn5  1  0.000000  0.373392  0.916701  1
  Mn  Mn6  1  0.000000  0.125996  0.417942  1
  Mn  Mn7  1  0.000000  0.874622  0.582954  1
  B  B8  1  0.500000  0.780081  0.183997  1
  B  B9  1  0.500000  0.219272  0.816486  1
  B  B10  1  0.500000  0.281495  0.316803  1
  B  B11  1  0.500000  0.719007  0.682863  1
  B  B12  1  0.500000  0.861647  0.032299  1
  B  B13  1  0.500000  0.138509  0.967705  1
  B  B14  1  0.500000  0.362171  0.467187  1
  B  B15  1  0.500000  0.638350  0.532094  1
  B  B16  1  0.500000  0.886318  0.453565  1
  B  B17  1  0.500000  0.111315  0.546090  1
  B  B18  1  0.500000  0.388014  0.046320  1
  B  B19  1  0.500000  0.611538  0.953447  1
  B  B20  1  0.500000  0.975676  0.309553  1
  B  B21  1  0.500000  0.024263  0.690565  1
  B  B22  1  0.500000  0.475922  0.191295  1
  B  B23  1  0.500000  0.524293  0.809156  1
