# generated using pymatgen
data_K5Rb3(Sn2Se5)2
_symmetry_space_group_name_H-M   'P 1'
_cell_length_a   8.02234390
_cell_length_b   9.33281695
_cell_length_c   11.98021994
_cell_angle_alpha   73.61953926
_cell_angle_beta   70.45997171
_cell_angle_gamma   81.14636631
_symmetry_Int_Tables_number   1
_chemical_formula_structural   K5Rb3(Sn2Se5)2
_chemical_formula_sum   'K5 Rb3 Sn4 Se10'
_cell_volume   809.23928866
_cell_formula_units_Z   1
loop_
 _symmetry_equiv_pos_site_id
 _symmetry_equiv_pos_as_xyz
  1  'x, y, z'
loop_
 _atom_site_type_symbol
 _atom_site_label
 _atom_site_symmetry_multiplicity
 _atom_site_fract_x
 _atom_site_fract_y
 _atom_site_fract_z
 _atom_site_occupancy
  K  K0  1  0.913385  0.517571  0.686437  1
  K  K1  1  0.086615  0.482429  0.313563  1
  K  K2  1  0.500000  0.500000  0.500000  1
  K  K3  1  0.273978  0.501252  0.898989  1
  K  K4  1  0.726022  0.498748  0.101011  1
  Rb  Rb5  1  0.203936  0.000897  0.592702  1
  Rb  Rb6  1  0.796064  0.999103  0.407298  1
  Rb  Rb7  1  0.000000  0.000000  0.000000  1
  Sn  Sn8  1  0.428751  0.839560  0.227482  1
  Sn  Sn9  1  0.571249  0.160440  0.772518  1
  Sn  Sn10  1  0.381790  0.160448  0.163067  1
  Sn  Sn11  1  0.618210  0.839552  0.836933  1
  Se  Se12  1  0.071559  0.251036  0.152090  1
  Se  Se13  1  0.928441  0.748964  0.847910  1
  Se  Se14  1  0.625943  0.259031  0.947197  1
  Se  Se15  1  0.374057  0.740969  0.052803  1
  Se  Se16  1  0.823183  0.255715  0.579879  1
  Se  Se17  1  0.176817  0.744285  0.420121  1
  Se  Se18  1  0.543535  0.744039  0.682144  1
  Se  Se19  1  0.456465  0.255961  0.317856  1
  Se  Se20  1  0.269645  0.254467  0.746180  1
  Se  Se21  1  0.730355  0.745533  0.253820  1
