# generated using pymatgen
data_Nd4UMnIr6
_symmetry_space_group_name_H-M   'P 1'
_cell_length_a   5.74729900
_cell_length_b   5.74729844
_cell_length_c   8.40711500
_cell_angle_alpha   90.00000000
_cell_angle_beta   90.00000000
_cell_angle_gamma   120.00000899
_symmetry_Int_Tables_number   1
_chemical_formula_structural   Nd4UMnIr6
_chemical_formula_sum   'Nd4 U1 Mn1 Ir6'
_cell_volume   240.49448485
_cell_formula_units_Z   1
loop_
 _symmetry_equiv_pos_site_id
 _symmetry_equiv_pos_as_xyz
  1  'x, y, z'
loop_
 _atom_site_type_symbol
 _atom_site_label
 _atom_site_symmetry_multiplicity
 _atom_site_fract_x
 _atom_site_fract_y
 _atom_site_fract_z
 _atom_site_occupancy
  Nd  Nd0  1  0.333333  0.666667  0.053802  1
  Nd  Nd1  1  0.666667  0.333333  0.946198  1
  Nd  Nd2  1  0.333333  0.666667  0.423835  1
  Nd  Nd3  1  0.666667  0.333333  0.576165  1
  U  U4  1  0.000000  0.000000  0.500000  1
  Mn  Mn5  1  0.000000  0.000000  0.000000  1
  Ir  Ir6  1  0.830550  0.661102  0.254625  1
  Ir  Ir7  1  0.169450  0.338898  0.745375  1
  Ir  Ir8  1  0.338898  0.169450  0.254625  1
  Ir  Ir9  1  0.169450  0.830550  0.745375  1
  Ir  Ir10  1  0.661102  0.830550  0.745375  1
  Ir  Ir11  1  0.830550  0.169450  0.254625  1
