# generated using pymatgen
data_Pr8Y12Si15Ge
_symmetry_space_group_name_H-M   'P 1'
_cell_length_a   7.54528316
_cell_length_b   7.83747304
_cell_length_c   14.91715340
_cell_angle_alpha   90.03346911
_cell_angle_beta   89.78577933
_cell_angle_gamma   90.02175073
_symmetry_Int_Tables_number   1
_chemical_formula_structural   Pr8Y12Si15Ge
_chemical_formula_sum   'Pr8 Y12 Si15 Ge1'
_cell_volume   882.13370908
_cell_formula_units_Z   1
loop_
 _symmetry_equiv_pos_site_id
 _symmetry_equiv_pos_as_xyz
  1  'x, y, z'
loop_
 _atom_site_type_symbol
 _atom_site_label
 _atom_site_symmetry_multiplicity
 _atom_site_fract_x
 _atom_site_fract_y
 _atom_site_fract_z
 _atom_site_occupancy
  Pr  Pr0  1  0.019981  0.177842  0.401583  1
  Pr  Pr1  1  0.520801  0.320904  0.401510  1
  Pr  Pr2  1  0.478617  0.678916  0.902132  1
  Pr  Pr3  1  0.481503  0.679666  0.598216  1
  Pr  Pr4  1  0.978512  0.821866  0.597861  1
  Pr  Pr5  1  0.978349  0.821363  0.902246  1
  Pr  Pr6  1  0.521405  0.321281  0.098165  1
  Pr  Pr7  1  0.021714  0.179101  0.098099  1
  Y  Y8  1  0.324725  0.176370  0.623929  1
  Y  Y9  1  0.676172  0.821738  0.376468  1
  Y  Y10  1  0.655089  0.988782  0.750244  1
  Y  Y11  1  0.175043  0.679849  0.376576  1
  Y  Y12  1  0.822365  0.321103  0.877300  1
  Y  Y13  1  0.823040  0.321285  0.622768  1
  Y  Y14  1  0.844531  0.488786  0.250127  1
  Y  Y15  1  0.345213  0.011321  0.249970  1
  Y  Y16  1  0.322381  0.178633  0.877318  1
  Y  Y17  1  0.177354  0.678970  0.122869  1
  Y  Y18  1  0.677257  0.821093  0.122750  1
  Y  Y19  1  0.155316  0.511210  0.751025  1
  Si  Si20  1  0.272290  0.879383  0.750269  1
  Si  Si21  1  0.469217  0.612514  0.249735  1
  Si  Si22  1  0.029914  0.112147  0.750098  1
  Si  Si23  1  0.530345  0.387790  0.750257  1
  Si  Si24  1  0.969882  0.888383  0.249578  1
  Si  Si25  1  0.727358  0.120169  0.249669  1
  Si  Si26  1  0.854651  0.530691  0.039607  1
  Si  Si27  1  0.354512  0.969263  0.039659  1
  Si  Si28  1  0.145309  0.469368  0.960634  1
  Si  Si29  1  0.647037  0.031563  0.538979  1
  Si  Si30  1  0.353035  0.968725  0.460720  1
  Si  Si31  1  0.847796  0.532073  0.459614  1
  Si  Si32  1  0.773169  0.619871  0.749920  1
  Si  Si33  1  0.227037  0.380211  0.250044  1
  Si  Si34  1  0.645279  0.030990  0.960635  1
  Ge  Ge35  1  0.153801  0.466780  0.539424  1
