# generated using pymatgen
data_La2Pr(PdAu)3
_symmetry_space_group_name_H-M   'P 1'
_cell_length_a   7.69392863
_cell_length_b   7.69824607
_cell_length_c   3.99108200
_cell_angle_alpha   90.00000000
_cell_angle_beta   90.00000000
_cell_angle_gamma   120.01855136
_symmetry_Int_Tables_number   1
_chemical_formula_structural   La2Pr(PdAu)3
_chemical_formula_sum   'La2 Pr1 Pd3 Au3'
_cell_volume   204.68216842
_cell_formula_units_Z   1
loop_
 _symmetry_equiv_pos_site_id
 _symmetry_equiv_pos_as_xyz
  1  'x, y, z'
loop_
 _atom_site_type_symbol
 _atom_site_label
 _atom_site_symmetry_multiplicity
 _atom_site_fract_x
 _atom_site_fract_y
 _atom_site_fract_z
 _atom_site_occupancy
  La  La0  1  0.389374  0.389602  0.500000  1
  La  La1  1  0.610626  0.000228  0.500000  1
  Pr  Pr2  1  0.000000  0.610262  0.500000  1
  Pd  Pd3  1  0.664855  0.331634  0.000000  1
  Pd  Pd4  1  0.335145  0.666780  0.000000  1
  Pd  Pd5  1  0.000000  0.002050  0.500000  1
  Au  Au6  1  0.739720  0.736979  0.000000  1
  Au  Au7  1  0.260280  0.997259  0.000000  1
  Au  Au8  1  0.000000  0.265206  0.000000  1
