# generated using pymatgen
data_Tb16CdIn3Rh4
_symmetry_space_group_name_H-M   'P 1'
_cell_length_a   9.69350008
_cell_length_b   9.69349992
_cell_length_c   9.69349987
_cell_angle_alpha   60.09380471
_cell_angle_beta   60.09380303
_cell_angle_gamma   60.09380511
_symmetry_Int_Tables_number   1
_chemical_formula_structural   Tb16CdIn3Rh4
_chemical_formula_sum   'Tb16 Cd1 In3 Rh4'
_cell_volume   645.42972191
_cell_formula_units_Z   1
loop_
 _symmetry_equiv_pos_site_id
 _symmetry_equiv_pos_as_xyz
  1  'x, y, z'
loop_
 _atom_site_type_symbol
 _atom_site_label
 _atom_site_symmetry_multiplicity
 _atom_site_fract_x
 _atom_site_fract_y
 _atom_site_fract_z
 _atom_site_occupancy
  Tb  Tb0  1  0.299446  0.899053  0.899053  1
  Tb  Tb1  1  0.686021  0.314690  0.686021  1
  Tb  Tb2  1  0.311601  0.688163  0.311601  1
  Tb  Tb3  1  0.063939  0.438791  0.438791  1
  Tb  Tb4  1  0.688163  0.311601  0.311601  1
  Tb  Tb5  1  0.438791  0.063939  0.438791  1
  Tb  Tb6  1  0.440708  0.060141  0.060141  1
  Tb  Tb7  1  0.901767  0.901767  0.901767  1
  Tb  Tb8  1  0.060141  0.440708  0.060141  1
  Tb  Tb9  1  0.899053  0.299446  0.899053  1
  Tb  Tb10  1  0.314690  0.686021  0.686021  1
  Tb  Tb11  1  0.899053  0.899053  0.299446  1
  Tb  Tb12  1  0.438791  0.438791  0.063939  1
  Tb  Tb13  1  0.311601  0.311601  0.688163  1
  Tb  Tb14  1  0.686021  0.686021  0.314690  1
  Tb  Tb15  1  0.060141  0.060141  0.440708  1
  Cd  Cd16  1  0.668447  0.668447  0.668447  1
  In  In17  1  0.996250  0.667934  0.667934  1
  In  In18  1  0.667934  0.996250  0.667934  1
  In  In19  1  0.667934  0.667934  0.996250  1
  Rh  Rh20  1  0.108159  0.108159  0.676252  1
  Rh  Rh21  1  0.108159  0.676252  0.108159  1
  Rh  Rh22  1  0.106939  0.106939  0.106939  1
  Rh  Rh23  1  0.676252  0.108159  0.108159  1
