# generated using pymatgen
data_Tb11HoCo4
_symmetry_space_group_name_H-M   'P 1'
_cell_length_a   6.23151170
_cell_length_b   6.94183972
_cell_length_c   9.57378801
_cell_angle_alpha   89.87224691
_cell_angle_beta   91.87856882
_cell_angle_gamma   90.04469876
_symmetry_Int_Tables_number   1
_chemical_formula_structural   Tb11HoCo4
_chemical_formula_sum   'Tb11 Ho1 Co4'
_cell_volume   413.92069460
_cell_formula_units_Z   1
loop_
 _symmetry_equiv_pos_site_id
 _symmetry_equiv_pos_as_xyz
  1  'x, y, z'
loop_
 _atom_site_type_symbol
 _atom_site_label
 _atom_site_symmetry_multiplicity
 _atom_site_fract_x
 _atom_site_fract_y
 _atom_site_fract_z
 _atom_site_occupancy
  Tb  Tb0  1  0.676767  0.173569  0.066046  1
  Tb  Tb1  1  0.358299  0.544582  0.248253  1
  Tb  Tb2  1  0.141410  0.042996  0.249426  1
  Tb  Tb3  1  0.822661  0.675683  0.434767  1
  Tb  Tb4  1  0.324591  0.824491  0.933684  1
  Tb  Tb5  1  0.175651  0.325697  0.565044  1
  Tb  Tb6  1  0.673639  0.173969  0.428239  1
  Tb  Tb7  1  0.173305  0.326809  0.927412  1
  Tb  Tb8  1  0.324431  0.827410  0.571248  1
  Tb  Tb9  1  0.857563  0.957388  0.750601  1
  Tb  Tb10  1  0.641286  0.456544  0.751743  1
  Ho  Ho11  1  0.827918  0.670895  0.073791  1
  Co  Co12  1  0.950239  0.386190  0.265032  1
  Co  Co13  1  0.447555  0.113850  0.761697  1
  Co  Co14  1  0.553796  0.885588  0.236036  1
  Co  Co15  1  0.050890  0.614338  0.736981  1
