# generated using pymatgen
data_HoTm15In3HgIr4
_symmetry_space_group_name_H-M   'P 1'
_cell_length_a   9.54075882
_cell_length_b   9.53845000
_cell_length_c   9.54075919
_cell_angle_alpha   59.96126653
_cell_angle_beta   59.95434084
_cell_angle_gamma   59.96127446
_symmetry_Int_Tables_number   1
_chemical_formula_structural   HoTm15In3HgIr4
_chemical_formula_sum   'Ho1 Tm15 In3 Hg1 Ir4'
_cell_volume   613.37245464
_cell_formula_units_Z   1
loop_
 _symmetry_equiv_pos_site_id
 _symmetry_equiv_pos_as_xyz
  1  'x, y, z'
loop_
 _atom_site_type_symbol
 _atom_site_label
 _atom_site_symmetry_multiplicity
 _atom_site_fract_x
 _atom_site_fract_y
 _atom_site_fract_z
 _atom_site_occupancy
  Ho  Ho0  1  0.438458  0.063605  0.438458  1
  Tm  Tm1  1  0.438631  0.438772  0.063212  1
  Tm  Tm2  1  0.649348  0.649179  0.049568  1
  Tm  Tm3  1  0.190524  0.811928  0.190524  1
  Tm  Tm4  1  0.060306  0.439731  0.060306  1
  Tm  Tm5  1  0.191608  0.809019  0.809268  1
  Tm  Tm6  1  0.063212  0.438772  0.438631  1
  Tm  Tm7  1  0.812094  0.190594  0.190409  1
  Tm  Tm8  1  0.651845  0.651719  0.651845  1
  Tm  Tm9  1  0.809140  0.191641  0.809140  1
  Tm  Tm10  1  0.190409  0.190594  0.812094  1
  Tm  Tm11  1  0.049568  0.649179  0.649348  1
  Tm  Tm12  1  0.439787  0.060286  0.060020  1
  Tm  Tm13  1  0.060020  0.060286  0.439787  1
  Tm  Tm14  1  0.649315  0.049534  0.649315  1
  Tm  Tm15  1  0.809268  0.809019  0.191608  1
  In  In16  1  0.417103  0.417134  0.748094  1
  In  In17  1  0.417184  0.747745  0.417184  1
  In  In18  1  0.748094  0.417134  0.417103  1
  Hg  Hg19  1  0.413901  0.414189  0.413901  1
  Ir  Ir20  1  0.423792  0.858973  0.859285  1
  Ir  Ir21  1  0.858077  0.858076  0.858077  1
  Ir  Ir22  1  0.859032  0.423921  0.859032  1
  Ir  Ir23  1  0.859285  0.858973  0.423792  1
