# generated using pymatgen
data_YbPrSm5CoI12
_symmetry_space_group_name_H-M   'P 1'
_cell_length_a   9.87507822
_cell_length_b   9.97119105
_cell_length_c   9.97328045
_cell_angle_alpha   106.92708907
_cell_angle_beta   107.20269100
_cell_angle_gamma   106.77838084
_symmetry_Int_Tables_number   1
_chemical_formula_structural   YbPrSm5CoI12
_chemical_formula_sum   'Yb1 Pr1 Sm5 Co1 I12'
_cell_volume   818.51866225
_cell_formula_units_Z   1
loop_
 _symmetry_equiv_pos_site_id
 _symmetry_equiv_pos_as_xyz
  1  'x, y, z'
loop_
 _atom_site_type_symbol
 _atom_site_label
 _atom_site_symmetry_multiplicity
 _atom_site_fract_x
 _atom_site_fract_y
 _atom_site_fract_z
 _atom_site_occupancy
  Yb  Yb0  1  0.500113  0.499760  0.499923  1
  Pr  Pr1  1  0.709784  0.975865  0.904668  1
  Sm  Sm2  1  0.975062  0.901266  0.699938  1
  Sm  Sm3  1  0.025373  0.098775  0.300434  1
  Sm  Sm4  1  0.099650  0.300169  0.025700  1
  Sm  Sm5  1  0.285855  0.024299  0.094337  1
  Sm  Sm6  1  0.902316  0.700339  0.974856  1
  Co  Co7  1  0.000277  0.000425  0.000203  1
  I  I8  1  0.538763  0.615005  0.841817  1
  I  I9  1  0.460488  0.379626  0.157179  1
  I  I10  1  0.318115  0.928067  0.777344  1
  I  I11  1  0.381541  0.156454  0.458787  1
  I  I12  1  0.927894  0.776348  0.319128  1
  I  I13  1  0.680774  0.073385  0.227931  1
  I  I14  1  0.072270  0.223718  0.680933  1
  I  I15  1  0.777238  0.323784  0.928162  1
  I  I16  1  0.226094  0.682025  0.073058  1
  I  I17  1  0.845346  0.540994  0.620037  1
  I  I18  1  0.154962  0.459127  0.379904  1
  I  I19  1  0.618084  0.840569  0.535661  1
