# generated using pymatgen
data_Tm5Lu5(InBi)3
_symmetry_space_group_name_H-M   'P 1'
_cell_length_a   6.45061300
_cell_length_b   8.91195710
_cell_length_c   8.91671200
_cell_angle_alpha   120.01936832
_cell_angle_beta   89.99972255
_cell_angle_gamma   90.00345856
_symmetry_Int_Tables_number   1
_chemical_formula_structural   Tm5Lu5(InBi)3
_chemical_formula_sum   'Tm5 Lu5 In3 Bi3'
_cell_volume   443.83817330
_cell_formula_units_Z   1
loop_
 _symmetry_equiv_pos_site_id
 _symmetry_equiv_pos_as_xyz
  1  'x, y, z'
loop_
 _atom_site_type_symbol
 _atom_site_label
 _atom_site_symmetry_multiplicity
 _atom_site_fract_x
 _atom_site_fract_y
 _atom_site_fract_z
 _atom_site_occupancy
  Tm  Tm0  1  0.749817  0.234726  0.999905  1
  Tm  Tm1  1  0.749939  0.765327  0.765195  1
  Tm  Tm2  1  0.749925  0.000039  0.234927  1
  Tm  Tm3  1  0.249911  0.762981  0.999931  1
  Tm  Tm4  1  0.249903  0.237046  0.236999  1
  Lu  Lu5  1  0.491832  0.333326  0.666785  1
  Lu  Lu6  1  0.491839  0.666663  0.333335  1
  Lu  Lu7  1  0.008227  0.666751  0.333457  1
  Lu  Lu8  1  0.008246  0.333279  0.666645  1
  Lu  Lu9  1  0.249890  0.999976  0.762878  1
  In  In10  1  0.249982  0.392986  0.999801  1
  In  In11  1  0.250250  0.606890  0.606697  1
  In  In12  1  0.250264  0.999983  0.393484  1
  Bi  Bi13  1  0.750030  0.602236  0.999978  1
  Bi  Bi14  1  0.749978  0.397788  0.397758  1
  Bi  Bi15  1  0.749970  0.000007  0.602225  1
