# generated using pymatgen
data_Er3Th(CBr)2
_symmetry_space_group_name_H-M   'P 1'
_cell_length_a   3.65237800
_cell_length_b   3.65237925
_cell_length_c   14.49865300
_cell_angle_alpha   90.00000000
_cell_angle_beta   90.00000000
_cell_angle_gamma   120.00000678
_symmetry_Int_Tables_number   1
_chemical_formula_structural   Er3Th(CBr)2
_chemical_formula_sum   'Er3 Th1 C2 Br2'
_cell_volume   167.49808382
_cell_formula_units_Z   1
loop_
 _symmetry_equiv_pos_site_id
 _symmetry_equiv_pos_as_xyz
  1  'x, y, z'
loop_
 _atom_site_type_symbol
 _atom_site_label
 _atom_site_symmetry_multiplicity
 _atom_site_fract_x
 _atom_site_fract_y
 _atom_site_fract_z
 _atom_site_occupancy
  Er  Er0  1  0.333333  0.666667  0.082777  1
  Er  Er1  1  0.666667  0.333333  0.597206  1
  Er  Er2  1  0.666667  0.333333  0.910054  1
  Th  Th3  1  0.333333  0.666667  0.410741  1
  C  C4  1  0.000000  0.000000  0.995373  1
  C  C5  1  0.000000  0.000000  0.515512  1
  Br  Br6  1  0.666667  0.333333  0.234045  1
  Br  Br7  1  0.333333  0.666667  0.754292  1
