# generated using pymatgen
data_La10Sb9Te
_symmetry_space_group_name_H-M   'P 1'
_cell_length_a   7.99334032
_cell_length_b   9.27786734
_cell_length_c   10.34086970
_cell_angle_alpha   102.89213555
_cell_angle_beta   97.32347733
_cell_angle_gamma   106.88418859
_symmetry_Int_Tables_number   1
_chemical_formula_structural   La10Sb9Te
_chemical_formula_sum   'La10 Sb9 Te1'
_cell_volume   699.97232884
_cell_formula_units_Z   1
loop_
 _symmetry_equiv_pos_site_id
 _symmetry_equiv_pos_as_xyz
  1  'x, y, z'
loop_
 _atom_site_type_symbol
 _atom_site_label
 _atom_site_symmetry_multiplicity
 _atom_site_fract_x
 _atom_site_fract_y
 _atom_site_fract_z
 _atom_site_occupancy
  La  La0  1  0.900783  0.549809  0.800342  1
  La  La1  1  0.696652  0.152095  0.399253  1
  La  La2  1  0.500346  0.749897  0.000261  1
  La  La3  1  0.695817  0.645399  0.398677  1
  La  La4  1  0.304183  0.354601  0.601323  1
  La  La5  1  0.101611  0.948601  0.195674  1
  La  La6  1  0.499654  0.250103  0.999739  1
  La  La7  1  0.303348  0.847905  0.600747  1
  La  La8  1  0.099217  0.450191  0.199658  1
  La  La9  1  0.898389  0.051399  0.804326  1
  Sb  Sb10  1  0.800334  0.601396  0.101953  1
  Sb  Sb11  1  0.599277  0.199055  0.699148  1
  Sb  Sb12  1  0.400723  0.800945  0.300852  1
  Sb  Sb13  1  0.800262  0.099680  0.102281  1
  Sb  Sb14  1  0.199666  0.398604  0.898047  1
  Sb  Sb15  1  0.602791  0.701751  0.699797  1
  Sb  Sb16  1  0.397209  0.298249  0.300203  1
  Sb  Sb17  1  0.199738  0.900320  0.897719  1
  Sb  Sb18  1  0.000000  0.500000  0.500000  1
  Te  Te19  1  0.000000  0.000000  0.500000  1
