# generated using pymatgen
data_Y5HoAl24GaOs7
_symmetry_space_group_name_H-M   'P 1'
_cell_length_a   8.86793338
_cell_length_b   8.86793386
_cell_length_c   9.56250598
_cell_angle_alpha   90.16164939
_cell_angle_beta   89.83835197
_cell_angle_gamma   119.82688918
_symmetry_Int_Tables_number   1
_chemical_formula_structural   Y5HoAl24GaOs7
_chemical_formula_sum   'Y5 Ho1 Al24 Ga1 Os7'
_cell_volume   652.37880744
_cell_formula_units_Z   1
loop_
 _symmetry_equiv_pos_site_id
 _symmetry_equiv_pos_as_xyz
  1  'x, y, z'
loop_
 _atom_site_type_symbol
 _atom_site_label
 _atom_site_symmetry_multiplicity
 _atom_site_fract_x
 _atom_site_fract_y
 _atom_site_fract_z
 _atom_site_occupancy
  Y  Y0  1  0.191707  0.384106  0.245392  1
  Y  Y1  1  0.808385  0.615687  0.754539  1
  Y  Y2  1  0.615894  0.808293  0.245392  1
  Y  Y3  1  0.384313  0.191615  0.754539  1
  Y  Y4  1  0.194097  0.805903  0.255578  1
  Ho  Ho5  1  0.805319  0.194681  0.743901  1
  Al  Al6  1  0.327037  0.672963  0.021408  1
  Al  Al7  1  0.673099  0.326901  0.977999  1
  Al  Al8  1  0.665942  0.334058  0.518658  1
  Al  Al9  1  0.334142  0.665858  0.481820  1
  Al  Al10  1  0.162368  0.325709  0.571371  1
  Al  Al11  1  0.837190  0.673946  0.429036  1
  Al  Al12  1  0.674291  0.837632  0.571371  1
  Al  Al13  1  0.852561  0.678419  0.081481  1
  Al  Al14  1  0.326054  0.162810  0.429036  1
  Al  Al15  1  0.146758  0.321090  0.918071  1
  Al  Al16  1  0.162992  0.837008  0.576090  1
  Al  Al17  1  0.321581  0.147439  0.081481  1
  Al  Al18  1  0.837065  0.162935  0.424636  1
  Al  Al19  1  0.678910  0.853242  0.918071  1
  Al  Al20  1  0.836772  0.163228  0.075606  1
  Al  Al21  1  0.163240  0.836760  0.923675  1
  Al  Al22  1  0.562017  0.120982  0.249521  1
  Al  Al23  1  0.438529  0.879370  0.750553  1
  Al  Al24  1  0.879018  0.437983  0.249521  1
  Al  Al25  1  0.120630  0.561471  0.750553  1
  Al  Al26  1  0.565784  0.434216  0.258586  1
  Al  Al27  1  0.434215  0.565785  0.741426  1
  Al  Al28  1  0.998958  0.001042  0.250854  1
  Al  Al29  1  0.000399  0.999601  0.749200  1
  Ga  Ga30  1  0.500042  0.499958  0.000004  1
  Os  Os31  1  0.500423  0.000256  0.999628  1
  Os  Os32  1  0.999744  0.499577  0.999628  1
  Os  Os33  1  0.500761  0.000463  0.500619  1
  Os  Os34  1  0.999537  0.499239  0.500619  1
  Os  Os35  1  0.500043  0.499957  0.500067  1
  Os  Os36  1  0.000082  0.999918  0.000041  1
  Os  Os37  1  0.000102  0.999898  0.500031  1
