# generated using pymatgen
data_Dy5Tm3Sc11Si16W
_symmetry_space_group_name_H-M   'P 1'
_cell_length_a   7.05879083
_cell_length_b   7.30316289
_cell_length_c   13.85121911
_cell_angle_alpha   90.14680825
_cell_angle_beta   89.67748818
_cell_angle_gamma   89.73386641
_symmetry_Int_Tables_number   1
_chemical_formula_structural   Dy5Tm3Sc11Si16W
_chemical_formula_sum   'Dy5 Tm3 Sc11 Si16 W1'
_cell_volume   714.02970429
_cell_formula_units_Z   1
loop_
 _symmetry_equiv_pos_site_id
 _symmetry_equiv_pos_as_xyz
  1  'x, y, z'
loop_
 _atom_site_type_symbol
 _atom_site_label
 _atom_site_symmetry_multiplicity
 _atom_site_fract_x
 _atom_site_fract_y
 _atom_site_fract_z
 _atom_site_occupancy
  Dy  Dy0  1  0.011641  0.174266  0.097208  1
  Dy  Dy1  1  0.989658  0.825763  0.898317  1
  Dy  Dy2  1  0.487623  0.677193  0.899416  1
  Dy  Dy3  1  0.992876  0.829267  0.595160  1
  Dy  Dy4  1  0.512822  0.323964  0.096627  1
  Tm  Tm5  1  0.010117  0.176000  0.403798  1
  Tm  Tm6  1  0.506442  0.322987  0.410080  1
  Tm  Tm7  1  0.488422  0.675961  0.595726  1
  Sc  Sc8  1  0.163559  0.495748  0.744652  1
  Sc  Sc9  1  0.837942  0.497763  0.252168  1
  Sc  Sc10  1  0.337085  0.002993  0.253027  1
  Sc  Sc11  1  0.658534  0.001830  0.746999  1
  Sc  Sc12  1  0.664980  0.825473  0.379383  1
  Sc  Sc13  1  0.167914  0.677757  0.378649  1
  Sc  Sc14  1  0.669069  0.824174  0.125311  1
  Sc  Sc15  1  0.832599  0.323674  0.622865  1
  Sc  Sc16  1  0.333112  0.176526  0.874563  1
  Sc  Sc17  1  0.830279  0.323265  0.871628  1
  Sc  Sc18  1  0.169847  0.676809  0.126386  1
  Si  Si19  1  0.042717  0.120992  0.744514  1
  Si  Si20  1  0.963530  0.886246  0.252222  1
  Si  Si21  1  0.466582  0.616066  0.251690  1
  Si  Si22  1  0.531120  0.375702  0.745342  1
  Si  Si23  1  0.288278  0.879427  0.744920  1
  Si  Si24  1  0.711407  0.127790  0.252270  1
  Si  Si25  1  0.215637  0.372398  0.251928  1
  Si  Si26  1  0.783980  0.624676  0.745851  1
  Si  Si27  1  0.178159  0.450437  0.540424  1
  Si  Si28  1  0.839932  0.530334  0.460055  1
  Si  Si29  1  0.332286  0.970554  0.470951  1
  Si  Si30  1  0.845076  0.535399  0.038804  1
  Si  Si31  1  0.646031  0.035016  0.545087  1
  Si  Si32  1  0.154481  0.466268  0.958968  1
  Si  Si33  1  0.661184  0.036117  0.958866  1
  Si  Si34  1  0.341461  0.962994  0.038397  1
  W  W35  1  0.333617  0.178175  0.627750  1
