# generated using pymatgen
data_Tb3Co9(GeB2)2
_symmetry_space_group_name_H-M   'P 1'
_cell_length_a   5.17086401
_cell_length_b   5.17093371
_cell_length_c   9.45223801
_cell_angle_alpha   90.00547755
_cell_angle_beta   89.99409081
_cell_angle_gamma   119.99361636
_symmetry_Int_Tables_number   1
_chemical_formula_structural   Tb3Co9(GeB2)2
_chemical_formula_sum   'Tb3 Co9 Ge2 B4'
_cell_volume   218.88968540
_cell_formula_units_Z   1
loop_
 _symmetry_equiv_pos_site_id
 _symmetry_equiv_pos_as_xyz
  1  'x, y, z'
loop_
 _atom_site_type_symbol
 _atom_site_label
 _atom_site_symmetry_multiplicity
 _atom_site_fract_x
 _atom_site_fract_y
 _atom_site_fract_z
 _atom_site_occupancy
  Tb  Tb0  1  0.999971  0.000012  0.000041  1
  Tb  Tb1  1  0.000016  0.999999  0.340179  1
  Tb  Tb2  1  0.999977  0.999949  0.659790  1
  Co  Co3  1  0.499968  0.000002  0.499978  1
  Co  Co4  1  0.500010  0.500016  0.500012  1
  Co  Co5  1  0.000017  0.500020  0.500003  1
  Co  Co6  1  0.500046  0.999992  0.203073  1
  Co  Co7  1  0.500013  0.500009  0.203092  1
  Co  Co8  1  0.999990  0.500003  0.203098  1
  Co  Co9  1  0.499999  0.999985  0.796936  1
  Co  Co10  1  0.500018  0.500042  0.796907  1
  Co  Co11  1  0.999996  0.500032  0.796889  1
  Ge  Ge12  1  0.333239  0.666595  0.000007  1
  Ge  Ge13  1  0.666689  0.333393  0.000012  1
  B  B14  1  0.333381  0.666652  0.348123  1
  B  B15  1  0.666607  0.333308  0.348120  1
  B  B16  1  0.666604  0.333268  0.651874  1
  B  B17  1  0.333360  0.666722  0.651867  1
