# generated using pymatgen
data_La12Pd3RuI12
_symmetry_space_group_name_H-M   'P 1'
_cell_length_a   11.13527654
_cell_length_b   10.98191435
_cell_length_c   10.98304549
_cell_angle_alpha   109.14329355
_cell_angle_beta   109.69465884
_cell_angle_gamma   109.86008421
_symmetry_Int_Tables_number   1
_chemical_formula_structural   La12Pd3RuI12
_chemical_formula_sum   'La12 Pd3 Ru1 I12'
_cell_volume   1030.22577610
_cell_formula_units_Z   1
loop_
 _symmetry_equiv_pos_site_id
 _symmetry_equiv_pos_as_xyz
  1  'x, y, z'
loop_
 _atom_site_type_symbol
 _atom_site_label
 _atom_site_symmetry_multiplicity
 _atom_site_fract_x
 _atom_site_fract_y
 _atom_site_fract_z
 _atom_site_occupancy
  La  La0  1  0.461289  0.487270  0.226144  1
  La  La1  1  0.749472  0.231699  0.267338  1
  La  La2  1  0.750258  0.018458  0.481473  1
  La  La3  1  0.230931  0.463122  0.481524  1
  La  La4  1  0.264866  0.738981  0.226153  1
  La  La5  1  0.038629  0.274454  0.012382  1
  La  La6  1  0.018239  0.035777  0.267373  1
  La  La7  1  0.473768  0.737857  0.012457  1
  La  La8  1  0.482256  0.232531  0.464908  1
  La  La9  1  0.026277  0.487527  0.761965  1
  La  La10  1  0.268493  0.018372  0.036794  1
  La  La11  1  0.235519  0.274155  0.761695  1
  Pd  Pd12  1  0.250176  0.250401  0.250194  1
  Pd  Pd13  1  0.500130  0.000397  0.250277  1
  Pd  Pd14  1  0.999689  0.249781  0.499519  1
  Ru  Ru15  1  0.250032  0.499952  0.000052  1
  I  I16  1  0.250400  0.760665  0.739677  1
  I  I17  1  0.519357  0.508364  0.758374  1
  I  I18  1  0.980529  0.741208  0.991927  1
  I  I19  1  0.738870  0.249866  0.758234  1
  I  I20  1  0.989318  0.978854  0.739640  1
  I  I21  1  0.249515  0.991488  0.508179  1
  I  I22  1  0.758520  0.516280  0.508103  1
  I  I23  1  0.511429  0.250794  0.991899  1
  I  I24  1  0.760965  0.741518  0.249613  1
  I  I25  1  0.741889  0.991708  0.983628  1
  I  I26  1  0.988808  0.508103  0.249473  1
  I  I27  1  0.510375  0.760418  0.521006  1
