# generated using pymatgen
data_SmLuP7Ru12
_symmetry_space_group_name_H-M   'P 1'
_cell_length_a   9.41870900
_cell_length_b   9.41870765
_cell_length_c   3.95521800
_cell_angle_alpha   90.00000000
_cell_angle_beta   90.00000000
_cell_angle_gamma   120.00000121
_symmetry_Int_Tables_number   1
_chemical_formula_structural   SmLuP7Ru12
_chemical_formula_sum   'Sm1 Lu1 P7 Ru12'
_cell_volume   303.86714694
_cell_formula_units_Z   1
loop_
 _symmetry_equiv_pos_site_id
 _symmetry_equiv_pos_as_xyz
  1  'x, y, z'
loop_
 _atom_site_type_symbol
 _atom_site_label
 _atom_site_symmetry_multiplicity
 _atom_site_fract_x
 _atom_site_fract_y
 _atom_site_fract_z
 _atom_site_occupancy
  Sm  Sm0  1  0.333333  0.666667  0.000000  1
  Lu  Lu1  1  0.666667  0.333333  0.500000  1
  P  P2  1  0.602751  0.718967  0.500000  1
  P  P3  1  0.000000  0.000000  0.000000  1
  P  P4  1  0.281033  0.883784  0.500000  1
  P  P5  1  0.116216  0.397249  0.500000  1
  P  P6  1  0.884983  0.571766  0.000000  1
  P  P7  1  0.428234  0.313217  0.000000  1
  P  P8  1  0.686783  0.115017  0.000000  1
  Ru  Ru9  1  0.558336  0.953942  0.500000  1
  Ru  Ru10  1  0.395606  0.441664  0.500000  1
  Ru  Ru11  1  0.914836  0.120726  0.500000  1
  Ru  Ru12  1  0.205890  0.085164  0.500000  1
  Ru  Ru13  1  0.879274  0.794110  0.500000  1
  Ru  Ru14  1  0.727903  0.892580  0.000000  1
  Ru  Ru15  1  0.107420  0.835322  0.000000  1
  Ru  Ru16  1  0.164678  0.272097  0.000000  1
  Ru  Ru17  1  0.423562  0.069122  0.000000  1
  Ru  Ru18  1  0.930878  0.354441  0.000000  1
  Ru  Ru19  1  0.645559  0.576438  0.000000  1
  Ru  Ru20  1  0.046058  0.604394  0.500000  1
