# generated using pymatgen
data_Ce2Hf3VF22
_symmetry_space_group_name_H-M   'P 1'
_cell_length_a   8.32146196
_cell_length_b   8.32146379
_cell_length_c   8.36816182
_cell_angle_alpha   125.18863677
_cell_angle_beta   106.65581290
_cell_angle_gamma   97.60052513
_symmetry_Int_Tables_number   1
_chemical_formula_structural   Ce2Hf3VF22
_chemical_formula_sum   'Ce2 Hf3 V1 F22'
_cell_volume   419.69381803
_cell_formula_units_Z   1
loop_
 _symmetry_equiv_pos_site_id
 _symmetry_equiv_pos_as_xyz
  1  'x, y, z'
loop_
 _atom_site_type_symbol
 _atom_site_label
 _atom_site_symmetry_multiplicity
 _atom_site_fract_x
 _atom_site_fract_y
 _atom_site_fract_z
 _atom_site_occupancy
  Ce  Ce0  1  0.749208  0.245475  0.490862  1
  Ce  Ce1  1  0.245387  0.741654  0.490862  1
  Hf  Hf2  1  0.325575  0.369416  0.694992  1
  Hf  Hf3  1  0.178098  0.868297  0.046396  1
  Hf  Hf4  1  0.812786  0.135622  0.948407  1
  V  V5  1  0.683752  0.640596  0.324349  1
  F  F6  1  0.705910  0.900429  0.344530  1
  F  F7  1  0.294186  0.100146  0.656486  1
  F  F8  1  0.556340  0.362301  0.656486  1
  F  F9  1  0.944558  0.604496  0.811097  1
  F  F10  1  0.444101  0.638620  0.344530  1
  F  F11  1  0.056928  0.390880  0.184966  1
  F  F12  1  0.794084  0.128036  0.184966  1
  F  F13  1  0.206601  0.866539  0.811097  1
  F  F14  1  0.500903  0.501390  0.002294  1
  F  F15  1  0.998487  0.001876  0.000364  1
  F  F16  1  0.779363  0.871173  0.650536  1
  F  F17  1  0.220875  0.131646  0.352520  1
  F  F18  1  0.279561  0.632325  0.911887  1
  F  F19  1  0.720519  0.372247  0.092765  1
  F  F20  1  0.956817  0.734889  0.417060  1
  F  F21  1  0.049902  0.263332  0.585782  1
  F  F22  1  0.322450  0.535880  0.585782  1
  F  F23  1  0.174254  0.758980  0.210425  1
  F  F24  1  0.682169  0.460243  0.417060  1
  F  F25  1  0.823969  0.244769  0.786540  1
  F  F26  1  0.541771  0.962570  0.786540  1
  F  F27  1  0.451446  0.036170  0.210425  1
