# generated using pymatgen
data_Yb2Tm2(Al8Pt3)3
_symmetry_space_group_name_H-M   'P 1'
_cell_length_a   7.52495991
_cell_length_b   7.51715858
_cell_length_c   13.22562335
_cell_angle_alpha   84.58960217
_cell_angle_beta   100.85489927
_cell_angle_gamma   119.81436551
_symmetry_Int_Tables_number   1
_chemical_formula_structural   Yb2Tm2(Al8Pt3)3
_chemical_formula_sum   'Yb2 Tm2 Al24 Pt9'
_cell_volume   637.48918502
_cell_formula_units_Z   1
loop_
 _symmetry_equiv_pos_site_id
 _symmetry_equiv_pos_as_xyz
  1  'x, y, z'
loop_
 _atom_site_type_symbol
 _atom_site_label
 _atom_site_symmetry_multiplicity
 _atom_site_fract_x
 _atom_site_fract_y
 _atom_site_fract_z
 _atom_site_occupancy
  Yb  Yb0  1  0.767692  0.500982  0.807973  1
  Yb  Yb1  1  0.232308  0.499018  0.192027  1
  Tm  Tm2  1  0.436664  0.831285  0.807596  1
  Tm  Tm3  1  0.563336  0.168715  0.192404  1
  Al  Al4  1  0.482306  0.166379  0.944443  1
  Al  Al5  1  0.517694  0.833621  0.055557  1
  Al  Al6  1  0.020866  0.168446  0.560876  1
  Al  Al7  1  0.979134  0.831554  0.439124  1
  Al  Al8  1  0.353428  0.833867  0.558882  1
  Al  Al9  1  0.646572  0.166133  0.441118  1
  Al  Al10  1  0.616776  0.834054  0.328696  1
  Al  Al11  1  0.383224  0.165946  0.671304  1
  Al  Al12  1  0.055833  0.493086  0.671582  1
  Al  Al13  1  0.944167  0.506914  0.328418  1
  Al  Al14  1  0.730265  0.839302  0.669469  1
  Al  Al15  1  0.269735  0.160698  0.330531  1
  Al  Al16  1  0.147707  0.499942  0.945518  1
  Al  Al17  1  0.852293  0.500058  0.054482  1
  Al  Al18  1  0.816761  0.832241  0.954442  1
  Al  Al19  1  0.183239  0.167759  0.045558  1
  Al  Al20  1  0.314232  0.500166  0.441081  1
  Al  Al21  1  0.685768  0.499834  0.558919  1
  Al  Al22  1  0.103717  0.839079  0.183142  1
  Al  Al23  1  0.896283  0.160921  0.816858  1
  Al  Al24  1  0.306222  0.371185  0.815807  1
  Al  Al25  1  0.693778  0.628815  0.184193  1
  Al  Al26  1  0.107183  0.960594  0.816397  1
  Al  Al27  1  0.892817  0.039406  0.183603  1
  Pt  Pt28  1  0.387338  0.508487  0.638275  1
  Pt  Pt29  1  0.612662  0.491513  0.361725  1
  Pt  Pt30  1  0.171529  0.829047  0.999749  1
  Pt  Pt31  1  0.828471  0.170953  0.000251  1
  Pt  Pt32  1  0.295640  0.833463  0.361675  1
  Pt  Pt33  1  0.704360  0.166537  0.638325  1
  Pt  Pt34  1  0.046090  0.825678  0.637254  1
  Pt  Pt35  1  0.953910  0.174322  0.362746  1
  Pt  Pt36  1  0.500000  0.500000  0.000000  1
