# generated using pymatgen
data_Nd2Tm4Al24ZnOs7
_symmetry_space_group_name_H-M   'P 1'
_cell_length_a   8.85489026
_cell_length_b   8.83358416
_cell_length_c   9.58888029
_cell_angle_alpha   90.02910154
_cell_angle_beta   89.83145483
_cell_angle_gamma   119.59382268
_symmetry_Int_Tables_number   1
_chemical_formula_structural   Nd2Tm4Al24ZnOs7
_chemical_formula_sum   'Nd2 Tm4 Al24 Zn1 Os7'
_cell_volume   652.19812430
_cell_formula_units_Z   1
loop_
 _symmetry_equiv_pos_site_id
 _symmetry_equiv_pos_as_xyz
  1  'x, y, z'
loop_
 _atom_site_type_symbol
 _atom_site_label
 _atom_site_symmetry_multiplicity
 _atom_site_fract_x
 _atom_site_fract_y
 _atom_site_fract_z
 _atom_site_occupancy
  Nd  Nd0  1  0.190039  0.380706  0.247171  1
  Nd  Nd1  1  0.809961  0.619294  0.752829  1
  Tm  Tm2  1  0.610699  0.808308  0.249232  1
  Tm  Tm3  1  0.389301  0.191692  0.750768  1
  Tm  Tm4  1  0.196538  0.803567  0.254501  1
  Tm  Tm5  1  0.803462  0.196433  0.745499  1
  Al  Al6  1  0.328536  0.672106  0.021718  1
  Al  Al7  1  0.671464  0.327894  0.978282  1
  Al  Al8  1  0.666647  0.333079  0.520297  1
  Al  Al9  1  0.333353  0.666921  0.479703  1
  Al  Al10  1  0.163583  0.326634  0.574363  1
  Al  Al11  1  0.836417  0.673366  0.425637  1
  Al  Al12  1  0.672244  0.837106  0.571920  1
  Al  Al13  1  0.850196  0.677748  0.082575  1
  Al  Al14  1  0.327756  0.162894  0.428080  1
  Al  Al15  1  0.149804  0.322252  0.917425  1
  Al  Al16  1  0.164833  0.837385  0.575887  1
  Al  Al17  1  0.322809  0.148852  0.079697  1
  Al  Al18  1  0.835167  0.162615  0.424113  1
  Al  Al19  1  0.677191  0.851148  0.920303  1
  Al  Al20  1  0.834527  0.163040  0.075562  1
  Al  Al21  1  0.165473  0.836960  0.924438  1
  Al  Al22  1  0.560896  0.120502  0.249367  1
  Al  Al23  1  0.439104  0.879498  0.750633  1
  Al  Al24  1  0.877331  0.438627  0.249415  1
  Al  Al25  1  0.122669  0.561373  0.750585  1
  Al  Al26  1  0.566102  0.436620  0.255176  1
  Al  Al27  1  0.433898  0.563380  0.744824  1
  Al  Al28  1  0.994694  0.994564  0.250511  1
  Al  Al29  1  0.005306  0.005436  0.749489  1
  Zn  Zn30  1  0.500000  0.500000  0.000000  1
  Os  Os31  1  0.500000  0.000000  0.000000  1
  Os  Os32  1  0.000000  0.500000  0.000000  1
  Os  Os33  1  0.500000  0.000000  0.500000  1
  Os  Os34  1  0.000000  0.500000  0.500000  1
  Os  Os35  1  0.500000  0.500000  0.500000  1
  Os  Os36  1  0.000000  0.000000  0.000000  1
  Os  Os37  1  0.000000  0.000000  0.500000  1
