# generated using pymatgen
data_Nd2Ga5Cu2Ag
_symmetry_space_group_name_H-M   'P 1'
_cell_length_a   4.28947300
_cell_length_b   4.28947300
_cell_length_c   10.43113900
_cell_angle_alpha   90.00000000
_cell_angle_beta   90.00000000
_cell_angle_gamma   90.00000000
_symmetry_Int_Tables_number   1
_chemical_formula_structural   Nd2Ga5Cu2Ag
_chemical_formula_sum   'Nd2 Ga5 Cu2 Ag1'
_cell_volume   191.92856210
_cell_formula_units_Z   1
loop_
 _symmetry_equiv_pos_site_id
 _symmetry_equiv_pos_as_xyz
  1  'x, y, z'
loop_
 _atom_site_type_symbol
 _atom_site_label
 _atom_site_symmetry_multiplicity
 _atom_site_fract_x
 _atom_site_fract_y
 _atom_site_fract_z
 _atom_site_occupancy
  Nd  Nd0  1  0.500000  0.000000  0.736252  1
  Nd  Nd1  1  0.000000  0.500000  0.263748  1
  Ga  Ga2  1  0.000000  0.500000  0.852495  1
  Ga  Ga3  1  0.500000  0.000000  0.384956  1
  Ga  Ga4  1  0.500000  0.000000  0.147505  1
  Ga  Ga5  1  0.000000  0.500000  0.615044  1
  Ga  Ga6  1  0.500000  0.500000  0.000000  1
  Cu  Cu7  1  0.000000  0.000000  0.500000  1
  Cu  Cu8  1  0.500000  0.500000  0.500000  1
  Ag  Ag9  1  0.000000  0.000000  0.000000  1
