# generated using pymatgen
data_Pr19ThRh16
_symmetry_space_group_name_H-M   'P 1'
_cell_length_a   7.66098245
_cell_length_b   7.77631415
_cell_length_c   15.06393502
_cell_angle_alpha   90.12694604
_cell_angle_beta   90.40368729
_cell_angle_gamma   90.18582937
_symmetry_Int_Tables_number   1
_chemical_formula_structural   Pr19ThRh16
_chemical_formula_sum   'Pr19 Th1 Rh16'
_cell_volume   897.39272895
_cell_formula_units_Z   1
loop_
 _symmetry_equiv_pos_site_id
 _symmetry_equiv_pos_as_xyz
  1  'x, y, z'
loop_
 _atom_site_type_symbol
 _atom_site_label
 _atom_site_symmetry_multiplicity
 _atom_site_fract_x
 _atom_site_fract_y
 _atom_site_fract_z
 _atom_site_occupancy
  Pr  Pr0  1  0.166121  0.332336  0.878248  1
  Pr  Pr1  1  0.334645  0.831648  0.121604  1
  Pr  Pr2  1  0.835437  0.668826  0.379229  1
  Pr  Pr3  1  0.335116  0.835008  0.379966  1
  Pr  Pr4  1  0.833556  0.668766  0.121727  1
  Pr  Pr5  1  0.665738  0.165625  0.878298  1
  Pr  Pr6  1  0.163117  0.333743  0.620089  1
  Pr  Pr7  1  0.513340  0.678960  0.594735  1
  Pr  Pr8  1  0.018671  0.815860  0.907494  1
  Pr  Pr9  1  0.483714  0.318480  0.094081  1
  Pr  Pr10  1  0.986445  0.182920  0.405427  1
  Pr  Pr11  1  0.487633  0.322590  0.405568  1
  Pr  Pr12  1  0.984369  0.180854  0.094539  1
  Pr  Pr13  1  0.516941  0.683261  0.905711  1
  Pr  Pr14  1  0.015154  0.819115  0.593368  1
  Pr  Pr15  1  0.828919  0.513288  0.751155  1
  Pr  Pr16  1  0.319193  0.988932  0.750791  1
  Pr  Pr17  1  0.173065  0.491274  0.250659  1
  Pr  Pr18  1  0.673468  0.010162  0.250618  1
  Th  Th19  1  0.663151  0.164147  0.622305  1
  Rh  Rh20  1  0.685062  0.973931  0.466874  1
  Rh  Rh21  1  0.172818  0.530979  0.041329  1
  Rh  Rh22  1  0.324505  0.030948  0.958675  1
  Rh  Rh23  1  0.812759  0.454198  0.539983  1
  Rh  Rh24  1  0.339391  0.034984  0.545366  1
  Rh  Rh25  1  0.826514  0.471333  0.957293  1
  Rh  Rh26  1  0.673625  0.970292  0.042701  1
  Rh  Rh27  1  0.168996  0.531874  0.457495  1
  Rh  Rh28  1  0.466216  0.385367  0.744966  1
  Rh  Rh29  1  0.949575  0.109110  0.742963  1
  Rh  Rh30  1  0.540404  0.602135  0.250980  1
  Rh  Rh31  1  0.041190  0.900486  0.250543  1
  Rh  Rh32  1  0.693207  0.860588  0.746007  1
  Rh  Rh33  1  0.209583  0.636484  0.749966  1
  Rh  Rh34  1  0.300799  0.145071  0.249795  1
  Rh  Rh35  1  0.797564  0.356423  0.249452  1
