# generated using pymatgen
data_Dy2YEr(WO6)2
_symmetry_space_group_name_H-M   'P 1'
_cell_length_a   5.39675800
_cell_length_b   7.70898139
_cell_length_c   11.45918774
_cell_angle_alpha   75.50128433
_cell_angle_beta   90.00000000
_cell_angle_gamma   90.00000000
_symmetry_Int_Tables_number   1
_chemical_formula_structural   Dy2YEr(WO6)2
_chemical_formula_sum   'Dy4 Y2 Er2 W4 O24'
_cell_volume   461.55970233
_cell_formula_units_Z   2
loop_
 _symmetry_equiv_pos_site_id
 _symmetry_equiv_pos_as_xyz
  1  'x, y, z'
loop_
 _atom_site_type_symbol
 _atom_site_label
 _atom_site_symmetry_multiplicity
 _atom_site_fract_x
 _atom_site_fract_y
 _atom_site_fract_z
 _atom_site_occupancy
  Dy  Dy0  1  0.183828  0.205511  0.422345  1
  Dy  Dy1  1  0.183828  0.794489  0.077655  1
  Dy  Dy2  1  0.740841  0.000000  0.250000  1
  Dy  Dy3  1  0.259380  0.000000  0.750000  1
  Y  Y4  1  0.684124  0.500000  0.250000  1
  Y  Y5  1  0.316433  0.500000  0.750000  1
  Er  Er6  1  0.816038  0.793588  0.578178  1
  Er  Er7  1  0.816038  0.206412  0.921822  1
  W  W8  1  0.255923  0.275925  0.114416  1
  W  W9  1  0.255923  0.724075  0.385584  1
  W  W10  1  0.744554  0.723908  0.884622  1
  W  W11  1  0.744554  0.276092  0.615378  1
  O  O12  1  0.457743  0.208419  0.272583  1
  O  O13  1  0.457743  0.791581  0.227417  1
  O  O14  1  0.543630  0.791236  0.726165  1
  O  O15  1  0.543630  0.208764  0.773835  1
  O  O16  1  0.044103  0.061018  0.103737  1
  O  O17  1  0.044103  0.938982  0.396263  1
  O  O18  1  0.953700  0.940815  0.895708  1
  O  O19  1  0.953700  0.059185  0.604292  1
  O  O20  1  0.981137  0.288868  0.228508  1
  O  O21  1  0.981137  0.711132  0.271492  1
  O  O22  1  0.019198  0.711849  0.770764  1
  O  O23  1  0.019198  0.288151  0.729236  1
  O  O24  1  0.848173  0.365021  0.452196  1
  O  O25  1  0.848173  0.634979  0.047804  1
  O  O26  1  0.149633  0.635460  0.548441  1
  O  O27  1  0.149633  0.364540  0.951559  1
  O  O28  1  0.641105  0.510362  0.614643  1
  O  O29  1  0.641105  0.489638  0.885357  1
  O  O30  1  0.360006  0.490595  0.385726  1
  O  O31  1  0.360006  0.509405  0.114274  1
  O  O32  1  0.465451  0.153952  0.570020  1
  O  O33  1  0.465451  0.846048  0.929980  1
  O  O34  1  0.535389  0.845856  0.431836  1
  O  O35  1  0.535389  0.154144  0.068164  1
