# generated using pymatgen
data_CsSn3RhO8
_symmetry_space_group_name_H-M   'P 1'
_cell_length_a   3.26742210
_cell_length_b   10.62604930
_cell_length_c   10.70885508
_cell_angle_alpha   88.49728344
_cell_angle_beta   90.00022053
_cell_angle_gamma   89.99944149
_symmetry_Int_Tables_number   1
_chemical_formula_structural   CsSn3RhO8
_chemical_formula_sum   'Cs2 Sn6 Rh2 O16'
_cell_volume   371.68131002
_cell_formula_units_Z   2
loop_
 _symmetry_equiv_pos_site_id
 _symmetry_equiv_pos_as_xyz
  1  'x, y, z'
loop_
 _atom_site_type_symbol
 _atom_site_label
 _atom_site_symmetry_multiplicity
 _atom_site_fract_x
 _atom_site_fract_y
 _atom_site_fract_z
 _atom_site_occupancy
  Cs  Cs0  1  0.506749  0.992998  0.002820  1
  Cs  Cs1  1  0.993341  0.492987  0.502818  1
  Sn  Sn2  1  0.496360  0.329235  0.845072  1
  Sn  Sn3  1  0.003615  0.829195  0.345060  1
  Sn  Sn4  1  0.004422  0.651711  0.843040  1
  Sn  Sn5  1  0.495607  0.151688  0.343055  1
  Sn  Sn6  1  0.998512  0.357465  0.162801  1
  Sn  Sn7  1  0.501441  0.857489  0.662793  1
  Rh  Rh8  1  0.995415  0.167630  0.653968  1
  Rh  Rh9  1  0.504582  0.667611  0.153948  1
  O  O10  1  0.504672  0.663582  0.961105  1
  O  O11  1  0.995363  0.163573  0.461121  1
  O  O12  1  0.498433  0.333541  0.039428  1
  O  O13  1  0.001531  0.833558  0.539418  1
  O  O14  1  0.997770  0.456705  0.829744  1
  O  O15  1  0.502234  0.956679  0.329737  1
  O  O16  1  0.003472  0.547778  0.159976  1
  O  O17  1  0.496519  0.047800  0.660003  1
  O  O18  1  0.995812  0.198728  0.845055  1
  O  O19  1  0.504167  0.698692  0.345040  1
  O  O20  1  0.005184  0.791127  0.153749  1
  O  O21  1  0.494811  0.291144  0.653764  1
  O  O22  1  0.497914  0.349253  0.293425  1
  O  O23  1  0.002058  0.849270  0.793419  1
  O  O24  1  0.503161  0.660289  0.709812  1
  O  O25  1  0.996854  0.160269  0.209829  1
