# generated using pymatgen
data_Dy8TiV6Si16W5
_symmetry_space_group_name_H-M   'P 1'
_cell_length_a   6.86274621
_cell_length_b   6.85990882
_cell_length_c   12.75526718
_cell_angle_alpha   90.13848176
_cell_angle_beta   90.08827155
_cell_angle_gamma   89.99242159
_symmetry_Int_Tables_number   1
_chemical_formula_structural   Dy8TiV6Si16W5
_chemical_formula_sum   'Dy8 Ti1 V6 Si16 W5'
_cell_volume   600.48761476
_cell_formula_units_Z   1
loop_
 _symmetry_equiv_pos_site_id
 _symmetry_equiv_pos_as_xyz
  1  'x, y, z'
loop_
 _atom_site_type_symbol
 _atom_site_label
 _atom_site_symmetry_multiplicity
 _atom_site_fract_x
 _atom_site_fract_y
 _atom_site_fract_z
 _atom_site_occupancy
  Dy  Dy0  1  0.999288  0.663040  0.030973  1
  Dy  Dy1  1  0.001730  0.337075  0.529757  1
  Dy  Dy2  1  0.662038  0.999534  0.969904  1
  Dy  Dy3  1  0.161639  0.499471  0.780530  1
  Dy  Dy4  1  0.838306  0.499133  0.280679  1
  Dy  Dy5  1  0.500082  0.162612  0.220240  1
  Dy  Dy6  1  0.499986  0.838501  0.718813  1
  Dy  Dy7  1  0.337528  0.000540  0.469328  1
  Ti  Ti8  1  0.658791  0.493019  0.874645  1
  V  V9  1  0.839934  0.992558  0.375916  1
  V  V10  1  0.008624  0.158124  0.125321  1
  V  V11  1  0.994332  0.841392  0.623806  1
  V  V12  1  0.507445  0.340605  0.625212  1
  V  V13  1  0.159721  0.007763  0.875379  1
  V  V14  1  0.491772  0.659116  0.126045  1
  Si  Si15  1  0.038995  0.714026  0.436394  1
  Si  Si16  1  0.961615  0.286922  0.936735  1
  Si  Si17  1  0.712435  0.040522  0.564656  1
  Si  Si18  1  0.209935  0.457871  0.183896  1
  Si  Si19  1  0.789266  0.542674  0.683598  1
  Si  Si20  1  0.455425  0.207707  0.813883  1
  Si  Si21  1  0.542972  0.791258  0.313178  1
  Si  Si22  1  0.288694  0.959589  0.064040  1
  Si  Si23  1  0.799408  0.877093  0.184616  1
  Si  Si24  1  0.297915  0.623865  0.567756  1
  Si  Si25  1  0.701472  0.375614  0.067651  1
  Si  Si26  1  0.627406  0.296496  0.434922  1
  Si  Si27  1  0.372136  0.704765  0.935114  1
  Si  Si28  1  0.121217  0.198718  0.315295  1
  Si  Si29  1  0.200529  0.123722  0.683880  1
  Si  Si30  1  0.877686  0.802439  0.814357  1
  W  W31  1  0.340276  0.504749  0.374818  1
  W  W32  1  0.669316  0.668720  0.499633  1
  W  W33  1  0.831840  0.169525  0.749715  1
  W  W34  1  0.169225  0.831318  0.249300  1
  W  W35  1  0.331019  0.329923  0.000013  1
