# generated using pymatgen
data_La16In4TcRh3
_symmetry_space_group_name_H-M   'P 1'
_cell_length_a   10.07712763
_cell_length_b   10.14520597
_cell_length_c   10.07712900
_cell_angle_alpha   60.22173623
_cell_angle_beta   60.00000536
_cell_angle_gamma   60.22173634
_symmetry_Int_Tables_number   1
_chemical_formula_structural   La16In4TcRh3
_chemical_formula_sum   'La16 In4 Tc1 Rh3'
_cell_volume   730.91507750
_cell_formula_units_Z   1
loop_
 _symmetry_equiv_pos_site_id
 _symmetry_equiv_pos_as_xyz
  1  'x, y, z'
loop_
 _atom_site_type_symbol
 _atom_site_label
 _atom_site_symmetry_multiplicity
 _atom_site_fract_x
 _atom_site_fract_y
 _atom_site_fract_z
 _atom_site_occupancy
  La  La0  1  0.188091  0.189713  0.811098  1
  La  La1  1  0.596700  0.596538  0.210060  1
  La  La2  1  0.439833  0.057020  0.439833  1
  La  La3  1  0.441521  0.444113  0.057184  1
  La  La4  1  0.811098  0.189713  0.811098  1
  La  La5  1  0.190855  0.815205  0.190855  1
  La  La6  1  0.439833  0.057020  0.063314  1
  La  La7  1  0.190855  0.815205  0.803085  1
  La  La8  1  0.057184  0.444113  0.057184  1
  La  La9  1  0.803085  0.815205  0.190855  1
  La  La10  1  0.210060  0.596538  0.596700  1
  La  La11  1  0.057184  0.444113  0.441521  1
  La  La12  1  0.063314  0.057020  0.439833  1
  La  La13  1  0.811098  0.189713  0.188091  1
  La  La14  1  0.598567  0.204297  0.598567  1
  La  La15  1  0.596700  0.596538  0.596700  1
  In  In16  1  0.829787  0.828813  0.829787  1
  In  In17  1  0.829787  0.828813  0.511616  1
  In  In18  1  0.511616  0.828813  0.829787  1
  In  In19  1  0.829664  0.511009  0.829664  1
  Tc  Tc20  1  0.388330  0.835010  0.388330  1
  Rh  Rh21  1  0.391795  0.385161  0.391795  1
  Rh  Rh22  1  0.831249  0.385161  0.391795  1
  Rh  Rh23  1  0.391795  0.385161  0.831249  1
