# generated using pymatgen
data_U4Re7Si5P
_symmetry_space_group_name_H-M   'P 1'
_cell_length_a   7.13305146
_cell_length_b   7.13305262
_cell_length_c   7.13305186
_cell_angle_alpha   109.49248848
_cell_angle_beta   109.42869014
_cell_angle_gamma   109.49249423
_symmetry_Int_Tables_number   1
_chemical_formula_structural   U4Re7Si5P
_chemical_formula_sum   'U4 Re7 Si5 P1'
_cell_volume   279.38564140
_cell_formula_units_Z   1
loop_
 _symmetry_equiv_pos_site_id
 _symmetry_equiv_pos_as_xyz
  1  'x, y, z'
loop_
 _atom_site_type_symbol
 _atom_site_label
 _atom_site_symmetry_multiplicity
 _atom_site_fract_x
 _atom_site_fract_y
 _atom_site_fract_z
 _atom_site_occupancy
  U  U0  1  0.504186  0.504546  0.504186  1
  U  U1  1  0.999640  0.495454  0.999640  1
  U  U2  1  0.504186  0.000000  0.999640  1
  U  U3  1  0.999640  0.000000  0.504186  1
  Re  Re4  1  0.499679  0.751163  0.250843  1
  Re  Re5  1  0.748516  0.248837  0.499679  1
  Re  Re6  1  0.250843  0.751163  0.499679  1
  Re  Re7  1  0.251536  0.500000  0.751536  1
  Re  Re8  1  0.991864  0.000000  0.991864  1
  Re  Re9  1  0.499679  0.248837  0.748516  1
  Re  Re10  1  0.751536  0.500000  0.251536  1
  Si  Si11  1  0.691531  0.689193  0.002338  1
  Si  Si12  1  0.313145  0.310807  0.002338  1
  Si  Si13  1  0.002338  0.689193  0.691531  1
  Si  Si14  1  0.002338  0.310807  0.313145  1
  Si  Si15  1  0.303014  0.000000  0.303014  1
  P  P16  1  0.686327  0.000000  0.686327  1
