# generated using pymatgen
data_Ho4VRe2Os5
_symmetry_space_group_name_H-M   'P 1'
_cell_length_a   5.30145446
_cell_length_b   5.17700860
_cell_length_c   8.94430400
_cell_angle_alpha   90.00000000
_cell_angle_beta   90.00000000
_cell_angle_gamma   117.42851531
_symmetry_Int_Tables_number   1
_chemical_formula_structural   Ho4VRe2Os5
_chemical_formula_sum   'Ho4 V1 Re2 Os5'
_cell_volume   217.88685682
_cell_formula_units_Z   1
loop_
 _symmetry_equiv_pos_site_id
 _symmetry_equiv_pos_as_xyz
  1  'x, y, z'
loop_
 _atom_site_type_symbol
 _atom_site_label
 _atom_site_symmetry_multiplicity
 _atom_site_fract_x
 _atom_site_fract_y
 _atom_site_fract_z
 _atom_site_occupancy
  Ho  Ho0  1  0.330095  0.667651  0.435738  1
  Ho  Ho1  1  0.672419  0.334140  0.563693  1
  Ho  Ho2  1  0.672419  0.334140  0.936307  1
  Ho  Ho3  1  0.330095  0.667651  0.064262  1
  V  V4  1  0.833098  0.165840  0.250000  1
  Re  Re5  1  0.162332  0.832796  0.750000  1
  Re  Re6  1  0.168596  0.340058  0.750000  1
  Os  Os7  1  0.005146  0.006221  0.495882  1
  Os  Os8  1  0.005146  0.006221  0.004118  1
  Os  Os9  1  0.825036  0.649217  0.250000  1
  Os  Os10  1  0.347185  0.173414  0.250000  1
  Os  Os11  1  0.648435  0.822653  0.750000  1
