# generated using pymatgen
data_Li3Ac4TmPt4
_symmetry_space_group_name_H-M   'P 1'
_cell_length_a   4.29458400
_cell_length_b   7.59901444
_cell_length_c   9.09058800
_cell_angle_alpha   89.19745737
_cell_angle_beta   90.00000000
_cell_angle_gamma   90.00000000
_symmetry_Int_Tables_number   1
_chemical_formula_structural   Li3Ac4TmPt4
_chemical_formula_sum   'Li3 Ac4 Tm1 Pt4'
_cell_volume   296.63865394
_cell_formula_units_Z   1
loop_
 _symmetry_equiv_pos_site_id
 _symmetry_equiv_pos_as_xyz
  1  'x, y, z'
loop_
 _atom_site_type_symbol
 _atom_site_label
 _atom_site_symmetry_multiplicity
 _atom_site_fract_x
 _atom_site_fract_y
 _atom_site_fract_z
 _atom_site_occupancy
  Li  Li0  1  0.250000  0.143756  0.065351  1
  Li  Li1  1  0.750000  0.378038  0.549109  1
  Li  Li2  1  0.250000  0.626647  0.448228  1
  Ac  Ac3  1  0.250000  0.520714  0.803072  1
  Ac  Ac4  1  0.250000  0.050270  0.668131  1
  Ac  Ac5  1  0.750000  0.958906  0.321220  1
  Ac  Ac6  1  0.750000  0.456700  0.193274  1
  Tm  Tm7  1  0.750000  0.874430  0.943004  1
  Pt  Pt8  1  0.250000  0.745419  0.111098  1
  Pt  Pt9  1  0.250000  0.256864  0.382031  1
  Pt  Pt10  1  0.750000  0.751730  0.631204  1
  Pt  Pt11  1  0.750000  0.236526  0.884280  1
