# generated using pymatgen
data_Sm2Ti3As7Rh9
_symmetry_space_group_name_H-M   'P 1'
_cell_length_a   3.94974400
_cell_length_b   10.01913857
_cell_length_c   10.02651321
_cell_angle_alpha   119.96069544
_cell_angle_beta   90.00143058
_cell_angle_gamma   90.00026411
_symmetry_Int_Tables_number   1
_chemical_formula_structural   Sm2Ti3As7Rh9
_chemical_formula_sum   'Sm2 Ti3 As7 Rh9'
_cell_volume   343.75716795
_cell_formula_units_Z   1
loop_
 _symmetry_equiv_pos_site_id
 _symmetry_equiv_pos_as_xyz
  1  'x, y, z'
loop_
 _atom_site_type_symbol
 _atom_site_label
 _atom_site_symmetry_multiplicity
 _atom_site_fract_x
 _atom_site_fract_y
 _atom_site_fract_z
 _atom_site_occupancy
  Sm  Sm0  1  0.261926  0.666651  0.333340  1
  Sm  Sm1  1  0.761913  0.333349  0.666593  1
  Ti  Ti2  1  0.761937  0.101850  0.881736  1
  Ti  Ti3  1  0.761927  0.118529  0.220161  1
  Ti  Ti4  1  0.761947  0.779839  0.898306  1
  As  As5  1  0.262055  0.000107  0.000203  1
  As  As6  1  0.761916  0.879718  0.589449  1
  As  As7  1  0.761891  0.410223  0.290199  1
  As  As8  1  0.761918  0.709718  0.120405  1
  As  As9  1  0.261867  0.117131  0.415236  1
  As  As10  1  0.261884  0.584592  0.701692  1
  As  As11  1  0.261846  0.298360  0.882851  1
  Rh  Rh12  1  0.261886  0.882796  0.158895  1
  Rh  Rh13  1  0.261917  0.841110  0.724026  1
  Rh  Rh14  1  0.261891  0.275946  0.116991  1
  Rh  Rh15  1  0.761885  0.613308  0.563387  1
  Rh  Rh16  1  0.761852  0.436621  0.049855  1
  Rh  Rh17  1  0.761852  0.950116  0.386678  1
  Rh  Rh18  1  0.261905  0.368458  0.434487  1
  Rh  Rh19  1  0.261894  0.565570  0.933942  1
  Rh  Rh20  1  0.261893  0.066005  0.631569  1
