# generated using pymatgen
data_Tm10Sn6PCl
_symmetry_space_group_name_H-M   'P 1'
_cell_length_a   8.95393500
_cell_length_b   8.95393547
_cell_length_c   6.56796800
_cell_angle_alpha   90.00000000
_cell_angle_beta   90.00000000
_cell_angle_gamma   119.99999459
_symmetry_Int_Tables_number   1
_chemical_formula_structural   Tm10Sn6PCl
_chemical_formula_sum   'Tm10 Sn6 P1 Cl1'
_cell_volume   456.02597531
_cell_formula_units_Z   1
loop_
 _symmetry_equiv_pos_site_id
 _symmetry_equiv_pos_as_xyz
  1  'x, y, z'
loop_
 _atom_site_type_symbol
 _atom_site_label
 _atom_site_symmetry_multiplicity
 _atom_site_fract_x
 _atom_site_fract_y
 _atom_site_fract_z
 _atom_site_occupancy
  Tm  Tm0  1  0.666667  0.333333  0.000000  1
  Tm  Tm1  1  0.333333  0.666667  0.000000  1
  Tm  Tm2  1  0.333333  0.666667  0.500000  1
  Tm  Tm3  1  0.666667  0.333333  0.500000  1
  Tm  Tm4  1  0.750778  0.750778  0.738348  1
  Tm  Tm5  1  0.249222  0.000000  0.738348  1
  Tm  Tm6  1  0.000000  0.249222  0.738348  1
  Tm  Tm7  1  0.249222  0.249222  0.261652  1
  Tm  Tm8  1  0.750778  0.000000  0.261652  1
  Tm  Tm9  1  0.000000  0.750778  0.261652  1
  Sn  Sn10  1  0.396303  0.396303  0.750159  1
  Sn  Sn11  1  0.603697  0.000000  0.750159  1
  Sn  Sn12  1  0.000000  0.603697  0.750159  1
  Sn  Sn13  1  0.603697  0.603697  0.249841  1
  Sn  Sn14  1  0.396303  0.000000  0.249841  1
  Sn  Sn15  1  0.000000  0.396303  0.249841  1
  P  P16  1  0.000000  0.000000  0.500000  1
  Cl  Cl17  1  0.000000  0.000000  0.000000  1
