# generated using pymatgen
data_K2Ni2(SeO3)3
_symmetry_space_group_name_H-M   'P 1'
_cell_length_a   5.52761500
_cell_length_b   5.52761574
_cell_length_c   17.81240500
_cell_angle_alpha   90.00000000
_cell_angle_beta   90.00000000
_cell_angle_gamma   120.00001353
_symmetry_Int_Tables_number   1
_chemical_formula_structural   K2Ni2(SeO3)3
_chemical_formula_sum   'K4 Ni4 Se6 O18'
_cell_volume   471.33399569
_cell_formula_units_Z   2
loop_
 _symmetry_equiv_pos_site_id
 _symmetry_equiv_pos_as_xyz
  1  'x, y, z'
loop_
 _atom_site_type_symbol
 _atom_site_label
 _atom_site_symmetry_multiplicity
 _atom_site_fract_x
 _atom_site_fract_y
 _atom_site_fract_z
 _atom_site_occupancy
  K  K0  1  0.666667  0.333333  0.530398  1
  K  K1  1  0.333333  0.666667  0.457772  1
  K  K2  1  0.333333  0.666667  0.030398  1
  K  K3  1  0.666667  0.333333  0.957772  1
  Ni  Ni4  1  0.666667  0.333333  0.168802  1
  Ni  Ni5  1  0.333333  0.666667  0.836139  1
  Ni  Ni6  1  0.333333  0.666667  0.668802  1
  Ni  Ni7  1  0.666667  0.333333  0.336139  1
  Se  Se8  1  0.000000  0.000000  0.640178  1
  Se  Se9  1  0.000000  0.000000  0.358529  1
  Se  Se10  1  0.000000  0.000000  0.140178  1
  Se  Se11  1  0.000000  0.000000  0.858529  1
  Se  Se12  1  0.666667  0.333333  0.714484  1
  Se  Se13  1  0.333333  0.666667  0.214484  1
  O  O14  1  0.837588  0.162412  0.097075  1
  O  O15  1  0.324824  0.162412  0.097075  1
  O  O16  1  0.837588  0.675176  0.097075  1
  O  O17  1  0.160856  0.839144  0.903458  1
  O  O18  1  0.678288  0.839144  0.903458  1
  O  O19  1  0.160856  0.321712  0.903458  1
  O  O20  1  0.162412  0.837588  0.597075  1
  O  O21  1  0.675176  0.837588  0.597075  1
  O  O22  1  0.162412  0.324824  0.597075  1
  O  O23  1  0.839144  0.160856  0.403458  1
  O  O24  1  0.321712  0.160856  0.403458  1
  O  O25  1  0.839144  0.678288  0.403458  1
  O  O26  1  0.499846  0.500154  0.752402  1
  O  O27  1  0.000308  0.500154  0.752402  1
  O  O28  1  0.499846  0.999692  0.752402  1
  O  O29  1  0.500154  0.499846  0.252402  1
  O  O30  1  0.999692  0.499846  0.252402  1
  O  O31  1  0.500154  0.000308  0.252402  1
