# generated using pymatgen
data_LuTa5MnB4Ru9
_symmetry_space_group_name_H-M   'P 1'
_cell_length_a   9.40596736
_cell_length_b   9.40596696
_cell_length_c   3.06320500
_cell_angle_alpha   90.00000000
_cell_angle_beta   90.00000000
_cell_angle_gamma   90.24611262
_symmetry_Int_Tables_number   1
_chemical_formula_structural   LuTa5MnB4Ru9
_chemical_formula_sum   'Lu1 Ta5 Mn1 B4 Ru9'
_cell_volume   271.00604094
_cell_formula_units_Z   1
loop_
 _symmetry_equiv_pos_site_id
 _symmetry_equiv_pos_as_xyz
  1  'x, y, z'
loop_
 _atom_site_type_symbol
 _atom_site_label
 _atom_site_symmetry_multiplicity
 _atom_site_fract_x
 _atom_site_fract_y
 _atom_site_fract_z
 _atom_site_occupancy
  Lu  Lu0  1  0.822822  0.677178  0.000000  1
  Ta  Ta1  1  0.178911  0.321089  0.000000  1
  Ta  Ta2  1  0.331048  0.831428  0.000000  1
  Ta  Ta3  1  0.668572  0.168952  0.000000  1
  Ta  Ta4  1  0.501753  0.500941  0.000000  1
  Ta  Ta5  1  0.999059  0.998247  0.000000  1
  Mn  Mn6  1  0.496782  0.003218  0.500000  1
  B  B7  1  0.610950  0.889050  0.000000  1
  B  B8  1  0.386355  0.113645  0.000000  1
  B  B9  1  0.123511  0.620926  0.000000  1
  B  B10  1  0.879074  0.376489  0.000000  1
  Ru  Ru11  1  0.558455  0.726722  0.500000  1
  Ru  Ru12  1  0.428917  0.279593  0.500000  1
  Ru  Ru13  1  0.081297  0.783675  0.500000  1
  Ru  Ru14  1  0.930198  0.215361  0.500000  1
  Ru  Ru15  1  0.284639  0.569802  0.500000  1
  Ru  Ru16  1  0.716325  0.418703  0.500000  1
  Ru  Ru17  1  0.220407  0.071083  0.500000  1
  Ru  Ru18  1  0.773278  0.941545  0.500000  1
  Ru  Ru19  1  0.007652  0.492348  0.500000  1
