# generated using pymatgen
data_Lu8Ta11Si16Rh
_symmetry_space_group_name_H-M   'P 1'
_cell_length_a   6.80069458
_cell_length_b   6.98416938
_cell_length_c   13.21201917
_cell_angle_alpha   90.02991773
_cell_angle_beta   90.02718112
_cell_angle_gamma   90.01640768
_symmetry_Int_Tables_number   1
_chemical_formula_structural   Lu8Ta11Si16Rh
_chemical_formula_sum   'Lu8 Ta11 Si16 Rh1'
_cell_volume   627.53377256
_cell_formula_units_Z   1
loop_
 _symmetry_equiv_pos_site_id
 _symmetry_equiv_pos_as_xyz
  1  'x, y, z'
loop_
 _atom_site_type_symbol
 _atom_site_label
 _atom_site_symmetry_multiplicity
 _atom_site_fract_x
 _atom_site_fract_y
 _atom_site_fract_z
 _atom_site_occupancy
  Lu  Lu0  1  0.502499  0.329140  0.094732  1
  Lu  Lu1  1  0.999042  0.173910  0.404122  1
  Lu  Lu2  1  0.498188  0.674735  0.595024  1
  Lu  Lu3  1  0.000674  0.832081  0.905951  1
  Lu  Lu4  1  0.498142  0.670985  0.905634  1
  Lu  Lu5  1  0.996954  0.825601  0.595665  1
  Lu  Lu6  1  0.504185  0.328720  0.404155  1
  Lu  Lu7  1  0.002187  0.172933  0.096056  1
  Ta  Ta8  1  0.835912  0.332327  0.625064  1
  Ta  Ta9  1  0.337304  0.172871  0.871901  1
  Ta  Ta10  1  0.163720  0.674061  0.125603  1
  Ta  Ta11  1  0.661238  0.831062  0.376781  1
  Ta  Ta12  1  0.169177  0.671301  0.378068  1
  Ta  Ta13  1  0.664117  0.827085  0.125541  1
  Ta  Ta14  1  0.834914  0.324150  0.873829  1
  Ta  Ta15  1  0.665809  0.009389  0.749891  1
  Ta  Ta16  1  0.158946  0.494251  0.749742  1
  Ta  Ta17  1  0.339065  0.993985  0.251192  1
  Ta  Ta18  1  0.839849  0.507868  0.250378  1
  Si  Si19  1  0.663425  0.039378  0.542898  1
  Si  Si20  1  0.163872  0.464461  0.958767  1
  Si  Si21  1  0.334249  0.965279  0.041393  1
  Si  Si22  1  0.835863  0.538870  0.459239  1
  Si  Si23  1  0.333963  0.965244  0.458926  1
  Si  Si24  1  0.835521  0.534611  0.040579  1
  Si  Si25  1  0.664249  0.034537  0.959315  1
  Si  Si26  1  0.165404  0.454661  0.544850  1
  Si  Si27  1  0.532049  0.377393  0.744984  1
  Si  Si28  1  0.043442  0.123371  0.747482  1
  Si  Si29  1  0.462594  0.618313  0.250681  1
  Si  Si30  1  0.960654  0.880228  0.251664  1
  Si  Si31  1  0.793914  0.634756  0.751464  1
  Si  Si32  1  0.297447  0.866937  0.751323  1
  Si  Si33  1  0.206290  0.367627  0.250216  1
  Si  Si34  1  0.705569  0.134261  0.249380  1
  Rh  Rh35  1  0.329572  0.153615  0.617504  1
