# generated using pymatgen
data_Cs12Cr3HgSe12
_symmetry_space_group_name_H-M   'P 1'
_cell_length_a   11.25909478
_cell_length_b   11.25909534
_cell_length_c   14.17866500
_cell_angle_alpha   89.83483625
_cell_angle_beta   89.83483624
_cell_angle_gamma   140.40126410
_symmetry_Int_Tables_number   1
_chemical_formula_structural   Cs12Cr3HgSe12
_chemical_formula_sum   'Cs12 Cr3 Hg1 Se12'
_cell_volume   1145.62744092
_cell_formula_units_Z   1
loop_
 _symmetry_equiv_pos_site_id
 _symmetry_equiv_pos_as_xyz
  1  'x, y, z'
loop_
 _atom_site_type_symbol
 _atom_site_label
 _atom_site_symmetry_multiplicity
 _atom_site_fract_x
 _atom_site_fract_y
 _atom_site_fract_z
 _atom_site_occupancy
  Cs  Cs0  1  0.864114  0.855687  0.671277  1
  Cs  Cs1  1  0.144313  0.135886  0.328723  1
  Cs  Cs2  1  0.635464  0.636001  0.174162  1
  Cs  Cs3  1  0.363999  0.364536  0.825838  1
  Cs  Cs4  1  0.157704  0.517230  0.124307  1
  Cs  Cs5  1  0.482770  0.842296  0.875693  1
  Cs  Cs6  1  0.970248  0.325022  0.634972  1
  Cs  Cs7  1  0.674978  0.029752  0.365028  1
  Cs  Cs8  1  0.838141  0.482826  0.875566  1
  Cs  Cs9  1  0.517174  0.161859  0.124434  1
  Cs  Cs10  1  0.015988  0.655409  0.371995  1
  Cs  Cs11  1  0.344591  0.984012  0.628005  1
  Cr  Cr12  1  0.923662  0.076338  0.000000  1
  Cr  Cr13  1  0.418548  0.581452  0.500000  1
  Cr  Cr14  1  0.074944  0.925056  0.000000  1
  Hg  Hg15  1  0.587601  0.412399  0.500000  1
  Se  Se16  1  0.281053  0.309272  0.573344  1
  Se  Se17  1  0.690728  0.718947  0.426656  1
  Se  Se18  1  0.198608  0.200242  0.072947  1
  Se  Se19  1  0.799758  0.801392  0.927053  1
  Se  Se20  1  0.706888  0.999804  0.109525  1
  Se  Se21  1  0.000196  0.293112  0.890475  1
  Se  Se22  1  0.494431  0.782439  0.612599  1
  Se  Se23  1  0.217561  0.505569  0.387401  1
  Se  Se24  1  0.287790  0.998805  0.888821  1
  Se  Se25  1  0.001195  0.712210  0.111179  1
  Se  Se26  1  0.477515  0.169960  0.374256  1
  Se  Se27  1  0.830040  0.522485  0.625744  1
