# generated using pymatgen
data_K8Tb2GdDyF20
_symmetry_space_group_name_H-M   'P 1'
_cell_length_a   6.72575584
_cell_length_b   7.35955500
_cell_length_c   11.05112469
_cell_angle_alpha   90.00000000
_cell_angle_beta   90.06251910
_cell_angle_gamma   90.00000000
_symmetry_Int_Tables_number   1
_chemical_formula_structural   K8Tb2GdDyF20
_chemical_formula_sum   'K8 Tb2 Gd1 Dy1 F20'
_cell_volume   547.01454307
_cell_formula_units_Z   1
loop_
 _symmetry_equiv_pos_site_id
 _symmetry_equiv_pos_as_xyz
  1  'x, y, z'
loop_
 _atom_site_type_symbol
 _atom_site_label
 _atom_site_symmetry_multiplicity
 _atom_site_fract_x
 _atom_site_fract_y
 _atom_site_fract_z
 _atom_site_occupancy
  K  K0  1  0.528295  0.498206  0.828325  1
  K  K1  1  0.472088  0.502810  0.171657  1
  K  K2  1  0.027884  0.502848  0.672594  1
  K  K3  1  0.472088  0.997190  0.171657  1
  K  K4  1  0.971762  0.498406  0.327382  1
  K  K5  1  0.528295  0.001794  0.828325  1
  K  K6  1  0.971762  0.001594  0.327382  1
  K  K7  1  0.027884  0.997152  0.672594  1
  Tb  Tb8  1  0.565250  0.750000  0.501924  1
  Tb  Tb9  1  0.064027  0.250000  0.998231  1
  Gd  Gd10  1  0.435074  0.250000  0.497982  1
  Dy  Dy11  1  0.935984  0.750000  0.001659  1
  F  F12  1  0.836636  0.750000  0.809673  1
  F  F13  1  0.164114  0.250000  0.191462  1
  F  F14  1  0.334453  0.250000  0.692934  1
  F  F15  1  0.664231  0.750000  0.308758  1
  F  F16  1  0.367227  0.750000  0.663191  1
  F  F17  1  0.635084  0.250000  0.334932  1
  F  F18  1  0.867084  0.250000  0.836614  1
  F  F19  1  0.131693  0.750000  0.162211  1
  F  F20  1  0.894479  0.750000  0.513208  1
  F  F21  1  0.102491  0.250000  0.487000  1
  F  F22  1  0.393029  0.250000  0.986576  1
  F  F23  1  0.608391  0.750000  0.013495  1
  F  F24  1  0.645033  0.031584  0.579055  1
  F  F25  1  0.355602  0.963799  0.421007  1
  F  F26  1  0.142591  0.965418  0.922517  1
  F  F27  1  0.355602  0.536201  0.421007  1
  F  F28  1  0.857120  0.032620  0.077537  1
  F  F29  1  0.645033  0.468416  0.579055  1
  F  F30  1  0.857120  0.467380  0.077537  1
  F  F31  1  0.142591  0.534582  0.922517  1
