# generated using pymatgen
data_Gd3ScRuC6
_symmetry_space_group_name_H-M   'P 1'
_cell_length_a   8.50911700
_cell_length_b   8.50911579
_cell_length_c   5.21827400
_cell_angle_alpha   90.00000000
_cell_angle_beta   90.00000000
_cell_angle_gamma   119.99999247
_symmetry_Int_Tables_number   1
_chemical_formula_structural   Gd3ScRuC6
_chemical_formula_sum   'Gd6 Sc2 Ru2 C12'
_cell_volume   327.20992833
_cell_formula_units_Z   2
loop_
 _symmetry_equiv_pos_site_id
 _symmetry_equiv_pos_as_xyz
  1  'x, y, z'
loop_
 _atom_site_type_symbol
 _atom_site_label
 _atom_site_symmetry_multiplicity
 _atom_site_fract_x
 _atom_site_fract_y
 _atom_site_fract_z
 _atom_site_occupancy
  Gd  Gd0  1  0.622268  0.677378  0.750000  1
  Gd  Gd1  1  0.944891  0.622268  0.250000  1
  Gd  Gd2  1  0.677378  0.055109  0.250000  1
  Gd  Gd3  1  0.322622  0.944891  0.750000  1
  Gd  Gd4  1  0.055109  0.377732  0.750000  1
  Gd  Gd5  1  0.377732  0.322622  0.250000  1
  Sc  Sc6  1  0.000000  0.000000  0.500000  1
  Sc  Sc7  1  0.000000  0.000000  0.000000  1
  Ru  Ru8  1  0.666667  0.333333  0.750000  1
  Ru  Ru9  1  0.333333  0.666667  0.250000  1
  C  C10  1  0.966258  0.758710  0.750000  1
  C  C11  1  0.207548  0.966258  0.250000  1
  C  C12  1  0.758710  0.792452  0.250000  1
  C  C13  1  0.241290  0.207548  0.750000  1
  C  C14  1  0.792452  0.033742  0.750000  1
  C  C15  1  0.033742  0.241290  0.250000  1
  C  C16  1  0.871113  0.575606  0.750000  1
  C  C17  1  0.295506  0.871113  0.250000  1
  C  C18  1  0.575606  0.704494  0.250000  1
  C  C19  1  0.424394  0.295506  0.750000  1
  C  C20  1  0.128887  0.424394  0.250000  1
  C  C21  1  0.704494  0.128887  0.750000  1
