# generated using pymatgen
data_Y4(Zn3Hg)3
_symmetry_space_group_name_H-M   'P 1'
_cell_length_a   4.45801900
_cell_length_b   7.00560471
_cell_length_c   10.19888700
_cell_angle_alpha   90.20936363
_cell_angle_beta   90.00000000
_cell_angle_gamma   90.00000000
_symmetry_Int_Tables_number   1
_chemical_formula_structural   Y4(Zn3Hg)3
_chemical_formula_sum   'Y4 Zn9 Hg3'
_cell_volume   318.52052598
_cell_formula_units_Z   1
loop_
 _symmetry_equiv_pos_site_id
 _symmetry_equiv_pos_as_xyz
  1  'x, y, z'
loop_
 _atom_site_type_symbol
 _atom_site_label
 _atom_site_symmetry_multiplicity
 _atom_site_fract_x
 _atom_site_fract_y
 _atom_site_fract_z
 _atom_site_occupancy
  Y  Y0  1  0.250000  0.289142  0.670011  1
  Y  Y1  1  0.750000  0.711997  0.329992  1
  Y  Y2  1  0.250000  0.794853  0.829257  1
  Y  Y3  1  0.750000  0.205372  0.170519  1
  Zn  Zn4  1  0.750000  0.963274  0.602546  1
  Zn  Zn5  1  0.750000  0.297170  0.464707  1
  Zn  Zn6  1  0.250000  0.700598  0.541961  1
  Zn  Zn7  1  0.750000  0.816541  0.037838  1
  Zn  Zn8  1  0.250000  0.183223  0.959366  1
  Zn  Zn9  1  0.750000  0.588254  0.637499  1
  Zn  Zn10  1  0.250000  0.422344  0.364856  1
  Zn  Zn11  1  0.750000  0.081657  0.844121  1
  Zn  Zn12  1  0.250000  0.915655  0.145272  1
  Hg  Hg13  1  0.250000  0.525187  0.106245  1
  Hg  Hg14  1  0.750000  0.472048  0.894049  1
  Hg  Hg15  1  0.250000  0.032685  0.401762  1
