# generated using pymatgen
data_TbEr9Si5As
_symmetry_space_group_name_H-M   'P 1'
_cell_length_a   8.36979900
_cell_length_b   8.39381903
_cell_length_c   6.25500300
_cell_angle_alpha   90.00000000
_cell_angle_beta   90.00000000
_cell_angle_gamma   119.90538693
_symmetry_Int_Tables_number   1
_chemical_formula_structural   TbEr9Si5As
_chemical_formula_sum   'Tb1 Er9 Si5 As1'
_cell_volume   380.93076142
_cell_formula_units_Z   1
loop_
 _symmetry_equiv_pos_site_id
 _symmetry_equiv_pos_as_xyz
  1  'x, y, z'
loop_
 _atom_site_type_symbol
 _atom_site_label
 _atom_site_symmetry_multiplicity
 _atom_site_fract_x
 _atom_site_fract_y
 _atom_site_fract_z
 _atom_site_occupancy
  Tb  Tb0  1  0.242942  0.000000  0.250000  1
  Er  Er1  1  0.996456  0.753658  0.750000  1
  Er  Er2  1  0.000040  0.244075  0.250000  1
  Er  Er3  1  0.755965  0.755925  0.250000  1
  Er  Er4  1  0.758645  0.000000  0.750000  1
  Er  Er5  1  0.242799  0.246342  0.750000  1
  Er  Er6  1  0.333010  0.663805  0.498865  1
  Er  Er7  1  0.669205  0.336195  0.001135  1
  Er  Er8  1  0.669205  0.336195  0.498865  1
  Er  Er9  1  0.333010  0.663805  0.001135  1
  Si  Si10  1  0.394242  0.393926  0.250000  1
  Si  Si11  1  0.000316  0.606074  0.250000  1
  Si  Si12  1  0.999761  0.393784  0.750000  1
  Si  Si13  1  0.605977  0.606216  0.750000  1
  Si  Si14  1  0.607577  0.000000  0.250000  1
  As  As15  1  0.390847  0.000000  0.750000  1
