# generated using pymatgen
data_Pu7UC12
_symmetry_space_group_name_H-M   'P 1'
_cell_length_a   7.06034661
_cell_length_b   7.06034656
_cell_length_c   7.06034737
_cell_angle_alpha   109.68677153
_cell_angle_beta   109.68676146
_cell_angle_gamma   109.68676006
_symmetry_Int_Tables_number   1
_chemical_formula_structural   Pu7UC12
_chemical_formula_sum   'Pu7 U1 C12'
_cell_volume   268.74561689
_cell_formula_units_Z   1
loop_
 _symmetry_equiv_pos_site_id
 _symmetry_equiv_pos_as_xyz
  1  'x, y, z'
loop_
 _atom_site_type_symbol
 _atom_site_label
 _atom_site_symmetry_multiplicity
 _atom_site_fract_x
 _atom_site_fract_y
 _atom_site_fract_z
 _atom_site_occupancy
  Pu  Pu0  1  0.604825  0.604825  0.604825  1
  Pu  Pu1  1  0.507338  0.998263  0.403665  1
  Pu  Pu2  1  0.998263  0.403665  0.507338  1
  Pu  Pu3  1  0.403665  0.507338  0.998263  1
  Pu  Pu4  1  0.006571  0.903070  0.496974  1
  Pu  Pu5  1  0.903070  0.496974  0.006571  1
  Pu  Pu6  1  0.496974  0.006571  0.903070  1
  U  U7  1  0.104079  0.104079  0.104079  1
  C  C8  1  0.795334  0.011914  0.730715  1
  C  C9  1  0.972506  0.207975  0.763392  1
  C  C10  1  0.233729  0.514984  0.301808  1
  C  C11  1  0.301808  0.233729  0.514984  1
  C  C12  1  0.763392  0.972506  0.207975  1
  C  C13  1  0.207975  0.763392  0.972506  1
  C  C14  1  0.711567  0.470486  0.260807  1
  C  C15  1  0.470486  0.260807  0.711567  1
  C  C16  1  0.514984  0.301808  0.233729  1
  C  C17  1  0.260807  0.711567  0.470486  1
  C  C18  1  0.730715  0.795334  0.011914  1
  C  C19  1  0.011914  0.730715  0.795334  1
