# generated using pymatgen
data_HoEr4(In2Pt)2
_symmetry_space_group_name_H-M   'P 1'
_cell_length_a   3.59237900
_cell_length_b   8.14272500
_cell_length_c   18.19408300
_cell_angle_alpha   90.00000000
_cell_angle_beta   90.00000000
_cell_angle_gamma   90.00000000
_symmetry_Int_Tables_number   1
_chemical_formula_structural   HoEr4(In2Pt)2
_chemical_formula_sum   'Ho2 Er8 In8 Pt4'
_cell_volume   532.20884550
_cell_formula_units_Z   2
loop_
 _symmetry_equiv_pos_site_id
 _symmetry_equiv_pos_as_xyz
  1  'x, y, z'
loop_
 _atom_site_type_symbol
 _atom_site_label
 _atom_site_symmetry_multiplicity
 _atom_site_fract_x
 _atom_site_fract_y
 _atom_site_fract_z
 _atom_site_occupancy
  Ho  Ho0  1  0.000000  0.000000  0.000000  1
  Ho  Ho1  1  0.000000  0.500000  0.500000  1
  Er  Er2  1  0.000000  0.116830  0.414277  1
  Er  Er3  1  0.000000  0.883170  0.585723  1
  Er  Er4  1  0.000000  0.383170  0.914277  1
  Er  Er5  1  0.000000  0.616830  0.085723  1
  Er  Er6  1  0.000000  0.243492  0.220152  1
  Er  Er7  1  0.000000  0.756508  0.779848  1
  Er  Er8  1  0.000000  0.256508  0.720152  1
  Er  Er9  1  0.000000  0.743492  0.279848  1
  In  In10  1  0.500000  0.423618  0.350662  1
  In  In11  1  0.500000  0.576382  0.649338  1
  In  In12  1  0.500000  0.076382  0.850662  1
  In  In13  1  0.500000  0.923618  0.149338  1
  In  In14  1  0.500000  0.292501  0.066563  1
  In  In15  1  0.500000  0.707499  0.933437  1
  In  In16  1  0.500000  0.207499  0.566563  1
  In  In17  1  0.500000  0.792501  0.433437  1
  Pt  Pt18  1  0.500000  0.024577  0.303179  1
  Pt  Pt19  1  0.500000  0.975423  0.696821  1
  Pt  Pt20  1  0.500000  0.475423  0.803179  1
  Pt  Pt21  1  0.500000  0.524577  0.196821  1
