# generated using pymatgen
data_Er4Si4IrOsRu2
_symmetry_space_group_name_H-M   'P 1'
_cell_length_a   4.27463100
_cell_length_b   6.92297458
_cell_length_c   7.18526243
_cell_angle_alpha   89.98721043
_cell_angle_beta   90.00000000
_cell_angle_gamma   90.00000000
_symmetry_Int_Tables_number   1
_chemical_formula_structural   Er4Si4IrOsRu2
_chemical_formula_sum   'Er4 Si4 Ir1 Os1 Ru2'
_cell_volume   212.63462803
_cell_formula_units_Z   1
loop_
 _symmetry_equiv_pos_site_id
 _symmetry_equiv_pos_as_xyz
  1  'x, y, z'
loop_
 _atom_site_type_symbol
 _atom_site_label
 _atom_site_symmetry_multiplicity
 _atom_site_fract_x
 _atom_site_fract_y
 _atom_site_fract_z
 _atom_site_occupancy
  Er  Er0  1  0.750000  0.488826  0.815017  1
  Er  Er1  1  0.250000  0.007398  0.313638  1
  Er  Er2  1  0.750000  0.991567  0.684870  1
  Er  Er3  1  0.250000  0.513748  0.187846  1
  Si  Si4  1  0.250000  0.698339  0.611373  1
  Si  Si5  1  0.250000  0.198006  0.894549  1
  Si  Si6  1  0.750000  0.301543  0.387595  1
  Si  Si7  1  0.750000  0.802565  0.104809  1
  Ir  Ir8  1  0.250000  0.343200  0.565679  1
  Os  Os9  1  0.250000  0.844458  0.932512  1
  Ru  Ru10  1  0.750000  0.653945  0.436615  1
  Ru  Ru11  1  0.750000  0.156405  0.065497  1
