# generated using pymatgen
data_Cs2U(SeO)2
_symmetry_space_group_name_H-M   'P 1'
_cell_length_a   7.50653200
_cell_length_b   7.75365500
_cell_length_c   14.02963200
_cell_angle_alpha   90.00000000
_cell_angle_beta   90.00000000
_cell_angle_gamma   90.00000000
_symmetry_Int_Tables_number   1
_chemical_formula_structural   Cs2U(SeO)2
_chemical_formula_sum   'Cs8 U4 Se8 O8'
_cell_volume   816.56750430
_cell_formula_units_Z   4
loop_
 _symmetry_equiv_pos_site_id
 _symmetry_equiv_pos_as_xyz
  1  'x, y, z'
loop_
 _atom_site_type_symbol
 _atom_site_label
 _atom_site_symmetry_multiplicity
 _atom_site_fract_x
 _atom_site_fract_y
 _atom_site_fract_z
 _atom_site_occupancy
  Cs  Cs0  1  0.258775  0.935478  0.075615  1
  Cs  Cs1  1  0.241225  0.564522  0.575615  1
  Cs  Cs2  1  0.241225  0.435478  0.924385  1
  Cs  Cs3  1  0.258775  0.064522  0.424385  1
  Cs  Cs4  1  0.741224  0.064522  0.924385  1
  Cs  Cs5  1  0.758776  0.435478  0.424385  1
  Cs  Cs6  1  0.758776  0.564522  0.075615  1
  Cs  Cs7  1  0.741224  0.935478  0.575615  1
  U  U8  1  0.271067  0.500000  0.250000  1
  U  U9  1  0.228933  0.000000  0.750000  1
  U  U10  1  0.728933  0.500000  0.750000  1
  U  U11  1  0.771067  0.000000  0.250000  1
  Se  Se12  1  0.016411  0.745755  0.304399  1
  Se  Se13  1  0.483589  0.754245  0.804399  1
  Se  Se14  1  0.483589  0.245755  0.695601  1
  Se  Se15  1  0.016411  0.254245  0.195601  1
  Se  Se16  1  0.983589  0.254245  0.695601  1
  Se  Se17  1  0.516411  0.245755  0.195601  1
  Se  Se18  1  0.516411  0.754245  0.304399  1
  Se  Se19  1  0.983589  0.745755  0.804399  1
  O  O20  1  0.273591  0.575876  0.124144  1
  O  O21  1  0.226409  0.924124  0.624144  1
  O  O22  1  0.226409  0.075876  0.875856  1
  O  O23  1  0.273591  0.424124  0.375856  1
  O  O24  1  0.726409  0.424124  0.875856  1
  O  O25  1  0.773591  0.075876  0.375856  1
  O  O26  1  0.773591  0.924124  0.124144  1
  O  O27  1  0.726409  0.575876  0.624144  1
