# generated using pymatgen
data_Lu6Co17Si12Tc
_symmetry_space_group_name_H-M   'P 1'
_cell_length_a   3.76015300
_cell_length_b   10.63714400
_cell_length_c   12.28317600
_cell_angle_alpha   90.00000000
_cell_angle_beta   90.00000000
_cell_angle_gamma   90.00000000
_symmetry_Int_Tables_number   1
_chemical_formula_structural   Lu6Co17Si12Tc
_chemical_formula_sum   'Lu6 Co17 Si12 Tc1'
_cell_volume   491.29373936
_cell_formula_units_Z   1
loop_
 _symmetry_equiv_pos_site_id
 _symmetry_equiv_pos_as_xyz
  1  'x, y, z'
loop_
 _atom_site_type_symbol
 _atom_site_label
 _atom_site_symmetry_multiplicity
 _atom_site_fract_x
 _atom_site_fract_y
 _atom_site_fract_z
 _atom_site_occupancy
  Lu  Lu0  1  0.000000  0.500000  0.526877  1
  Lu  Lu1  1  0.500000  0.000000  0.473387  1
  Lu  Lu2  1  0.500000  0.817678  0.206400  1
  Lu  Lu3  1  0.500000  0.182322  0.206400  1
  Lu  Lu4  1  0.000000  0.682999  0.796847  1
  Lu  Lu5  1  0.000000  0.317001  0.796847  1
  Co  Co6  1  0.000000  0.000000  0.846502  1
  Co  Co7  1  0.500000  0.500000  0.695040  1
  Co  Co8  1  0.000000  0.000000  0.304617  1
  Co  Co9  1  0.000000  0.500000  0.979887  1
  Co  Co10  1  0.500000  0.000000  0.019644  1
  Co  Co11  1  0.500000  0.327994  0.990638  1
  Co  Co12  1  0.500000  0.672006  0.990638  1
  Co  Co13  1  0.000000  0.166364  0.004910  1
  Co  Co14  1  0.000000  0.833636  0.004910  1
  Co  Co15  1  0.500000  0.301201  0.432188  1
  Co  Co16  1  0.500000  0.698799  0.432188  1
  Co  Co17  1  0.000000  0.198020  0.571319  1
  Co  Co18  1  0.000000  0.801980  0.571319  1
  Co  Co19  1  0.500000  0.883085  0.707220  1
  Co  Co20  1  0.500000  0.116915  0.707220  1
  Co  Co21  1  0.000000  0.619882  0.293284  1
  Co  Co22  1  0.000000  0.380118  0.293284  1
  Si  Si23  1  0.500000  0.500000  0.880193  1
  Si  Si24  1  0.000000  0.000000  0.119922  1
  Si  Si25  1  0.500000  0.500000  0.342714  1
  Si  Si26  1  0.000000  0.000000  0.659423  1
  Si  Si27  1  0.500000  0.304874  0.616912  1
  Si  Si28  1  0.500000  0.695126  0.616912  1
  Si  Si29  1  0.000000  0.194570  0.386590  1
  Si  Si30  1  0.000000  0.805430  0.386590  1
  Si  Si31  1  0.500000  0.854978  0.891201  1
  Si  Si32  1  0.500000  0.145022  0.891201  1
  Si  Si33  1  0.000000  0.652982  0.104453  1
  Si  Si34  1  0.000000  0.347018  0.104453  1
  Tc  Tc35  1  0.500000  0.500000  0.147871  1
