# generated using pymatgen
data_Li2Nb3Ni9As7
_symmetry_space_group_name_H-M   'P 1'
_cell_length_a   9.59495500
_cell_length_b   9.59495458
_cell_length_c   3.75396100
_cell_angle_alpha   90.00000000
_cell_angle_beta   90.00000000
_cell_angle_gamma   120.00000491
_symmetry_Int_Tables_number   1
_chemical_formula_structural   Li2Nb3Ni9As7
_chemical_formula_sum   'Li2 Nb3 Ni9 As7'
_cell_volume   299.29966582
_cell_formula_units_Z   1
loop_
 _symmetry_equiv_pos_site_id
 _symmetry_equiv_pos_as_xyz
  1  'x, y, z'
loop_
 _atom_site_type_symbol
 _atom_site_label
 _atom_site_symmetry_multiplicity
 _atom_site_fract_x
 _atom_site_fract_y
 _atom_site_fract_z
 _atom_site_occupancy
  Li  Li0  1  0.333333  0.666667  0.000000  1
  Li  Li1  1  0.000000  0.000000  0.500000  1
  Nb  Nb2  1  0.765106  0.558362  0.500000  1
  Nb  Nb3  1  0.441638  0.206744  0.500000  1
  Nb  Nb4  1  0.793256  0.234894  0.500000  1
  Ni  Ni5  1  0.280386  0.384062  0.500000  1
  Ni  Ni6  1  0.615938  0.896323  0.500000  1
  Ni  Ni7  1  0.103677  0.719614  0.500000  1
  Ni  Ni8  1  0.501964  0.455984  0.000000  1
  Ni  Ni9  1  0.544016  0.045981  0.000000  1
  Ni  Ni10  1  0.954019  0.498036  0.000000  1
  Ni  Ni11  1  0.723612  0.761659  0.000000  1
  Ni  Ni12  1  0.238341  0.961953  0.000000  1
  Ni  Ni13  1  0.038047  0.276388  0.000000  1
  As  As14  1  0.969080  0.759196  0.000000  1
  As  As15  1  0.240804  0.209884  0.000000  1
  As  As16  1  0.790116  0.030920  0.000000  1
  As  As17  1  0.666667  0.333333  0.000000  1
  As  As18  1  0.533152  0.625201  0.500000  1
  As  As19  1  0.374799  0.907952  0.500000  1
  As  As20  1  0.092048  0.466848  0.500000  1
