# generated using pymatgen
data_Nd2Th(ZnPd)3
_symmetry_space_group_name_H-M   'P 1'
_cell_length_a   7.54389203
_cell_length_b   7.54389276
_cell_length_c   3.91156000
_cell_angle_alpha   90.00000000
_cell_angle_beta   90.00000000
_cell_angle_gamma   120.00962669
_symmetry_Int_Tables_number   1
_chemical_formula_structural   Nd2Th(ZnPd)3
_chemical_formula_sum   'Nd2 Th1 Zn3 Pd3'
_cell_volume   192.76556751
_cell_formula_units_Z   1
loop_
 _symmetry_equiv_pos_site_id
 _symmetry_equiv_pos_as_xyz
  1  'x, y, z'
loop_
 _atom_site_type_symbol
 _atom_site_label
 _atom_site_symmetry_multiplicity
 _atom_site_fract_x
 _atom_site_fract_y
 _atom_site_fract_z
 _atom_site_occupancy
  Nd  Nd0  1  0.591978  0.997663  0.000000  1
  Nd  Nd1  1  0.997663  0.591978  0.000000  1
  Th  Th2  1  0.410281  0.410281  0.000000  1
  Zn  Zn3  1  0.759089  0.759089  0.500000  1
  Zn  Zn4  1  0.247464  0.995580  0.500000  1
  Zn  Zn5  1  0.995580  0.247464  0.500000  1
  Pd  Pd6  1  0.008645  0.008645  0.000000  1
  Pd  Pd7  1  0.655147  0.334155  0.500000  1
  Pd  Pd8  1  0.334155  0.655147  0.500000  1
