# generated using pymatgen
data_Pr5OsRhO12
_symmetry_space_group_name_H-M   'P 1'
_cell_length_a   7.12412489
_cell_length_b   7.12412480
_cell_length_c   7.62387014
_cell_angle_alpha   74.51718526
_cell_angle_beta   74.51718318
_cell_angle_gamma   51.52829852
_symmetry_Int_Tables_number   1
_chemical_formula_structural   Pr5OsRhO12
_chemical_formula_sum   'Pr5 Os1 Rh1 O12'
_cell_volume   289.32345207
_cell_formula_units_Z   1
loop_
 _symmetry_equiv_pos_site_id
 _symmetry_equiv_pos_as_xyz
  1  'x, y, z'
loop_
 _atom_site_type_symbol
 _atom_site_label
 _atom_site_symmetry_multiplicity
 _atom_site_fract_x
 _atom_site_fract_y
 _atom_site_fract_z
 _atom_site_occupancy
  Pr  Pr0  1  0.291224  0.319297  0.357403  1
  Pr  Pr1  1  0.680703  0.708776  0.642597  1
  Pr  Pr2  1  0.688752  0.695979  0.166549  1
  Pr  Pr3  1  0.304021  0.311248  0.833451  1
  Pr  Pr4  1  0.992701  0.007299  0.500000  1
  Os  Os5  1  0.765454  0.234546  0.000000  1
  Rh  Rh6  1  0.256595  0.743405  0.000000  1
  O  O7  1  0.086356  0.601997  0.579723  1
  O  O8  1  0.003080  0.997560  0.166709  1
  O  O9  1  0.398003  0.913644  0.420277  1
  O  O10  1  0.514920  0.486947  0.173433  1
  O  O11  1  0.097229  0.563552  0.082266  1
  O  O12  1  0.895931  0.404461  0.428532  1
  O  O13  1  0.002440  0.996920  0.833291  1
  O  O14  1  0.595539  0.104068  0.571468  1
  O  O15  1  0.513053  0.485080  0.826567  1
  O  O16  1  0.585012  0.107460  0.079916  1
  O  O17  1  0.436448  0.902771  0.917734  1
  O  O18  1  0.892540  0.414988  0.920084  1
