# generated using pymatgen
data_Gd2Hf2TaGe4
_symmetry_space_group_name_H-M   'P 1'
_cell_length_a   7.35142100
_cell_length_b   7.35142100
_cell_length_c   13.44869900
_cell_angle_alpha   90.00000000
_cell_angle_beta   90.00000000
_cell_angle_gamma   90.00000000
_symmetry_Int_Tables_number   1
_chemical_formula_structural   Gd2Hf2TaGe4
_chemical_formula_sum   'Gd8 Hf8 Ta4 Ge16'
_cell_volume   726.81329472
_cell_formula_units_Z   4
loop_
 _symmetry_equiv_pos_site_id
 _symmetry_equiv_pos_as_xyz
  1  'x, y, z'
loop_
 _atom_site_type_symbol
 _atom_site_label
 _atom_site_symmetry_multiplicity
 _atom_site_fract_x
 _atom_site_fract_y
 _atom_site_fract_z
 _atom_site_occupancy
  Gd  Gd0  1  0.499303  0.158674  0.531937  1
  Gd  Gd1  1  0.500697  0.841326  0.031937  1
  Gd  Gd2  1  0.658674  0.000697  0.281937  1
  Gd  Gd3  1  0.341326  0.999303  0.781937  1
  Gd  Gd4  1  0.841326  0.500697  0.968063  1
  Gd  Gd5  1  0.158674  0.499303  0.468063  1
  Gd  Gd6  1  0.000697  0.658674  0.718063  1
  Gd  Gd7  1  0.999303  0.341326  0.218063  1
  Hf  Hf8  1  0.492961  0.345725  0.125082  1
  Hf  Hf9  1  0.507039  0.654275  0.625082  1
  Hf  Hf10  1  0.845725  0.007039  0.875082  1
  Hf  Hf11  1  0.154275  0.992961  0.375082  1
  Hf  Hf12  1  0.654275  0.507039  0.374918  1
  Hf  Hf13  1  0.345725  0.492961  0.874918  1
  Hf  Hf14  1  0.007039  0.845725  0.124918  1
  Hf  Hf15  1  0.992961  0.154275  0.624918  1
  Ta  Ta16  1  0.673542  0.326458  0.750000  1
  Ta  Ta17  1  0.326458  0.673542  0.250000  1
  Ta  Ta18  1  0.826458  0.826458  0.500000  1
  Ta  Ta19  1  0.173542  0.173542  0.000000  1
  Ge  Ge20  1  0.802750  0.133864  0.070796  1
  Ge  Ge21  1  0.197250  0.866136  0.570796  1
  Ge  Ge22  1  0.633864  0.697250  0.820796  1
  Ge  Ge23  1  0.366136  0.302750  0.320796  1
  Ge  Ge24  1  0.866136  0.197250  0.429204  1
  Ge  Ge25  1  0.133864  0.802750  0.929204  1
  Ge  Ge26  1  0.697250  0.633864  0.179204  1
  Ge  Ge27  1  0.302750  0.366136  0.679204  1
  Ge  Ge28  1  0.539308  0.203109  0.931171  1
  Ge  Ge29  1  0.460692  0.796891  0.431171  1
  Ge  Ge30  1  0.703109  0.960692  0.681171  1
  Ge  Ge31  1  0.296891  0.039308  0.181171  1
  Ge  Ge32  1  0.796891  0.460692  0.568829  1
  Ge  Ge33  1  0.203109  0.539308  0.068829  1
  Ge  Ge34  1  0.960692  0.703109  0.318829  1
  Ge  Ge35  1  0.039308  0.296891  0.818829  1
