# generated using pymatgen
data_Zr6GaFeSe
_symmetry_space_group_name_H-M   'P 1'
_cell_length_a   7.71040400
_cell_length_b   7.71040386
_cell_length_c   3.46397700
_cell_angle_alpha   90.00000000
_cell_angle_beta   90.00000000
_cell_angle_gamma   120.00000918
_symmetry_Int_Tables_number   1
_chemical_formula_structural   Zr6GaFeSe
_chemical_formula_sum   'Zr6 Ga1 Fe1 Se1'
_cell_volume   178.34455396
_cell_formula_units_Z   1
loop_
 _symmetry_equiv_pos_site_id
 _symmetry_equiv_pos_as_xyz
  1  'x, y, z'
loop_
 _atom_site_type_symbol
 _atom_site_label
 _atom_site_symmetry_multiplicity
 _atom_site_fract_x
 _atom_site_fract_y
 _atom_site_fract_z
 _atom_site_occupancy
  Zr  Zr0  1  0.249345  0.004213  0.500000  1
  Zr  Zr1  1  0.995787  0.245132  0.500000  1
  Zr  Zr2  1  0.754868  0.750655  0.500000  1
  Zr  Zr3  1  0.587268  0.991857  0.000000  1
  Zr  Zr4  1  0.008143  0.595412  0.000000  1
  Zr  Zr5  1  0.404588  0.412732  0.000000  1
  Ga  Ga6  1  0.666667  0.333333  0.500000  1
  Fe  Fe7  1  0.000000  0.000000  0.000000  1
  Se  Se8  1  0.333333  0.666667  0.500000  1
