# generated using pymatgen
data_Ba4ZrNb2FeO12
_symmetry_space_group_name_H-M   'P 1'
_cell_length_a   5.93362030
_cell_length_b   5.91460126
_cell_length_c   10.29395623
_cell_angle_alpha   107.08576958
_cell_angle_beta   73.23574896
_cell_angle_gamma   120.35088648
_symmetry_Int_Tables_number   1
_chemical_formula_structural   Ba4ZrNb2FeO12
_chemical_formula_sum   'Ba4 Zr1 Nb2 Fe1 O12'
_cell_volume   293.67275082
_cell_formula_units_Z   1
loop_
 _symmetry_equiv_pos_site_id
 _symmetry_equiv_pos_as_xyz
  1  'x, y, z'
loop_
 _atom_site_type_symbol
 _atom_site_label
 _atom_site_symmetry_multiplicity
 _atom_site_fract_x
 _atom_site_fract_y
 _atom_site_fract_z
 _atom_site_occupancy
  Ba  Ba0  1  0.625391  0.374475  0.121822  1
  Ba  Ba1  1  0.123575  0.876328  0.628908  1
  Ba  Ba2  1  0.876392  0.123624  0.371092  1
  Ba  Ba3  1  0.374636  0.625569  0.878198  1
  Zr  Zr4  1  0.500004  0.500000  0.499999  1
  Nb  Nb5  1  0.252615  0.746736  0.241626  1
  Nb  Nb6  1  0.747418  0.253294  0.758360  1
  Fe  Fe7  1  0.000142  0.000142  0.999928  1
  O  O8  1  0.125819  0.383765  0.130507  1
  O  O9  1  0.628315  0.883167  0.626191  1
  O  O10  1  0.371906  0.626897  0.374066  1
  O  O11  1  0.870933  0.130974  0.867606  1
  O  O12  1  0.610124  0.871056  0.132485  1
  O  O13  1  0.118529  0.372966  0.625933  1
  O  O14  1  0.371636  0.116798  0.373831  1
  O  O15  1  0.874163  0.616232  0.869499  1
  O  O16  1  0.129077  0.869026  0.132398  1
  O  O17  1  0.628052  0.373050  0.625953  1
  O  O18  1  0.881395  0.626977  0.374087  1
  O  O19  1  0.389875  0.128923  0.867512  1
