# generated using pymatgen
data_PrLu4Bi3
_symmetry_space_group_name_H-M   'P 1'
_cell_length_a   8.29137400
_cell_length_b   9.40882400
_cell_length_c   12.03212600
_cell_angle_alpha   90.00000000
_cell_angle_beta   90.00000000
_cell_angle_gamma   90.00000000
_symmetry_Int_Tables_number   1
_chemical_formula_structural   PrLu4Bi3
_chemical_formula_sum   'Pr4 Lu16 Bi12'
_cell_volume   938.65116025
_cell_formula_units_Z   4
loop_
 _symmetry_equiv_pos_site_id
 _symmetry_equiv_pos_as_xyz
  1  'x, y, z'
loop_
 _atom_site_type_symbol
 _atom_site_label
 _atom_site_symmetry_multiplicity
 _atom_site_fract_x
 _atom_site_fract_y
 _atom_site_fract_z
 _atom_site_occupancy
  Pr  Pr0  1  0.170371  0.750000  0.224780  1
  Pr  Pr1  1  0.329629  0.750000  0.724780  1
  Pr  Pr2  1  0.829629  0.250000  0.775220  1
  Pr  Pr3  1  0.670371  0.250000  0.275220  1
  Lu  Lu4  1  0.810836  0.565685  0.063600  1
  Lu  Lu5  1  0.689164  0.934315  0.563600  1
  Lu  Lu6  1  0.189164  0.065685  0.936400  1
  Lu  Lu7  1  0.310836  0.434315  0.436400  1
  Lu  Lu8  1  0.189164  0.434315  0.936400  1
  Lu  Lu9  1  0.310836  0.065685  0.436400  1
  Lu  Lu10  1  0.810836  0.934315  0.063600  1
  Lu  Lu11  1  0.689164  0.565685  0.563600  1
  Lu  Lu12  1  0.479660  0.750000  0.003998  1
  Lu  Lu13  1  0.020340  0.750000  0.503998  1
  Lu  Lu14  1  0.520340  0.250000  0.996002  1
  Lu  Lu15  1  0.979660  0.250000  0.496002  1
  Lu  Lu16  1  0.667944  0.750000  0.287986  1
  Lu  Lu17  1  0.832056  0.750000  0.787986  1
  Lu  Lu18  1  0.332056  0.250000  0.712014  1
  Lu  Lu19  1  0.167944  0.250000  0.212014  1
  Bi  Bi20  1  0.401832  0.750000  0.462847  1
  Bi  Bi21  1  0.098168  0.750000  0.962847  1
  Bi  Bi22  1  0.598168  0.250000  0.537153  1
  Bi  Bi23  1  0.901832  0.250000  0.037153  1
  Bi  Bi24  1  0.934601  0.506325  0.329422  1
  Bi  Bi25  1  0.565399  0.993675  0.829422  1
  Bi  Bi26  1  0.065399  0.006325  0.670578  1
  Bi  Bi27  1  0.434601  0.493675  0.170578  1
  Bi  Bi28  1  0.065399  0.493675  0.670578  1
  Bi  Bi29  1  0.434601  0.006325  0.170578  1
  Bi  Bi30  1  0.934601  0.993675  0.329422  1
  Bi  Bi31  1  0.565399  0.506325  0.829422  1
