# generated using pymatgen
data_Tm5Lu11(Ga3Co)2
_symmetry_space_group_name_H-M   'P 1'
_cell_length_a   9.81511000
_cell_length_b   9.81510972
_cell_length_c   6.79937600
_cell_angle_alpha   90.00279515
_cell_angle_beta   89.99720601
_cell_angle_gamma   120.00030777
_symmetry_Int_Tables_number   1
_chemical_formula_structural   Tm5Lu11(Ga3Co)2
_chemical_formula_sum   'Tm5 Lu11 Ga6 Co2'
_cell_volume   567.26850576
_cell_formula_units_Z   1
loop_
 _symmetry_equiv_pos_site_id
 _symmetry_equiv_pos_as_xyz
  1  'x, y, z'
loop_
 _atom_site_type_symbol
 _atom_site_label
 _atom_site_symmetry_multiplicity
 _atom_site_fract_x
 _atom_site_fract_y
 _atom_site_fract_z
 _atom_site_occupancy
  Tm  Tm0  1  0.464364  0.928612  0.292076  1
  Tm  Tm1  1  0.071388  0.535636  0.292076  1
  Tm  Tm2  1  0.535752  0.464248  0.792032  1
  Tm  Tm3  1  0.000016  0.999984  0.268139  1
  Tm  Tm4  1  0.000013  0.999987  0.768148  1
  Lu  Lu5  1  0.173569  0.826431  0.989477  1
  Lu  Lu6  1  0.347238  0.173679  0.489833  1
  Lu  Lu7  1  0.826321  0.652762  0.489833  1
  Lu  Lu8  1  0.173592  0.347260  0.989815  1
  Lu  Lu9  1  0.652740  0.826408  0.989815  1
  Lu  Lu10  1  0.826320  0.173680  0.490187  1
  Lu  Lu11  1  0.333360  0.666640  0.672255  1
  Lu  Lu12  1  0.666693  0.333307  0.172026  1
  Lu  Lu13  1  0.464123  0.535877  0.292136  1
  Lu  Lu14  1  0.928128  0.464007  0.792082  1
  Lu  Lu15  1  0.535993  0.071872  0.792082  1
  Ga  Ga16  1  0.163392  0.836608  0.539947  1
  Ga  Ga17  1  0.326888  0.163368  0.039776  1
  Ga  Ga18  1  0.836632  0.673112  0.039776  1
  Ga  Ga19  1  0.163535  0.326900  0.539718  1
  Ga  Ga20  1  0.673100  0.836465  0.539718  1
  Ga  Ga21  1  0.836498  0.163502  0.039524  1
  Co  Co22  1  0.333508  0.666492  0.056684  1
  Co  Co23  1  0.666837  0.333163  0.556853  1
