# generated using pymatgen
data_Ca9LaSi5Pb
_symmetry_space_group_name_H-M   'P 1'
_cell_length_a   7.71883592
_cell_length_b   7.71035446
_cell_length_c   9.28760600
_cell_angle_alpha   114.33384456
_cell_angle_beta   114.53787938
_cell_angle_gamma   90.16819637
_symmetry_Int_Tables_number   1
_chemical_formula_structural   Ca9LaSi5Pb
_chemical_formula_sum   'Ca9 La1 Si5 Pb1'
_cell_volume   447.94348526
_cell_formula_units_Z   1
loop_
 _symmetry_equiv_pos_site_id
 _symmetry_equiv_pos_as_xyz
  1  'x, y, z'
loop_
 _atom_site_type_symbol
 _atom_site_label
 _atom_site_symmetry_multiplicity
 _atom_site_fract_x
 _atom_site_fract_y
 _atom_site_fract_z
 _atom_site_occupancy
  Ca  Ca0  1  0.506389  0.512624  0.018945  1
  Ca  Ca1  1  0.996528  0.990861  0.987717  1
  Ca  Ca2  1  0.974250  0.823765  0.280911  1
  Ca  Ca3  1  0.305599  0.455875  0.280548  1
  Ca  Ca4  1  0.824443  0.306216  0.278922  1
  Ca  Ca5  1  0.453135  0.970801  0.277143  1
  Ca  Ca6  1  0.045128  0.192992  0.720181  1
  Ca  Ca7  1  0.674616  0.531189  0.720550  1
  Ca  Ca8  1  0.192673  0.674063  0.718806  1
  La  La9  1  0.531525  0.050117  0.723587  1
  Si  Si10  1  0.250616  0.245836  0.501266  1
  Si  Si11  1  0.612855  0.887849  0.999061  1
  Si  Si12  1  0.388310  0.114981  0.000860  1
  Si  Si13  1  0.882334  0.382519  0.992315  1
  Si  Si14  1  0.111410  0.611994  0.999741  1
  Pb  Pb15  1  0.750190  0.748317  0.499448  1
