# generated using pymatgen
data_Dy10SnBi3Ru2
_symmetry_space_group_name_H-M   'P 1'
_cell_length_a   7.93941829
_cell_length_b   9.04749345
_cell_length_c   12.37231417
_cell_angle_alpha   90.00580274
_cell_angle_beta   90.19065567
_cell_angle_gamma   90.06521096
_symmetry_Int_Tables_number   1
_chemical_formula_structural   Dy10SnBi3Ru2
_chemical_formula_sum   'Dy20 Sn2 Bi6 Ru4'
_cell_volume   888.72052780
_cell_formula_units_Z   2
loop_
 _symmetry_equiv_pos_site_id
 _symmetry_equiv_pos_as_xyz
  1  'x, y, z'
loop_
 _atom_site_type_symbol
 _atom_site_label
 _atom_site_symmetry_multiplicity
 _atom_site_fract_x
 _atom_site_fract_y
 _atom_site_fract_z
 _atom_site_occupancy
  Dy  Dy0  1  0.839696  0.745703  0.793042  1
  Dy  Dy1  1  0.160304  0.254297  0.206958  1
  Dy  Dy2  1  0.345743  0.254090  0.709505  1
  Dy  Dy3  1  0.654257  0.745910  0.290495  1
  Dy  Dy4  1  0.379558  0.745839  0.694289  1
  Dy  Dy5  1  0.620442  0.254161  0.305711  1
  Dy  Dy6  1  0.870753  0.253186  0.807665  1
  Dy  Dy7  1  0.129247  0.746814  0.192335  1
  Dy  Dy8  1  0.946237  0.750603  0.503490  1
  Dy  Dy9  1  0.053763  0.249397  0.496510  1
  Dy  Dy10  1  0.449125  0.256068  0.996077  1
  Dy  Dy11  1  0.550875  0.743932  0.003923  1
  Dy  Dy12  1  0.675713  0.041626  0.565205  1
  Dy  Dy13  1  0.324287  0.958374  0.434795  1
  Dy  Dy14  1  0.175684  0.960357  0.934223  1
  Dy  Dy15  1  0.326251  0.540234  0.430264  1
  Dy  Dy16  1  0.824316  0.039643  0.065777  1
  Dy  Dy17  1  0.673749  0.459766  0.569736  1
  Dy  Dy18  1  0.819909  0.460531  0.063655  1
  Dy  Dy19  1  0.180091  0.539469  0.936345  1
  Sn  Sn20  1  0.570279  0.494132  0.828557  1
  Sn  Sn21  1  0.429721  0.505868  0.171443  1
  Bi  Bi22  1  0.070038  0.506785  0.671807  1
  Bi  Bi23  1  0.430116  0.993832  0.170966  1
  Bi  Bi24  1  0.929962  0.493215  0.328193  1
  Bi  Bi25  1  0.569884  0.006168  0.829034  1
  Bi  Bi26  1  0.929833  0.006553  0.326575  1
  Bi  Bi27  1  0.070167  0.993447  0.673425  1
  Ru  Ru28  1  0.575358  0.750089  0.510504  1
  Ru  Ru29  1  0.424642  0.249911  0.489496  1
  Ru  Ru30  1  0.072135  0.250126  0.989246  1
  Ru  Ru31  1  0.927865  0.749874  0.010754  1
