# generated using pymatgen
data_Ho3Co3Ni6(AsP2)2
_symmetry_space_group_name_H-M   'P 1'
_cell_length_a   3.77254100
_cell_length_b   10.69361000
_cell_length_c   12.43738000
_cell_angle_alpha   90.00000000
_cell_angle_beta   90.00000000
_cell_angle_gamma   90.00000000
_symmetry_Int_Tables_number   1
_chemical_formula_structural   Ho3Co3Ni6(AsP2)2
_chemical_formula_sum   'Ho6 Co6 Ni12 As4 P8'
_cell_volume   501.74980585
_cell_formula_units_Z   2
loop_
 _symmetry_equiv_pos_site_id
 _symmetry_equiv_pos_as_xyz
  1  'x, y, z'
loop_
 _atom_site_type_symbol
 _atom_site_label
 _atom_site_symmetry_multiplicity
 _atom_site_fract_x
 _atom_site_fract_y
 _atom_site_fract_z
 _atom_site_occupancy
  Ho  Ho0  1  0.000000  0.500000  0.515503  1
  Ho  Ho1  1  0.500000  0.000000  0.484497  1
  Ho  Ho2  1  0.500000  0.815951  0.201190  1
  Ho  Ho3  1  0.500000  0.184049  0.201190  1
  Ho  Ho4  1  0.000000  0.684049  0.798810  1
  Ho  Ho5  1  0.000000  0.315951  0.798810  1
  Co  Co6  1  0.000000  0.500000  0.986383  1
  Co  Co7  1  0.500000  0.000000  0.013617  1
  Co  Co8  1  0.500000  0.334436  0.995782  1
  Co  Co9  1  0.500000  0.665564  0.995782  1
  Co  Co10  1  0.000000  0.165564  0.004218  1
  Co  Co11  1  0.000000  0.834436  0.004218  1
  Ni  Ni12  1  0.500000  0.313282  0.419993  1
  Ni  Ni13  1  0.500000  0.686718  0.419993  1
  Ni  Ni14  1  0.000000  0.186718  0.580007  1
  Ni  Ni15  1  0.000000  0.813282  0.580007  1
  Ni  Ni16  1  0.500000  0.882351  0.720452  1
  Ni  Ni17  1  0.500000  0.117649  0.720452  1
  Ni  Ni18  1  0.000000  0.617649  0.279548  1
  Ni  Ni19  1  0.000000  0.382351  0.279548  1
  Ni  Ni20  1  0.500000  0.500000  0.154996  1
  Ni  Ni21  1  0.000000  0.000000  0.845004  1
  Ni  Ni22  1  0.500000  0.500000  0.711319  1
  Ni  Ni23  1  0.000000  0.000000  0.288681  1
  As  As24  1  0.500000  0.314884  0.614702  1
  As  As25  1  0.500000  0.685116  0.614702  1
  As  As26  1  0.000000  0.185116  0.385298  1
  As  As27  1  0.000000  0.814884  0.385298  1
  P  P28  1  0.500000  0.500000  0.885183  1
  P  P29  1  0.000000  0.000000  0.114817  1
  P  P30  1  0.500000  0.844251  0.899332  1
  P  P31  1  0.500000  0.155749  0.899332  1
  P  P32  1  0.000000  0.655749  0.100668  1
  P  P33  1  0.000000  0.344251  0.100668  1
  P  P34  1  0.500000  0.500000  0.337193  1
  P  P35  1  0.000000  0.000000  0.662807  1
