# generated using pymatgen
data_TaNb9Ir5
_symmetry_space_group_name_H-M   'P 1'
_cell_length_a   9.98095700
_cell_length_b   9.97995200
_cell_length_c   5.13355500
_cell_angle_alpha   90.00000000
_cell_angle_beta   90.00000000
_cell_angle_gamma   89.99957518
_symmetry_Int_Tables_number   1
_chemical_formula_structural   TaNb9Ir5
_chemical_formula_sum   'Ta2 Nb18 Ir10'
_cell_volume   511.35070187
_cell_formula_units_Z   2
loop_
 _symmetry_equiv_pos_site_id
 _symmetry_equiv_pos_as_xyz
  1  'x, y, z'
loop_
 _atom_site_type_symbol
 _atom_site_label
 _atom_site_symmetry_multiplicity
 _atom_site_fract_x
 _atom_site_fract_y
 _atom_site_fract_z
 _atom_site_occupancy
  Ta  Ta0  1  0.127537  0.462690  0.000000  1
  Ta  Ta1  1  0.962815  0.372467  0.500000  1
  Nb  Nb2  1  0.394973  0.393222  0.000000  1
  Nb  Nb3  1  0.893139  0.105045  0.500000  1
  Nb  Nb4  1  0.106717  0.894079  0.500000  1
  Nb  Nb5  1  0.606044  0.606846  0.000000  1
  Nb  Nb6  1  0.038252  0.629739  0.500000  1
  Nb  Nb7  1  0.870201  0.538167  0.000000  1
  Nb  Nb8  1  0.372346  0.962445  0.500000  1
  Nb  Nb9  1  0.627454  0.037195  0.500000  1
  Nb  Nb10  1  0.462529  0.127617  0.000000  1
  Nb  Nb11  1  0.537345  0.872486  0.000000  1
  Nb  Nb12  1  0.177936  0.178813  0.251357  1
  Nb  Nb13  1  0.678894  0.321419  0.751218  1
  Nb  Nb14  1  0.321580  0.677737  0.751353  1
  Nb  Nb15  1  0.821631  0.821519  0.251248  1
  Nb  Nb16  1  0.321580  0.677737  0.248647  1
  Nb  Nb17  1  0.678894  0.321419  0.248782  1
  Nb  Nb18  1  0.177936  0.178813  0.748643  1
  Nb  Nb19  1  0.821631  0.821519  0.748752  1
  Ir  Ir20  1  0.999934  0.999930  0.000000  1
  Ir  Ir21  1  0.499841  0.499878  0.500000  1
  Ir  Ir22  1  0.261794  0.930144  0.000000  1
  Ir  Ir23  1  0.430156  0.238194  0.500000  1
  Ir  Ir24  1  0.570071  0.761540  0.500000  1
  Ir  Ir25  1  0.738501  0.070077  0.000000  1
  Ir  Ir26  1  0.237226  0.429887  0.500000  1
  Ir  Ir27  1  0.761726  0.568960  0.500000  1
  Ir  Ir28  1  0.931093  0.262444  0.000000  1
  Ir  Ir29  1  0.070220  0.737972  0.000000  1
