# generated using pymatgen
data_Ho5In4PtAu
_symmetry_space_group_name_H-M   'P 1'
_cell_length_a   3.64873900
_cell_length_b   8.16313625
_cell_length_c   18.29014056
_cell_angle_alpha   89.97166819
_cell_angle_beta   90.00000000
_cell_angle_gamma   90.00000000
_symmetry_Int_Tables_number   1
_chemical_formula_structural   Ho5In4PtAu
_chemical_formula_sum   'Ho10 In8 Pt2 Au2'
_cell_volume   544.77457924
_cell_formula_units_Z   2
loop_
 _symmetry_equiv_pos_site_id
 _symmetry_equiv_pos_as_xyz
  1  'x, y, z'
loop_
 _atom_site_type_symbol
 _atom_site_label
 _atom_site_symmetry_multiplicity
 _atom_site_fract_x
 _atom_site_fract_y
 _atom_site_fract_z
 _atom_site_occupancy
  Ho  Ho0  1  0.000000  0.120030  0.418870  1
  Ho  Ho1  1  0.000000  0.879970  0.581130  1
  Ho  Ho2  1  0.000000  0.384457  0.916057  1
  Ho  Ho3  1  0.000000  0.615543  0.083943  1
  Ho  Ho4  1  0.000000  0.252181  0.217436  1
  Ho  Ho5  1  0.000000  0.747819  0.782564  1
  Ho  Ho6  1  0.000000  0.268376  0.721064  1
  Ho  Ho7  1  0.000000  0.731624  0.278936  1
  Ho  Ho8  1  0.000000  0.000000  0.000000  1
  Ho  Ho9  1  0.000000  0.500000  0.500000  1
  In  In10  1  0.500000  0.423510  0.352488  1
  In  In11  1  0.500000  0.576490  0.647512  1
  In  In12  1  0.500000  0.077266  0.852723  1
  In  In13  1  0.500000  0.922734  0.147277  1
  In  In14  1  0.500000  0.292133  0.066074  1
  In  In15  1  0.500000  0.707867  0.933926  1
  In  In16  1  0.500000  0.209208  0.566368  1
  In  In17  1  0.500000  0.790792  0.433632  1
  Pt  Pt18  1  0.500000  0.473080  0.803639  1
  Pt  Pt19  1  0.500000  0.526920  0.196361  1
  Au  Au20  1  0.500000  0.027781  0.302432  1
  Au  Au21  1  0.500000  0.972219  0.697568  1
