# generated using pymatgen
data_Zr10In4Sn2P
_symmetry_space_group_name_H-M   'P 1'
_cell_length_a   5.89672900
_cell_length_b   8.63422915
_cell_length_c   8.63480979
_cell_angle_alpha   119.99778165
_cell_angle_beta   90.12049914
_cell_angle_gamma   89.75897777
_symmetry_Int_Tables_number   1
_chemical_formula_structural   Zr10In4Sn2P
_chemical_formula_sum   'Zr10 In4 Sn2 P1'
_cell_volume   380.73606053
_cell_formula_units_Z   1
loop_
 _symmetry_equiv_pos_site_id
 _symmetry_equiv_pos_as_xyz
  1  'x, y, z'
loop_
 _atom_site_type_symbol
 _atom_site_label
 _atom_site_symmetry_multiplicity
 _atom_site_fract_x
 _atom_site_fract_y
 _atom_site_fract_z
 _atom_site_occupancy
  Zr  Zr0  1  0.499609  0.334023  0.666275  1
  Zr  Zr1  1  0.499609  0.667748  0.333725  1
  Zr  Zr2  1  0.999357  0.666352  0.333164  1
  Zr  Zr3  1  0.999357  0.333188  0.666836  1
  Zr  Zr4  1  0.760627  0.244315  0.000000  1
  Zr  Zr5  1  0.754961  0.753405  0.753870  1
  Zr  Zr6  1  0.754961  0.999534  0.246130  1
  Zr  Zr7  1  0.243986  0.757341  0.000000  1
  Zr  Zr8  1  0.243031  0.245055  0.245831  1
  Zr  Zr9  1  0.243031  0.999224  0.754169  1
  In  In10  1  0.749683  0.605542  0.000000  1
  In  In11  1  0.749279  0.392468  0.392419  1
  In  In12  1  0.749279  0.000049  0.607581  1
  In  In13  1  0.251524  0.393819  0.000000  1
  Sn  Sn14  1  0.249856  0.606290  0.606305  1
  Sn  Sn15  1  0.249856  0.999985  0.393695  1
  P  P16  1  0.501992  0.001667  0.000000  1
