# generated using pymatgen
data_Tm8TlNi2Ag
_symmetry_space_group_name_H-M   'P 1'
_cell_length_a   9.43224371
_cell_length_b   9.42181505
_cell_length_c   9.42181376
_cell_angle_alpha   59.99660101
_cell_angle_beta   59.93486471
_cell_angle_gamma   59.93487171
_symmetry_Int_Tables_number   1
_chemical_formula_structural   Tm8TlNi2Ag
_chemical_formula_sum   'Tm16 Tl2 Ni4 Ag2'
_cell_volume   591.46591211
_cell_formula_units_Z   2
loop_
 _symmetry_equiv_pos_site_id
 _symmetry_equiv_pos_as_xyz
  1  'x, y, z'
loop_
 _atom_site_type_symbol
 _atom_site_label
 _atom_site_symmetry_multiplicity
 _atom_site_fract_x
 _atom_site_fract_y
 _atom_site_fract_z
 _atom_site_occupancy
  Tm  Tm0  1  0.349442  0.348990  0.348990  1
  Tm  Tm1  1  0.348207  0.349871  0.953924  1
  Tm  Tm2  1  0.348207  0.953924  0.349871  1
  Tm  Tm3  1  0.951645  0.349152  0.349152  1
  Tm  Tm4  1  0.811173  0.188742  0.188742  1
  Tm  Tm5  1  0.188493  0.811373  0.811373  1
  Tm  Tm6  1  0.188837  0.811276  0.187612  1
  Tm  Tm7  1  0.811388  0.187998  0.810703  1
  Tm  Tm8  1  0.188837  0.187612  0.811276  1
  Tm  Tm9  1  0.811388  0.810703  0.187998  1
  Tm  Tm10  1  0.937607  0.563624  0.563624  1
  Tm  Tm11  1  0.562651  0.937266  0.937266  1
  Tm  Tm12  1  0.562804  0.941720  0.564098  1
  Tm  Tm13  1  0.933087  0.564227  0.939915  1
  Tm  Tm14  1  0.562804  0.564098  0.941720  1
  Tm  Tm15  1  0.933087  0.939915  0.564227  1
  Tl  Tl16  1  0.587060  0.582130  0.582130  1
  Tl  Tl17  1  0.253386  0.580085  0.580085  1
  Ni  Ni18  1  0.143581  0.141863  0.141863  1
  Ni  Ni19  1  0.142165  0.142975  0.572419  1
  Ni  Ni20  1  0.142165  0.572419  0.142975  1
  Ni  Ni21  1  0.571621  0.142048  0.142048  1
  Ag  Ag22  1  0.585185  0.581458  0.246536  1
  Ag  Ag23  1  0.585185  0.246536  0.581458  1
