# generated using pymatgen
data_Y16MgCo4Ag3
_symmetry_space_group_name_H-M   'P 1'
_cell_length_a   9.50615239
_cell_length_b   9.51330326
_cell_length_c   9.51330300
_cell_angle_alpha   60.00000436
_cell_angle_beta   59.97511752
_cell_angle_gamma   59.97511667
_symmetry_Int_Tables_number   1
_chemical_formula_structural   Y16MgCo4Ag3
_chemical_formula_sum   'Y16 Mg1 Co4 Ag3'
_cell_volume   608.11962111
_cell_formula_units_Z   1
loop_
 _symmetry_equiv_pos_site_id
 _symmetry_equiv_pos_as_xyz
  1  'x, y, z'
loop_
 _atom_site_type_symbol
 _atom_site_label
 _atom_site_symmetry_multiplicity
 _atom_site_fract_x
 _atom_site_fract_y
 _atom_site_fract_z
 _atom_site_occupancy
  Y  Y0  1  0.347416  0.346828  0.346828  1
  Y  Y1  1  0.347416  0.346828  0.958928  1
  Y  Y2  1  0.347416  0.958928  0.346828  1
  Y  Y3  1  0.948899  0.350367  0.350367  1
  Y  Y4  1  0.810468  0.188516  0.188516  1
  Y  Y5  1  0.186366  0.813319  0.813319  1
  Y  Y6  1  0.186366  0.813319  0.186996  1
  Y  Y7  1  0.810468  0.188516  0.812500  1
  Y  Y8  1  0.186366  0.186996  0.813319  1
  Y  Y9  1  0.810468  0.812500  0.188516  1
  Y  Y10  1  0.934655  0.563292  0.563292  1
  Y  Y11  1  0.562202  0.936675  0.936675  1
  Y  Y12  1  0.562202  0.936675  0.564448  1
  Y  Y13  1  0.934655  0.563292  0.938761  1
  Y  Y14  1  0.562202  0.564448  0.936675  1
  Y  Y15  1  0.934655  0.938761  0.563292  1
  Mg  Mg16  1  0.286507  0.571164  0.571164  1
  Co  Co17  1  0.139667  0.142220  0.142220  1
  Co  Co18  1  0.139667  0.142220  0.575893  1
  Co  Co19  1  0.139667  0.575893  0.142220  1
  Co  Co20  1  0.575107  0.141631  0.141631  1
  Ag  Ag21  1  0.582388  0.582437  0.582437  1
  Ag  Ag22  1  0.582388  0.582437  0.252738  1
  Ag  Ag23  1  0.582388  0.252738  0.582437  1
