# generated using pymatgen
data_Rb3Li2VAs3
_symmetry_space_group_name_H-M   'P 1'
_cell_length_a   10.17431376
_cell_length_b   10.17431329
_cell_length_c   15.81969400
_cell_angle_alpha   90.00000000
_cell_angle_beta   90.00000000
_cell_angle_gamma   142.91504205
_symmetry_Int_Tables_number   1
_chemical_formula_structural   Rb3Li2VAs3
_chemical_formula_sum   'Rb12 Li8 V4 As12'
_cell_volume   987.47156218
_cell_formula_units_Z   4
loop_
 _symmetry_equiv_pos_site_id
 _symmetry_equiv_pos_as_xyz
  1  'x, y, z'
loop_
 _atom_site_type_symbol
 _atom_site_label
 _atom_site_symmetry_multiplicity
 _atom_site_fract_x
 _atom_site_fract_y
 _atom_site_fract_z
 _atom_site_occupancy
  Rb  Rb0  1  0.946673  0.607424  0.830418  1
  Rb  Rb1  1  0.553327  0.892576  0.330418  1
  Rb  Rb2  1  0.392576  0.053327  0.169582  1
  Rb  Rb3  1  0.053327  0.392576  0.169582  1
  Rb  Rb4  1  0.892576  0.553327  0.330418  1
  Rb  Rb5  1  0.446673  0.107424  0.669582  1
  Rb  Rb6  1  0.607424  0.946673  0.830418  1
  Rb  Rb7  1  0.281557  0.281557  0.319318  1
  Rb  Rb8  1  0.781557  0.781557  0.180682  1
  Rb  Rb9  1  0.218443  0.218443  0.819318  1
  Rb  Rb10  1  0.718443  0.718443  0.680682  1
  Rb  Rb11  1  0.107424  0.446673  0.669582  1
  Li  Li12  1  0.918057  0.081943  0.000000  1
  Li  Li13  1  0.581943  0.418057  0.500000  1
  Li  Li14  1  0.081943  0.918057  0.000000  1
  Li  Li15  1  0.418057  0.581943  0.500000  1
  Li  Li16  1  0.749554  0.250446  0.000000  1
  Li  Li17  1  0.750446  0.249554  0.500000  1
  Li  Li18  1  0.250446  0.749554  0.000000  1
  Li  Li19  1  0.249554  0.750446  0.500000  1
  V  V20  1  0.583586  0.416414  0.000000  1
  V  V21  1  0.916414  0.083586  0.500000  1
  V  V22  1  0.416414  0.583586  0.000000  1
  V  V23  1  0.083586  0.916414  0.500000  1
  As  As24  1  0.879535  0.563127  0.084456  1
  As  As25  1  0.436873  0.120465  0.915544  1
  As  As26  1  0.620465  0.936873  0.584456  1
  As  As27  1  0.936873  0.620465  0.584456  1
  As  As28  1  0.120465  0.436873  0.915544  1
  As  As29  1  0.563127  0.879535  0.084456  1
  As  As30  1  0.379535  0.063127  0.415544  1
  As  As31  1  0.213353  0.213353  0.581125  1
  As  As32  1  0.713353  0.713353  0.918875  1
  As  As33  1  0.286647  0.286647  0.081125  1
  As  As34  1  0.063127  0.379535  0.415544  1
  As  As35  1  0.786647  0.786647  0.418875  1
