# generated using pymatgen
data_Hf2GeIr5
_symmetry_space_group_name_H-M   'P 1'
_cell_length_a   4.05600300
_cell_length_b   5.60501700
_cell_length_c   11.09040300
_cell_angle_alpha   90.00000000
_cell_angle_beta   90.00000000
_cell_angle_gamma   90.00000000
_symmetry_Int_Tables_number   1
_chemical_formula_structural   Hf2GeIr5
_chemical_formula_sum   'Hf4 Ge2 Ir10'
_cell_volume   252.12884214
_cell_formula_units_Z   2
loop_
 _symmetry_equiv_pos_site_id
 _symmetry_equiv_pos_as_xyz
  1  'x, y, z'
loop_
 _atom_site_type_symbol
 _atom_site_label
 _atom_site_symmetry_multiplicity
 _atom_site_fract_x
 _atom_site_fract_y
 _atom_site_fract_z
 _atom_site_occupancy
  Hf  Hf0  1  0.500000  0.188453  0.638666  1
  Hf  Hf1  1  0.500000  0.811547  0.361334  1
  Hf  Hf2  1  0.500000  0.688453  0.861334  1
  Hf  Hf3  1  0.500000  0.311547  0.138666  1
  Ge  Ge4  1  0.000000  0.500000  0.500000  1
  Ge  Ge5  1  0.000000  0.000000  0.000000  1
  Ir  Ir6  1  0.500000  0.193371  0.888919  1
  Ir  Ir7  1  0.500000  0.806629  0.111081  1
  Ir  Ir8  1  0.500000  0.693371  0.611081  1
  Ir  Ir9  1  0.500000  0.306629  0.388919  1
  Ir  Ir10  1  0.000000  0.443686  0.749815  1
  Ir  Ir11  1  0.000000  0.556314  0.250185  1
  Ir  Ir12  1  0.000000  0.000000  0.500000  1
  Ir  Ir13  1  0.000000  0.500000  0.000000  1
  Ir  Ir14  1  0.000000  0.056314  0.249815  1
  Ir  Ir15  1  0.000000  0.943686  0.750185  1
