# generated using pymatgen
data_Th2Cu2SiGe
_symmetry_space_group_name_H-M   'P 1'
_cell_length_a   4.16235200
_cell_length_b   4.16235237
_cell_length_c   8.26936600
_cell_angle_alpha   90.00000000
_cell_angle_beta   90.00000000
_cell_angle_gamma   119.99999705
_symmetry_Int_Tables_number   1
_chemical_formula_structural   Th2Cu2SiGe
_chemical_formula_sum   'Th2 Cu2 Si1 Ge1'
_cell_volume   124.07392091
_cell_formula_units_Z   1
loop_
 _symmetry_equiv_pos_site_id
 _symmetry_equiv_pos_as_xyz
  1  'x, y, z'
loop_
 _atom_site_type_symbol
 _atom_site_label
 _atom_site_symmetry_multiplicity
 _atom_site_fract_x
 _atom_site_fract_y
 _atom_site_fract_z
 _atom_site_occupancy
  Th  Th0  1  0.000000  0.000000  0.497337  1
  Th  Th1  1  0.000000  0.000000  0.002663  1
  Cu  Cu2  1  0.333333  0.666667  0.750000  1
  Cu  Cu3  1  0.666667  0.333333  0.250000  1
  Si  Si4  1  0.333333  0.666667  0.250000  1
  Ge  Ge5  1  0.666667  0.333333  0.750000  1
