# generated using pymatgen
data_LiEr3As6Ir7
_symmetry_space_group_name_H-M   'P 1'
_cell_length_a   7.19154203
_cell_length_b   7.19154291
_cell_length_c   7.25762900
_cell_angle_alpha   109.65748192
_cell_angle_beta   109.65748443
_cell_angle_gamma   109.28432179
_symmetry_Int_Tables_number   1
_chemical_formula_structural   LiEr3As6Ir7
_chemical_formula_sum   'Li1 Er3 As6 Ir7'
_cell_volume   288.27929845
_cell_formula_units_Z   1
loop_
 _symmetry_equiv_pos_site_id
 _symmetry_equiv_pos_as_xyz
  1  'x, y, z'
loop_
 _atom_site_type_symbol
 _atom_site_label
 _atom_site_symmetry_multiplicity
 _atom_site_fract_x
 _atom_site_fract_y
 _atom_site_fract_z
 _atom_site_occupancy
  Li  Li0  1  0.000000  0.000000  0.500000  1
  Er  Er1  1  0.500000  0.000000  0.000000  1
  Er  Er2  1  0.000000  0.500000  0.000000  1
  Er  Er3  1  0.500000  0.500000  0.500000  1
  As  As4  1  0.689063  0.689063  0.011332  1
  As  As5  1  0.310937  0.310937  0.988668  1
  As  As6  1  0.000000  0.689063  0.677731  1
  As  As7  1  0.000000  0.310937  0.322269  1
  As  As8  1  0.689063  0.000000  0.677731  1
  As  As9  1  0.310937  0.000000  0.322269  1
  Ir  Ir10  1  0.000000  0.000000  0.000000  1
  Ir  Ir11  1  0.250538  0.501076  0.750538  1
  Ir  Ir12  1  0.749462  0.250538  0.500000  1
  Ir  Ir13  1  0.501076  0.250538  0.750538  1
  Ir  Ir14  1  0.498924  0.749462  0.249462  1
  Ir  Ir15  1  0.749462  0.498924  0.249462  1
  Ir  Ir16  1  0.250538  0.749462  0.500000  1
