# generated using pymatgen
data_Ti2Fe(SnRh)2
_symmetry_space_group_name_H-M   'P 1'
_cell_length_a   7.37692132
_cell_length_b   7.37692103
_cell_length_c   7.37692100
_cell_angle_alpha   34.10665880
_cell_angle_beta   34.10666213
_cell_angle_gamma   34.10665417
_symmetry_Int_Tables_number   1
_chemical_formula_structural   Ti2Fe(SnRh)2
_chemical_formula_sum   'Ti2 Fe1 Sn2 Rh2'
_cell_volume   112.53284269
_cell_formula_units_Z   1
loop_
 _symmetry_equiv_pos_site_id
 _symmetry_equiv_pos_as_xyz
  1  'x, y, z'
loop_
 _atom_site_type_symbol
 _atom_site_label
 _atom_site_symmetry_multiplicity
 _atom_site_fract_x
 _atom_site_fract_y
 _atom_site_fract_z
 _atom_site_occupancy
  Ti  Ti0  1  0.249048  0.249048  0.249048  1
  Ti  Ti1  1  0.753191  0.753191  0.753191  1
  Fe  Fe2  1  0.630467  0.630467  0.630467  1
  Sn  Sn3  1  0.508655  0.508655  0.508655  1
  Sn  Sn4  1  0.986779  0.986779  0.986779  1
  Rh  Rh5  1  0.121793  0.121793  0.121793  1
  Rh  Rh6  1  0.375065  0.375065  0.375065  1
