# generated using pymatgen
data_TaTiCr2(B2W)2
_symmetry_space_group_name_H-M   'P 1'
_cell_length_a   5.83681553
_cell_length_b   5.83681562
_cell_length_c   3.18505500
_cell_angle_alpha   90.00000000
_cell_angle_beta   90.00000000
_cell_angle_gamma   88.86432651
_symmetry_Int_Tables_number   1
_chemical_formula_structural   TaTiCr2(B2W)2
_chemical_formula_sum   'Ta1 Ti1 Cr2 B4 W2'
_cell_volume   108.48846385
_cell_formula_units_Z   1
loop_
 _symmetry_equiv_pos_site_id
 _symmetry_equiv_pos_as_xyz
  1  'x, y, z'
loop_
 _atom_site_type_symbol
 _atom_site_label
 _atom_site_symmetry_multiplicity
 _atom_site_fract_x
 _atom_site_fract_y
 _atom_site_fract_z
 _atom_site_occupancy
  Ta  Ta0  1  0.319896  0.819896  0.500000  1
  Ti  Ti1  1  0.681052  0.181052  0.500000  1
  Cr  Cr2  1  0.501504  0.496854  0.000000  1
  Cr  Cr3  1  0.996854  0.001504  0.000000  1
  B  B4  1  0.109994  0.609994  0.000000  1
  B  B5  1  0.886632  0.386632  0.000000  1
  B  B6  1  0.615885  0.889899  0.000000  1
  B  B7  1  0.389899  0.115885  0.000000  1
  W  W8  1  0.178011  0.320273  0.500000  1
  W  W9  1  0.820273  0.678011  0.500000  1
