# generated using pymatgen
data_AgICl4
_symmetry_space_group_name_H-M   'P 1'
_cell_length_a   7.23141140
_cell_length_b   7.23141112
_cell_length_c   13.62334194
_cell_angle_alpha   68.71387105
_cell_angle_beta   68.71387256
_cell_angle_gamma   39.60554282
_symmetry_Int_Tables_number   1
_chemical_formula_structural   AgICl4
_chemical_formula_sum   'Ag2 I2 Cl8'
_cell_volume   418.99201258
_cell_formula_units_Z   2
loop_
 _symmetry_equiv_pos_site_id
 _symmetry_equiv_pos_as_xyz
  1  'x, y, z'
loop_
 _atom_site_type_symbol
 _atom_site_label
 _atom_site_symmetry_multiplicity
 _atom_site_fract_x
 _atom_site_fract_y
 _atom_site_fract_z
 _atom_site_occupancy
  Ag  Ag0  1  0.501492  0.498508  0.750000  1
  Ag  Ag1  1  0.498508  0.501492  0.250000  1
  I  I2  1  0.000000  0.000000  0.000000  1
  I  I3  1  0.000000  0.000000  0.500000  1
  Cl  Cl4  1  0.981930  0.241977  0.103826  1
  Cl  Cl5  1  0.758023  0.018070  0.396174  1
  Cl  Cl6  1  0.416462  0.815677  0.344440  1
  Cl  Cl7  1  0.184323  0.583538  0.155560  1
  Cl  Cl8  1  0.583538  0.184323  0.655560  1
  Cl  Cl9  1  0.018070  0.758023  0.896174  1
  Cl  Cl10  1  0.241977  0.981930  0.603826  1
  Cl  Cl11  1  0.815677  0.416462  0.844440  1
