# generated using pymatgen
data_Y9TmSn8
_symmetry_space_group_name_H-M   'P 1'
_cell_length_a   8.04332700
_cell_length_b   8.19257000
_cell_length_c   15.50199700
_cell_angle_alpha   90.00000000
_cell_angle_beta   90.00000000
_cell_angle_gamma   90.00000000
_symmetry_Int_Tables_number   1
_chemical_formula_structural   Y9TmSn8
_chemical_formula_sum   'Y18 Tm2 Sn16'
_cell_volume   1021.51214530
_cell_formula_units_Z   2
loop_
 _symmetry_equiv_pos_site_id
 _symmetry_equiv_pos_as_xyz
  1  'x, y, z'
loop_
 _atom_site_type_symbol
 _atom_site_label
 _atom_site_symmetry_multiplicity
 _atom_site_fract_x
 _atom_site_fract_y
 _atom_site_fract_z
 _atom_site_occupancy
  Y  Y0  1  0.367515  0.836322  0.877726  1
  Y  Y1  1  0.867515  0.663678  0.622274  1
  Y  Y2  1  0.632734  0.163657  0.378140  1
  Y  Y3  1  0.132734  0.336343  0.121860  1
  Y  Y4  1  0.632734  0.163657  0.121860  1
  Y  Y5  1  0.132734  0.336343  0.378140  1
  Y  Y6  1  0.367515  0.836322  0.622274  1
  Y  Y7  1  0.867515  0.663678  0.877726  1
  Y  Y8  1  0.522240  0.320839  0.901929  1
  Y  Y9  1  0.022240  0.179161  0.598071  1
  Y  Y10  1  0.477745  0.679112  0.402205  1
  Y  Y11  1  0.977745  0.820888  0.097795  1
  Y  Y12  1  0.477745  0.679112  0.097795  1
  Y  Y13  1  0.977745  0.820888  0.402205  1
  Y  Y14  1  0.522240  0.320839  0.598071  1
  Y  Y15  1  0.022240  0.179161  0.901929  1
  Y  Y16  1  0.801278  0.497450  0.250000  1
  Y  Y17  1  0.301278  0.002550  0.250000  1
  Tm  Tm18  1  0.198887  0.502681  0.750000  1
  Tm  Tm19  1  0.698887  0.997319  0.750000  1
  Sn  Sn20  1  0.292285  0.034779  0.041789  1
  Sn  Sn21  1  0.792285  0.465221  0.458211  1
  Sn  Sn22  1  0.707666  0.965337  0.542515  1
  Sn  Sn23  1  0.207666  0.534663  0.957485  1
  Sn  Sn24  1  0.707666  0.965337  0.957485  1
  Sn  Sn25  1  0.207666  0.534663  0.542515  1
  Sn  Sn26  1  0.292285  0.034779  0.458211  1
  Sn  Sn27  1  0.792285  0.465221  0.041789  1
  Sn  Sn28  1  0.564281  0.619303  0.750000  1
  Sn  Sn29  1  0.064281  0.880697  0.750000  1
  Sn  Sn30  1  0.434714  0.380985  0.250000  1
  Sn  Sn31  1  0.934714  0.119015  0.250000  1
  Sn  Sn32  1  0.330739  0.148278  0.750000  1
  Sn  Sn33  1  0.830739  0.351722  0.750000  1
  Sn  Sn34  1  0.669734  0.853096  0.250000  1
  Sn  Sn35  1  0.169734  0.646904  0.250000  1
