# generated using pymatgen
data_Nb2ZnF12
_symmetry_space_group_name_H-M   'P 1'
_cell_length_a   5.59803411
_cell_length_b   11.32434377
_cell_length_c   5.59839615
_cell_angle_alpha   57.73895700
_cell_angle_beta   57.09645842
_cell_angle_gamma   57.19061376
_symmetry_Int_Tables_number   1
_chemical_formula_structural   Nb2ZnF12
_chemical_formula_sum   'Nb2 Zn1 F12'
_cell_volume   235.58297749
_cell_formula_units_Z   1
loop_
 _symmetry_equiv_pos_site_id
 _symmetry_equiv_pos_as_xyz
  1  'x, y, z'
loop_
 _atom_site_type_symbol
 _atom_site_label
 _atom_site_symmetry_multiplicity
 _atom_site_fract_x
 _atom_site_fract_y
 _atom_site_fract_z
 _atom_site_occupancy
  Nb  Nb0  1  0.499809  0.239898  0.513698  1
  Nb  Nb1  1  0.500191  0.760102  0.486302  1
  Zn  Zn2  1  0.000000  0.500000  0.000000  1
  F  F3  1  0.140695  0.197291  0.727381  1
  F  F4  1  0.168260  0.674493  0.744782  1
  F  F5  1  0.353842  0.373676  0.161147  1
  F  F6  1  0.382288  0.862981  0.149196  1
  F  F7  1  0.741401  0.079008  0.369443  1
  F  F8  1  0.739254  0.577969  0.355167  1
  F  F9  1  0.260746  0.422031  0.644833  1
  F  F10  1  0.258599  0.920992  0.630557  1
  F  F11  1  0.617712  0.137019  0.850804  1
  F  F12  1  0.646158  0.626324  0.838853  1
  F  F13  1  0.831740  0.325507  0.255218  1
  F  F14  1  0.859305  0.802709  0.272619  1
