# generated using pymatgen
data_Hf12MnNb2Co8WN4
_symmetry_space_group_name_H-M   'P 1'
_cell_length_a   8.36986720
_cell_length_b   8.36986693
_cell_length_c   8.41368600
_cell_angle_alpha   59.82666482
_cell_angle_beta   59.82666590
_cell_angle_gamma   59.67162140
_symmetry_Int_Tables_number   1
_chemical_formula_structural   Hf12MnNb2Co8WN4
_chemical_formula_sum   'Hf12 Mn1 Nb2 Co8 W1 N4'
_cell_volume   414.65018110
_cell_formula_units_Z   1
loop_
 _symmetry_equiv_pos_site_id
 _symmetry_equiv_pos_as_xyz
  1  'x, y, z'
loop_
 _atom_site_type_symbol
 _atom_site_label
 _atom_site_symmetry_multiplicity
 _atom_site_fract_x
 _atom_site_fract_y
 _atom_site_fract_z
 _atom_site_occupancy
  Hf  Hf0  1  0.807964  0.807964  0.189296  1
  Hf  Hf1  1  0.188460  0.188460  0.812152  1
  Hf  Hf2  1  0.809527  0.191893  0.810216  1
  Hf  Hf3  1  0.194825  0.808445  0.187498  1
  Hf  Hf4  1  0.191893  0.809527  0.810216  1
  Hf  Hf5  1  0.808445  0.194825  0.187498  1
  Hf  Hf6  1  0.442036  0.442036  0.060704  1
  Hf  Hf7  1  0.061540  0.061540  0.437848  1
  Hf  Hf8  1  0.440473  0.058107  0.439784  1
  Hf  Hf9  1  0.055175  0.441555  0.062502  1
  Hf  Hf10  1  0.058107  0.440473  0.439784  1
  Hf  Hf11  1  0.441555  0.055175  0.062502  1
  Mn  Mn12  1  0.625000  0.625000  0.125000  1
  Nb  Nb13  1  0.125000  0.625000  0.625000  1
  Nb  Nb14  1  0.625000  0.125000  0.625000  1
  Co  Co15  1  0.739539  0.427344  0.410605  1
  Co  Co16  1  0.427344  0.739539  0.410605  1
  Co  Co17  1  0.422552  0.422552  0.739589  1
  Co  Co18  1  0.424567  0.424567  0.408187  1
  Co  Co19  1  0.510461  0.822656  0.839395  1
  Co  Co20  1  0.822656  0.510461  0.839395  1
  Co  Co21  1  0.827448  0.827448  0.510411  1
  Co  Co22  1  0.825433  0.825433  0.841813  1
  W  W23  1  0.625000  0.625000  0.625000  1
  N  N24  1  0.625000  0.125000  0.125000  1
  N  N25  1  0.125000  0.625000  0.125000  1
  N  N26  1  0.125000  0.125000  0.625000  1
  N  N27  1  0.125000  0.125000  0.125000  1
