# generated using pymatgen
data_LiEr2(Co3P2)3
_symmetry_space_group_name_H-M   'P 1'
_cell_length_a   3.66280400
_cell_length_b   10.23125900
_cell_length_c   11.80394600
_cell_angle_alpha   90.00000000
_cell_angle_beta   90.00000000
_cell_angle_gamma   90.00000000
_symmetry_Int_Tables_number   1
_chemical_formula_structural   LiEr2(Co3P2)3
_chemical_formula_sum   'Li2 Er4 Co18 P12'
_cell_volume   442.35401414
_cell_formula_units_Z   2
loop_
 _symmetry_equiv_pos_site_id
 _symmetry_equiv_pos_as_xyz
  1  'x, y, z'
loop_
 _atom_site_type_symbol
 _atom_site_label
 _atom_site_symmetry_multiplicity
 _atom_site_fract_x
 _atom_site_fract_y
 _atom_site_fract_z
 _atom_site_occupancy
  Li  Li0  1  0.250000  0.702700  0.990916  1
  Li  Li1  1  0.250000  0.797300  0.490916  1
  Er  Er2  1  0.250000  0.579144  0.702222  1
  Er  Er3  1  0.250000  0.920856  0.202222  1
  Er  Er4  1  0.750000  0.420341  0.297505  1
  Er  Er5  1  0.750000  0.079659  0.797505  1
  Co  Co6  1  0.750000  0.288536  0.008579  1
  Co  Co7  1  0.750000  0.211464  0.508579  1
  Co  Co8  1  0.250000  0.404074  0.486814  1
  Co  Co9  1  0.250000  0.095926  0.986814  1
  Co  Co10  1  0.750000  0.591010  0.515004  1
  Co  Co11  1  0.750000  0.908990  0.015004  1
  Co  Co12  1  0.250000  0.224126  0.174833  1
  Co  Co13  1  0.250000  0.275874  0.674833  1
  Co  Co14  1  0.750000  0.779921  0.826043  1
  Co  Co15  1  0.750000  0.720079  0.326043  1
  Co  Co16  1  0.250000  0.881031  0.699054  1
  Co  Co17  1  0.250000  0.618969  0.199054  1
  Co  Co18  1  0.750000  0.120990  0.299555  1
  Co  Co19  1  0.750000  0.379010  0.799555  1
  Co  Co20  1  0.250000  0.463376  0.931517  1
  Co  Co21  1  0.250000  0.036624  0.431517  1
  Co  Co22  1  0.750000  0.533277  0.066554  1
  Co  Co23  1  0.750000  0.966723  0.566554  1
  P  P24  1  0.250000  0.422547  0.112350  1
  P  P25  1  0.250000  0.077453  0.612350  1
  P  P26  1  0.750000  0.577127  0.883854  1
  P  P27  1  0.750000  0.922873  0.383854  1
  P  P28  1  0.250000  0.267274  0.866699  1
  P  P29  1  0.250000  0.232726  0.366699  1
  P  P30  1  0.750000  0.730661  0.138125  1
  P  P31  1  0.750000  0.769339  0.638125  1
  P  P32  1  0.250000  0.600975  0.393020  1
  P  P33  1  0.250000  0.899025  0.893020  1
  P  P34  1  0.750000  0.396115  0.607356  1
  P  P35  1  0.750000  0.103885  0.107356  1
