# generated using pymatgen
data_Tb4Y4Cd2NiOs
_symmetry_space_group_name_H-M   'P 1'
_cell_length_a   9.61628727
_cell_length_b   9.61628754
_cell_length_c   9.71149400
_cell_angle_alpha   59.67194871
_cell_angle_beta   59.67194776
_cell_angle_gamma   59.61406508
_symmetry_Int_Tables_number   1
_chemical_formula_structural   Tb4Y4Cd2NiOs
_chemical_formula_sum   'Tb8 Y8 Cd4 Ni2 Os2'
_cell_volume   630.00568899
_cell_formula_units_Z   2
loop_
 _symmetry_equiv_pos_site_id
 _symmetry_equiv_pos_as_xyz
  1  'x, y, z'
loop_
 _atom_site_type_symbol
 _atom_site_label
 _atom_site_symmetry_multiplicity
 _atom_site_fract_x
 _atom_site_fract_y
 _atom_site_fract_z
 _atom_site_occupancy
  Tb  Tb0  1  0.599868  0.599868  0.593622  1
  Tb  Tb1  1  0.599868  0.599868  0.206640  1
  Tb  Tb2  1  0.601921  0.205793  0.596142  1
  Tb  Tb3  1  0.205793  0.601921  0.596142  1
  Tb  Tb4  1  0.060825  0.436610  0.440687  1
  Tb  Tb5  1  0.436610  0.060825  0.061878  1
  Tb  Tb6  1  0.436610  0.060825  0.440687  1
  Tb  Tb7  1  0.060825  0.436610  0.061878  1
  Y  Y8  1  0.439079  0.439079  0.060921  1
  Y  Y9  1  0.059072  0.059072  0.440928  1
  Y  Y10  1  0.188960  0.806356  0.816488  1
  Y  Y11  1  0.806356  0.188960  0.188196  1
  Y  Y12  1  0.806356  0.188960  0.816488  1
  Y  Y13  1  0.188960  0.806356  0.188196  1
  Y  Y14  1  0.814692  0.814692  0.185308  1
  Y  Y15  1  0.191675  0.191675  0.808325  1
  Cd  Cd16  1  0.829467  0.829467  0.832193  1
  Cd  Cd17  1  0.829467  0.829467  0.508871  1
  Cd  Cd18  1  0.829687  0.506498  0.831906  1
  Cd  Cd19  1  0.506498  0.829687  0.831906  1
  Ni  Ni20  1  0.394128  0.826626  0.389624  1
  Ni  Ni21  1  0.826626  0.394128  0.389624  1
  Os  Os22  1  0.393327  0.393327  0.389250  1
  Os  Os23  1  0.393327  0.393327  0.824097  1
