# generated using pymatgen
data_Tm2Lu2Al4OsPt3
_symmetry_space_group_name_H-M   'P 1'
_cell_length_a   4.29914400
_cell_length_b   6.75173098
_cell_length_c   7.86617506
_cell_angle_alpha   89.73799276
_cell_angle_beta   90.00000000
_cell_angle_gamma   90.00000000
_symmetry_Int_Tables_number   1
_chemical_formula_structural   Tm2Lu2Al4OsPt3
_chemical_formula_sum   'Tm2 Lu2 Al4 Os1 Pt3'
_cell_volume   228.32643084
_cell_formula_units_Z   1
loop_
 _symmetry_equiv_pos_site_id
 _symmetry_equiv_pos_as_xyz
  1  'x, y, z'
loop_
 _atom_site_type_symbol
 _atom_site_label
 _atom_site_symmetry_multiplicity
 _atom_site_fract_x
 _atom_site_fract_y
 _atom_site_fract_z
 _atom_site_occupancy
  Tm  Tm0  1  0.250000  0.034321  0.675666  1
  Tm  Tm1  1  0.250000  0.530090  0.820907  1
  Lu  Lu2  1  0.750000  0.977111  0.323824  1
  Lu  Lu3  1  0.750000  0.464213  0.182714  1
  Al  Al4  1  0.250000  0.141742  0.061462  1
  Al  Al5  1  0.250000  0.638406  0.439410  1
  Al  Al6  1  0.750000  0.859243  0.941011  1
  Al  Al7  1  0.750000  0.357037  0.556888  1
  Os  Os8  1  0.250000  0.263890  0.374805  1
  Pt  Pt9  1  0.250000  0.765405  0.121323  1
  Pt  Pt10  1  0.750000  0.734323  0.624997  1
  Pt  Pt11  1  0.750000  0.234220  0.876992  1
