# generated using pymatgen
data_Tm4LuOsRu
_symmetry_space_group_name_H-M   'P 1'
_cell_length_a   6.24653419
_cell_length_b   7.26717667
_cell_length_c   8.31353565
_cell_angle_alpha   96.98252047
_cell_angle_beta   112.04916043
_cell_angle_gamma   89.90675685
_symmetry_Int_Tables_number   1
_chemical_formula_structural   Tm4LuOsRu
_chemical_formula_sum   'Tm8 Lu2 Os2 Ru2'
_cell_volume   346.79690341
_cell_formula_units_Z   2
loop_
 _symmetry_equiv_pos_site_id
 _symmetry_equiv_pos_as_xyz
  1  'x, y, z'
loop_
 _atom_site_type_symbol
 _atom_site_label
 _atom_site_symmetry_multiplicity
 _atom_site_fract_x
 _atom_site_fract_y
 _atom_site_fract_z
 _atom_site_occupancy
  Tm  Tm0  1  0.521882  0.083229  0.814823  1
  Tm  Tm1  1  0.478118  0.916771  0.185177  1
  Tm  Tm2  1  0.708453  0.416001  0.183059  1
  Tm  Tm3  1  0.291547  0.583999  0.816941  1
  Tm  Tm4  1  0.299595  0.315838  0.435432  1
  Tm  Tm5  1  0.700405  0.684162  0.564568  1
  Tm  Tm6  1  0.864277  0.185858  0.566458  1
  Tm  Tm7  1  0.135723  0.814142  0.433542  1
  Lu  Lu8  1  0.079286  0.250782  0.000082  1
  Lu  Lu9  1  0.920714  0.749218  0.999918  1
  Os  Os10  1  0.319702  0.577815  0.217953  1
  Os  Os11  1  0.680298  0.422185  0.782047  1
  Ru  Ru12  1  0.100901  0.923814  0.779535  1
  Ru  Ru13  1  0.899099  0.076186  0.220465  1
