# generated using pymatgen
data_NaCa(SmB12)2
_symmetry_space_group_name_H-M   'P 1'
_cell_length_a   7.15772378
_cell_length_b   7.15772428
_cell_length_c   5.85457900
_cell_angle_alpha   90.00000000
_cell_angle_beta   90.00000000
_cell_angle_gamma   109.34586802
_symmetry_Int_Tables_number   1
_chemical_formula_structural   NaCa(SmB12)2
_chemical_formula_sum   'Na1 Ca1 Sm2 B24'
_cell_volume   283.01149229
_cell_formula_units_Z   1
loop_
 _symmetry_equiv_pos_site_id
 _symmetry_equiv_pos_as_xyz
  1  'x, y, z'
loop_
 _atom_site_type_symbol
 _atom_site_label
 _atom_site_symmetry_multiplicity
 _atom_site_fract_x
 _atom_site_fract_y
 _atom_site_fract_z
 _atom_site_occupancy
  Na  Na0  1  0.748858  0.251142  0.500000  1
  Ca  Ca1  1  0.998081  0.001919  0.000000  1
  Sm  Sm2  1  0.501317  0.498683  0.000000  1
  Sm  Sm3  1  0.251001  0.748999  0.500000  1
  B  B4  1  0.175374  0.325545  0.649018  1
  B  B5  1  0.925467  0.574631  0.150015  1
  B  B6  1  0.674455  0.824626  0.649018  1
  B  B7  1  0.425369  0.074533  0.150015  1
  B  B8  1  0.175374  0.325545  0.350982  1
  B  B9  1  0.925467  0.574631  0.849985  1
  B  B10  1  0.674455  0.824626  0.350982  1
  B  B11  1  0.425369  0.074533  0.849985  1
  B  B12  1  0.400834  0.398860  0.500000  1
  B  B13  1  0.149356  0.650454  0.000000  1
  B  B14  1  0.898794  0.900203  0.500000  1
  B  B15  1  0.649827  0.148981  0.000000  1
  B  B16  1  0.325331  0.175151  0.649139  1
  B  B17  1  0.075226  0.425856  0.149909  1
  B  B18  1  0.824849  0.674669  0.649139  1
  B  B19  1  0.574144  0.924774  0.149909  1
  B  B20  1  0.099797  0.101206  0.500000  1
  B  B21  1  0.851019  0.350173  0.000000  1
  B  B22  1  0.601140  0.599166  0.500000  1
  B  B23  1  0.349546  0.850644  0.000000  1
  B  B24  1  0.325331  0.175151  0.350861  1
  B  B25  1  0.075226  0.425856  0.850091  1
  B  B26  1  0.824849  0.674669  0.350861  1
  B  B27  1  0.574144  0.924774  0.850091  1
