# generated using pymatgen
data_Sm8Si11GePt4
_symmetry_space_group_name_H-M   'P 1'
_cell_length_a   8.26230200
_cell_length_b   8.26230755
_cell_length_c   8.59616400
_cell_angle_alpha   90.00158802
_cell_angle_beta   89.99848132
_cell_angle_gamma   120.11396436
_symmetry_Int_Tables_number   1
_chemical_formula_structural   Sm8Si11GePt4
_chemical_formula_sum   'Sm8 Si11 Ge1 Pt4'
_cell_volume   507.61899451
_cell_formula_units_Z   1
loop_
 _symmetry_equiv_pos_site_id
 _symmetry_equiv_pos_as_xyz
  1  'x, y, z'
loop_
 _atom_site_type_symbol
 _atom_site_label
 _atom_site_symmetry_multiplicity
 _atom_site_fract_x
 _atom_site_fract_y
 _atom_site_fract_z
 _atom_site_occupancy
  Sm  Sm0  1  0.499976  0.500023  0.748694  1
  Sm  Sm1  1  0.500390  0.499611  0.251334  1
  Sm  Sm2  1  0.000639  0.500754  0.749692  1
  Sm  Sm3  1  0.999807  0.500334  0.250309  1
  Sm  Sm4  1  0.499244  0.999359  0.749691  1
  Sm  Sm5  1  0.499668  0.000194  0.250310  1
  Sm  Sm6  1  0.000658  0.999342  0.748710  1
  Sm  Sm7  1  0.000645  0.999355  0.251255  1
  Si  Si8  1  0.165934  0.834066  0.000659  1
  Si  Si9  1  0.330896  0.164971  0.999315  1
  Si  Si10  1  0.166107  0.833893  0.499384  1
  Si  Si11  1  0.664937  0.827521  0.000731  1
  Si  Si12  1  0.834045  0.165954  0.500599  1
  Si  Si13  1  0.835029  0.669104  0.999315  1
  Si  Si14  1  0.668340  0.834153  0.499395  1
  Si  Si15  1  0.172479  0.335063  0.000732  1
  Si  Si16  1  0.331843  0.166067  0.500604  1
  Si  Si17  1  0.165847  0.331660  0.499395  1
  Si  Si18  1  0.833933  0.668156  0.500604  1
  Ge  Ge19  1  0.834973  0.165028  0.999242  1
  Pt  Pt20  1  0.661987  0.338013  0.999866  1
  Pt  Pt21  1  0.332545  0.667455  0.000155  1
  Pt  Pt22  1  0.333056  0.666944  0.499769  1
  Pt  Pt23  1  0.667022  0.332977  0.500240  1
