# generated using pymatgen
data_Nd3NbIn2Ir3
_symmetry_space_group_name_H-M   'P 1'
_cell_length_a   7.48032491
_cell_length_b   7.19709957
_cell_length_c   4.34238900
_cell_angle_alpha   90.00000000
_cell_angle_beta   90.00000000
_cell_angle_gamma   118.75521662
_symmetry_Int_Tables_number   1
_chemical_formula_structural   Nd3NbIn2Ir3
_chemical_formula_sum   'Nd3 Nb1 In2 Ir3'
_cell_volume   204.95063292
_cell_formula_units_Z   1
loop_
 _symmetry_equiv_pos_site_id
 _symmetry_equiv_pos_as_xyz
  1  'x, y, z'
loop_
 _atom_site_type_symbol
 _atom_site_label
 _atom_site_symmetry_multiplicity
 _atom_site_fract_x
 _atom_site_fract_y
 _atom_site_fract_z
 _atom_site_occupancy
  Nd  Nd0  1  0.584022  0.584880  0.000000  1
  Nd  Nd1  1  0.415978  0.000858  0.000000  1
  Nd  Nd2  1  0.000000  0.402631  0.000000  1
  Nb  Nb3  1  0.000000  0.758034  0.500000  1
  In  In4  1  0.246871  0.246967  0.500000  1
  In  In5  1  0.753129  0.000096  0.500000  1
  Ir  Ir6  1  0.000000  0.958717  0.000000  1
  Ir  Ir7  1  0.692588  0.370202  0.500000  1
  Ir  Ir8  1  0.307412  0.677614  0.500000  1
