# generated using pymatgen
data_Ho3ScGa2Pt3
_symmetry_space_group_name_H-M   'P 1'
_cell_length_a   7.21962200
_cell_length_b   7.24498703
_cell_length_c   4.08346200
_cell_angle_alpha   90.00000000
_cell_angle_beta   90.00000000
_cell_angle_gamma   119.88425377
_symmetry_Int_Tables_number   1
_chemical_formula_structural   Ho3ScGa2Pt3
_chemical_formula_sum   'Ho3 Sc1 Ga2 Pt3'
_cell_volume   185.18959191
_cell_formula_units_Z   1
loop_
 _symmetry_equiv_pos_site_id
 _symmetry_equiv_pos_as_xyz
  1  'x, y, z'
loop_
 _atom_site_type_symbol
 _atom_site_label
 _atom_site_symmetry_multiplicity
 _atom_site_fract_x
 _atom_site_fract_y
 _atom_site_fract_z
 _atom_site_occupancy
  Ho  Ho0  1  0.611797  0.000000  0.499999  1
  Ho  Ho1  1  0.414002  0.427099  0.499999  1
  Ho  Ho2  1  0.986902  0.572901  0.499999  1
  Sc  Sc3  1  0.239531  0.000000  0.000000  1
  Ga  Ga4  1  0.001844  0.251065  0.000000  1
  Ga  Ga5  1  0.750780  0.748935  0.000000  1
  Pt  Pt6  1  0.660944  0.329432  0.000000  1
  Pt  Pt7  1  0.331512  0.670568  0.000000  1
  Pt  Pt8  1  0.002686  0.000000  0.499999  1
