# generated using pymatgen
data_La8InAgIr2
_symmetry_space_group_name_H-M   'P 1'
_cell_length_a   10.14835893
_cell_length_b   10.11045028
_cell_length_c   10.11045000
_cell_angle_alpha   60.31623203
_cell_angle_beta   60.37409102
_cell_angle_gamma   60.37408981
_symmetry_Int_Tables_number   1
_chemical_formula_structural   La8InAgIr2
_chemical_formula_sum   'La16 In2 Ag2 Ir4'
_cell_volume   739.42357458
_cell_formula_units_Z   2
loop_
 _symmetry_equiv_pos_site_id
 _symmetry_equiv_pos_as_xyz
  1  'x, y, z'
loop_
 _atom_site_type_symbol
 _atom_site_label
 _atom_site_symmetry_multiplicity
 _atom_site_fract_x
 _atom_site_fract_y
 _atom_site_fract_z
 _atom_site_occupancy
  La  La0  1  0.705595  0.098236  0.098279  1
  La  La1  1  0.556418  0.943238  0.943250  1
  La  La2  1  0.097453  0.707083  0.097861  1
  La  La3  1  0.941225  0.938913  0.559649  1
  La  La4  1  0.941206  0.559662  0.938898  1
  La  La5  1  0.313893  0.685586  0.308710  1
  La  La6  1  0.938608  0.560214  0.560178  1
  La  La7  1  0.313893  0.308702  0.685594  1
  La  La8  1  0.096300  0.097827  0.097825  1
  La  La9  1  0.558172  0.559725  0.940695  1
  La  La10  1  0.097468  0.097843  0.707076  1
  La  La11  1  0.694801  0.306457  0.687555  1
  La  La12  1  0.694797  0.687566  0.306462  1
  La  La13  1  0.694141  0.308144  0.308141  1
  La  La14  1  0.311697  0.689137  0.689142  1
  La  La15  1  0.558168  0.940703  0.559697  1
  In  In16  1  0.327588  0.013903  0.331514  1
  In  In17  1  0.327587  0.331509  0.013907  1
  Ag  Ag18  1  0.333252  0.330322  0.330322  1
  Ag  Ag19  1  0.005262  0.331420  0.331420  1
  Ir  Ir20  1  0.888779  0.892215  0.892225  1
  Ir  Ir21  1  0.889153  0.891040  0.327963  1
  Ir  Ir22  1  0.325381  0.892597  0.892594  1
  Ir  Ir23  1  0.889163  0.327959  0.891042  1
