# generated using pymatgen
data_La3Pr8Gd9Sn16
_symmetry_space_group_name_H-M   'P 1'
_cell_length_a   8.14992909
_cell_length_b   8.32808694
_cell_length_c   15.71804300
_cell_angle_alpha   90.09274696
_cell_angle_beta   89.85227386
_cell_angle_gamma   90.06320309
_symmetry_Int_Tables_number   1
_chemical_formula_structural   La3Pr8Gd9Sn16
_chemical_formula_sum   'La3 Pr8 Gd9 Sn16'
_cell_volume   1066.83014310
_cell_formula_units_Z   1
loop_
 _symmetry_equiv_pos_site_id
 _symmetry_equiv_pos_as_xyz
  1  'x, y, z'
loop_
 _atom_site_type_symbol
 _atom_site_label
 _atom_site_symmetry_multiplicity
 _atom_site_fract_x
 _atom_site_fract_y
 _atom_site_fract_z
 _atom_site_occupancy
  La  La0  1  0.358825  0.833994  0.881170  1
  La  La1  1  0.861786  0.664672  0.621373  1
  La  La2  1  0.639036  0.164544  0.377813  1
  Pr  Pr3  1  0.509961  0.319274  0.904661  1
  Pr  Pr4  1  0.010511  0.180261  0.596441  1
  Pr  Pr5  1  0.488755  0.679469  0.402696  1
  Pr  Pr6  1  0.990001  0.820360  0.096129  1
  Pr  Pr7  1  0.489386  0.680568  0.095984  1
  Pr  Pr8  1  0.988269  0.819789  0.401742  1
  Pr  Pr9  1  0.512275  0.319287  0.597592  1
  Pr  Pr10  1  0.011645  0.180355  0.904691  1
  Gd  Gd11  1  0.141641  0.336318  0.124008  1
  Gd  Gd12  1  0.643435  0.163654  0.121559  1
  Gd  Gd13  1  0.142865  0.336548  0.376045  1
  Gd  Gd14  1  0.356578  0.836104  0.623272  1
  Gd  Gd15  1  0.855993  0.664942  0.876306  1
  Gd  Gd16  1  0.188450  0.501552  0.749060  1
  Gd  Gd17  1  0.687971  0.997496  0.752109  1
  Gd  Gd18  1  0.811917  0.497756  0.247799  1
  Gd  Gd19  1  0.310609  0.002577  0.250978  1
  Sn  Sn20  1  0.304722  0.044804  0.045404  1
  Sn  Sn21  1  0.809246  0.463351  0.454646  1
  Sn  Sn22  1  0.688493  0.962695  0.545186  1
  Sn  Sn23  1  0.185825  0.533070  0.959172  1
  Sn  Sn24  1  0.704461  0.961436  0.959771  1
  Sn  Sn25  1  0.206204  0.537114  0.539909  1
  Sn  Sn26  1  0.294648  0.037920  0.460798  1
  Sn  Sn27  1  0.807204  0.460177  0.039693  1
  Sn  Sn28  1  0.555775  0.612314  0.750746  1
  Sn  Sn29  1  0.057171  0.887589  0.750074  1
  Sn  Sn30  1  0.442315  0.386776  0.247496  1
  Sn  Sn31  1  0.945281  0.116386  0.247724  1
  Sn  Sn32  1  0.314614  0.144463  0.749433  1
  Sn  Sn33  1  0.815182  0.354256  0.752102  1
  Sn  Sn34  1  0.684663  0.854957  0.247142  1
  Sn  Sn35  1  0.184284  0.643175  0.249277  1
