# generated using pymatgen
data_Er2Co10Si7Ru2
_symmetry_space_group_name_H-M   'P 1'
_cell_length_a   3.70544200
_cell_length_b   9.13050014
_cell_length_c   9.16418125
_cell_angle_alpha   120.22696655
_cell_angle_beta   90.00000000
_cell_angle_gamma   90.00000000
_symmetry_Int_Tables_number   1
_chemical_formula_structural   Er2Co10Si7Ru2
_chemical_formula_sum   'Er2 Co10 Si7 Ru2'
_cell_volume   267.89282315
_cell_formula_units_Z   1
loop_
 _symmetry_equiv_pos_site_id
 _symmetry_equiv_pos_as_xyz
  1  'x, y, z'
loop_
 _atom_site_type_symbol
 _atom_site_label
 _atom_site_symmetry_multiplicity
 _atom_site_fract_x
 _atom_site_fract_y
 _atom_site_fract_z
 _atom_site_occupancy
  Er  Er0  1  0.000000  0.667598  0.334694  1
  Er  Er1  1  0.500000  0.334419  0.667735  1
  Co  Co2  1  0.000000  0.566425  0.944540  1
  Co  Co3  1  0.000000  0.377651  0.431914  1
  Co  Co4  1  0.000000  0.055421  0.622831  1
  Co  Co5  1  0.500000  0.103190  0.878879  1
  Co  Co6  1  0.000000  0.872693  0.156314  1
  Co  Co7  1  0.000000  0.282106  0.124636  1
  Co  Co8  1  0.000000  0.847761  0.718540  1
  Co  Co9  1  0.500000  0.947283  0.384717  1
  Co  Co10  1  0.500000  0.431362  0.049436  1
  Co  Co11  1  0.500000  0.616756  0.565151  1
  Si  Si12  1  0.000000  0.001865  0.998886  1
  Si  Si13  1  0.500000  0.706062  0.112890  1
  Si  Si14  1  0.500000  0.403088  0.290133  1
  Si  Si15  1  0.500000  0.890018  0.599780  1
  Si  Si16  1  0.000000  0.595654  0.707053  1
  Si  Si17  1  0.000000  0.113337  0.407117  1
  Si  Si18  1  0.000000  0.289457  0.886573  1
  Ru  Ru19  1  0.500000  0.784898  0.901844  1
  Ru  Ru20  1  0.500000  0.112955  0.216340  1
