# generated using pymatgen
data_Dy7ScV7Si16W5
_symmetry_space_group_name_H-M   'P 1'
_cell_length_a   6.81119111
_cell_length_b   6.81661178
_cell_length_c   12.68672105
_cell_angle_alpha   89.96851644
_cell_angle_beta   90.08914432
_cell_angle_gamma   90.07433557
_symmetry_Int_Tables_number   1
_chemical_formula_structural   Dy7ScV7Si16W5
_chemical_formula_sum   'Dy7 Sc1 V7 Si16 W5'
_cell_volume   589.03359009
_cell_formula_units_Z   1
loop_
 _symmetry_equiv_pos_site_id
 _symmetry_equiv_pos_as_xyz
  1  'x, y, z'
loop_
 _atom_site_type_symbol
 _atom_site_label
 _atom_site_symmetry_multiplicity
 _atom_site_fract_x
 _atom_site_fract_y
 _atom_site_fract_z
 _atom_site_occupancy
  Dy  Dy0  1  0.000498  0.663133  0.030808  1
  Dy  Dy1  1  0.836423  0.498759  0.282252  1
  Dy  Dy2  1  0.164368  0.499988  0.778980  1
  Dy  Dy3  1  0.500049  0.836657  0.719059  1
  Dy  Dy4  1  0.500384  0.163771  0.220032  1
  Dy  Dy5  1  0.000112  0.335340  0.530024  1
  Dy  Dy6  1  0.664958  0.000117  0.969219  1
  Sc  Sc7  1  0.339345  0.993528  0.469343  1
  V  V8  1  0.338791  0.507724  0.375521  1
  V  V9  1  0.661273  0.492399  0.874318  1
  V  V10  1  0.504874  0.338781  0.623447  1
  V  V11  1  0.492842  0.661853  0.126187  1
  V  V12  1  0.991435  0.841813  0.623655  1
  V  V13  1  0.161363  0.007708  0.874772  1
  V  V14  1  0.839584  0.994453  0.375023  1
  Si  Si15  1  0.292532  0.958358  0.063190  1
  Si  Si16  1  0.537530  0.791377  0.316857  1
  Si  Si17  1  0.460506  0.211250  0.812779  1
  Si  Si18  1  0.787989  0.538985  0.685423  1
  Si  Si19  1  0.213593  0.462653  0.188112  1
  Si  Si20  1  0.705524  0.039372  0.562092  1
  Si  Si21  1  0.960014  0.290343  0.933577  1
  Si  Si22  1  0.041740  0.715523  0.437134  1
  Si  Si23  1  0.700067  0.380268  0.065393  1
  Si  Si24  1  0.128260  0.199814  0.321659  1
  Si  Si25  1  0.878511  0.798326  0.815053  1
  Si  Si26  1  0.203463  0.121468  0.681287  1
  Si  Si27  1  0.795542  0.872950  0.185488  1
  Si  Si28  1  0.297473  0.627042  0.564848  1
  Si  Si29  1  0.378247  0.700520  0.933919  1
  Si  Si30  1  0.617317  0.294106  0.434245  1
  W  W31  1  0.332098  0.331704  0.999666  1
  W  W32  1  0.168929  0.832675  0.251989  1
  W  W33  1  0.831580  0.167249  0.748285  1
  W  W34  1  0.666806  0.668588  0.500181  1
  W  W35  1  0.005978  0.161405  0.126184  1
