# generated using pymatgen
data_HoSc5Co16(P6Ru)2
_symmetry_space_group_name_H-M   'P 1'
_cell_length_a   3.63379900
_cell_length_b   10.41114000
_cell_length_c   12.03786200
_cell_angle_alpha   90.00000000
_cell_angle_beta   90.00000000
_cell_angle_gamma   90.00000000
_symmetry_Int_Tables_number   1
_chemical_formula_structural   HoSc5Co16(P6Ru)2
_chemical_formula_sum   'Ho1 Sc5 Co16 P12 Ru2'
_cell_volume   455.41627626
_cell_formula_units_Z   1
loop_
 _symmetry_equiv_pos_site_id
 _symmetry_equiv_pos_as_xyz
  1  'x, y, z'
loop_
 _atom_site_type_symbol
 _atom_site_label
 _atom_site_symmetry_multiplicity
 _atom_site_fract_x
 _atom_site_fract_y
 _atom_site_fract_z
 _atom_site_occupancy
  Ho  Ho0  1  0.500000  0.000000  0.472297  1
  Sc  Sc1  1  0.000000  0.500000  0.526861  1
  Sc  Sc2  1  0.500000  0.818173  0.206807  1
  Sc  Sc3  1  0.500000  0.181827  0.206807  1
  Sc  Sc4  1  0.000000  0.680076  0.792085  1
  Sc  Sc5  1  0.000000  0.319924  0.792085  1
  Co  Co6  1  0.000000  0.500000  0.986479  1
  Co  Co7  1  0.500000  0.000000  0.013036  1
  Co  Co8  1  0.500000  0.299604  0.432184  1
  Co  Co9  1  0.500000  0.700396  0.432184  1
  Co  Co10  1  0.000000  0.204641  0.568558  1
  Co  Co11  1  0.000000  0.795359  0.568558  1
  Co  Co12  1  0.500000  0.875661  0.707609  1
  Co  Co13  1  0.500000  0.124339  0.707609  1
  Co  Co14  1  0.000000  0.622706  0.293362  1
  Co  Co15  1  0.000000  0.377294  0.293362  1
  Co  Co16  1  0.500000  0.332700  0.989701  1
  Co  Co17  1  0.500000  0.667300  0.989701  1
  Co  Co18  1  0.000000  0.168238  0.010308  1
  Co  Co19  1  0.000000  0.831762  0.010308  1
  Co  Co20  1  0.500000  0.500000  0.703467  1
  Co  Co21  1  0.000000  0.000000  0.294251  1
  P  P22  1  0.500000  0.316174  0.618275  1
  P  P23  1  0.500000  0.683826  0.618275  1
  P  P24  1  0.000000  0.187155  0.380224  1
  P  P25  1  0.000000  0.812845  0.380224  1
  P  P26  1  0.500000  0.500000  0.879003  1
  P  P27  1  0.000000  0.000000  0.119578  1
  P  P28  1  0.500000  0.842918  0.890588  1
  P  P29  1  0.500000  0.157082  0.890588  1
  P  P30  1  0.000000  0.655860  0.109775  1
  P  P31  1  0.000000  0.344140  0.109775  1
  P  P32  1  0.500000  0.500000  0.356212  1
  P  P33  1  0.000000  0.000000  0.647994  1
  Ru  Ru34  1  0.500000  0.500000  0.161552  1
  Ru  Ru35  1  0.000000  0.000000  0.840317  1
