# generated using pymatgen
data_SrTbZr2(Al8Pt3)3
_symmetry_space_group_name_H-M   'P 1'
_cell_length_a   7.52247239
_cell_length_b   7.53912901
_cell_length_c   13.13583830
_cell_angle_alpha   84.60376436
_cell_angle_beta   79.01390653
_cell_angle_gamma   59.93758749
_symmetry_Int_Tables_number   1
_chemical_formula_structural   SrTbZr2(Al8Pt3)3
_chemical_formula_sum   'Sr1 Tb1 Zr2 Al24 Pt9'
_cell_volume   632.94091621
_cell_formula_units_Z   1
loop_
 _symmetry_equiv_pos_site_id
 _symmetry_equiv_pos_as_xyz
  1  'x, y, z'
loop_
 _atom_site_type_symbol
 _atom_site_label
 _atom_site_symmetry_multiplicity
 _atom_site_fract_x
 _atom_site_fract_y
 _atom_site_fract_z
 _atom_site_occupancy
  Sr  Sr0  1  0.392810  0.168345  0.809757  1
  Tb  Tb1  1  0.266288  0.501099  0.192187  1
  Zr  Zr2  1  0.605623  0.831347  0.191580  1
  Zr  Zr3  1  0.733220  0.498721  0.808842  1
  Al  Al4  1  0.684986  0.829657  0.946908  1
  Al  Al5  1  0.317162  0.163526  0.058564  1
  Al  Al6  1  0.146626  0.832636  0.560295  1
  Al  Al7  1  0.854077  0.167985  0.437117  1
  Al  Al8  1  0.480172  0.166159  0.557896  1
  Al  Al9  1  0.521064  0.833283  0.438948  1
  Al  Al10  1  0.221092  0.163100  0.327247  1
  Al  Al11  1  0.782351  0.832379  0.669132  1
  Al  Al12  1  0.440395  0.505944  0.669139  1
  Al  Al13  1  0.563872  0.495685  0.327483  1
  Al  Al14  1  0.107785  0.163062  0.667741  1
  Al  Al15  1  0.888835  0.840094  0.328628  1
  Al  Al16  1  0.354178  0.501485  0.945890  1
  Al  Al17  1  0.646431  0.503748  0.056757  1
  Al  Al18  1  0.011373  0.168963  0.955260  1
  Al  Al19  1  0.980628  0.832268  0.050308  1
  Al  Al20  1  0.186765  0.499534  0.440142  1
  Al  Al21  1  0.812697  0.500387  0.559472  1
  Al  Al22  1  0.734139  0.158593  0.184051  1
  Al  Al23  1  0.275291  0.821778  0.815989  1
  Al  Al24  1  0.048396  0.636556  0.815155  1
  Al  Al25  1  0.931980  0.374634  0.185475  1
  Al  Al26  1  0.861820  0.049339  0.816020  1
  Al  Al27  1  0.149082  0.959014  0.185079  1
  Pt  Pt28  1  0.119227  0.494683  0.636462  1
  Pt  Pt29  1  0.880740  0.508310  0.361176  1
  Pt  Pt30  1  0.656626  0.171192  0.001926  1
  Pt  Pt31  1  0.341174  0.828397  0.002665  1
  Pt  Pt32  1  0.537946  0.167051  0.360913  1
  Pt  Pt33  1  0.461131  0.832308  0.636222  1
  Pt  Pt34  1  0.782200  0.173573  0.635115  1
  Pt  Pt35  1  0.221844  0.824614  0.362172  1
  Pt  Pt36  1  0.999972  0.500547  0.002284  1
