# generated using pymatgen
data_LaPr17(InIr6)2
_symmetry_space_group_name_H-M   'P 1'
_cell_length_a   11.34075900
_cell_length_b   11.34075900
_cell_length_c   6.56577900
_cell_angle_alpha   90.00000000
_cell_angle_beta   90.00000000
_cell_angle_gamma   90.00000000
_symmetry_Int_Tables_number   1
_chemical_formula_structural   LaPr17(InIr6)2
_chemical_formula_sum   'La1 Pr17 In2 Ir12'
_cell_volume   844.44331786
_cell_formula_units_Z   1
loop_
 _symmetry_equiv_pos_site_id
 _symmetry_equiv_pos_as_xyz
  1  'x, y, z'
loop_
 _atom_site_type_symbol
 _atom_site_label
 _atom_site_symmetry_multiplicity
 _atom_site_fract_x
 _atom_site_fract_y
 _atom_site_fract_z
 _atom_site_occupancy
  La  La0  1  0.000000  0.000000  0.000000  1
  Pr  Pr1  1  0.283691  0.088296  0.388697  1
  Pr  Pr2  1  0.292402  0.911488  0.883023  1
  Pr  Pr3  1  0.707598  0.088512  0.883023  1
  Pr  Pr4  1  0.716309  0.911704  0.388697  1
  Pr  Pr5  1  0.587734  0.783247  0.888391  1
  Pr  Pr6  1  0.589124  0.208164  0.383283  1
  Pr  Pr7  1  0.410876  0.791836  0.383283  1
  Pr  Pr8  1  0.412266  0.216753  0.888391  1
  Pr  Pr9  1  0.208164  0.410876  0.616717  1
  Pr  Pr10  1  0.216753  0.587734  0.111609  1
  Pr  Pr11  1  0.783247  0.412266  0.111609  1
  Pr  Pr12  1  0.791836  0.589124  0.616717  1
  Pr  Pr13  1  0.911488  0.707598  0.116977  1
  Pr  Pr14  1  0.911704  0.283691  0.611303  1
  Pr  Pr15  1  0.088296  0.716309  0.611303  1
  Pr  Pr16  1  0.088512  0.292402  0.116977  1
  Pr  Pr17  1  0.500000  0.500000  0.500000  1
  In  In18  1  0.000000  0.000000  0.500000  1
  In  In19  1  0.500000  0.500000  0.000000  1
  Ir  Ir20  1  0.848608  0.153980  0.244474  1
  Ir  Ir21  1  0.846020  0.848608  0.755526  1
  Ir  Ir22  1  0.153980  0.151392  0.755526  1
  Ir  Ir23  1  0.151392  0.846020  0.244474  1
  Ir  Ir24  1  0.654871  0.347334  0.745716  1
  Ir  Ir25  1  0.652666  0.654871  0.254284  1
  Ir  Ir26  1  0.347334  0.345129  0.254284  1
  Ir  Ir27  1  0.345129  0.652666  0.745716  1
  Ir  Ir28  1  0.500000  0.000000  0.117602  1
  Ir  Ir29  1  0.500000  0.000000  0.617225  1
  Ir  Ir30  1  0.000000  0.500000  0.882398  1
  Ir  Ir31  1  0.000000  0.500000  0.382775  1
