# generated using pymatgen
data_Sc12Ni2PtI16
_symmetry_space_group_name_H-M   'P 1'
_cell_length_a   9.30100967
_cell_length_b   12.02913557
_cell_length_c   12.64337727
_cell_angle_alpha   117.18127174
_cell_angle_beta   101.33595459
_cell_angle_gamma   100.80800992
_symmetry_Int_Tables_number   1
_chemical_formula_structural   Sc12Ni2PtI16
_chemical_formula_sum   'Sc12 Ni2 Pt1 I16'
_cell_volume   1169.79266672
_cell_formula_units_Z   1
loop_
 _symmetry_equiv_pos_site_id
 _symmetry_equiv_pos_as_xyz
  1  'x, y, z'
loop_
 _atom_site_type_symbol
 _atom_site_label
 _atom_site_symmetry_multiplicity
 _atom_site_fract_x
 _atom_site_fract_y
 _atom_site_fract_z
 _atom_site_occupancy
  Sc  Sc0  1  0.092646  0.278409  0.363646  1
  Sc  Sc1  1  0.907354  0.721591  0.636354  1
  Sc  Sc2  1  0.780923  0.533995  0.335355  1
  Sc  Sc3  1  0.219077  0.466005  0.664645  1
  Sc  Sc4  1  0.273098  0.721685  0.635888  1
  Sc  Sc5  1  0.726902  0.278315  0.364112  1
  Sc  Sc6  1  0.146600  0.533816  0.335168  1
  Sc  Sc7  1  0.853400  0.466184  0.664832  1
  Sc  Sc8  1  0.411713  0.367986  0.288427  1
  Sc  Sc9  1  0.588287  0.632014  0.711573  1
  Sc  Sc10  1  0.461684  0.321164  0.520042  1
  Sc  Sc11  1  0.538316  0.678836  0.479958  1
  Ni  Ni12  1  0.341152  0.499425  0.498950  1
  Ni  Ni13  1  0.658849  0.500575  0.501050  1
  Pt  Pt14  1  0.000000  0.500000  0.500000  1
  I  I15  1  0.394764  0.737029  0.879107  1
  I  I16  1  0.605236  0.262971  0.120893  1
  I  I17  1  0.184841  0.955153  0.778272  1
  I  I18  1  0.815159  0.044847  0.221728  1
  I  I19  1  0.339042  0.102395  0.255578  1
  I  I20  1  0.660958  0.897605  0.744422  1
  I  I21  1  0.560355  0.439381  0.795574  1
  I  I22  1  0.439645  0.560619  0.204426  1
  I  I23  1  0.306680  0.821521  0.462739  1
  I  I24  1  0.693320  0.178479  0.537261  1
  I  I25  1  0.168818  0.177629  0.535156  1
  I  I26  1  0.831182  0.822371  0.464844  1
  I  I27  1  0.926457  0.572020  0.164090  1
  I  I28  1  0.073543  0.427980  0.835910  1
  I  I29  1  0.921222  0.735960  0.879499  1
  I  I30  1  0.078778  0.264040  0.120501  1
