# generated using pymatgen
data_Sm2AlGa2Cu7
_symmetry_space_group_name_H-M   'P 1'
_cell_length_a   4.19410700
_cell_length_b   5.10907207
_cell_length_c   8.94562268
_cell_angle_alpha   89.73529616
_cell_angle_beta   90.00000000
_cell_angle_gamma   90.00000000
_symmetry_Int_Tables_number   1
_chemical_formula_structural   Sm2AlGa2Cu7
_chemical_formula_sum   'Sm2 Al1 Ga2 Cu7'
_cell_volume   191.68471197
_cell_formula_units_Z   1
loop_
 _symmetry_equiv_pos_site_id
 _symmetry_equiv_pos_as_xyz
  1  'x, y, z'
loop_
 _atom_site_type_symbol
 _atom_site_label
 _atom_site_symmetry_multiplicity
 _atom_site_fract_x
 _atom_site_fract_y
 _atom_site_fract_z
 _atom_site_occupancy
  Sm  Sm0  1  0.000000  0.249693  0.750005  1
  Sm  Sm1  1  0.000000  0.750307  0.249995  1
  Al  Al2  1  0.500000  0.000000  0.000000  1
  Ga  Ga3  1  0.500000  0.737370  0.744822  1
  Ga  Ga4  1  0.500000  0.262630  0.255178  1
  Cu  Cu5  1  0.000000  0.251486  0.081681  1
  Cu  Cu6  1  0.000000  0.751141  0.580052  1
  Cu  Cu7  1  0.000000  0.748514  0.918319  1
  Cu  Cu8  1  0.000000  0.248859  0.419948  1
  Cu  Cu9  1  0.500000  0.500000  0.500000  1
  Cu  Cu10  1  0.500000  0.500000  0.000000  1
  Cu  Cu11  1  0.500000  0.000000  0.500000  1
