# generated using pymatgen
data_Ho3Tm7Cd5In3(PtAu)2
_symmetry_space_group_name_H-M   'P 1'
_cell_length_a   3.62171000
_cell_length_b   8.12469403
_cell_length_c   18.21968600
_cell_angle_alpha   90.00487297
_cell_angle_beta   90.00000000
_cell_angle_gamma   90.00000000
_symmetry_Int_Tables_number   1
_chemical_formula_structural   Ho3Tm7Cd5In3(PtAu)2
_chemical_formula_sum   'Ho3 Tm7 Cd5 In3 Pt2 Au2'
_cell_volume   536.11946239
_cell_formula_units_Z   1
loop_
 _symmetry_equiv_pos_site_id
 _symmetry_equiv_pos_as_xyz
  1  'x, y, z'
loop_
 _atom_site_type_symbol
 _atom_site_label
 _atom_site_symmetry_multiplicity
 _atom_site_fract_x
 _atom_site_fract_y
 _atom_site_fract_z
 _atom_site_occupancy
  Ho  Ho0  1  0.000000  0.730868  0.279667  1
  Ho  Ho1  1  0.000000  0.001359  0.000301  1
  Ho  Ho2  1  0.000000  0.499976  0.499964  1
  Tm  Tm3  1  0.000000  0.119095  0.418303  1
  Tm  Tm4  1  0.000000  0.881179  0.582068  1
  Tm  Tm5  1  0.000000  0.382622  0.914987  1
  Tm  Tm6  1  0.000000  0.613853  0.085321  1
  Tm  Tm7  1  0.000000  0.255584  0.215986  1
  Tm  Tm8  1  0.000000  0.744690  0.782662  1
  Tm  Tm9  1  0.000000  0.268882  0.720922  1
  Cd  Cd10  1  0.500000  0.422481  0.352716  1
  Cd  Cd11  1  0.500000  0.576966  0.647250  1
  Cd  Cd12  1  0.500000  0.077579  0.853361  1
  Cd  Cd13  1  0.500000  0.924389  0.146526  1
  Cd  Cd14  1  0.500000  0.289642  0.065196  1
  In  In15  1  0.500000  0.709475  0.934539  1
  In  In16  1  0.500000  0.210743  0.567005  1
  In  In17  1  0.500000  0.789687  0.433497  1
  Pt  Pt18  1  0.500000  0.472567  0.804127  1
  Pt  Pt19  1  0.500000  0.526640  0.195418  1
  Au  Au20  1  0.500000  0.030814  0.301784  1
  Au  Au21  1  0.500000  0.970905  0.698397  1
