# generated using pymatgen
data_ErTm3(B4Ru5)2
_symmetry_space_group_name_H-M   'P 1'
_cell_length_a   3.04696000
_cell_length_b   8.79254904
_cell_length_c   10.17889505
_cell_angle_alpha   90.01140360
_cell_angle_beta   90.00000000
_cell_angle_gamma   90.00000000
_symmetry_Int_Tables_number   1
_chemical_formula_structural   ErTm3(B4Ru5)2
_chemical_formula_sum   'Er1 Tm3 B8 Ru10'
_cell_volume   272.69814288
_cell_formula_units_Z   1
loop_
 _symmetry_equiv_pos_site_id
 _symmetry_equiv_pos_as_xyz
  1  'x, y, z'
loop_
 _atom_site_type_symbol
 _atom_site_label
 _atom_site_symmetry_multiplicity
 _atom_site_fract_x
 _atom_site_fract_y
 _atom_site_fract_z
 _atom_site_occupancy
  Er  Er0  1  0.500000  0.838532  0.181615  1
  Tm  Tm1  1  0.500000  0.161450  0.818340  1
  Tm  Tm2  1  0.500000  0.661377  0.681684  1
  Tm  Tm3  1  0.500000  0.338612  0.318348  1
  B  B4  1  0.500000  0.967693  0.587170  1
  B  B5  1  0.500000  0.032393  0.412924  1
  B  B6  1  0.500000  0.854288  0.899027  1
  B  B7  1  0.500000  0.145830  0.100850  1
  B  B8  1  0.500000  0.645653  0.399279  1
  B  B9  1  0.500000  0.354255  0.600845  1
  B  B10  1  0.500000  0.467612  0.912843  1
  B  B11  1  0.500000  0.532263  0.087088  1
  Ru  Ru12  1  0.000000  0.662989  0.952489  1
  Ru  Ru13  1  0.000000  0.336960  0.047384  1
  Ru  Ru14  1  0.000000  0.836981  0.452805  1
  Ru  Ru15  1  0.000000  0.163008  0.547372  1
  Ru  Ru16  1  0.000000  0.000346  0.999706  1
  Ru  Ru17  1  0.000000  0.409089  0.762467  1
  Ru  Ru18  1  0.000000  0.590259  0.237662  1
  Ru  Ru19  1  0.000000  0.499971  0.500012  1
  Ru  Ru20  1  0.000000  0.909142  0.737533  1
  Ru  Ru21  1  0.000000  0.091300  0.262555  1
