# generated using pymatgen
data_NaCo4ReP3
_symmetry_space_group_name_H-M   'P 1'
_cell_length_a   3.65394800
_cell_length_b   10.28868200
_cell_length_c   11.79810900
_cell_angle_alpha   90.00000000
_cell_angle_beta   90.00000000
_cell_angle_gamma   90.00000000
_symmetry_Int_Tables_number   1
_chemical_formula_structural   NaCo4ReP3
_chemical_formula_sum   'Na4 Co16 Re4 P12'
_cell_volume   443.54175556
_cell_formula_units_Z   4
loop_
 _symmetry_equiv_pos_site_id
 _symmetry_equiv_pos_as_xyz
  1  'x, y, z'
loop_
 _atom_site_type_symbol
 _atom_site_label
 _atom_site_symmetry_multiplicity
 _atom_site_fract_x
 _atom_site_fract_y
 _atom_site_fract_z
 _atom_site_occupancy
  Na  Na0  1  0.250000  0.581879  0.704540  1
  Na  Na1  1  0.250000  0.918121  0.204540  1
  Na  Na2  1  0.750000  0.418121  0.295460  1
  Na  Na3  1  0.750000  0.081879  0.795460  1
  Co  Co4  1  0.250000  0.406474  0.489134  1
  Co  Co5  1  0.250000  0.093526  0.989134  1
  Co  Co6  1  0.750000  0.593526  0.510866  1
  Co  Co7  1  0.750000  0.906474  0.010866  1
  Co  Co8  1  0.250000  0.219749  0.176925  1
  Co  Co9  1  0.250000  0.280251  0.676925  1
  Co  Co10  1  0.750000  0.780251  0.823075  1
  Co  Co11  1  0.750000  0.719749  0.323075  1
  Co  Co12  1  0.250000  0.884241  0.699809  1
  Co  Co13  1  0.250000  0.615759  0.199809  1
  Co  Co14  1  0.750000  0.115759  0.300191  1
  Co  Co15  1  0.750000  0.384241  0.800191  1
  Co  Co16  1  0.250000  0.464703  0.935219  1
  Co  Co17  1  0.250000  0.035297  0.435219  1
  Co  Co18  1  0.750000  0.535297  0.064781  1
  Co  Co19  1  0.750000  0.964703  0.564781  1
  Re  Re20  1  0.250000  0.708711  0.987411  1
  Re  Re21  1  0.250000  0.791289  0.487411  1
  Re  Re22  1  0.750000  0.291289  0.012589  1
  Re  Re23  1  0.750000  0.208711  0.512589  1
  P  P24  1  0.250000  0.418896  0.118117  1
  P  P25  1  0.250000  0.081104  0.618117  1
  P  P26  1  0.750000  0.581104  0.881883  1
  P  P27  1  0.750000  0.918896  0.381883  1
  P  P28  1  0.250000  0.265838  0.865075  1
  P  P29  1  0.250000  0.234162  0.365075  1
  P  P30  1  0.750000  0.734162  0.134925  1
  P  P31  1  0.750000  0.765838  0.634925  1
  P  P32  1  0.250000  0.593935  0.389860  1
  P  P33  1  0.250000  0.906065  0.889860  1
  P  P34  1  0.750000  0.406065  0.610140  1
  P  P35  1  0.750000  0.093935  0.110140  1
