# generated using pymatgen
data_Sm7Y(BeSi3)4
_symmetry_space_group_name_H-M   'P 1'
_cell_length_a   7.91191800
_cell_length_b   7.90731027
_cell_length_c   8.35872800
_cell_angle_alpha   90.00000000
_cell_angle_beta   90.00000000
_cell_angle_gamma   119.98073007
_symmetry_Int_Tables_number   1
_chemical_formula_structural   Sm7Y(BeSi3)4
_chemical_formula_sum   'Sm7 Y1 Be4 Si12'
_cell_volume   452.96607823
_cell_formula_units_Z   1
loop_
 _symmetry_equiv_pos_site_id
 _symmetry_equiv_pos_as_xyz
  1  'x, y, z'
loop_
 _atom_site_type_symbol
 _atom_site_label
 _atom_site_symmetry_multiplicity
 _atom_site_fract_x
 _atom_site_fract_y
 _atom_site_fract_z
 _atom_site_occupancy
  Sm  Sm0  1  0.000105  0.000052  0.250000  1
  Sm  Sm1  1  0.999950  0.999975  0.750000  1
  Sm  Sm2  1  0.499677  0.500307  0.250000  1
  Sm  Sm3  1  0.499677  0.999370  0.250000  1
  Sm  Sm4  1  0.000614  0.500307  0.250000  1
  Sm  Sm5  1  0.500242  0.499784  0.750000  1
  Sm  Sm6  1  0.500242  0.000458  0.750000  1
  Y  Y7  1  0.998968  0.499485  0.750000  1
  Be  Be8  1  0.333256  0.666629  0.499199  1
  Be  Be9  1  0.666843  0.333422  0.504145  1
  Be  Be10  1  0.666843  0.333422  0.995855  1
  Be  Be11  1  0.333256  0.666629  0.000801  1
  Si  Si12  1  0.172213  0.826859  0.501399  1
  Si  Si13  1  0.172213  0.345355  0.501399  1
  Si  Si14  1  0.655330  0.827666  0.500725  1
  Si  Si15  1  0.827819  0.173145  0.501066  1
  Si  Si16  1  0.827819  0.654673  0.501066  1
  Si  Si17  1  0.344767  0.172383  0.500551  1
  Si  Si18  1  0.827819  0.173145  0.998934  1
  Si  Si19  1  0.827819  0.654673  0.998934  1
  Si  Si20  1  0.344767  0.172383  0.999449  1
  Si  Si21  1  0.172213  0.826859  0.998601  1
  Si  Si22  1  0.172213  0.345355  0.998601  1
  Si  Si23  1  0.655330  0.827666  0.999275  1
