# generated using pymatgen
data_CaLa(Al5Ru)4
_symmetry_space_group_name_H-M   'P 1'
_cell_length_a   6.89706210
_cell_length_b   6.89706223
_cell_length_c   9.20947400
_cell_angle_alpha   90.00000000
_cell_angle_beta   90.00000000
_cell_angle_gamma   96.73438833
_symmetry_Int_Tables_number   1
_chemical_formula_structural   CaLa(Al5Ru)4
_chemical_formula_sum   'Ca1 La1 Al20 Ru4'
_cell_volume   435.06714124
_cell_formula_units_Z   1
loop_
 _symmetry_equiv_pos_site_id
 _symmetry_equiv_pos_as_xyz
  1  'x, y, z'
loop_
 _atom_site_type_symbol
 _atom_site_label
 _atom_site_symmetry_multiplicity
 _atom_site_fract_x
 _atom_site_fract_y
 _atom_site_fract_z
 _atom_site_occupancy
  Ca  Ca0  1  0.876007  0.123993  0.750000  1
  La  La1  1  0.122075  0.877925  0.250000  1
  Al  Al2  1  0.623373  0.376627  0.547894  1
  Al  Al3  1  0.377964  0.622036  0.450118  1
  Al  Al4  1  0.377964  0.622036  0.049882  1
  Al  Al5  1  0.623373  0.376627  0.952106  1
  Al  Al6  1  0.226333  0.228386  0.502073  1
  Al  Al7  1  0.771614  0.773667  0.502073  1
  Al  Al8  1  0.771614  0.773667  0.997927  1
  Al  Al9  1  0.226333  0.228386  0.997927  1
  Al  Al10  1  0.840352  0.159648  0.099207  1
  Al  Al11  1  0.160231  0.839769  0.898252  1
  Al  Al12  1  0.160231  0.839769  0.601748  1
  Al  Al13  1  0.840352  0.159648  0.400793  1
  Al  Al14  1  0.860781  0.586479  0.750000  1
  Al  Al15  1  0.139279  0.410290  0.250000  1
  Al  Al16  1  0.413521  0.139219  0.750000  1
  Al  Al17  1  0.589710  0.860721  0.250000  1
  Al  Al18  1  0.219616  0.477497  0.750000  1
  Al  Al19  1  0.777932  0.517572  0.250000  1
  Al  Al20  1  0.522503  0.780384  0.750000  1
  Al  Al21  1  0.482428  0.222068  0.250000  1
  Ru  Ru22  1  0.999631  0.501424  0.501021  1
  Ru  Ru23  1  0.999631  0.501424  0.998979  1
  Ru  Ru24  1  0.498576  0.000369  0.998979  1
  Ru  Ru25  1  0.498576  0.000369  0.501021  1
