# generated using pymatgen
data_Dy2YLu5In3Co
_symmetry_space_group_name_H-M   'P 1'
_cell_length_a   10.19398212
_cell_length_b   10.19398409
_cell_length_c   7.03145453
_cell_angle_alpha   90.01762636
_cell_angle_beta   89.98237355
_cell_angle_gamma   120.04692071
_symmetry_Int_Tables_number   1
_chemical_formula_structural   Dy2YLu5In3Co
_chemical_formula_sum   'Dy4 Y2 Lu10 In6 Co2'
_cell_volume   632.49641139
_cell_formula_units_Z   2
loop_
 _symmetry_equiv_pos_site_id
 _symmetry_equiv_pos_as_xyz
  1  'x, y, z'
loop_
 _atom_site_type_symbol
 _atom_site_label
 _atom_site_symmetry_multiplicity
 _atom_site_fract_x
 _atom_site_fract_y
 _atom_site_fract_z
 _atom_site_occupancy
  Dy  Dy0  1  0.465345  0.534655  0.484043  1
  Dy  Dy1  1  0.068471  0.534241  0.483243  1
  Dy  Dy2  1  0.465759  0.931529  0.483243  1
  Dy  Dy3  1  0.535218  0.464782  0.983620  1
  Y  Y4  1  0.999982  0.000018  0.495052  1
  Y  Y5  1  0.000003  0.999997  0.994743  1
  Lu  Lu6  1  0.928151  0.464032  0.982249  1
  Lu  Lu7  1  0.535968  0.071849  0.982249  1
  Lu  Lu8  1  0.819984  0.180016  0.275754  1
  Lu  Lu9  1  0.359949  0.179179  0.277206  1
  Lu  Lu10  1  0.820821  0.640051  0.277206  1
  Lu  Lu11  1  0.179867  0.820133  0.780285  1
  Lu  Lu12  1  0.640752  0.821402  0.779505  1
  Lu  Lu13  1  0.178598  0.359248  0.779505  1
  Lu  Lu14  1  0.332781  0.667219  0.089074  1
  Lu  Lu15  1  0.667186  0.332814  0.589037  1
  In  In16  1  0.163261  0.836739  0.230981  1
  In  In17  1  0.673244  0.836067  0.231497  1
  In  In18  1  0.163933  0.326756  0.231497  1
  In  In19  1  0.836011  0.163989  0.732548  1
  In  In20  1  0.326963  0.163089  0.731537  1
  In  In21  1  0.836911  0.673037  0.731537  1
  Co  Co22  1  0.333325  0.666675  0.710332  1
  Co  Co23  1  0.667520  0.332480  0.208609  1
