# generated using pymatgen
data_Ac3Ce2NdSe10
_symmetry_space_group_name_H-M   'P 1'
_cell_length_a   8.11574000
_cell_length_b   8.70412254
_cell_length_c   12.89815100
_cell_angle_alpha   90.00000000
_cell_angle_beta   90.00000000
_cell_angle_gamma   90.03405839
_symmetry_Int_Tables_number   1
_chemical_formula_structural   Ac3Ce2NdSe10
_chemical_formula_sum   'Ac6 Ce4 Nd2 Se20'
_cell_volume   911.13032617
_cell_formula_units_Z   2
loop_
 _symmetry_equiv_pos_site_id
 _symmetry_equiv_pos_as_xyz
  1  'x, y, z'
loop_
 _atom_site_type_symbol
 _atom_site_label
 _atom_site_symmetry_multiplicity
 _atom_site_fract_x
 _atom_site_fract_y
 _atom_site_fract_z
 _atom_site_occupancy
  Ac  Ac0  1  0.524447  0.502244  0.323147  1
  Ac  Ac1  1  0.975553  0.997756  0.823147  1
  Ac  Ac2  1  0.476609  0.000480  0.676454  1
  Ac  Ac3  1  0.023391  0.499520  0.176454  1
  Ac  Ac4  1  0.476393  0.499325  0.676762  1
  Ac  Ac5  1  0.023607  0.000675  0.176762  1
  Ce  Ce6  1  0.070190  0.750561  0.492051  1
  Ce  Ce7  1  0.429810  0.749439  0.992051  1
  Ce  Ce8  1  0.929916  0.249138  0.507468  1
  Ce  Ce9  1  0.570084  0.250862  0.007468  1
  Nd  Nd10  1  0.519045  0.002618  0.319874  1
  Nd  Nd11  1  0.980955  0.497382  0.819874  1
  Se  Se12  1  0.841531  0.957845  0.593019  1
  Se  Se13  1  0.658469  0.542155  0.093019  1
  Se  Se14  1  0.159444  0.458657  0.407560  1
  Se  Se15  1  0.340556  0.041343  0.907560  1
  Se  Se16  1  0.166514  0.042394  0.407988  1
  Se  Se17  1  0.333486  0.457606  0.907988  1
  Se  Se18  1  0.843463  0.539580  0.596983  1
  Se  Se19  1  0.656537  0.960420  0.096983  1
  Se  Se20  1  0.828572  0.753998  0.316578  1
  Se  Se21  1  0.671428  0.746002  0.816578  1
  Se  Se22  1  0.164782  0.254893  0.687166  1
  Se  Se23  1  0.335218  0.245107  0.187166  1
  Se  Se24  1  0.452415  0.757057  0.494321  1
  Se  Se25  1  0.047585  0.742943  0.994321  1
  Se  Se26  1  0.548695  0.244075  0.499503  1
  Se  Se27  1  0.951305  0.255925  0.999503  1
  Se  Se28  1  0.191016  0.743922  0.712084  1
  Se  Se29  1  0.308984  0.756078  0.212084  1
  Se  Se30  1  0.802139  0.245212  0.289042  1
  Se  Se31  1  0.697861  0.254788  0.789042  1
