# generated using pymatgen
data_Tb2NpO6
_symmetry_space_group_name_H-M   'P 1'
_cell_length_a   5.55342400
_cell_length_b   7.86549528
_cell_length_c   11.90825291
_cell_angle_alpha   73.88627282
_cell_angle_beta   90.00000000
_cell_angle_gamma   90.00000000
_symmetry_Int_Tables_number   1
_chemical_formula_structural   Tb2NpO6
_chemical_formula_sum   'Tb8 Np4 O24'
_cell_volume   499.72201514
_cell_formula_units_Z   4
loop_
 _symmetry_equiv_pos_site_id
 _symmetry_equiv_pos_as_xyz
  1  'x, y, z'
loop_
 _atom_site_type_symbol
 _atom_site_label
 _atom_site_symmetry_multiplicity
 _atom_site_fract_x
 _atom_site_fract_y
 _atom_site_fract_z
 _atom_site_occupancy
  Tb  Tb0  1  0.743507  0.000000  0.750000  1
  Tb  Tb1  1  0.256493  0.000000  0.250000  1
  Tb  Tb2  1  0.187572  0.794908  0.579308  1
  Tb  Tb3  1  0.812428  0.794908  0.079308  1
  Tb  Tb4  1  0.696893  0.500000  0.750000  1
  Tb  Tb5  1  0.303107  0.500000  0.250000  1
  Tb  Tb6  1  0.187572  0.205092  0.920692  1
  Tb  Tb7  1  0.812428  0.205092  0.420692  1
  Np  Np8  1  0.254730  0.720766  0.886675  1
  Np  Np9  1  0.745270  0.720766  0.386675  1
  Np  Np10  1  0.254730  0.279234  0.613325  1
  Np  Np11  1  0.745270  0.279234  0.113325  1
  O  O12  1  0.043513  0.943006  0.896499  1
  O  O13  1  0.549350  0.850222  0.931362  1
  O  O14  1  0.956487  0.943006  0.396499  1
  O  O15  1  0.450185  0.799069  0.727463  1
  O  O16  1  0.450650  0.850222  0.431362  1
  O  O17  1  0.965174  0.713027  0.766945  1
  O  O18  1  0.549815  0.799069  0.227463  1
  O  O19  1  0.873500  0.627792  0.554198  1
  O  O20  1  0.387650  0.481832  0.883963  1
  O  O21  1  0.034826  0.713027  0.266945  1
  O  O22  1  0.387650  0.518168  0.616037  1
  O  O23  1  0.873500  0.372208  0.945802  1
  O  O24  1  0.126500  0.627792  0.054198  1
  O  O25  1  0.612350  0.481832  0.383963  1
  O  O26  1  0.965174  0.286973  0.733055  1
  O  O27  1  0.612350  0.518168  0.116037  1
  O  O28  1  0.126500  0.372208  0.445802  1
  O  O29  1  0.450185  0.200931  0.772537  1
  O  O30  1  0.034826  0.286973  0.233055  1
  O  O31  1  0.549350  0.149778  0.568638  1
  O  O32  1  0.549815  0.200931  0.272537  1
  O  O33  1  0.043513  0.056994  0.603501  1
  O  O34  1  0.450650  0.149778  0.068638  1
  O  O35  1  0.956487  0.056994  0.103501  1
