# generated using pymatgen
data_YbPr4CdPd4
_symmetry_space_group_name_H-M   'P 1'
_cell_length_a   8.03328300
_cell_length_b   8.03328300
_cell_length_c   3.97720900
_cell_angle_alpha   90.00000000
_cell_angle_beta   90.00000000
_cell_angle_gamma   90.00000000
_symmetry_Int_Tables_number   1
_chemical_formula_structural   YbPr4CdPd4
_chemical_formula_sum   'Yb1 Pr4 Cd1 Pd4'
_cell_volume   256.66375694
_cell_formula_units_Z   1
loop_
 _symmetry_equiv_pos_site_id
 _symmetry_equiv_pos_as_xyz
  1  'x, y, z'
loop_
 _atom_site_type_symbol
 _atom_site_label
 _atom_site_symmetry_multiplicity
 _atom_site_fract_x
 _atom_site_fract_y
 _atom_site_fract_z
 _atom_site_occupancy
  Yb  Yb0  1  0.000000  0.000000  0.000000  1
  Pr  Pr1  1  0.352549  0.814511  0.500000  1
  Pr  Pr2  1  0.814511  0.647451  0.500000  1
  Pr  Pr3  1  0.185489  0.352549  0.500000  1
  Pr  Pr4  1  0.647451  0.185489  0.500000  1
  Cd  Cd5  1  0.500000  0.500000  0.000000  1
  Pd  Pd6  1  0.362242  0.123564  0.000000  1
  Pd  Pd7  1  0.876436  0.362242  0.000000  1
  Pd  Pd8  1  0.123564  0.637758  0.000000  1
  Pd  Pd9  1  0.637758  0.876436  0.000000  1
