# generated using pymatgen
data_Er3Th2(SnPb)2
_symmetry_space_group_name_H-M   'P 1'
_cell_length_a   8.16171100
_cell_length_b   8.23155600
_cell_length_c   15.56874000
_cell_angle_alpha   90.00000000
_cell_angle_beta   90.00000000
_cell_angle_gamma   90.00000000
_symmetry_Int_Tables_number   1
_chemical_formula_structural   Er3Th2(SnPb)2
_chemical_formula_sum   'Er12 Th8 Sn8 Pb8'
_cell_volume   1045.96370723
_cell_formula_units_Z   4
loop_
 _symmetry_equiv_pos_site_id
 _symmetry_equiv_pos_as_xyz
  1  'x, y, z'
loop_
 _atom_site_type_symbol
 _atom_site_label
 _atom_site_symmetry_multiplicity
 _atom_site_fract_x
 _atom_site_fract_y
 _atom_site_fract_z
 _atom_site_occupancy
  Er  Er0  1  0.362154  0.837693  0.874428  1
  Er  Er1  1  0.862154  0.662307  0.625572  1
  Er  Er2  1  0.637846  0.162307  0.374428  1
  Er  Er3  1  0.137846  0.337693  0.125572  1
  Er  Er4  1  0.637846  0.162307  0.125572  1
  Er  Er5  1  0.137846  0.337693  0.374428  1
  Er  Er6  1  0.362154  0.837693  0.625572  1
  Er  Er7  1  0.862154  0.662307  0.874428  1
  Er  Er8  1  0.191276  0.498038  0.750000  1
  Er  Er9  1  0.691276  0.001962  0.750000  1
  Er  Er10  1  0.808724  0.501962  0.250000  1
  Er  Er11  1  0.308724  0.998038  0.250000  1
  Th  Th12  1  0.520317  0.321133  0.901759  1
  Th  Th13  1  0.020317  0.178867  0.598241  1
  Th  Th14  1  0.479683  0.678867  0.401759  1
  Th  Th15  1  0.979683  0.821133  0.098241  1
  Th  Th16  1  0.479683  0.678867  0.098241  1
  Th  Th17  1  0.979683  0.821133  0.401759  1
  Th  Th18  1  0.520317  0.321133  0.598241  1
  Th  Th19  1  0.020317  0.178867  0.901759  1
  Sn  Sn20  1  0.557637  0.623046  0.750000  1
  Sn  Sn21  1  0.057637  0.876954  0.750000  1
  Sn  Sn22  1  0.442363  0.376954  0.250000  1
  Sn  Sn23  1  0.942363  0.123046  0.250000  1
  Sn  Sn24  1  0.326520  0.143267  0.750000  1
  Sn  Sn25  1  0.826520  0.356733  0.750000  1
  Sn  Sn26  1  0.673480  0.856733  0.250000  1
  Sn  Sn27  1  0.173480  0.643267  0.250000  1
  Pb  Pb28  1  0.297260  0.040312  0.042210  1
  Pb  Pb29  1  0.797260  0.459688  0.457790  1
  Pb  Pb30  1  0.702740  0.959688  0.542210  1
  Pb  Pb31  1  0.202740  0.540312  0.957790  1
  Pb  Pb32  1  0.702740  0.959688  0.957790  1
  Pb  Pb33  1  0.202740  0.540312  0.542210  1
  Pb  Pb34  1  0.297260  0.040312  0.457790  1
  Pb  Pb35  1  0.797260  0.459688  0.042210  1
