# generated using pymatgen
data_Sr4Sc2MnRuO12
_symmetry_space_group_name_H-M   'P 1'
_cell_length_a   5.65500200
_cell_length_b   5.65500287
_cell_length_c   9.81297276
_cell_angle_alpha   73.25342524
_cell_angle_beta   90.00000000
_cell_angle_gamma   119.99999493
_symmetry_Int_Tables_number   1
_chemical_formula_structural   Sr4Sc2MnRuO12
_chemical_formula_sum   'Sr4 Sc2 Mn1 Ru1 O12'
_cell_volume   256.28387552
_cell_formula_units_Z   1
loop_
 _symmetry_equiv_pos_site_id
 _symmetry_equiv_pos_as_xyz
  1  'x, y, z'
loop_
 _atom_site_type_symbol
 _atom_site_label
 _atom_site_symmetry_multiplicity
 _atom_site_fract_x
 _atom_site_fract_y
 _atom_site_fract_z
 _atom_site_occupancy
  Sr  Sr0  1  0.621615  0.243231  0.135155  1
  Sr  Sr1  1  0.129399  0.258799  0.611802  1
  Sr  Sr2  1  0.878385  0.756769  0.364845  1
  Sr  Sr3  1  0.370601  0.741201  0.888198  1
  Sc  Sc4  1  0.996874  0.993748  0.009379  1
  Sc  Sc5  1  0.503126  0.006252  0.490621  1
  Mn  Mn6  1  0.250000  0.500000  0.250000  1
  Ru  Ru7  1  0.750000  0.500000  0.750000  1
  O  O8  1  0.130664  0.261330  0.128874  1
  O  O9  1  0.628530  0.257062  0.630221  1
  O  O10  1  0.369336  0.259539  0.371126  1
  O  O11  1  0.871470  0.258753  0.869779  1
  O  O12  1  0.609797  0.740461  0.128874  1
  O  O13  1  0.112717  0.741247  0.630221  1
  O  O14  1  0.369336  0.738670  0.371126  1
  O  O15  1  0.871470  0.742938  0.869779  1
  O  O16  1  0.130664  0.740461  0.128874  1
  O  O17  1  0.628530  0.741247  0.630221  1
  O  O18  1  0.890203  0.259539  0.371126  1
  O  O19  1  0.387283  0.258753  0.869779  1
