# generated using pymatgen
data_Tm20Ir3Os2Pt7
_symmetry_space_group_name_H-M   'P 1'
_cell_length_a   10.85048032
_cell_length_b   10.84995576
_cell_length_c   6.32103672
_cell_angle_alpha   89.99319419
_cell_angle_beta   89.98681924
_cell_angle_gamma   90.27601258
_symmetry_Int_Tables_number   1
_chemical_formula_structural   Tm20Ir3Os2Pt7
_chemical_formula_sum   'Tm20 Ir3 Os2 Pt7'
_cell_volume   744.14949285
_cell_formula_units_Z   1
loop_
 _symmetry_equiv_pos_site_id
 _symmetry_equiv_pos_as_xyz
  1  'x, y, z'
loop_
 _atom_site_type_symbol
 _atom_site_label
 _atom_site_symmetry_multiplicity
 _atom_site_fract_x
 _atom_site_fract_y
 _atom_site_fract_z
 _atom_site_occupancy
  Tm  Tm0  1  0.297620  0.084608  0.372122  1
  Tm  Tm1  1  0.297264  0.910400  0.872672  1
  Tm  Tm2  1  0.702059  0.085205  0.871884  1
  Tm  Tm3  1  0.702125  0.914126  0.371373  1
  Tm  Tm4  1  0.582168  0.795434  0.870900  1
  Tm  Tm5  1  0.585807  0.203065  0.373046  1
  Tm  Tm6  1  0.412337  0.795019  0.376034  1
  Tm  Tm7  1  0.414049  0.201477  0.872515  1
  Tm  Tm8  1  0.207538  0.416319  0.628753  1
  Tm  Tm9  1  0.207885  0.589554  0.122757  1
  Tm  Tm10  1  0.794242  0.412405  0.126290  1
  Tm  Tm11  1  0.795758  0.587742  0.626603  1
  Tm  Tm12  1  0.913553  0.705035  0.127057  1
  Tm  Tm13  1  0.912881  0.295218  0.627272  1
  Tm  Tm14  1  0.091737  0.705165  0.626633  1
  Tm  Tm15  1  0.087703  0.295193  0.128115  1
  Tm  Tm16  1  0.999418  0.000095  0.500345  1
  Tm  Tm17  1  0.999949  0.000513  0.999096  1
  Tm  Tm18  1  0.497910  0.500825  0.999198  1
  Tm  Tm19  1  0.499252  0.502003  0.500266  1
  Ir  Ir20  1  0.346402  0.651567  0.749833  1
  Ir  Ir21  1  0.000050  0.500179  0.879005  1
  Ir  Ir22  1  0.000221  0.500012  0.377799  1
  Os  Os23  1  0.499918  0.999667  0.125096  1
  Os  Os24  1  0.499800  0.999636  0.624034  1
  Pt  Pt25  1  0.847442  0.154049  0.250290  1
  Pt  Pt26  1  0.846265  0.846013  0.751107  1
  Pt  Pt27  1  0.152364  0.155362  0.749388  1
  Pt  Pt28  1  0.151717  0.846797  0.250041  1
  Pt  Pt29  1  0.653961  0.348040  0.750206  1
  Pt  Pt30  1  0.655354  0.653188  0.249711  1
  Pt  Pt31  1  0.345253  0.346091  0.250558  1
