# generated using pymatgen
data_Pr3Nd3RuBr10
_symmetry_space_group_name_H-M   'P 1'
_cell_length_a   7.72012982
_cell_length_b   9.42670595
_cell_length_c   9.74788495
_cell_angle_alpha   108.97923072
_cell_angle_beta   97.04184835
_cell_angle_gamma   106.29700458
_symmetry_Int_Tables_number   1
_chemical_formula_structural   Pr3Nd3RuBr10
_chemical_formula_sum   'Pr3 Nd3 Ru1 Br10'
_cell_volume   625.75762966
_cell_formula_units_Z   1
loop_
 _symmetry_equiv_pos_site_id
 _symmetry_equiv_pos_as_xyz
  1  'x, y, z'
loop_
 _atom_site_type_symbol
 _atom_site_label
 _atom_site_symmetry_multiplicity
 _atom_site_fract_x
 _atom_site_fract_y
 _atom_site_fract_z
 _atom_site_occupancy
  Pr  Pr0  1  0.027497  0.711245  0.910334  1
  Pr  Pr1  1  0.375221  0.149762  0.191611  1
  Pr  Pr2  1  0.971530  0.288285  0.088730  1
  Nd  Nd3  1  0.130471  0.050741  0.751322  1
  Nd  Nd4  1  0.626853  0.851970  0.809851  1
  Nd  Nd5  1  0.867999  0.948143  0.248030  1
  Ru  Ru6  1  0.000149  0.999943  0.000185  1
  Br  Br7  1  0.200398  0.743411  0.651283  1
  Br  Br8  1  0.639803  0.535828  0.724553  1
  Br  Br9  1  0.246763  0.080885  0.452206  1
  Br  Br10  1  0.803610  0.257574  0.350360  1
  Br  Br11  1  0.550863  0.172550  0.918936  1
  Br  Br12  1  0.751074  0.918097  0.549357  1
  Br  Br13  1  0.908435  0.631095  0.169805  1
  Br  Br14  1  0.358257  0.466681  0.275320  1
  Br  Br15  1  0.091520  0.368735  0.829912  1
  Br  Br16  1  0.449557  0.825054  0.078205  1
