# generated using pymatgen
data_UMn(TlCl3)4
_symmetry_space_group_name_H-M   'P 1'
_cell_length_a   6.90045800
_cell_length_b   6.90045800
_cell_length_c   10.95228900
_cell_angle_alpha   90.00000000
_cell_angle_beta   90.00000000
_cell_angle_gamma   90.00000000
_symmetry_Int_Tables_number   1
_chemical_formula_structural   UMn(TlCl3)4
_chemical_formula_sum   'U1 Mn1 Tl4 Cl12'
_cell_volume   521.50770443
_cell_formula_units_Z   1
loop_
 _symmetry_equiv_pos_site_id
 _symmetry_equiv_pos_as_xyz
  1  'x, y, z'
loop_
 _atom_site_type_symbol
 _atom_site_label
 _atom_site_symmetry_multiplicity
 _atom_site_fract_x
 _atom_site_fract_y
 _atom_site_fract_z
 _atom_site_occupancy
  U  U0  1  0.500001  0.500001  0.500000  1
  Mn  Mn1  1  0.000000  0.000000  0.000000  1
  Tl  Tl2  1  0.000000  0.500001  0.208138  1
  Tl  Tl3  1  0.500001  0.000000  0.208138  1
  Tl  Tl4  1  0.000000  0.500001  0.791861  1
  Tl  Tl5  1  0.500001  0.000000  0.791861  1
  Cl  Cl6  1  0.000000  0.000000  0.232648  1
  Cl  Cl7  1  0.500001  0.500001  0.264132  1
  Cl  Cl8  1  0.000000  0.000000  0.767352  1
  Cl  Cl9  1  0.500001  0.500001  0.735868  1
  Cl  Cl10  1  0.759483  0.235149  0.000000  1
  Cl  Cl11  1  0.240517  0.764851  0.000000  1
  Cl  Cl12  1  0.307803  0.192661  0.500000  1
  Cl  Cl13  1  0.692197  0.807339  0.500000  1
  Cl  Cl14  1  0.192661  0.692197  0.500000  1
  Cl  Cl15  1  0.807339  0.307803  0.500000  1
  Cl  Cl16  1  0.235149  0.240517  0.000000  1
  Cl  Cl17  1  0.764851  0.759483  0.000000  1
