# generated using pymatgen
data_Ho16MgGa(Co2Ag)2
_symmetry_space_group_name_H-M   'P 1'
_cell_length_a   9.41067368
_cell_length_b   9.43303392
_cell_length_c   9.41016300
_cell_angle_alpha   59.87138515
_cell_angle_beta   59.89389768
_cell_angle_gamma   59.87126104
_symmetry_Int_Tables_number   1
_chemical_formula_structural   Ho16MgGa(Co2Ag)2
_chemical_formula_sum   'Ho16 Mg1 Ga1 Co4 Ag2'
_cell_volume   589.05891782
_cell_formula_units_Z   1
loop_
 _symmetry_equiv_pos_site_id
 _symmetry_equiv_pos_as_xyz
  1  'x, y, z'
loop_
 _atom_site_type_symbol
 _atom_site_label
 _atom_site_symmetry_multiplicity
 _atom_site_fract_x
 _atom_site_fract_y
 _atom_site_fract_z
 _atom_site_occupancy
  Ho  Ho0  1  0.937840  0.935438  0.564287  1
  Ho  Ho1  1  0.809902  0.190202  0.191390  1
  Ho  Ho2  1  0.940314  0.560842  0.561800  1
  Ho  Ho3  1  0.939010  0.560806  0.939004  1
  Ho  Ho4  1  0.813247  0.814289  0.186477  1
  Ho  Ho5  1  0.351711  0.348617  0.351688  1
  Ho  Ho6  1  0.564278  0.935437  0.937874  1
  Ho  Ho7  1  0.563210  0.941544  0.563208  1
  Ho  Ho8  1  0.186471  0.814293  0.813248  1
  Ho  Ho9  1  0.191397  0.190199  0.809899  1
  Ho  Ho10  1  0.347492  0.344268  0.959128  1
  Ho  Ho11  1  0.345527  0.965250  0.345563  1
  Ho  Ho12  1  0.810347  0.187995  0.810352  1
  Ho  Ho13  1  0.561822  0.560861  0.940286  1
  Ho  Ho14  1  0.188990  0.812371  0.188982  1
  Ho  Ho15  1  0.959122  0.344261  0.347496  1
  Mg  Mg16  1  0.570205  0.573113  0.570205  1
  Ga  Ga17  1  0.581983  0.250109  0.581975  1
  Co  Co18  1  0.577217  0.144152  0.140568  1
  Co  Co19  1  0.140354  0.143018  0.140358  1
  Co  Co20  1  0.143158  0.575447  0.143173  1
  Co  Co21  1  0.140561  0.144176  0.577225  1
  Ag  Ag22  1  0.582398  0.581650  0.253439  1
  Ag  Ag23  1  0.253446  0.581667  0.582376  1
