# generated using pymatgen
data_PaBrF8
_symmetry_space_group_name_H-M   'P 1'
_cell_length_a   5.51487583
_cell_length_b   6.15081692
_cell_length_c   11.25994825
_cell_angle_alpha   90.20434422
_cell_angle_beta   92.96076016
_cell_angle_gamma   92.55147426
_symmetry_Int_Tables_number   1
_chemical_formula_structural   PaBrF8
_chemical_formula_sum   'Pa2 Br2 F16'
_cell_volume   381.05403008
_cell_formula_units_Z   2
loop_
 _symmetry_equiv_pos_site_id
 _symmetry_equiv_pos_as_xyz
  1  'x, y, z'
loop_
 _atom_site_type_symbol
 _atom_site_label
 _atom_site_symmetry_multiplicity
 _atom_site_fract_x
 _atom_site_fract_y
 _atom_site_fract_z
 _atom_site_occupancy
  Pa  Pa0  1  0.000000  0.000000  0.500000  1
  Pa  Pa1  1  0.000000  0.000000  0.000000  1
  Br  Br2  1  0.399714  0.386290  0.747157  1
  Br  Br3  1  0.600286  0.613710  0.252843  1
  F  F4  1  0.852003  0.183464  0.363813  1
  F  F5  1  0.147997  0.816536  0.636187  1
  F  F6  1  0.705663  0.050861  0.601605  1
  F  F7  1  0.294337  0.949139  0.398395  1
  F  F8  1  0.423321  0.545479  0.119633  1
  F  F9  1  0.576679  0.454521  0.880367  1
  F  F10  1  0.390559  0.468324  0.342838  1
  F  F11  1  0.609441  0.531676  0.657162  1
  F  F12  1  0.888234  0.276914  0.080631  1
  F  F13  1  0.111766  0.723086  0.919369  1
  F  F14  1  0.324518  0.033009  0.100151  1
  F  F15  1  0.675482  0.966991  0.899849  1
  F  F16  1  0.853173  0.794399  0.146694  1
  F  F17  1  0.146827  0.205601  0.853306  1
  F  F18  1  0.815113  0.702968  0.415171  1
  F  F19  1  0.184887  0.297032  0.584829  1
