# generated using pymatgen
data_Lu5Zr5(Si5Ir2)4
_symmetry_space_group_name_H-M   'P 1'
_cell_length_a   12.46959600
_cell_length_b   12.46959600
_cell_length_c   4.15022400
_cell_angle_alpha   90.00000000
_cell_angle_beta   90.00000000
_cell_angle_gamma   90.00000000
_symmetry_Int_Tables_number   1
_chemical_formula_structural   Lu5Zr5(Si5Ir2)4
_chemical_formula_sum   'Lu5 Zr5 Si20 Ir8'
_cell_volume   645.32175122
_cell_formula_units_Z   1
loop_
 _symmetry_equiv_pos_site_id
 _symmetry_equiv_pos_as_xyz
  1  'x, y, z'
loop_
 _atom_site_type_symbol
 _atom_site_label
 _atom_site_symmetry_multiplicity
 _atom_site_fract_x
 _atom_site_fract_y
 _atom_site_fract_z
 _atom_site_occupancy
  Lu  Lu0  1  0.000000  0.000000  0.000000  1
  Lu  Lu1  1  0.884237  0.383888  0.500000  1
  Lu  Lu2  1  0.115763  0.616112  0.500000  1
  Lu  Lu3  1  0.383888  0.115763  0.500000  1
  Lu  Lu4  1  0.616112  0.884237  0.500000  1
  Zr  Zr5  1  0.500000  0.500000  0.000000  1
  Zr  Zr6  1  0.673887  0.174710  0.500000  1
  Zr  Zr7  1  0.326113  0.825290  0.500000  1
  Zr  Zr8  1  0.174710  0.326113  0.500000  1
  Zr  Zr9  1  0.825290  0.673887  0.500000  1
  Si  Si10  1  0.565758  0.066643  0.000000  1
  Si  Si11  1  0.434242  0.933357  0.000000  1
  Si  Si12  1  0.066643  0.434242  0.000000  1
  Si  Si13  1  0.933357  0.565758  0.000000  1
  Si  Si14  1  0.665878  0.699951  0.000000  1
  Si  Si15  1  0.334122  0.300049  0.000000  1
  Si  Si16  1  0.165144  0.801535  0.000000  1
  Si  Si17  1  0.834856  0.198465  0.000000  1
  Si  Si18  1  0.300049  0.665878  0.000000  1
  Si  Si19  1  0.699951  0.334122  0.000000  1
  Si  Si20  1  0.198465  0.165144  0.000000  1
  Si  Si21  1  0.801535  0.834856  0.000000  1
  Si  Si22  1  0.652894  0.507987  0.500000  1
  Si  Si23  1  0.347106  0.492013  0.500000  1
  Si  Si24  1  0.155210  0.992417  0.500000  1
  Si  Si25  1  0.844790  0.007583  0.500000  1
  Si  Si26  1  0.492013  0.652894  0.500000  1
  Si  Si27  1  0.507987  0.347106  0.500000  1
  Si  Si28  1  0.007583  0.155210  0.500000  1
  Si  Si29  1  0.992417  0.844790  0.500000  1
  Ir  Ir30  1  0.744238  0.519249  0.000000  1
  Ir  Ir31  1  0.255762  0.480751  0.000000  1
  Ir  Ir32  1  0.246239  0.980957  0.000000  1
  Ir  Ir33  1  0.753761  0.019043  0.000000  1
  Ir  Ir34  1  0.480751  0.744238  0.000000  1
  Ir  Ir35  1  0.519249  0.255762  0.000000  1
  Ir  Ir36  1  0.019043  0.246239  0.000000  1
  Ir  Ir37  1  0.980957  0.753761  0.000000  1
