# generated using pymatgen
data_La5PrAl24Os7Ru
_symmetry_space_group_name_H-M   'P 1'
_cell_length_a   8.97453772
_cell_length_b   8.97456196
_cell_length_c   9.73912300
_cell_angle_alpha   90.00150977
_cell_angle_beta   89.99834029
_cell_angle_gamma   120.07075880
_symmetry_Int_Tables_number   1
_chemical_formula_structural   La5PrAl24Os7Ru
_chemical_formula_sum   'La5 Pr1 Al24 Os7 Ru1'
_cell_volume   678.83735159
_cell_formula_units_Z   1
loop_
 _symmetry_equiv_pos_site_id
 _symmetry_equiv_pos_as_xyz
  1  'x, y, z'
loop_
 _atom_site_type_symbol
 _atom_site_label
 _atom_site_symmetry_multiplicity
 _atom_site_fract_x
 _atom_site_fract_y
 _atom_site_fract_z
 _atom_site_occupancy
  La  La0  1  0.192386  0.384869  0.250255  1
  La  La1  1  0.806786  0.614419  0.749754  1
  La  La2  1  0.615084  0.807529  0.250266  1
  La  La3  1  0.385603  0.193226  0.749741  1
  La  La4  1  0.192586  0.807474  0.250317  1
  Pr  Pr5  1  0.808875  0.191131  0.749609  1
  Al  Al6  1  0.333234  0.666785  0.002827  1
  Al  Al7  1  0.667026  0.332991  0.995778  1
  Al  Al8  1  0.667008  0.332994  0.503871  1
  Al  Al9  1  0.333191  0.666802  0.497504  1
  Al  Al10  1  0.161891  0.325053  0.575796  1
  Al  Al11  1  0.837447  0.674741  0.424257  1
  Al  Al12  1  0.674945  0.838112  0.575797  1
  Al  Al13  1  0.837467  0.674791  0.075439  1
  Al  Al14  1  0.325261  0.162565  0.424255  1
  Al  Al15  1  0.161837  0.324979  0.924512  1
  Al  Al16  1  0.162430  0.837565  0.575807  1
  Al  Al17  1  0.325212  0.162546  0.075435  1
  Al  Al18  1  0.837384  0.162592  0.424777  1
  Al  Al19  1  0.675016  0.838167  0.924513  1
  Al  Al20  1  0.837404  0.162577  0.074819  1
  Al  Al21  1  0.162428  0.837569  0.924540  1
  Al  Al22  1  0.563525  0.126894  0.249889  1
  Al  Al23  1  0.437965  0.874615  0.750131  1
  Al  Al24  1  0.873110  0.436495  0.249899  1
  Al  Al25  1  0.125385  0.562037  0.750138  1
  Al  Al26  1  0.563465  0.436509  0.249884  1
  Al  Al27  1  0.436496  0.563498  0.750117  1
  Al  Al28  1  0.000178  0.999795  0.251599  1
  Al  Al29  1  0.999875  0.000127  0.748401  1
  Os  Os30  1  0.499997  0.000063  0.000078  1
  Os  Os31  1  0.999976  0.500003  0.000128  1
  Os  Os32  1  0.500009  0.000078  0.499953  1
  Os  Os33  1  0.500019  0.499995  0.999856  1
  Os  Os34  1  0.999922  0.499987  0.499960  1
  Os  Os35  1  0.499983  0.500023  0.500124  1
  Os  Os36  1  0.999814  0.000180  0.999834  1
  Ru  Ru37  1  0.999776  0.000226  0.500141  1
