# generated using pymatgen
data_ErZr(PaRh2)2
_symmetry_space_group_name_H-M   'P 1'
_cell_length_a   4.48930500
_cell_length_b   5.40560804
_cell_length_c   6.71861768
_cell_angle_alpha   89.80350978
_cell_angle_beta   90.00000000
_cell_angle_gamma   90.00000000
_symmetry_Int_Tables_number   1
_chemical_formula_structural   ErZr(PaRh2)2
_chemical_formula_sum   'Er1 Zr1 Pa2 Rh4'
_cell_volume   163.04257995
_cell_formula_units_Z   1
loop_
 _symmetry_equiv_pos_site_id
 _symmetry_equiv_pos_as_xyz
  1  'x, y, z'
loop_
 _atom_site_type_symbol
 _atom_site_label
 _atom_site_symmetry_multiplicity
 _atom_site_fract_x
 _atom_site_fract_y
 _atom_site_fract_z
 _atom_site_occupancy
  Er  Er0  1  0.250000  0.350383  0.682069  1
  Zr  Zr1  1  0.250000  0.143441  0.180197  1
  Pa  Pa2  1  0.750000  0.866260  0.821409  1
  Pa  Pa3  1  0.750000  0.646338  0.317622  1
  Rh  Rh4  1  0.750000  0.159303  0.426395  1
  Rh  Rh5  1  0.250000  0.837381  0.544828  1
  Rh  Rh6  1  0.250000  0.670597  0.050708  1
  Rh  Rh7  1  0.750000  0.326297  0.976770  1
