# generated using pymatgen
data_YbPr6SI12
_symmetry_space_group_name_H-M   'P 1'
_cell_length_a   9.95172320
_cell_length_b   9.95172366
_cell_length_c   9.95172313
_cell_angle_alpha   107.19831988
_cell_angle_beta   107.19831150
_cell_angle_gamma   107.19830782
_symmetry_Int_Tables_number   1
_chemical_formula_structural   YbPr6SI12
_chemical_formula_sum   'Yb1 Pr6 S1 I12'
_cell_volume   816.32505933
_cell_formula_units_Z   1
loop_
 _symmetry_equiv_pos_site_id
 _symmetry_equiv_pos_as_xyz
  1  'x, y, z'
loop_
 _atom_site_type_symbol
 _atom_site_label
 _atom_site_symmetry_multiplicity
 _atom_site_fract_x
 _atom_site_fract_y
 _atom_site_fract_z
 _atom_site_occupancy
  Yb  Yb0  1  0.000000  0.000000  0.000000  1
  Pr  Pr1  1  0.802208  0.527308  0.598649  1
  Pr  Pr2  1  0.527308  0.598649  0.802208  1
  Pr  Pr3  1  0.197792  0.472692  0.401351  1
  Pr  Pr4  1  0.472692  0.401351  0.197792  1
  Pr  Pr5  1  0.598649  0.802208  0.527308  1
  Pr  Pr6  1  0.401351  0.197792  0.472692  1
  S  S7  1  0.500000  0.500000  0.500000  1
  I  I8  1  0.728538  0.183498  0.574869  1
  I  I9  1  0.961606  0.883076  0.657018  1
  I  I10  1  0.574869  0.728538  0.183498  1
  I  I11  1  0.116924  0.342982  0.038394  1
  I  I12  1  0.657018  0.961606  0.883076  1
  I  I13  1  0.883076  0.657018  0.961606  1
  I  I14  1  0.038394  0.116924  0.342982  1
  I  I15  1  0.816502  0.425131  0.271462  1
  I  I16  1  0.342982  0.038394  0.116924  1
  I  I17  1  0.271462  0.816502  0.425131  1
  I  I18  1  0.183498  0.574869  0.728538  1
  I  I19  1  0.425131  0.271462  0.816502  1
