# generated using pymatgen
data_Sc6Zn2Ga15Rh7
_symmetry_space_group_name_H-M   'P 1'
_cell_length_a   8.84511683
_cell_length_b   8.84511560
_cell_length_c   8.84609100
_cell_angle_alpha   120.30256473
_cell_angle_beta   119.64437767
_cell_angle_gamma   90.04059657
_symmetry_Int_Tables_number   1
_chemical_formula_structural   Sc6Zn2Ga15Rh7
_chemical_formula_sum   'Sc6 Zn2 Ga15 Rh7'
_cell_volume   489.57975802
_cell_formula_units_Z   1
loop_
 _symmetry_equiv_pos_site_id
 _symmetry_equiv_pos_as_xyz
  1  'x, y, z'
loop_
 _atom_site_type_symbol
 _atom_site_label
 _atom_site_symmetry_multiplicity
 _atom_site_fract_x
 _atom_site_fract_y
 _atom_site_fract_z
 _atom_site_occupancy
  Sc  Sc0  1  0.774523  0.272249  0.047279  1
  Sc  Sc1  1  0.224970  0.272259  0.497710  1
  Sc  Sc2  1  0.223905  0.723905  0.500000  1
  Sc  Sc3  1  0.224970  0.727243  0.952721  1
  Sc  Sc4  1  0.774550  0.727260  0.502290  1
  Sc  Sc5  1  0.771531  0.271531  0.500000  1
  Zn  Zn6  1  0.374554  0.125401  0.750889  1
  Zn  Zn7  1  0.374511  0.623664  0.249111  1
  Ga  Ga8  1  0.997961  0.497961  0.500000  1
  Ga  Ga9  1  0.154444  0.351424  0.196992  1
  Ga  Ga10  1  0.154431  0.957450  0.803008  1
  Ga  Ga11  1  0.154938  0.350235  0.804700  1
  Ga  Ga12  1  0.545533  0.350237  0.195300  1
  Ga  Ga13  1  0.848657  0.651561  0.802902  1
  Ga  Ga14  1  0.848660  0.045755  0.197098  1
  Ga  Ga15  1  0.849549  0.650401  0.199175  1
  Ga  Ga16  1  0.451225  0.650374  0.800825  1
  Ga  Ga17  1  0.374101  0.126222  0.247898  1
  Ga  Ga18  1  0.878323  0.126203  0.752102  1
  Ga  Ga19  1  0.622473  0.870088  0.247613  1
  Ga  Ga20  1  0.622474  0.374859  0.752387  1
  Ga  Ga21  1  0.617462  0.874859  0.742661  1
  Ga  Ga22  1  0.132197  0.874801  0.257339  1
  Rh  Rh23  1  0.994816  0.999388  0.497442  1
  Rh  Rh24  1  0.502021  0.999334  0.004656  1
  Rh  Rh25  1  0.502301  0.502301  0.000000  1
  Rh  Rh26  1  0.501946  0.497375  0.502558  1
  Rh  Rh27  1  0.994678  0.497365  0.995344  1
  Rh  Rh28  1  0.000238  0.000238  0.000000  1
  Rh  Rh29  1  0.508056  0.008056  0.500000  1
