# generated using pymatgen
data_Tb4MgZn2Te
_symmetry_space_group_name_H-M   'P 1'
_cell_length_a   8.64999336
_cell_length_b   8.64999421
_cell_length_c   8.64999400
_cell_angle_alpha   125.81639652
_cell_angle_beta   125.81640059
_cell_angle_gamma   80.19011264
_symmetry_Int_Tables_number   1
_chemical_formula_structural   Tb4MgZn2Te
_chemical_formula_sum   'Tb8 Mg2 Zn4 Te2'
_cell_volume   410.74775603
_cell_formula_units_Z   2
loop_
 _symmetry_equiv_pos_site_id
 _symmetry_equiv_pos_as_xyz
  1  'x, y, z'
loop_
 _atom_site_type_symbol
 _atom_site_label
 _atom_site_symmetry_multiplicity
 _atom_site_fract_x
 _atom_site_fract_y
 _atom_site_fract_z
 _atom_site_occupancy
  Tb  Tb0  1  0.800719  0.300719  0.817162  1
  Tb  Tb1  1  0.199281  0.699281  0.182838  1
  Tb  Tb2  1  0.483557  0.983557  0.182838  1
  Tb  Tb3  1  0.300719  0.483557  0.500000  1
  Tb  Tb4  1  0.016443  0.199281  0.500000  1
  Tb  Tb5  1  0.516443  0.016443  0.817162  1
  Tb  Tb6  1  0.699281  0.516443  0.500000  1
  Tb  Tb7  1  0.983557  0.800719  0.500000  1
  Mg  Mg8  1  0.000000  0.000000  0.000000  1
  Mg  Mg9  1  0.500000  0.500000  0.000000  1
  Zn  Zn10  1  0.134685  0.634685  0.769369  1
  Zn  Zn11  1  0.865315  0.365315  0.230631  1
  Zn  Zn12  1  0.634685  0.865315  0.500000  1
  Zn  Zn13  1  0.365315  0.134685  0.500000  1
  Te  Te14  1  0.250000  0.250000  0.000000  1
  Te  Te15  1  0.750000  0.750000  0.000000  1
