# generated using pymatgen
data_DyHoTc2F14
_symmetry_space_group_name_H-M   'P 1'
_cell_length_a   5.58203900
_cell_length_b   8.89483579
_cell_length_c   12.01641561
_cell_angle_alpha   62.63067816
_cell_angle_beta   90.00000000
_cell_angle_gamma   90.00000000
_symmetry_Int_Tables_number   1
_chemical_formula_structural   DyHoTc2F14
_chemical_formula_sum   'Dy2 Ho2 Tc4 F28'
_cell_volume   529.84503053
_cell_formula_units_Z   2
loop_
 _symmetry_equiv_pos_site_id
 _symmetry_equiv_pos_as_xyz
  1  'x, y, z'
loop_
 _atom_site_type_symbol
 _atom_site_label
 _atom_site_symmetry_multiplicity
 _atom_site_fract_x
 _atom_site_fract_y
 _atom_site_fract_z
 _atom_site_occupancy
  Dy  Dy0  1  0.758786  0.813250  0.764812  1
  Dy  Dy1  1  0.258786  0.186750  0.735188  1
  Ho  Ho2  1  0.241240  0.185972  0.235394  1
  Ho  Ho3  1  0.741240  0.814028  0.264606  1
  Tc  Tc4  1  0.757758  0.272381  0.957631  1
  Tc  Tc5  1  0.257758  0.727619  0.542369  1
  Tc  Tc6  1  0.242097  0.726710  0.043750  1
  Tc  Tc7  1  0.742097  0.273290  0.456250  1
  F  F8  1  0.442590  0.706372  0.917603  1
  F  F9  1  0.942590  0.293628  0.582397  1
  F  F10  1  0.556394  0.293085  0.083337  1
  F  F11  1  0.056394  0.706915  0.416663  1
  F  F12  1  0.445762  0.276894  0.544934  1
  F  F13  1  0.945762  0.723106  0.955066  1
  F  F14  1  0.554499  0.724056  0.453765  1
  F  F15  1  0.054499  0.275944  0.046235  1
  F  F16  1  0.774839  0.520317  0.859841  1
  F  F17  1  0.274839  0.479683  0.640159  1
  F  F18  1  0.225608  0.478520  0.141018  1
  F  F19  1  0.725608  0.521480  0.358982  1
  F  F20  1  0.755678  0.025478  0.053458  1
  F  F21  1  0.255678  0.974522  0.446542  1
  F  F22  1  0.244135  0.973582  0.947609  1
  F  F23  1  0.744135  0.026418  0.552391  1
  F  F24  1  0.972822  0.728059  0.638190  1
  F  F25  1  0.472822  0.271941  0.861810  1
  F  F26  1  0.027084  0.271625  0.360706  1
  F  F27  1  0.527084  0.728375  0.139294  1
  F  F28  1  0.046247  0.746856  0.173234  1
  F  F29  1  0.546247  0.253144  0.326766  1
  F  F30  1  0.952544  0.253170  0.827570  1
  F  F31  1  0.452544  0.746830  0.672430  1
  F  F32  1  0.419490  0.971130  0.232426  1
  F  F33  1  0.919490  0.028870  0.267574  1
  F  F34  1  0.582427  0.029751  0.767975  1
  F  F35  1  0.082427  0.970249  0.732025  1
