# generated using pymatgen
data_Tb8Lu12Ir3Pt13
_symmetry_space_group_name_H-M   'P 1'
_cell_length_a   7.40497600
_cell_length_b   7.49730755
_cell_length_c   14.50941700
_cell_angle_alpha   90.00000000
_cell_angle_beta   90.00000000
_cell_angle_gamma   89.85041943
_symmetry_Int_Tables_number   1
_chemical_formula_structural   Tb8Lu12Ir3Pt13
_chemical_formula_sum   'Tb8 Lu12 Ir3 Pt13'
_cell_volume   805.52210790
_cell_formula_units_Z   1
loop_
 _symmetry_equiv_pos_site_id
 _symmetry_equiv_pos_as_xyz
  1  'x, y, z'
loop_
 _atom_site_type_symbol
 _atom_site_label
 _atom_site_symmetry_multiplicity
 _atom_site_fract_x
 _atom_site_fract_y
 _atom_site_fract_z
 _atom_site_occupancy
  Tb  Tb0  1  0.000444  0.815994  0.401571  1
  Tb  Tb1  1  0.499310  0.684131  0.097706  1
  Tb  Tb2  1  0.503204  0.315577  0.595748  1
  Tb  Tb3  1  0.996745  0.180088  0.905530  1
  Tb  Tb4  1  0.996745  0.180088  0.594470  1
  Tb  Tb5  1  0.503204  0.315577  0.904252  1
  Tb  Tb6  1  0.499310  0.684131  0.402294  1
  Tb  Tb7  1  0.000444  0.815994  0.098429  1
  Lu  Lu8  1  0.680627  0.988889  0.250000  1
  Lu  Lu9  1  0.180740  0.512381  0.250000  1
  Lu  Lu10  1  0.816779  0.487935  0.750000  1
  Lu  Lu11  1  0.320368  0.009236  0.750000  1
  Lu  Lu12  1  0.653233  0.836335  0.623534  1
  Lu  Lu13  1  0.153337  0.666802  0.877485  1
  Lu  Lu14  1  0.847140  0.337803  0.375612  1
  Lu  Lu15  1  0.346517  0.163080  0.124094  1
  Lu  Lu16  1  0.346517  0.163080  0.375906  1
  Lu  Lu17  1  0.847140  0.337803  0.124388  1
  Lu  Lu18  1  0.153337  0.666802  0.622515  1
  Lu  Lu19  1  0.653233  0.836335  0.876466  1
  Ir  Ir20  1  0.813023  0.639426  0.250000  1
  Ir  Ir21  1  0.314896  0.860908  0.250000  1
  Ir  Ir22  1  0.684402  0.139809  0.750000  1
  Pt  Pt23  1  0.184331  0.359315  0.750000  1
  Pt  Pt24  1  0.545413  0.380259  0.250000  1
  Pt  Pt25  1  0.046091  0.120431  0.250000  1
  Pt  Pt26  1  0.954090  0.879376  0.750000  1
  Pt  Pt27  1  0.452885  0.621412  0.750000  1
  Pt  Pt28  1  0.819062  0.535546  0.543223  1
  Pt  Pt29  1  0.316633  0.965478  0.957006  1
  Pt  Pt30  1  0.684347  0.037586  0.457476  1
  Pt  Pt31  1  0.183204  0.461890  0.042046  1
  Pt  Pt32  1  0.183204  0.461890  0.457954  1
  Pt  Pt33  1  0.684347  0.037586  0.042524  1
  Pt  Pt34  1  0.316633  0.965478  0.542994  1
  Pt  Pt35  1  0.819062  0.535546  0.956777  1
