# generated using pymatgen
data_Tb3YMnV3B16
_symmetry_space_group_name_H-M   'P 1'
_cell_length_a   3.45909600
_cell_length_b   5.98690207
_cell_length_c   11.58537402
_cell_angle_alpha   89.91468487
_cell_angle_beta   90.00000000
_cell_angle_gamma   90.00000000
_symmetry_Int_Tables_number   1
_chemical_formula_structural   Tb3YMnV3B16
_chemical_formula_sum   'Tb3 Y1 Mn1 V3 B16'
_cell_volume   239.92436112
_cell_formula_units_Z   1
loop_
 _symmetry_equiv_pos_site_id
 _symmetry_equiv_pos_as_xyz
  1  'x, y, z'
loop_
 _atom_site_type_symbol
 _atom_site_label
 _atom_site_symmetry_multiplicity
 _atom_site_fract_x
 _atom_site_fract_y
 _atom_site_fract_z
 _atom_site_occupancy
  Tb  Tb0  1  0.000000  0.624783  0.350728  1
  Tb  Tb1  1  0.000000  0.375959  0.650533  1
  Tb  Tb2  1  0.000000  0.124230  0.152067  1
  Y  Y3  1  0.000000  0.876296  0.846860  1
  Mn  Mn4  1  0.000000  0.875920  0.580683  1
  V  V5  1  0.000000  0.626702  0.082362  1
  V  V6  1  0.000000  0.373318  0.915165  1
  V  V7  1  0.000000  0.124433  0.420668  1
  B  B8  1  0.500000  0.784928  0.186453  1
  B  B9  1  0.500000  0.214245  0.812773  1
  B  B10  1  0.500000  0.283431  0.316182  1
  B  B11  1  0.500000  0.721023  0.681459  1
  B  B12  1  0.500000  0.864351  0.032586  1
  B  B13  1  0.500000  0.135531  0.966785  1
  B  B14  1  0.500000  0.363938  0.469119  1
  B  B15  1  0.500000  0.639324  0.533383  1
  B  B16  1  0.500000  0.884472  0.455772  1
  B  B17  1  0.500000  0.109460  0.548694  1
  B  B18  1  0.500000  0.385013  0.047024  1
  B  B19  1  0.500000  0.614769  0.952117  1
  B  B20  1  0.500000  0.975722  0.309573  1
  B  B21  1  0.500000  0.020839  0.689968  1
  B  B22  1  0.500000  0.475408  0.192765  1
  B  B23  1  0.500000  0.525903  0.806281  1
