# generated using pymatgen
data_Ca6SbIrO12
_symmetry_space_group_name_H-M   'P 1'
_cell_length_a   6.60249859
_cell_length_b   6.60249773
_cell_length_c   6.60249900
_cell_angle_alpha   91.96576388
_cell_angle_beta   91.96577231
_cell_angle_gamma   91.96577434
_symmetry_Int_Tables_number   1
_chemical_formula_structural   Ca6SbIrO12
_chemical_formula_sum   'Ca6 Sb1 Ir1 O12'
_cell_volume   287.30253000
_cell_formula_units_Z   1
loop_
 _symmetry_equiv_pos_site_id
 _symmetry_equiv_pos_as_xyz
  1  'x, y, z'
loop_
 _atom_site_type_symbol
 _atom_site_label
 _atom_site_symmetry_multiplicity
 _atom_site_fract_x
 _atom_site_fract_y
 _atom_site_fract_z
 _atom_site_occupancy
  Ca  Ca0  1  0.933758  0.434645  0.750451  1
  Ca  Ca1  1  0.750451  0.933758  0.434645  1
  Ca  Ca2  1  0.565355  0.249549  0.066242  1
  Ca  Ca3  1  0.434645  0.750451  0.933758  1
  Ca  Ca4  1  0.249549  0.066242  0.565355  1
  Ca  Ca5  1  0.066242  0.565355  0.249549  1
  Sb  Sb6  1  0.000000  0.000000  0.000000  1
  Ir  Ir7  1  0.500000  0.500000  0.500000  1
  O  O8  1  0.930530  0.290416  0.071106  1
  O  O9  1  0.928894  0.069470  0.709584  1
  O  O10  1  0.779579  0.575275  0.453432  1
  O  O11  1  0.709584  0.928894  0.069470  1
  O  O12  1  0.575275  0.453432  0.779579  1
  O  O13  1  0.546568  0.220421  0.424725  1
  O  O14  1  0.453432  0.779579  0.575275  1
  O  O15  1  0.424725  0.546568  0.220421  1
  O  O16  1  0.290416  0.071106  0.930530  1
  O  O17  1  0.220421  0.424725  0.546568  1
  O  O18  1  0.071106  0.930530  0.290416  1
  O  O19  1  0.069470  0.709584  0.928894  1
