# generated using pymatgen
data_Sr12Zn11CoTe5(WO16)3
_symmetry_space_group_name_H-M   'P 1'
_cell_length_a   11.24642308
_cell_length_b   11.29536885
_cell_length_c   11.27040300
_cell_angle_alpha   109.51179808
_cell_angle_beta   109.34240255
_cell_angle_gamma   109.41934431
_symmetry_Int_Tables_number   1
_chemical_formula_structural   Sr12Zn11CoTe5(WO16)3
_chemical_formula_sum   'Sr12 Zn11 Co1 Te5 W3 O48'
_cell_volume   1104.02880422
_cell_formula_units_Z   1
loop_
 _symmetry_equiv_pos_site_id
 _symmetry_equiv_pos_as_xyz
  1  'x, y, z'
loop_
 _atom_site_type_symbol
 _atom_site_label
 _atom_site_symmetry_multiplicity
 _atom_site_fract_x
 _atom_site_fract_y
 _atom_site_fract_z
 _atom_site_occupancy
  Sr  Sr0  1  0.374826  0.749204  0.122982  1
  Sr  Sr1  1  0.250051  0.375805  0.124319  1
  Sr  Sr2  1  0.874272  0.624265  0.248465  1
  Sr  Sr3  1  0.375119  0.124348  0.248110  1
  Sr  Sr4  1  0.125070  0.249998  0.375106  1
  Sr  Sr5  1  0.749292  0.124895  0.373077  1
  Sr  Sr6  1  0.874937  0.749996  0.624903  1
  Sr  Sr7  1  0.250763  0.875161  0.626984  1
  Sr  Sr8  1  0.125772  0.375725  0.751577  1
  Sr  Sr9  1  0.624870  0.875669  0.751875  1
  Sr  Sr10  1  0.625114  0.250734  0.877010  1
  Sr  Sr11  1  0.749948  0.624155  0.875625  1
  Zn  Zn12  1  0.875010  0.250372  0.124825  1
  Zn  Zn13  1  0.628167  0.375471  0.253262  1
  Zn  Zn14  1  0.123595  0.876319  0.250091  1
  Zn  Zn15  1  0.623112  0.750264  0.376323  1
  Zn  Zn16  1  0.253405  0.626718  0.376542  1
  Zn  Zn17  1  0.376873  0.249715  0.623678  1
  Zn  Zn18  1  0.746595  0.373280  0.623458  1
  Zn  Zn19  1  0.876427  0.123692  0.749927  1
  Zn  Zn20  1  0.371802  0.624515  0.746729  1
  Zn  Zn21  1  0.124980  0.749635  0.875152  1
  Zn  Zn22  1  0.246620  0.125088  0.871854  1
  Co  Co23  1  0.752956  0.874947  0.127661  1
  Te  Te24  1  0.999998  0.999986  0.999939  1
  Te  Te25  1  0.000055  0.000084  0.500015  1
  Te  Te26  1  0.500010  0.500013  0.500019  1
  Te  Te27  1  0.500006  0.999997  0.499981  1
  Te  Te28  1  0.999993  0.499980  0.499990  1
  W  W29  1  0.499943  0.999991  0.000028  1
  W  W30  1  0.999987  0.500014  0.000005  1
  W  W31  1  0.500130  0.500026  0.000040  1
  O  O32  1  0.329695  0.904834  0.015770  1
  O  O33  1  0.187625  0.111205  0.017419  1
  O  O34  1  0.686131  0.669780  0.074933  1
  O  O35  1  0.889071  0.405299  0.075367  1
  O  O36  1  0.985061  0.670653  0.095534  1
  O  O37  1  0.610121  0.424577  0.096072  1
  O  O38  1  0.596364  0.924261  0.109592  1
  O  O39  1  0.018430  0.187981  0.111364  1
  O  O40  1  0.185876  0.574777  0.170332  1
  O  O41  1  0.484549  0.596111  0.170288  1
  O  O42  1  0.575547  0.170091  0.185888  1
  O  O43  1  0.112167  0.019076  0.187823  1
  O  O44  1  0.329847  0.923825  0.312282  1
  O  O45  1  0.482357  0.389248  0.312162  1
  O  O46  1  0.908006  0.019388  0.331258  1
  O  O47  1  0.923099  0.312395  0.330078  1
  O  O48  1  0.575448  0.906686  0.387279  1
  O  O49  1  0.312284  0.481655  0.388419  1
  O  O50  1  0.831865  0.520260  0.407687  1
  O  O51  1  0.075858  0.887733  0.406821  1
  O  O52  1  0.829226  0.812734  0.423093  1
  O  O53  1  0.094445  0.611495  0.424077  1
  O  O54  1  0.592628  0.168550  0.480446  1
  O  O55  1  0.388333  0.312004  0.480760  1
  O  O56  1  0.611669  0.687994  0.519248  1
  O  O57  1  0.407375  0.831446  0.519561  1
  O  O58  1  0.170892  0.187368  0.577017  1
  O  O59  1  0.905556  0.388510  0.575921  1
  O  O60  1  0.924179  0.112269  0.593252  1
  O  O61  1  0.168126  0.479735  0.592306  1
  O  O62  1  0.687710  0.518345  0.611582  1
  O  O63  1  0.424546  0.093320  0.612715  1
  O  O64  1  0.091747  0.980298  0.668568  1
  O  O65  1  0.076901  0.687608  0.669925  1
  O  O66  1  0.517657  0.610760  0.687845  1
  O  O67  1  0.670161  0.076178  0.687725  1
  O  O68  1  0.887809  0.980908  0.812117  1
  O  O69  1  0.424462  0.829916  0.814142  1
  O  O70  1  0.515458  0.403873  0.829676  1
  O  O71  1  0.814131  0.425230  0.829673  1
  O  O72  1  0.981586  0.812031  0.888625  1
  O  O73  1  0.404065  0.075719  0.890323  1
  O  O74  1  0.014918  0.329340  0.904460  1
  O  O75  1  0.389913  0.575363  0.903952  1
  O  O76  1  0.110935  0.594712  0.924633  1
  O  O77  1  0.313711  0.330429  0.925138  1
  O  O78  1  0.670284  0.095141  0.984278  1
  O  O79  1  0.812469  0.888817  0.983019  1
