# generated using pymatgen
data_HoTm3Ga7Ag5
_symmetry_space_group_name_H-M   'P 1'
_cell_length_a   4.32833200
_cell_length_b   6.97954245
_cell_length_c   10.27643008
_cell_angle_alpha   89.97013491
_cell_angle_beta   90.00000000
_cell_angle_gamma   90.00000000
_symmetry_Int_Tables_number   1
_chemical_formula_structural   HoTm3Ga7Ag5
_chemical_formula_sum   'Ho1 Tm3 Ga7 Ag5'
_cell_volume   310.44861831
_cell_formula_units_Z   1
loop_
 _symmetry_equiv_pos_site_id
 _symmetry_equiv_pos_as_xyz
  1  'x, y, z'
loop_
 _atom_site_type_symbol
 _atom_site_label
 _atom_site_symmetry_multiplicity
 _atom_site_fract_x
 _atom_site_fract_y
 _atom_site_fract_z
 _atom_site_occupancy
  Ho  Ho0  1  0.000000  0.216409  0.829114  1
  Tm  Tm1  1  0.500000  0.781180  0.173304  1
  Tm  Tm2  1  0.500000  0.277375  0.327634  1
  Tm  Tm3  1  0.000000  0.722966  0.670321  1
  Ga  Ga4  1  0.500000  0.923843  0.845763  1
  Ga  Ga5  1  0.500000  0.426989  0.655672  1
  Ga  Ga6  1  0.000000  0.076428  0.153968  1
  Ga  Ga7  1  0.000000  0.573803  0.343841  1
  Ga  Ga8  1  0.500000  0.202087  0.036040  1
  Ga  Ga9  1  0.000000  0.299797  0.535176  1
  Ga  Ga10  1  0.000000  0.795915  0.964111  1
  Ag  Ag11  1  0.500000  0.541621  0.903743  1
  Ag  Ag12  1  0.500000  0.046690  0.600587  1
  Ag  Ag13  1  0.000000  0.457597  0.097206  1
  Ag  Ag14  1  0.000000  0.961276  0.401202  1
  Ag  Ag15  1  0.500000  0.696025  0.462317  1
