# generated using pymatgen
data_Ho4Zn8Cd3Ag
_symmetry_space_group_name_H-M   'P 1'
_cell_length_a   4.35960700
_cell_length_b   7.18482787
_cell_length_c   10.14783341
_cell_angle_alpha   89.90738551
_cell_angle_beta   90.00000000
_cell_angle_gamma   90.00000000
_symmetry_Int_Tables_number   1
_chemical_formula_structural   Ho4Zn8Cd3Ag
_chemical_formula_sum   'Ho4 Zn8 Cd3 Ag1'
_cell_volume   317.86043334
_cell_formula_units_Z   1
loop_
 _symmetry_equiv_pos_site_id
 _symmetry_equiv_pos_as_xyz
  1  'x, y, z'
loop_
 _atom_site_type_symbol
 _atom_site_label
 _atom_site_symmetry_multiplicity
 _atom_site_fract_x
 _atom_site_fract_y
 _atom_site_fract_z
 _atom_site_occupancy
  Ho  Ho0  1  0.250000  0.294539  0.674489  1
  Ho  Ho1  1  0.750000  0.700659  0.327627  1
  Ho  Ho2  1  0.250000  0.804869  0.819680  1
  Ho  Ho3  1  0.750000  0.198375  0.177016  1
  Zn  Zn4  1  0.750000  0.306565  0.466196  1
  Zn  Zn5  1  0.250000  0.690655  0.536074  1
  Zn  Zn6  1  0.750000  0.813391  0.034227  1
  Zn  Zn7  1  0.250000  0.185889  0.965404  1
  Zn  Zn8  1  0.750000  0.586761  0.642938  1
  Zn  Zn9  1  0.250000  0.417555  0.358906  1
  Zn  Zn10  1  0.750000  0.084301  0.851870  1
  Zn  Zn11  1  0.250000  0.916782  0.144213  1
  Cd  Cd12  1  0.250000  0.534661  0.100061  1
  Cd  Cd13  1  0.750000  0.466535  0.900156  1
  Cd  Cd14  1  0.250000  0.034631  0.403381  1
  Ag  Ag15  1  0.750000  0.963834  0.597760  1
