# generated using pymatgen
data_Dy8Ho12(Bi3Sb)3
_symmetry_space_group_name_H-M   'P 1'
_cell_length_a   8.19299283
_cell_length_b   9.46395000
_cell_length_c   11.98694920
_cell_angle_alpha   90.00000000
_cell_angle_beta   90.03619619
_cell_angle_gamma   90.00000000
_symmetry_Int_Tables_number   1
_chemical_formula_structural   Dy8Ho12(Bi3Sb)3
_chemical_formula_sum   'Dy8 Ho12 Bi9 Sb3'
_cell_volume   929.44477450
_cell_formula_units_Z   1
loop_
 _symmetry_equiv_pos_site_id
 _symmetry_equiv_pos_as_xyz
  1  'x, y, z'
loop_
 _atom_site_type_symbol
 _atom_site_label
 _atom_site_symmetry_multiplicity
 _atom_site_fract_x
 _atom_site_fract_y
 _atom_site_fract_z
 _atom_site_occupancy
  Dy  Dy0  1  0.647286  0.250000  0.786759  1
  Dy  Dy1  1  0.148181  0.250000  0.716425  1
  Dy  Dy2  1  0.475539  0.250000  0.487930  1
  Dy  Dy3  1  0.972761  0.250000  0.011934  1
  Dy  Dy4  1  0.318053  0.250000  0.216287  1
  Dy  Dy5  1  0.811507  0.250000  0.278908  1
  Dy  Dy6  1  0.683267  0.750000  0.782156  1
  Dy  Dy7  1  0.183784  0.750000  0.717877  1
  Ho  Ho8  1  0.352681  0.750000  0.213122  1
  Ho  Ho9  1  0.853033  0.750000  0.286403  1
  Ho  Ho10  1  0.689096  0.562953  0.057486  1
  Ho  Ho11  1  0.190379  0.933703  0.442465  1
  Ho  Ho12  1  0.311146  0.062462  0.942782  1
  Ho  Ho13  1  0.808421  0.439912  0.558952  1
  Ho  Ho14  1  0.311146  0.437538  0.942782  1
  Ho  Ho15  1  0.808421  0.060088  0.558952  1
  Ho  Ho16  1  0.689096  0.937047  0.057486  1
  Ho  Ho17  1  0.190379  0.566297  0.442465  1
  Ho  Ho18  1  0.528570  0.750000  0.512560  1
  Ho  Ho19  1  0.027717  0.750000  0.988054  1
  Bi  Bi20  1  0.092067  0.250000  0.456543  1
  Bi  Bi21  1  0.565461  0.994818  0.325562  1
  Bi  Bi22  1  0.065809  0.504389  0.174376  1
  Bi  Bi23  1  0.434053  0.495712  0.674515  1
  Bi  Bi24  1  0.934141  0.003835  0.825918  1
  Bi  Bi25  1  0.434053  0.004288  0.674515  1
  Bi  Bi26  1  0.934141  0.496165  0.825918  1
  Bi  Bi27  1  0.565461  0.505182  0.325562  1
  Bi  Bi28  1  0.065809  0.995611  0.174376  1
  Sb  Sb29  1  0.407354  0.750000  0.958273  1
  Sb  Sb30  1  0.908098  0.750000  0.541398  1
  Sb  Sb31  1  0.593095  0.250000  0.041255  1
