# generated using pymatgen
data_Er3MgIn2Ga2Ag
_symmetry_space_group_name_H-M   'P 1'
_cell_length_a   7.22218617
_cell_length_b   7.22218520
_cell_length_c   4.46818700
_cell_angle_alpha   90.00000000
_cell_angle_beta   90.00000000
_cell_angle_gamma   120.12307289
_symmetry_Int_Tables_number   1
_chemical_formula_structural   Er3MgIn2Ga2Ag
_chemical_formula_sum   'Er3 Mg1 In2 Ga2 Ag1'
_cell_volume   201.58552288
_cell_formula_units_Z   1
loop_
 _symmetry_equiv_pos_site_id
 _symmetry_equiv_pos_as_xyz
  1  'x, y, z'
loop_
 _atom_site_type_symbol
 _atom_site_label
 _atom_site_symmetry_multiplicity
 _atom_site_fract_x
 _atom_site_fract_y
 _atom_site_fract_z
 _atom_site_occupancy
  Er  Er0  1  0.574341  0.999781  0.000000  1
  Er  Er1  1  0.999781  0.574341  0.000000  1
  Er  Er2  1  0.425095  0.425095  0.000000  1
  Mg  Mg3  1  0.757918  0.757918  0.500000  1
  In  In4  1  0.249720  0.995722  0.500000  1
  In  In5  1  0.995722  0.249720  0.500000  1
  Ga  Ga6  1  0.339239  0.664768  0.500000  1
  Ga  Ga7  1  0.664768  0.339239  0.500000  1
  Ag  Ag8  1  0.993415  0.993415  0.000000  1
