# generated using pymatgen
data_Y3Ho5Re2(B12Ir)2
_symmetry_space_group_name_H-M   'P 1'
_cell_length_a   3.66468300
_cell_length_b   9.15003674
_cell_length_c   11.54086500
_cell_angle_alpha   90.33462588
_cell_angle_beta   90.00000000
_cell_angle_gamma   90.00000000
_symmetry_Int_Tables_number   1
_chemical_formula_structural   Y3Ho5Re2(B12Ir)2
_chemical_formula_sum   'Y3 Ho5 Re2 B24 Ir2'
_cell_volume   386.98150171
_cell_formula_units_Z   1
loop_
 _symmetry_equiv_pos_site_id
 _symmetry_equiv_pos_as_xyz
  1  'x, y, z'
loop_
 _atom_site_type_symbol
 _atom_site_label
 _atom_site_symmetry_multiplicity
 _atom_site_fract_x
 _atom_site_fract_y
 _atom_site_fract_z
 _atom_site_occupancy
  Y  Y0  1  0.000000  0.317054  0.409924  1
  Y  Y1  1  0.000000  0.682955  0.590087  1
  Y  Y2  1  0.000000  0.826449  0.082311  1
  Ho  Ho3  1  0.000000  0.173425  0.917783  1
  Ho  Ho4  1  0.000000  0.946119  0.372161  1
  Ho  Ho5  1  0.000000  0.053933  0.627897  1
  Ho  Ho6  1  0.000000  0.441620  0.125858  1
  Ho  Ho7  1  0.000000  0.558190  0.874055  1
  Re  Re8  1  0.000000  0.138438  0.179668  1
  Re  Re9  1  0.000000  0.861865  0.820181  1
  B  B10  1  0.500000  0.554290  0.433761  1
  B  B11  1  0.500000  0.445696  0.566267  1
  B  B12  1  0.500000  0.053663  0.067172  1
  B  B13  1  0.500000  0.946851  0.932570  1
  B  B14  1  0.500000  0.749455  0.420918  1
  B  B15  1  0.500000  0.250552  0.579126  1
  B  B16  1  0.500000  0.247824  0.080639  1
  B  B17  1  0.500000  0.752115  0.919014  1
  B  B18  1  0.500000  0.790835  0.266156  1
  B  B19  1  0.500000  0.209105  0.734099  1
  B  B20  1  0.500000  0.292205  0.234052  1
  B  B21  1  0.500000  0.707783  0.765925  1
  B  B22  1  0.500000  0.631622  0.184154  1
  B  B23  1  0.500000  0.368078  0.816010  1
  B  B24  1  0.500000  0.131492  0.314525  1
  B  B25  1  0.500000  0.868549  0.685498  1
  B  B26  1  0.500000  0.983226  0.213126  1
  B  B27  1  0.500000  0.017130  0.787024  1
  B  B28  1  0.500000  0.482746  0.287123  1
  B  B29  1  0.500000  0.517206  0.712887  1
  B  B30  1  0.500000  0.606783  0.029928  1
  B  B31  1  0.500000  0.392848  0.969973  1
  B  B32  1  0.500000  0.107483  0.470854  1
  B  B33  1  0.500000  0.892524  0.529162  1
  Ir  Ir34  1  0.000000  0.636797  0.322068  1
  Ir  Ir35  1  0.000000  0.363094  0.678041  1
