# generated using pymatgen
data_Y2Er2Cu3Sb8
_symmetry_space_group_name_H-M   'P 1'
_cell_length_a   10.58512106
_cell_length_b   10.58512143
_cell_length_c   10.58028200
_cell_angle_alpha   146.57409358
_cell_angle_beta   146.57409851
_cell_angle_gamma   48.05364013
_symmetry_Int_Tables_number   1
_chemical_formula_structural   Y2Er2Cu3Sb8
_chemical_formula_sum   'Y2 Er2 Cu3 Sb8'
_cell_volume   358.17520087
_cell_formula_units_Z   1
loop_
 _symmetry_equiv_pos_site_id
 _symmetry_equiv_pos_as_xyz
  1  'x, y, z'
loop_
 _atom_site_type_symbol
 _atom_site_label
 _atom_site_symmetry_multiplicity
 _atom_site_fract_x
 _atom_site_fract_y
 _atom_site_fract_z
 _atom_site_occupancy
  Y  Y0  1  0.633396  0.633396  0.508320  1
  Y  Y1  1  0.125075  0.125075  0.491680  1
  Er  Er2  1  0.365367  0.875182  0.000000  1
  Er  Er3  1  0.875182  0.365367  0.000000  1
  Cu  Cu4  1  0.000841  0.000841  0.000000  1
  Cu  Cu5  1  0.000750  0.500750  0.500000  1
  Cu  Cu6  1  0.500750  0.000750  0.500000  1
  Sb  Sb7  1  0.335940  0.335940  0.517489  1
  Sb  Sb8  1  0.818450  0.818450  0.482511  1
  Sb  Sb9  1  0.666544  0.181745  0.000000  1
  Sb  Sb10  1  0.181745  0.666544  0.000000  1
  Sb  Sb11  1  0.249242  0.249242  0.000000  1
  Sb  Sb12  1  0.748766  0.748766  0.000000  1
  Sb  Sb13  1  0.748976  0.248976  0.500000  1
  Sb  Sb14  1  0.248976  0.748976  0.500000  1
