# generated using pymatgen
data_K3Hg(BPt3)2
_symmetry_space_group_name_H-M   'P 1'
_cell_length_a   8.61364280
_cell_length_b   8.61364264
_cell_length_c   8.61364204
_cell_angle_alpha   38.59310423
_cell_angle_beta   38.59310126
_cell_angle_gamma   38.59310326
_symmetry_Int_Tables_number   1
_chemical_formula_structural   K3Hg(BPt3)2
_chemical_formula_sum   'K3 Hg1 B2 Pt6'
_cell_volume   223.46652320
_cell_formula_units_Z   1
loop_
 _symmetry_equiv_pos_site_id
 _symmetry_equiv_pos_as_xyz
  1  'x, y, z'
loop_
 _atom_site_type_symbol
 _atom_site_label
 _atom_site_symmetry_multiplicity
 _atom_site_fract_x
 _atom_site_fract_y
 _atom_site_fract_z
 _atom_site_occupancy
  K  K0  1  0.860557  0.860557  0.860557  1
  K  K1  1  0.139443  0.139443  0.139443  1
  K  K2  1  0.000000  0.000000  0.000000  1
  Hg  Hg3  1  0.500000  0.500000  0.500000  1
  B  B4  1  0.668392  0.668392  0.668392  1
  B  B5  1  0.331608  0.331608  0.331608  1
  Pt  Pt6  1  0.438624  0.938418  0.438624  1
  Pt  Pt7  1  0.438624  0.438624  0.938418  1
  Pt  Pt8  1  0.938418  0.438624  0.438624  1
  Pt  Pt9  1  0.561376  0.061582  0.561376  1
  Pt  Pt10  1  0.561376  0.561376  0.061582  1
  Pt  Pt11  1  0.061582  0.561376  0.561376  1
