# generated using pymatgen
data_Nd6Th2Zn8Ir5Rh3
_symmetry_space_group_name_H-M   'P 1'
_cell_length_a   3.97716900
_cell_length_b   7.45078224
_cell_length_c   16.63889753
_cell_angle_alpha   90.02903339
_cell_angle_beta   90.00000000
_cell_angle_gamma   90.00000000
_symmetry_Int_Tables_number   1
_chemical_formula_structural   Nd6Th2Zn8Ir5Rh3
_chemical_formula_sum   'Nd6 Th2 Zn8 Ir5 Rh3'
_cell_volume   493.06072255
_cell_formula_units_Z   1
loop_
 _symmetry_equiv_pos_site_id
 _symmetry_equiv_pos_as_xyz
  1  'x, y, z'
loop_
 _atom_site_type_symbol
 _atom_site_label
 _atom_site_symmetry_multiplicity
 _atom_site_fract_x
 _atom_site_fract_y
 _atom_site_fract_z
 _atom_site_occupancy
  Nd  Nd0  1  0.750000  0.330044  0.437311  1
  Nd  Nd1  1  0.750000  0.948081  0.285093  1
  Nd  Nd2  1  0.750000  0.829878  0.062423  1
  Nd  Nd3  1  0.750000  0.446983  0.215394  1
  Nd  Nd4  1  0.250000  0.051002  0.714701  1
  Nd  Nd5  1  0.250000  0.550805  0.785303  1
  Th  Th6  1  0.250000  0.171201  0.939952  1
  Th  Th7  1  0.250000  0.671562  0.560039  1
  Zn  Zn8  1  0.750000  0.010056  0.559832  1
  Zn  Zn9  1  0.250000  0.618280  0.348510  1
  Zn  Zn10  1  0.750000  0.379560  0.654204  1
  Zn  Zn11  1  0.250000  0.502052  0.059968  1
  Zn  Zn12  1  0.750000  0.510011  0.940145  1
  Zn  Zn13  1  0.250000  0.002067  0.439922  1
  Zn  Zn14  1  0.250000  0.119188  0.151690  1
  Zn  Zn15  1  0.750000  0.879658  0.845784  1
  Ir  Ir16  1  0.750000  0.749241  0.440500  1
  Ir  Ir17  1  0.250000  0.240948  0.311686  1
  Ir  Ir18  1  0.750000  0.247098  0.820399  1
  Ir  Ir19  1  0.750000  0.747031  0.679614  1
  Ir  Ir20  1  0.750000  0.248811  0.059405  1
  Rh  Rh21  1  0.250000  0.251947  0.565941  1
  Rh  Rh22  1  0.250000  0.741983  0.187842  1
  Rh  Rh23  1  0.250000  0.752517  0.934342  1
