# generated using pymatgen
data_TcTe8ICl
_symmetry_space_group_name_H-M   'P 1'
_cell_length_a   8.84935530
_cell_length_b   8.84935514
_cell_length_c   10.84537014
_cell_angle_alpha   78.12654255
_cell_angle_beta   78.12654854
_cell_angle_gamma   114.73537185
_symmetry_Int_Tables_number   1
_chemical_formula_structural   TcTe8ICl
_chemical_formula_sum   'Tc2 Te16 I2 Cl2'
_cell_volume   713.03047890
_cell_formula_units_Z   2
loop_
 _symmetry_equiv_pos_site_id
 _symmetry_equiv_pos_as_xyz
  1  'x, y, z'
loop_
 _atom_site_type_symbol
 _atom_site_label
 _atom_site_symmetry_multiplicity
 _atom_site_fract_x
 _atom_site_fract_y
 _atom_site_fract_z
 _atom_site_occupancy
  Tc  Tc0  1  0.000000  0.000000  0.000000  1
  Tc  Tc1  1  0.000000  0.000000  0.500000  1
  Te  Te2  1  0.783455  0.083053  0.146542  1
  Te  Te3  1  0.916947  0.216545  0.353458  1
  Te  Te4  1  0.216545  0.916947  0.853458  1
  Te  Te5  1  0.083053  0.783455  0.646542  1
  Te  Te6  1  0.981627  0.759906  0.206071  1
  Te  Te7  1  0.240094  0.018373  0.293929  1
  Te  Te8  1  0.018373  0.240094  0.793929  1
  Te  Te9  1  0.759906  0.981627  0.706071  1
  Te  Te10  1  0.758017  0.719351  0.464416  1
  Te  Te11  1  0.280649  0.241983  0.035584  1
  Te  Te12  1  0.241983  0.280649  0.535584  1
  Te  Te13  1  0.719351  0.758017  0.964416  1
  Te  Te14  1  0.517540  0.799669  0.367468  1
  Te  Te15  1  0.200331  0.482460  0.132532  1
  Te  Te16  1  0.482460  0.200331  0.632532  1
  Te  Te17  1  0.799669  0.517540  0.867468  1
  I  I18  1  0.597830  0.402170  0.250000  1
  I  I19  1  0.402170  0.597830  0.750000  1
  Cl  Cl20  1  0.000000  0.500000  0.500000  1
  Cl  Cl21  1  0.500000  0.000000  0.000000  1
