# generated using pymatgen
data_Pr5Y6In9Rh4
_symmetry_space_group_name_H-M   'P 1'
_cell_length_a   13.27015781
_cell_length_b   13.26997548
_cell_length_c   3.77978800
_cell_angle_alpha   90.00000000
_cell_angle_beta   90.00000000
_cell_angle_gamma   111.70968102
_symmetry_Int_Tables_number   1
_chemical_formula_structural   Pr5Y6In9Rh4
_chemical_formula_sum   'Pr5 Y6 In9 Rh4'
_cell_volume   618.38952734
_cell_formula_units_Z   1
loop_
 _symmetry_equiv_pos_site_id
 _symmetry_equiv_pos_as_xyz
  1  'x, y, z'
loop_
 _atom_site_type_symbol
 _atom_site_label
 _atom_site_symmetry_multiplicity
 _atom_site_fract_x
 _atom_site_fract_y
 _atom_site_fract_z
 _atom_site_occupancy
  Pr  Pr0  1  0.500000  0.500000  0.500000  1
  Pr  Pr1  1  0.127523  0.872558  0.500000  1
  Pr  Pr2  1  0.872477  0.127442  0.500000  1
  Pr  Pr3  1  0.341207  0.658788  0.500000  1
  Pr  Pr4  1  0.658793  0.341212  0.500000  1
  Y  Y5  1  0.812936  0.812949  0.500000  1
  Y  Y6  1  0.187064  0.187051  0.500000  1
  Y  Y7  1  0.580056  0.918648  0.500000  1
  Y  Y8  1  0.419944  0.081352  0.500000  1
  Y  Y9  1  0.918621  0.580010  0.500000  1
  Y  Y10  1  0.081379  0.419990  0.500000  1
  In  In11  1  0.344282  0.869811  0.000000  1
  In  In12  1  0.655718  0.130189  0.000000  1
  In  In13  1  0.869791  0.344282  0.000000  1
  In  In14  1  0.130209  0.655718  0.000000  1
  In  In15  1  0.582588  0.724140  0.000000  1
  In  In16  1  0.417412  0.275860  0.000000  1
  In  In17  1  0.724172  0.582642  0.000000  1
  In  In18  1  0.275828  0.417358  0.000000  1
  In  In19  1  0.000000  0.000000  0.000000  1
  Rh  Rh20  1  0.745186  0.950404  0.000000  1
  Rh  Rh21  1  0.254814  0.049596  0.000000  1
  Rh  Rh22  1  0.950362  0.745159  0.000000  1
  Rh  Rh23  1  0.049638  0.254841  0.000000  1
