# generated using pymatgen
data_Ho4Tm7LuIr4
_symmetry_space_group_name_H-M   'P 1'
_cell_length_a   6.31448919
_cell_length_b   7.21335919
_cell_length_c   9.04637320
_cell_angle_alpha   90.05396946
_cell_angle_beta   89.95193472
_cell_angle_gamma   89.93778990
_symmetry_Int_Tables_number   1
_chemical_formula_structural   Ho4Tm7LuIr4
_chemical_formula_sum   'Ho4 Tm7 Lu1 Ir4'
_cell_volume   412.04977469
_cell_formula_units_Z   1
loop_
 _symmetry_equiv_pos_site_id
 _symmetry_equiv_pos_as_xyz
  1  'x, y, z'
loop_
 _atom_site_type_symbol
 _atom_site_label
 _atom_site_symmetry_multiplicity
 _atom_site_fract_x
 _atom_site_fract_y
 _atom_site_fract_z
 _atom_site_occupancy
  Ho  Ho0  1  0.871808  0.533342  0.249727  1
  Ho  Ho1  1  0.627829  0.032686  0.249787  1
  Ho  Ho2  1  0.128444  0.467325  0.750278  1
  Ho  Ho3  1  0.371829  0.966962  0.750249  1
  Tm  Tm4  1  0.171602  0.177387  0.437977  1
  Tm  Tm5  1  0.671581  0.322387  0.561992  1
  Tm  Tm6  1  0.828449  0.821999  0.938381  1
  Tm  Tm7  1  0.671096  0.322718  0.938167  1
  Tm  Tm8  1  0.828557  0.822466  0.561998  1
  Tm  Tm9  1  0.328472  0.677525  0.437558  1
  Tm  Tm10  1  0.171488  0.177543  0.061696  1
  Lu  Lu11  1  0.328388  0.677461  0.062239  1
  Ir  Ir12  1  0.046229  0.883044  0.250065  1
  Ir  Ir13  1  0.454013  0.383166  0.250010  1
  Ir  Ir14  1  0.953924  0.117040  0.750126  1
  Ir  Ir15  1  0.546293  0.616949  0.749749  1
