# generated using pymatgen
data_Dy6Ho2Sc12Si15Ge
_symmetry_space_group_name_H-M   'P 1'
_cell_length_a   7.10558077
_cell_length_b   7.39400308
_cell_length_c   14.01219625
_cell_angle_alpha   89.99848567
_cell_angle_beta   89.84477010
_cell_angle_gamma   90.05442618
_symmetry_Int_Tables_number   1
_chemical_formula_structural   Dy6Ho2Sc12Si15Ge
_chemical_formula_sum   'Dy6 Ho2 Sc12 Si15 Ge1'
_cell_volume   736.17934592
_cell_formula_units_Z   1
loop_
 _symmetry_equiv_pos_site_id
 _symmetry_equiv_pos_as_xyz
  1  'x, y, z'
loop_
 _atom_site_type_symbol
 _atom_site_label
 _atom_site_symmetry_multiplicity
 _atom_site_fract_x
 _atom_site_fract_y
 _atom_site_fract_z
 _atom_site_occupancy
  Dy  Dy0  1  0.011401  0.175604  0.096593  1
  Dy  Dy1  1  0.988701  0.824659  0.903456  1
  Dy  Dy2  1  0.489115  0.675556  0.903477  1
  Dy  Dy3  1  0.988806  0.824783  0.596762  1
  Dy  Dy4  1  0.511032  0.324692  0.096710  1
  Dy  Dy5  1  0.009731  0.175236  0.402821  1
  Ho  Ho6  1  0.511258  0.323108  0.402416  1
  Ho  Ho7  1  0.492094  0.677185  0.597167  1
  Sc  Sc8  1  0.162362  0.502507  0.751296  1
  Sc  Sc9  1  0.837446  0.497525  0.250148  1
  Sc  Sc10  1  0.337823  0.002536  0.250021  1
  Sc  Sc11  1  0.662248  0.997455  0.750000  1
  Sc  Sc12  1  0.334802  0.173906  0.626425  1
  Sc  Sc13  1  0.666438  0.823981  0.374053  1
  Sc  Sc14  1  0.166010  0.677065  0.374257  1
  Sc  Sc15  1  0.667698  0.822932  0.125215  1
  Sc  Sc16  1  0.831455  0.324098  0.625187  1
  Sc  Sc17  1  0.332011  0.176546  0.874722  1
  Sc  Sc18  1  0.831945  0.323219  0.874824  1
  Sc  Sc19  1  0.167779  0.676978  0.125236  1
  Si  Si20  1  0.034695  0.116460  0.750128  1
  Si  Si21  1  0.965050  0.884446  0.249507  1
  Si  Si22  1  0.464391  0.615968  0.249673  1
  Si  Si23  1  0.534829  0.384241  0.750344  1
  Si  Si24  1  0.286640  0.872153  0.750300  1
  Si  Si25  1  0.713422  0.127150  0.249551  1
  Si  Si26  1  0.213039  0.373102  0.249963  1
  Si  Si27  1  0.787183  0.627146  0.750100  1
  Si  Si28  1  0.834696  0.536835  0.459720  1
  Si  Si29  1  0.340390  0.964347  0.460724  1
  Si  Si30  1  0.841494  0.535123  0.039462  1
  Si  Si31  1  0.659654  0.035939  0.539066  1
  Si  Si32  1  0.158428  0.464817  0.960797  1
  Si  Si33  1  0.658338  0.035394  0.960759  1
  Si  Si34  1  0.341518  0.964751  0.039357  1
  Ge  Ge35  1  0.166075  0.462553  0.539768  1
