# generated using pymatgen
data_Nd2Er6Be3Si12Rh
_symmetry_space_group_name_H-M   'P 1'
_cell_length_a   7.94437000
_cell_length_b   7.94437066
_cell_length_c   8.12061100
_cell_angle_alpha   90.00000000
_cell_angle_beta   90.00000000
_cell_angle_gamma   119.99999725
_symmetry_Int_Tables_number   1
_chemical_formula_structural   Nd2Er6Be3Si12Rh
_chemical_formula_sum   'Nd2 Er6 Be3 Si12 Rh1'
_cell_volume   443.85213412
_cell_formula_units_Z   1
loop_
 _symmetry_equiv_pos_site_id
 _symmetry_equiv_pos_as_xyz
  1  'x, y, z'
loop_
 _atom_site_type_symbol
 _atom_site_label
 _atom_site_symmetry_multiplicity
 _atom_site_fract_x
 _atom_site_fract_y
 _atom_site_fract_z
 _atom_site_occupancy
  Nd  Nd0  1  0.000000  0.000000  0.247876  1
  Nd  Nd1  1  0.000000  0.000000  0.752454  1
  Er  Er2  1  0.499559  0.500441  0.248831  1
  Er  Er3  1  0.499559  0.999118  0.248831  1
  Er  Er4  1  0.000882  0.500441  0.248831  1
  Er  Er5  1  0.500680  0.499320  0.751123  1
  Er  Er6  1  0.998641  0.499320  0.751123  1
  Er  Er7  1  0.500680  0.001359  0.751123  1
  Be  Be8  1  0.666667  0.333333  0.499285  1
  Be  Be9  1  0.666667  0.333333  0.000499  1
  Be  Be10  1  0.333333  0.666667  0.997286  1
  Si  Si11  1  0.828070  0.171930  0.499409  1
  Si  Si12  1  0.828070  0.656140  0.499409  1
  Si  Si13  1  0.343860  0.171930  0.499409  1
  Si  Si14  1  0.825661  0.174339  0.000301  1
  Si  Si15  1  0.825661  0.651323  0.000301  1
  Si  Si16  1  0.348677  0.174339  0.000301  1
  Si  Si17  1  0.174191  0.825809  0.999980  1
  Si  Si18  1  0.651620  0.825809  0.999980  1
  Si  Si19  1  0.174191  0.348380  0.999980  1
  Si  Si20  1  0.169068  0.830932  0.499786  1
  Si  Si21  1  0.661866  0.830932  0.499786  1
  Si  Si22  1  0.169068  0.338134  0.499786  1
  Rh  Rh23  1  0.333333  0.666667  0.504308  1
