# generated using pymatgen
data_Zr5Pa3(InIr2)4
_symmetry_space_group_name_H-M   'P 1'
_cell_length_a   7.60109013
_cell_length_b   7.60108959
_cell_length_c   6.98889100
_cell_angle_alpha   90.00000000
_cell_angle_beta   90.00000000
_cell_angle_gamma   89.14585082
_symmetry_Int_Tables_number   1
_chemical_formula_structural   Zr5Pa3(InIr2)4
_chemical_formula_sum   'Zr5 Pa3 In4 Ir8'
_cell_volume   403.74926040
_cell_formula_units_Z   1
loop_
 _symmetry_equiv_pos_site_id
 _symmetry_equiv_pos_as_xyz
  1  'x, y, z'
loop_
 _atom_site_type_symbol
 _atom_site_label
 _atom_site_symmetry_multiplicity
 _atom_site_fract_x
 _atom_site_fract_y
 _atom_site_fract_z
 _atom_site_occupancy
  Zr  Zr0  1  0.816133  0.179765  0.500000  1
  Zr  Zr1  1  0.681976  0.681976  0.000000  1
  Zr  Zr2  1  0.179765  0.816133  0.500000  1
  Zr  Zr3  1  0.317617  0.317617  0.000000  1
  Zr  Zr4  1  0.342085  0.342085  0.500000  1
  Pa  Pa5  1  0.653824  0.653824  0.500000  1
  Pa  Pa6  1  0.845355  0.160846  0.000000  1
  Pa  Pa7  1  0.160846  0.845355  0.000000  1
  In  In8  1  0.006093  0.498571  0.254096  1
  In  In9  1  0.498571  0.006093  0.745904  1
  In  In10  1  0.498571  0.006093  0.254096  1
  In  In11  1  0.006093  0.498571  0.745904  1
  Ir  Ir12  1  0.635627  0.369603  0.221621  1
  Ir  Ir13  1  0.369603  0.635627  0.778379  1
  Ir  Ir14  1  0.862556  0.862556  0.721788  1
  Ir  Ir15  1  0.635627  0.369603  0.778379  1
  Ir  Ir16  1  0.369603  0.635627  0.221621  1
  Ir  Ir17  1  0.128749  0.128749  0.277195  1
  Ir  Ir18  1  0.862556  0.862556  0.278212  1
  Ir  Ir19  1  0.128749  0.128749  0.722805  1
