# generated using pymatgen
data_Rb2Pd3O7
_symmetry_space_group_name_H-M   'P 1'
_cell_length_a   7.67639202
_cell_length_b   7.94297465
_cell_length_c   8.22631128
_cell_angle_alpha   105.54993023
_cell_angle_beta   105.16229222
_cell_angle_gamma   115.94568441
_symmetry_Int_Tables_number   1
_chemical_formula_structural   Rb2Pd3O7
_chemical_formula_sum   'Rb4 Pd6 O14'
_cell_volume   390.76932851
_cell_formula_units_Z   2
loop_
 _symmetry_equiv_pos_site_id
 _symmetry_equiv_pos_as_xyz
  1  'x, y, z'
loop_
 _atom_site_type_symbol
 _atom_site_label
 _atom_site_symmetry_multiplicity
 _atom_site_fract_x
 _atom_site_fract_y
 _atom_site_fract_z
 _atom_site_occupancy
  Rb  Rb0  1  0.324069  0.814426  0.069628  1
  Rb  Rb1  1  0.254762  0.688568  0.492766  1
  Rb  Rb2  1  0.745238  0.311432  0.507235  1
  Rb  Rb3  1  0.675932  0.185574  0.930372  1
  Pd  Pd4  1  0.358417  0.357847  0.075337  1
  Pd  Pd5  1  0.071550  0.073348  0.216576  1
  Pd  Pd6  1  0.783937  0.786418  0.357179  1
  Pd  Pd7  1  0.216062  0.213582  0.642821  1
  Pd  Pd8  1  0.928451  0.926652  0.783423  1
  Pd  Pd9  1  0.641583  0.642153  0.924663  1
  O  O10  1  0.043272  0.195065  0.027433  1
  O  O11  1  0.677240  0.525404  0.125060  1
  O  O12  1  0.748721  0.907895  0.162840  1
  O  O13  1  0.375103  0.213032  0.239131  1
  O  O14  1  0.467080  0.632166  0.287264  1
  O  O15  1  0.108553  0.954068  0.405901  1
  O  O16  1  0.139853  0.305247  0.445109  1
  O  O17  1  0.860147  0.694753  0.554891  1
  O  O18  1  0.891447  0.045932  0.594099  1
  O  O19  1  0.532920  0.367834  0.712736  1
  O  O20  1  0.624898  0.786968  0.760871  1
  O  O21  1  0.251278  0.092105  0.837159  1
  O  O22  1  0.322761  0.474596  0.874939  1
  O  O23  1  0.956727  0.804935  0.972567  1
