# generated using pymatgen
data_TbY5Al23VOs8
_symmetry_space_group_name_H-M   'P 1'
_cell_length_a   8.84770900
_cell_length_b   8.84698584
_cell_length_c   9.54643600
_cell_angle_alpha   90.00112997
_cell_angle_beta   90.00000000
_cell_angle_gamma   120.00270027
_symmetry_Int_Tables_number   1
_chemical_formula_structural   TbY5Al23VOs8
_chemical_formula_sum   'Tb1 Y5 Al23 V1 Os8'
_cell_volume   647.12211473
_cell_formula_units_Z   1
loop_
 _symmetry_equiv_pos_site_id
 _symmetry_equiv_pos_as_xyz
  1  'x, y, z'
loop_
 _atom_site_type_symbol
 _atom_site_label
 _atom_site_symmetry_multiplicity
 _atom_site_fract_x
 _atom_site_fract_y
 _atom_site_fract_z
 _atom_site_occupancy
  Tb  Tb0  1  0.195063  0.390127  0.247011  1
  Y  Y1  1  0.807449  0.614897  0.750565  1
  Y  Y2  1  0.609817  0.804872  0.247061  1
  Y  Y3  1  0.385085  0.192568  0.750565  1
  Y  Y4  1  0.195055  0.804872  0.247061  1
  Y  Y5  1  0.807483  0.192568  0.750565  1
  Al  Al6  1  0.666711  0.333422  0.978037  1
  Al  Al7  1  0.666652  0.333303  0.518920  1
  Al  Al8  1  0.333358  0.666716  0.483689  1
  Al  Al9  1  0.162243  0.324488  0.575328  1
  Al  Al10  1  0.836991  0.673984  0.425352  1
  Al  Al11  1  0.675502  0.837744  0.575325  1
  Al  Al12  1  0.835533  0.671065  0.075939  1
  Al  Al13  1  0.326031  0.163016  0.425360  1
  Al  Al14  1  0.160591  0.321180  0.926006  1
  Al  Al15  1  0.162241  0.837744  0.575325  1
  Al  Al16  1  0.328932  0.164447  0.075934  1
  Al  Al17  1  0.836984  0.163016  0.425360  1
  Al  Al18  1  0.678835  0.839405  0.926047  1
  Al  Al19  1  0.835516  0.164447  0.075934  1
  Al  Al20  1  0.160570  0.839405  0.926047  1
  Al  Al21  1  0.562043  0.124087  0.252997  1
  Al  Al22  1  0.441501  0.883002  0.750864  1
  Al  Al23  1  0.875884  0.437970  0.252987  1
  Al  Al24  1  0.116947  0.558477  0.750891  1
  Al  Al25  1  0.562085  0.437970  0.252987  1
  Al  Al26  1  0.441530  0.558477  0.750891  1
  Al  Al27  1  0.000009  0.000019  0.250305  1
  Al  Al28  1  0.000000  0.000000  0.749525  1
  V  V29  1  0.333345  0.666691  0.982685  1
  Os  Os30  1  0.495257  0.990513  0.004920  1
  Os  Os31  1  0.009470  0.504728  0.004945  1
  Os  Os32  1  0.499295  0.998589  0.503178  1
  Os  Os33  1  0.495258  0.504728  0.004945  1
  Os  Os34  1  0.001429  0.500742  0.503173  1
  Os  Os35  1  0.499313  0.500742  0.503173  1
  Os  Os36  1  0.000001  0.000002  0.000888  1
  Os  Os37  1  0.999989  0.999979  0.499213  1
