# generated using pymatgen
data_Hf16GaCo4Mo3
_symmetry_space_group_name_H-M   'P 1'
_cell_length_a   8.66960921
_cell_length_b   8.66960796
_cell_length_c   8.66960700
_cell_angle_alpha   59.87279777
_cell_angle_beta   59.87280258
_cell_angle_gamma   59.87279563
_symmetry_Int_Tables_number   1
_chemical_formula_structural   Hf16GaCo4Mo3
_chemical_formula_sum   'Hf16 Ga1 Co4 Mo3'
_cell_volume   459.43924517
_cell_formula_units_Z   1
loop_
 _symmetry_equiv_pos_site_id
 _symmetry_equiv_pos_as_xyz
  1  'x, y, z'
loop_
 _atom_site_type_symbol
 _atom_site_label
 _atom_site_symmetry_multiplicity
 _atom_site_fract_x
 _atom_site_fract_y
 _atom_site_fract_z
 _atom_site_occupancy
  Hf  Hf0  1  0.045417  0.652902  0.652902  1
  Hf  Hf1  1  0.652902  0.045417  0.652902  1
  Hf  Hf2  1  0.652902  0.652902  0.045417  1
  Hf  Hf3  1  0.647900  0.647900  0.647900  1
  Hf  Hf4  1  0.797542  0.797542  0.203830  1
  Hf  Hf5  1  0.196087  0.196087  0.807616  1
  Hf  Hf6  1  0.797542  0.203830  0.797542  1
  Hf  Hf7  1  0.196087  0.807616  0.196087  1
  Hf  Hf8  1  0.203830  0.797542  0.797542  1
  Hf  Hf9  1  0.807616  0.196087  0.196087  1
  Hf  Hf10  1  0.435636  0.435636  0.057636  1
  Hf  Hf11  1  0.064714  0.064714  0.434779  1
  Hf  Hf12  1  0.435636  0.057636  0.435636  1
  Hf  Hf13  1  0.064714  0.434779  0.064714  1
  Hf  Hf14  1  0.057636  0.435636  0.435636  1
  Hf  Hf15  1  0.434779  0.064714  0.064714  1
  Ga  Ga16  1  0.420886  0.420886  0.420886  1
  Co  Co17  1  0.422674  0.860037  0.860037  1
  Co  Co18  1  0.860037  0.422674  0.860037  1
  Co  Co19  1  0.860037  0.860037  0.422674  1
  Co  Co20  1  0.860761  0.860761  0.860761  1
  Mo  Mo21  1  0.751270  0.416696  0.416696  1
  Mo  Mo22  1  0.416696  0.751270  0.416696  1
  Mo  Mo23  1  0.416696  0.416696  0.751270  1
