# generated using pymatgen
data_Tb4Ho7ThCo4
_symmetry_space_group_name_H-M   'P 1'
_cell_length_a   6.25046339
_cell_length_b   6.91373837
_cell_length_c   9.49076764
_cell_angle_alpha   90.01644138
_cell_angle_beta   89.96100537
_cell_angle_gamma   91.22234115
_symmetry_Int_Tables_number   1
_chemical_formula_structural   Tb4Ho7ThCo4
_chemical_formula_sum   'Tb4 Ho7 Th1 Co4'
_cell_volume   410.04124410
_cell_formula_units_Z   1
loop_
 _symmetry_equiv_pos_site_id
 _symmetry_equiv_pos_as_xyz
  1  'x, y, z'
loop_
 _atom_site_type_symbol
 _atom_site_label
 _atom_site_symmetry_multiplicity
 _atom_site_fract_x
 _atom_site_fract_y
 _atom_site_fract_z
 _atom_site_occupancy
  Tb  Tb0  1  0.673369  0.175812  0.068601  1
  Tb  Tb1  1  0.139526  0.042674  0.250328  1
  Tb  Tb2  1  0.859171  0.956788  0.749747  1
  Tb  Tb3  1  0.643334  0.456471  0.749729  1
  Ho  Ho4  1  0.827032  0.674782  0.433162  1
  Ho  Ho5  1  0.324176  0.827271  0.930447  1
  Ho  Ho6  1  0.176639  0.324996  0.568695  1
  Ho  Ho7  1  0.673159  0.175586  0.431711  1
  Ho  Ho8  1  0.176497  0.325097  0.931051  1
  Ho  Ho9  1  0.324256  0.827335  0.569430  1
  Ho  Ho10  1  0.827350  0.674732  0.066773  1
  Th  Th11  1  0.348144  0.552444  0.250211  1
  Co  Co12  1  0.964476  0.389992  0.250300  1
  Co  Co13  1  0.450501  0.114054  0.749436  1
  Co  Co14  1  0.544561  0.869291  0.250246  1
  Co  Co15  1  0.047808  0.612675  0.750134  1
