# generated using pymatgen
data_ErSc6CoBr12
_symmetry_space_group_name_H-M   'P 1'
_cell_length_a   8.79652632
_cell_length_b   8.79652650
_cell_length_c   8.79652623
_cell_angle_alpha   106.78158609
_cell_angle_beta   106.78158885
_cell_angle_gamma   106.78159463
_symmetry_Int_Tables_number   1
_chemical_formula_structural   ErSc6CoBr12
_chemical_formula_sum   'Er1 Sc6 Co1 Br12'
_cell_volume   570.20825181
_cell_formula_units_Z   1
loop_
 _symmetry_equiv_pos_site_id
 _symmetry_equiv_pos_as_xyz
  1  'x, y, z'
loop_
 _atom_site_type_symbol
 _atom_site_label
 _atom_site_symmetry_multiplicity
 _atom_site_fract_x
 _atom_site_fract_y
 _atom_site_fract_z
 _atom_site_occupancy
  Er  Er0  1  0.500000  0.500000  0.500000  1
  Sc  Sc1  1  0.294581  0.092330  0.020605  1
  Sc  Sc2  1  0.092330  0.020605  0.294581  1
  Sc  Sc3  1  0.020605  0.294581  0.092330  1
  Sc  Sc4  1  0.705419  0.907670  0.979395  1
  Sc  Sc5  1  0.907670  0.979395  0.705419  1
  Sc  Sc6  1  0.979395  0.705419  0.907670  1
  Co  Co7  1  0.000000  0.000000  0.000000  1
  Br  Br8  1  0.219267  0.069704  0.680294  1
  Br  Br9  1  0.069704  0.680294  0.219267  1
  Br  Br10  1  0.680294  0.219267  0.069704  1
  Br  Br11  1  0.780733  0.930296  0.319706  1
  Br  Br12  1  0.930296  0.319706  0.780733  1
  Br  Br13  1  0.319706  0.780733  0.930296  1
  Br  Br14  1  0.381954  0.456941  0.154827  1
  Br  Br15  1  0.456941  0.154827  0.381954  1
  Br  Br16  1  0.154827  0.381954  0.456941  1
  Br  Br17  1  0.618046  0.543059  0.845173  1
  Br  Br18  1  0.543059  0.845173  0.618046  1
  Br  Br19  1  0.845173  0.618046  0.543059  1
