# generated using pymatgen
data_Nd2Dy4Co17P12W
_symmetry_space_group_name_H-M   'P 1'
_cell_length_a   3.72898300
_cell_length_b   10.58109400
_cell_length_c   12.28658500
_cell_angle_alpha   90.00000000
_cell_angle_beta   90.00000000
_cell_angle_gamma   90.00000000
_symmetry_Int_Tables_number   1
_chemical_formula_structural   Nd2Dy4Co17P12W
_chemical_formula_sum   'Nd2 Dy4 Co17 P12 W1'
_cell_volume   484.78833977
_cell_formula_units_Z   1
loop_
 _symmetry_equiv_pos_site_id
 _symmetry_equiv_pos_as_xyz
  1  'x, y, z'
loop_
 _atom_site_type_symbol
 _atom_site_label
 _atom_site_symmetry_multiplicity
 _atom_site_fract_x
 _atom_site_fract_y
 _atom_site_fract_z
 _atom_site_occupancy
  Nd  Nd0  1  0.000000  0.500000  0.525210  1
  Nd  Nd1  1  0.500000  0.000000  0.477835  1
  Dy  Dy2  1  0.500000  0.818621  0.205540  1
  Dy  Dy3  1  0.500000  0.181379  0.205540  1
  Dy  Dy4  1  0.000000  0.682913  0.796714  1
  Dy  Dy5  1  0.000000  0.317087  0.796714  1
  Co  Co6  1  0.000000  0.000000  0.841883  1
  Co  Co7  1  0.500000  0.500000  0.704625  1
  Co  Co8  1  0.000000  0.000000  0.293610  1
  Co  Co9  1  0.000000  0.500000  0.986402  1
  Co  Co10  1  0.500000  0.000000  0.013966  1
  Co  Co11  1  0.500000  0.331544  0.990948  1
  Co  Co12  1  0.500000  0.668456  0.990948  1
  Co  Co13  1  0.000000  0.165766  0.005553  1
  Co  Co14  1  0.000000  0.834234  0.005553  1
  Co  Co15  1  0.500000  0.295296  0.430253  1
  Co  Co16  1  0.500000  0.704704  0.430253  1
  Co  Co17  1  0.000000  0.203571  0.570899  1
  Co  Co18  1  0.000000  0.796429  0.570899  1
  Co  Co19  1  0.500000  0.879847  0.711420  1
  Co  Co20  1  0.500000  0.120153  0.711420  1
  Co  Co21  1  0.000000  0.621405  0.288910  1
  Co  Co22  1  0.000000  0.378595  0.288910  1
  P  P23  1  0.500000  0.500000  0.881623  1
  P  P24  1  0.000000  0.000000  0.115963  1
  P  P25  1  0.500000  0.500000  0.346386  1
  P  P26  1  0.000000  0.000000  0.660399  1
  P  P27  1  0.500000  0.307167  0.618248  1
  P  P28  1  0.500000  0.692833  0.618248  1
  P  P29  1  0.000000  0.191925  0.383521  1
  P  P30  1  0.000000  0.808075  0.383521  1
  P  P31  1  0.500000  0.849371  0.892508  1
  P  P32  1  0.500000  0.150629  0.892508  1
  P  P33  1  0.000000  0.657348  0.104537  1
  P  P34  1  0.000000  0.342652  0.104537  1
  W  W35  1  0.500000  0.500000  0.153996  1
