# generated using pymatgen
data_Mg5Cr3(Ni4P3)4
_symmetry_space_group_name_H-M   'P 1'
_cell_length_a   11.99467400
_cell_length_b   11.99467279
_cell_length_c   3.60946200
_cell_angle_alpha   90.00000000
_cell_angle_beta   90.00000000
_cell_angle_gamma   120.00000333
_symmetry_Int_Tables_number   1
_chemical_formula_structural   Mg5Cr3(Ni4P3)4
_chemical_formula_sum   'Mg5 Cr3 Ni16 P12'
_cell_volume   449.72801827
_cell_formula_units_Z   1
loop_
 _symmetry_equiv_pos_site_id
 _symmetry_equiv_pos_as_xyz
  1  'x, y, z'
loop_
 _atom_site_type_symbol
 _atom_site_label
 _atom_site_symmetry_multiplicity
 _atom_site_fract_x
 _atom_site_fract_y
 _atom_site_fract_z
 _atom_site_occupancy
  Mg  Mg0  1  0.184394  0.184394  0.500000  1
  Mg  Mg1  1  0.815606  0.000000  0.500000  1
  Mg  Mg2  1  0.000000  0.815606  0.500000  1
  Mg  Mg3  1  0.333333  0.666667  0.000000  1
  Mg  Mg4  1  0.666667  0.333333  0.000000  1
  Cr  Cr5  1  0.554553  0.554553  0.000000  1
  Cr  Cr6  1  0.445447  0.000000  0.000000  1
  Cr  Cr7  1  0.000000  0.445447  0.000000  1
  Ni  Ni8  1  0.721021  0.721021  0.500000  1
  Ni  Ni9  1  0.278979  0.000000  0.500000  1
  Ni  Ni10  1  0.000000  0.278979  0.500000  1
  Ni  Ni11  1  0.181376  0.373133  0.000000  1
  Ni  Ni12  1  0.626867  0.808244  0.000000  1
  Ni  Ni13  1  0.191756  0.818624  0.000000  1
  Ni  Ni14  1  0.808244  0.626867  0.000000  1
  Ni  Ni15  1  0.818624  0.191756  0.000000  1
  Ni  Ni16  1  0.373133  0.181376  0.000000  1
  Ni  Ni17  1  0.354752  0.484820  0.500000  1
  Ni  Ni18  1  0.515180  0.869933  0.500000  1
  Ni  Ni19  1  0.130067  0.645248  0.500000  1
  Ni  Ni20  1  0.869933  0.515180  0.500000  1
  Ni  Ni21  1  0.645248  0.130067  0.500000  1
  Ni  Ni22  1  0.484820  0.354752  0.500000  1
  Ni  Ni23  1  0.000000  0.000000  0.000000  1
  P  P24  1  0.824187  0.824187  0.000000  1
  P  P25  1  0.175813  0.000000  0.000000  1
  P  P26  1  0.000000  0.175813  0.000000  1
  P  P27  1  0.162412  0.481742  0.500000  1
  P  P28  1  0.518258  0.680671  0.500000  1
  P  P29  1  0.319329  0.837588  0.500000  1
  P  P30  1  0.680671  0.518258  0.500000  1
  P  P31  1  0.837588  0.319329  0.500000  1
  P  P32  1  0.481742  0.162412  0.500000  1
  P  P33  1  0.362854  0.362854  0.000000  1
  P  P34  1  0.637146  0.000000  0.000000  1
  P  P35  1  0.000000  0.637146  0.000000  1
