# generated using pymatgen
data_Dy17Tm3Ir11Ru
_symmetry_space_group_name_H-M   'P 1'
_cell_length_a   10.84981900
_cell_length_b   10.84986100
_cell_length_c   6.38200000
_cell_angle_alpha   90.00000000
_cell_angle_beta   90.00000000
_cell_angle_gamma   89.99875373
_symmetry_Int_Tables_number   1
_chemical_formula_structural   Dy17Tm3Ir11Ru
_chemical_formula_sum   'Dy17 Tm3 Ir11 Ru1'
_cell_volume   751.28283677
_cell_formula_units_Z   1
loop_
 _symmetry_equiv_pos_site_id
 _symmetry_equiv_pos_as_xyz
  1  'x, y, z'
loop_
 _atom_site_type_symbol
 _atom_site_label
 _atom_site_symmetry_multiplicity
 _atom_site_fract_x
 _atom_site_fract_y
 _atom_site_fract_z
 _atom_site_occupancy
  Dy  Dy0  1  0.292025  0.087268  0.377374  1
  Dy  Dy1  1  0.292335  0.912617  0.880140  1
  Dy  Dy2  1  0.707665  0.087383  0.880140  1
  Dy  Dy3  1  0.707975  0.912732  0.377374  1
  Dy  Dy4  1  0.587401  0.792438  0.880254  1
  Dy  Dy5  1  0.587385  0.207635  0.377287  1
  Dy  Dy6  1  0.412615  0.792365  0.377287  1
  Dy  Dy7  1  0.412599  0.207562  0.880254  1
  Dy  Dy8  1  0.209100  0.411546  0.621436  1
  Dy  Dy9  1  0.209277  0.588278  0.120982  1
  Dy  Dy10  1  0.790723  0.411722  0.120982  1
  Dy  Dy11  1  0.790900  0.588454  0.621436  1
  Dy  Dy12  1  0.911738  0.709382  0.121089  1
  Dy  Dy13  1  0.911686  0.290569  0.621367  1
  Dy  Dy14  1  0.088314  0.709431  0.621367  1
  Dy  Dy15  1  0.088262  0.290618  0.121089  1
  Dy  Dy16  1  0.500000  0.500000  0.499393  1
  Tm  Tm17  1  0.000000  0.000000  0.499407  1
  Tm  Tm18  1  0.000000  0.000000  0.999391  1
  Tm  Tm19  1  0.500000  0.500000  0.999394  1
  Ir  Ir20  1  0.847895  0.152883  0.250039  1
  Ir  Ir21  1  0.847986  0.847428  0.749749  1
  Ir  Ir22  1  0.152014  0.152572  0.749749  1
  Ir  Ir23  1  0.152105  0.847117  0.250039  1
  Ir  Ir24  1  0.653012  0.347555  0.750473  1
  Ir  Ir25  1  0.653323  0.652550  0.249348  1
  Ir  Ir26  1  0.346677  0.347450  0.249348  1
  Ir  Ir27  1  0.346988  0.652445  0.750473  1
  Ir  Ir28  1  0.500000  0.000000  0.624171  1
  Ir  Ir29  1  0.000000  0.500000  0.877030  1
  Ir  Ir30  1  0.000000  0.500000  0.377152  1
  Ru  Ru31  1  0.500000  0.000000  0.124985  1
