# generated using pymatgen
data_Cs2KTbBr6
_symmetry_space_group_name_H-M   'P 1'
_cell_length_a   8.27567937
_cell_length_b   8.27567910
_cell_length_c   8.57270515
_cell_angle_alpha   119.27934231
_cell_angle_beta   119.27933831
_cell_angle_gamma   60.04791716
_symmetry_Int_Tables_number   1
_chemical_formula_structural   Cs2KTbBr6
_chemical_formula_sum   'Cs2 K1 Tb1 Br6'
_cell_volume   419.77474848
_cell_formula_units_Z   1
loop_
 _symmetry_equiv_pos_site_id
 _symmetry_equiv_pos_as_xyz
  1  'x, y, z'
loop_
 _atom_site_type_symbol
 _atom_site_label
 _atom_site_symmetry_multiplicity
 _atom_site_fract_x
 _atom_site_fract_y
 _atom_site_fract_z
 _atom_site_occupancy
  Cs  Cs0  1  0.746804  0.746804  0.234882  1
  Cs  Cs1  1  0.253196  0.253196  0.765120  1
  K  K2  1  0.500000  0.500000  0.500001  1
  Tb  Tb3  1  0.000000  0.000000  0.000000  1
  Br  Br4  1  0.711950  0.188875  0.178183  1
  Br  Br5  1  0.188875  0.711950  0.178183  1
  Br  Br6  1  0.228385  0.228385  0.313120  1
  Br  Br7  1  0.771615  0.771615  0.686880  1
  Br  Br8  1  0.811125  0.288051  0.821816  1
  Br  Br9  1  0.288051  0.811125  0.821816  1
