# generated using pymatgen
data_TbYb3AlOs7
_symmetry_space_group_name_H-M   'P 1'
_cell_length_a   5.32596900
_cell_length_b   5.32596836
_cell_length_c   8.72454400
_cell_angle_alpha   90.00000000
_cell_angle_beta   90.00000000
_cell_angle_gamma   119.99999778
_symmetry_Int_Tables_number   1
_chemical_formula_structural   TbYb3AlOs7
_chemical_formula_sum   'Tb1 Yb3 Al1 Os7'
_cell_volume   214.32389573
_cell_formula_units_Z   1
loop_
 _symmetry_equiv_pos_site_id
 _symmetry_equiv_pos_as_xyz
  1  'x, y, z'
loop_
 _atom_site_type_symbol
 _atom_site_label
 _atom_site_symmetry_multiplicity
 _atom_site_fract_x
 _atom_site_fract_y
 _atom_site_fract_z
 _atom_site_occupancy
  Tb  Tb0  1  0.333333  0.666667  0.429368  1
  Yb  Yb1  1  0.666667  0.333333  0.571709  1
  Yb  Yb2  1  0.666667  0.333333  0.935472  1
  Yb  Yb3  1  0.333333  0.666667  0.059857  1
  Al  Al4  1  0.000000  0.000000  0.500518  1
  Os  Os5  1  0.000000  0.000000  0.001699  1
  Os  Os6  1  0.828937  0.171063  0.250682  1
  Os  Os7  1  0.828937  0.657873  0.250682  1
  Os  Os8  1  0.342127  0.171063  0.250682  1
  Os  Os9  1  0.171090  0.828910  0.749777  1
  Os  Os10  1  0.171090  0.342181  0.749777  1
  Os  Os11  1  0.657819  0.828910  0.749777  1
