# generated using pymatgen
data_TaBe17Nb
_symmetry_space_group_name_H-M   'P 1'
_cell_length_a   5.55575691
_cell_length_b   5.55575727
_cell_length_c   5.55575690
_cell_angle_alpha   83.17287210
_cell_angle_beta   96.82713699
_cell_angle_gamma   96.82713441
_symmetry_Int_Tables_number   1
_chemical_formula_structural   TaBe17Nb
_chemical_formula_sum   'Ta1 Be17 Nb1'
_cell_volume   168.10624177
_cell_formula_units_Z   1
loop_
 _symmetry_equiv_pos_site_id
 _symmetry_equiv_pos_as_xyz
  1  'x, y, z'
loop_
 _atom_site_type_symbol
 _atom_site_label
 _atom_site_symmetry_multiplicity
 _atom_site_fract_x
 _atom_site_fract_y
 _atom_site_fract_z
 _atom_site_occupancy
  Ta  Ta0  1  0.159118  0.840881  0.840883  1
  Be  Be1  1  0.499369  0.500632  0.999452  1
  Be  Be2  1  0.338822  0.153058  0.153057  1
  Be  Be3  1  0.846943  0.661179  0.153058  1
  Be  Be4  1  0.499870  0.794604  0.205312  1
  Be  Be5  1  0.205396  0.500129  0.205312  1
  Be  Be6  1  0.153248  0.846752  0.338465  1
  Be  Be7  1  0.598383  0.401617  0.401618  1
  Be  Be8  1  0.205396  0.205312  0.500129  1
  Be  Be9  1  0.000548  0.500631  0.500631  1
  Be  Be10  1  0.794688  0.794604  0.500130  1
  Be  Be11  1  0.499370  0.999452  0.500632  1
  Be  Be12  1  0.401417  0.598582  0.598584  1
  Be  Be13  1  0.846942  0.153058  0.661178  1
  Be  Be14  1  0.499871  0.205312  0.794604  1
  Be  Be15  1  0.794687  0.500129  0.794604  1
  Be  Be16  1  0.661534  0.846752  0.846752  1
  Be  Be17  1  0.153248  0.338465  0.846753  1
  Nb  Nb18  1  0.841151  0.158849  0.158850  1
