# generated using pymatgen
data_Sr7ThBi6
_symmetry_space_group_name_H-M   'P 1'
_cell_length_a   8.84010237
_cell_length_b   8.84010151
_cell_length_c   8.67552000
_cell_angle_alpha   109.09451676
_cell_angle_beta   109.09451484
_cell_angle_gamma   109.84528066
_symmetry_Int_Tables_number   1
_chemical_formula_structural   Sr7ThBi6
_chemical_formula_sum   'Sr7 Th1 Bi6'
_cell_volume   524.30760344
_cell_formula_units_Z   1
loop_
 _symmetry_equiv_pos_site_id
 _symmetry_equiv_pos_as_xyz
  1  'x, y, z'
loop_
 _atom_site_type_symbol
 _atom_site_label
 _atom_site_symmetry_multiplicity
 _atom_site_fract_x
 _atom_site_fract_y
 _atom_site_fract_z
 _atom_site_occupancy
  Sr  Sr0  1  0.145032  0.501410  0.000241  1
  Sr  Sr1  1  0.356378  0.354968  0.355209  1
  Sr  Sr2  1  0.998590  0.143622  0.498831  1
  Sr  Sr3  1  0.866933  0.860580  0.865794  1
  Sr  Sr4  1  0.993647  0.633067  0.498862  1
  Sr  Sr5  1  0.500000  0.000000  0.140734  1
  Sr  Sr6  1  0.639420  0.506353  0.005214  1
  Th  Th7  1  0.500000  0.000000  0.642195  1
  Bi  Bi8  1  0.861293  0.242037  0.105228  1
  Bi  Bi9  1  0.137226  0.878345  0.265379  1
  Bi  Bi10  1  0.380744  0.638707  0.743935  1
  Bi  Bi11  1  0.257963  0.119256  0.863191  1
  Bi  Bi12  1  0.741119  0.362774  0.628153  1
  Bi  Bi13  1  0.621655  0.758881  0.387033  1
