# generated using pymatgen
data_Li3Nd4AlIrRh3
_symmetry_space_group_name_H-M   'P 1'
_cell_length_a   4.07595000
_cell_length_b   7.10962718
_cell_length_c   8.51631484
_cell_angle_alpha   90.33064463
_cell_angle_beta   90.00000000
_cell_angle_gamma   90.00000000
_symmetry_Int_Tables_number   1
_chemical_formula_structural   Li3Nd4AlIrRh3
_chemical_formula_sum   'Li3 Nd4 Al1 Ir1 Rh3'
_cell_volume   246.78579176
_cell_formula_units_Z   1
loop_
 _symmetry_equiv_pos_site_id
 _symmetry_equiv_pos_as_xyz
  1  'x, y, z'
loop_
 _atom_site_type_symbol
 _atom_site_label
 _atom_site_symmetry_multiplicity
 _atom_site_fract_x
 _atom_site_fract_y
 _atom_site_fract_z
 _atom_site_occupancy
  Li  Li0  1  0.250000  0.625796  0.551322  1
  Li  Li1  1  0.750000  0.369528  0.445115  1
  Li  Li2  1  0.750000  0.872180  0.056309  1
  Nd  Nd3  1  0.250000  0.542493  0.177941  1
  Nd  Nd4  1  0.750000  0.460882  0.818070  1
  Nd  Nd5  1  0.750000  0.957087  0.683428  1
  Nd  Nd6  1  0.250000  0.042096  0.317011  1
  Al  Al7  1  0.250000  0.129828  0.945586  1
  Ir  Ir8  1  0.750000  0.240944  0.106749  1
  Rh  Rh9  1  0.250000  0.764000  0.881647  1
  Rh  Rh10  1  0.750000  0.754314  0.371221  1
  Rh  Rh11  1  0.250000  0.240851  0.645600  1
