# generated using pymatgen
data_Tm2VOs3
_symmetry_space_group_name_H-M   'P 1'
_cell_length_a   5.43139616
_cell_length_b   5.43139569
_cell_length_c   8.29158300
_cell_angle_alpha   90.00000000
_cell_angle_beta   90.00000000
_cell_angle_gamma   120.01718721
_symmetry_Int_Tables_number   1
_chemical_formula_structural   Tm2VOs3
_chemical_formula_sum   'Tm4 V2 Os6'
_cell_volume   211.79503095
_cell_formula_units_Z   2
loop_
 _symmetry_equiv_pos_site_id
 _symmetry_equiv_pos_as_xyz
  1  'x, y, z'
loop_
 _atom_site_type_symbol
 _atom_site_label
 _atom_site_symmetry_multiplicity
 _atom_site_fract_x
 _atom_site_fract_y
 _atom_site_fract_z
 _atom_site_occupancy
  Tm  Tm0  1  0.666682  0.333318  0.564603  1
  Tm  Tm1  1  0.333318  0.666682  0.435397  1
  Tm  Tm2  1  0.333318  0.666682  0.064603  1
  Tm  Tm3  1  0.666682  0.333318  0.935397  1
  V  V4  1  0.000000  0.000000  0.500000  1
  V  V5  1  0.000000  0.000000  0.000000  1
  Os  Os6  1  0.170166  0.340297  0.750000  1
  Os  Os7  1  0.170100  0.829900  0.750000  1
  Os  Os8  1  0.659703  0.829834  0.750000  1
  Os  Os9  1  0.829834  0.659703  0.250000  1
  Os  Os10  1  0.829900  0.170100  0.250000  1
  Os  Os11  1  0.340297  0.170166  0.250000  1
