# generated using pymatgen
data_Ac2AlSi4Ni
_symmetry_space_group_name_H-M   'P 1'
_cell_length_a   8.98811500
_cell_length_b   8.98811411
_cell_length_c   4.29433600
_cell_angle_alpha   90.00000000
_cell_angle_beta   90.00000000
_cell_angle_gamma   151.09020027
_symmetry_Int_Tables_number   1
_chemical_formula_structural   Ac2AlSi4Ni
_chemical_formula_sum   'Ac2 Al1 Si4 Ni1'
_cell_volume   167.71376789
_cell_formula_units_Z   1
loop_
 _symmetry_equiv_pos_site_id
 _symmetry_equiv_pos_as_xyz
  1  'x, y, z'
loop_
 _atom_site_type_symbol
 _atom_site_label
 _atom_site_symmetry_multiplicity
 _atom_site_fract_x
 _atom_site_fract_y
 _atom_site_fract_z
 _atom_site_occupancy
  Ac  Ac0  1  0.105622  0.894378  0.250000  1
  Ac  Ac1  1  0.897738  0.102262  0.750000  1
  Al  Al2  1  0.677743  0.322257  0.750000  1
  Si  Si3  1  0.756636  0.243364  0.250000  1
  Si  Si4  1  0.255494  0.744506  0.750000  1
  Si  Si5  1  0.532390  0.467610  0.750000  1
  Si  Si6  1  0.458714  0.541286  0.250000  1
  Ni  Ni7  1  0.315662  0.684338  0.250000  1
