# generated using pymatgen
data_Tb3Tm3Al24Os7Au
_symmetry_space_group_name_H-M   'P 1'
_cell_length_a   8.86254713
_cell_length_b   8.85423209
_cell_length_c   9.54860208
_cell_angle_alpha   89.80916052
_cell_angle_beta   90.16251084
_cell_angle_gamma   120.05232965
_symmetry_Int_Tables_number   1
_chemical_formula_structural   Tb3Tm3Al24Os7Au
_chemical_formula_sum   'Tb3 Tm3 Al24 Os7 Au1'
_cell_volume   648.55652527
_cell_formula_units_Z   1
loop_
 _symmetry_equiv_pos_site_id
 _symmetry_equiv_pos_as_xyz
  1  'x, y, z'
loop_
 _atom_site_type_symbol
 _atom_site_label
 _atom_site_symmetry_multiplicity
 _atom_site_fract_x
 _atom_site_fract_y
 _atom_site_fract_z
 _atom_site_occupancy
  Tb  Tb0  1  0.190392  0.385751  0.250930  1
  Tb  Tb1  1  0.809341  0.614085  0.749076  1
  Tb  Tb2  1  0.614193  0.809594  0.250990  1
  Tm  Tm3  1  0.388718  0.191185  0.748093  1
  Tm  Tm4  1  0.195636  0.803927  0.254372  1
  Tm  Tm5  1  0.803888  0.195908  0.745571  1
  Al  Al6  1  0.328104  0.671638  0.022995  1
  Al  Al7  1  0.671122  0.328378  0.976090  1
  Al  Al8  1  0.665799  0.333541  0.518774  1
  Al  Al9  1  0.333523  0.665954  0.482024  1
  Al  Al10  1  0.162919  0.325565  0.576180  1
  Al  Al11  1  0.837374  0.673857  0.424440  1
  Al  Al12  1  0.674087  0.837446  0.576121  1
  Al  Al13  1  0.848950  0.677450  0.079730  1
  Al  Al14  1  0.325734  0.162407  0.425060  1
  Al  Al15  1  0.151315  0.322238  0.919758  1
  Al  Al16  1  0.163511  0.837360  0.575451  1
  Al  Al17  1  0.322203  0.150941  0.079100  1
  Al  Al18  1  0.836632  0.163327  0.425139  1
  Al  Al19  1  0.677582  0.849057  0.919803  1
  Al  Al20  1  0.836422  0.163496  0.074884  1
  Al  Al21  1  0.163724  0.837301  0.924428  1
  Al  Al22  1  0.560237  0.121662  0.249070  1
  Al  Al23  1  0.439288  0.879171  0.750765  1
  Al  Al24  1  0.878316  0.439585  0.249224  1
  Al  Al25  1  0.121749  0.560435  0.750806  1
  Al  Al26  1  0.563960  0.435811  0.255938  1
  Al  Al27  1  0.435619  0.562903  0.744552  1
  Al  Al28  1  0.000580  0.999304  0.250425  1
  Al  Al29  1  0.001484  0.001688  0.749678  1
  Os  Os30  1  0.499624  0.000444  0.999306  1
  Os  Os31  1  0.999693  0.499826  0.999883  1
  Os  Os32  1  0.499634  0.000239  0.500557  1
  Os  Os33  1  0.999637  0.499802  0.500179  1
  Os  Os34  1  0.499611  0.499139  0.500671  1
  Os  Os35  1  0.999797  0.999939  0.999996  1
  Os  Os36  1  0.999800  0.999890  0.500092  1
  Au  Au37  1  0.499803  0.499753  0.999847  1
