# generated using pymatgen
data_La2Cu7Pd3
_symmetry_space_group_name_H-M   'P 1'
_cell_length_a   4.11859800
_cell_length_b   5.16218630
_cell_length_c   9.41008504
_cell_angle_alpha   88.18847720
_cell_angle_beta   90.00000000
_cell_angle_gamma   90.00000000
_symmetry_Int_Tables_number   1
_chemical_formula_structural   La2Cu7Pd3
_chemical_formula_sum   'La2 Cu7 Pd3'
_cell_volume   199.96754812
_cell_formula_units_Z   1
loop_
 _symmetry_equiv_pos_site_id
 _symmetry_equiv_pos_as_xyz
  1  'x, y, z'
loop_
 _atom_site_type_symbol
 _atom_site_label
 _atom_site_symmetry_multiplicity
 _atom_site_fract_x
 _atom_site_fract_y
 _atom_site_fract_z
 _atom_site_occupancy
  La  La0  1  0.000000  0.237242  0.754794  1
  La  La1  1  0.000000  0.762758  0.245206  1
  Cu  Cu2  1  0.000000  0.272805  0.079196  1
  Cu  Cu3  1  0.000000  0.747788  0.567442  1
  Cu  Cu4  1  0.000000  0.727195  0.920804  1
  Cu  Cu5  1  0.000000  0.252212  0.432558  1
  Cu  Cu6  1  0.500000  0.500000  0.500000  1
  Cu  Cu7  1  0.500000  0.500000  0.000000  1
  Cu  Cu8  1  0.500000  0.000000  0.500000  1
  Pd  Pd9  1  0.500000  0.734662  0.744420  1
  Pd  Pd10  1  0.500000  0.265338  0.255580  1
  Pd  Pd11  1  0.500000  0.000000  0.000000  1
