# generated using pymatgen
data_Dy5Co17Re2(SiP)6
_symmetry_space_group_name_H-M   'P 1'
_cell_length_a   12.12977858
_cell_length_b   12.06633529
_cell_length_c   3.71414500
_cell_angle_alpha   90.00000000
_cell_angle_beta   90.00000000
_cell_angle_gamma   119.82712429
_symmetry_Int_Tables_number   1
_chemical_formula_structural   Dy5Co17Re2(SiP)6
_chemical_formula_sum   'Dy5 Co17 Re2 Si6 P6'
_cell_volume   471.59768158
_cell_formula_units_Z   1
loop_
 _symmetry_equiv_pos_site_id
 _symmetry_equiv_pos_as_xyz
  1  'x, y, z'
loop_
 _atom_site_type_symbol
 _atom_site_label
 _atom_site_symmetry_multiplicity
 _atom_site_fract_x
 _atom_site_fract_y
 _atom_site_fract_z
 _atom_site_occupancy
  Dy  Dy0  1  0.664597  0.331437  0.000000  1
  Dy  Dy1  1  0.335403  0.666841  0.000000  1
  Dy  Dy2  1  0.185392  0.184730  0.500000  1
  Dy  Dy3  1  0.814608  0.999337  0.500000  1
  Dy  Dy4  1  0.000000  0.813599  0.500000  1
  Co  Co5  1  0.000000  0.447775  0.000000  1
  Co  Co6  1  0.823870  0.197567  0.000000  1
  Co  Co7  1  0.806416  0.626338  0.000000  1
  Co  Co8  1  0.369843  0.176825  0.000000  1
  Co  Co9  1  0.193584  0.819922  0.000000  1
  Co  Co10  1  0.630157  0.806983  0.000000  1
  Co  Co11  1  0.176130  0.373699  0.000000  1
  Co  Co12  1  0.646730  0.122580  0.500000  1
  Co  Co13  1  0.879175  0.522484  0.500000  1
  Co  Co14  1  0.476610  0.354110  0.500000  1
  Co  Co15  1  0.120825  0.643309  0.500000  1
  Co  Co16  1  0.523390  0.877500  0.500000  1
  Co  Co17  1  0.353270  0.475850  0.500000  1
  Co  Co18  1  0.724978  0.723254  0.500000  1
  Co  Co19  1  0.275022  0.998276  0.500000  1
  Co  Co20  1  0.000000  0.279311  0.500000  1
  Co  Co21  1  0.000000  0.002305  0.000000  1
  Re  Re22  1  0.556209  0.555785  0.000000  1
  Re  Re23  1  0.443791  0.999575  0.000000  1
  Si  Si24  1  0.839430  0.318145  0.500000  1
  Si  Si25  1  0.683951  0.519737  0.500000  1
  Si  Si26  1  0.477485  0.161858  0.500000  1
  Si  Si27  1  0.316049  0.835785  0.500000  1
  Si  Si28  1  0.522515  0.684373  0.500000  1
  Si  Si29  1  0.160570  0.478715  0.500000  1
  P  P30  1  0.363240  0.364977  0.000000  1
  P  P31  1  0.636760  0.001737  0.000000  1
  P  P32  1  0.000000  0.632701  0.000000  1
  P  P33  1  0.822042  0.820959  0.000000  1
  P  P34  1  0.177958  0.998918  0.000000  1
  P  P35  1  0.000000  0.182699  0.000000  1
