# generated using pymatgen
data_Mg3Nb(CuPd3)3
_symmetry_space_group_name_H-M   'P 1'
_cell_length_a   6.74387329
_cell_length_b   6.74387386
_cell_length_c   6.75574800
_cell_angle_alpha   107.42685119
_cell_angle_beta   107.42685271
_cell_angle_gamma   113.57626272
_symmetry_Int_Tables_number   1
_chemical_formula_structural   Mg3Nb(CuPd3)3
_chemical_formula_sum   'Mg3 Nb1 Cu3 Pd9'
_cell_volume   235.78120557
_cell_formula_units_Z   1
loop_
 _symmetry_equiv_pos_site_id
 _symmetry_equiv_pos_as_xyz
  1  'x, y, z'
loop_
 _atom_site_type_symbol
 _atom_site_label
 _atom_site_symmetry_multiplicity
 _atom_site_fract_x
 _atom_site_fract_y
 _atom_site_fract_z
 _atom_site_occupancy
  Mg  Mg0  1  0.754668  0.754668  0.509336  1
  Mg  Mg1  1  0.244203  0.755687  0.999890  1
  Mg  Mg2  1  0.755687  0.244203  0.999890  1
  Nb  Nb3  1  0.242678  0.242678  0.485357  1
  Cu  Cu4  1  0.499361  0.000030  0.499391  1
  Cu  Cu5  1  0.000030  0.499361  0.499391  1
  Cu  Cu6  1  0.500023  0.500023  0.000048  1
  Pd  Pd7  1  0.510730  0.258372  0.253544  1
  Pd  Pd8  1  0.485664  0.736452  0.746934  1
  Pd  Pd9  1  0.010482  0.261269  0.746934  1
  Pd  Pd10  1  0.261269  0.010482  0.746934  1
  Pd  Pd11  1  0.995173  0.742815  0.253544  1
  Pd  Pd12  1  0.742815  0.995173  0.253544  1
  Pd  Pd13  1  0.258372  0.510730  0.253544  1
  Pd  Pd14  1  0.736452  0.485664  0.746934  1
  Pd  Pd15  1  0.002391  0.002391  0.004783  1
