# generated using pymatgen
data_Y2Si7(IrRh)6
_symmetry_space_group_name_H-M   'P 1'
_cell_length_a   9.75212000
_cell_length_b   9.75211979
_cell_length_c   3.88377000
_cell_angle_alpha   90.00000000
_cell_angle_beta   90.00000000
_cell_angle_gamma   119.99999392
_symmetry_Int_Tables_number   1
_chemical_formula_structural   Y2Si7(IrRh)6
_chemical_formula_sum   'Y2 Si7 Ir6 Rh6'
_cell_volume   319.87641877
_cell_formula_units_Z   1
loop_
 _symmetry_equiv_pos_site_id
 _symmetry_equiv_pos_as_xyz
  1  'x, y, z'
loop_
 _atom_site_type_symbol
 _atom_site_label
 _atom_site_symmetry_multiplicity
 _atom_site_fract_x
 _atom_site_fract_y
 _atom_site_fract_z
 _atom_site_occupancy
  Y  Y0  1  0.333333  0.666667  0.750748  1
  Y  Y1  1  0.666667  0.333333  0.249252  1
  Si  Si2  1  0.000000  0.000000  0.500000  1
  Si  Si3  1  0.402566  0.289566  0.752392  1
  Si  Si4  1  0.710434  0.113000  0.752392  1
  Si  Si5  1  0.887000  0.597434  0.752392  1
  Si  Si6  1  0.597434  0.710434  0.247608  1
  Si  Si7  1  0.289566  0.887000  0.247608  1
  Si  Si8  1  0.113000  0.402566  0.247608  1
  Ir  Ir9  1  0.442961  0.062719  0.751356  1
  Ir  Ir10  1  0.937281  0.380242  0.751356  1
  Ir  Ir11  1  0.619758  0.557039  0.751356  1
  Ir  Ir12  1  0.557039  0.937281  0.248644  1
  Ir  Ir13  1  0.062719  0.619758  0.248644  1
  Ir  Ir14  1  0.380242  0.442961  0.248644  1
  Rh  Rh15  1  0.144237  0.260675  0.743640  1
  Rh  Rh16  1  0.739325  0.883561  0.743640  1
  Rh  Rh17  1  0.116439  0.855763  0.743640  1
  Rh  Rh18  1  0.855763  0.739325  0.256360  1
  Rh  Rh19  1  0.260675  0.116439  0.256360  1
  Rh  Rh20  1  0.883561  0.144237  0.256360  1
