# generated using pymatgen
data_BaLiAgAs2
_symmetry_space_group_name_H-M   'P 1'
_cell_length_a   6.41777253
_cell_length_b   6.41777157
_cell_length_c   6.41777222
_cell_angle_alpha   138.01246574
_cell_angle_beta   138.01245561
_cell_angle_gamma   60.88391599
_symmetry_Int_Tables_number   1
_chemical_formula_structural   BaLiAgAs2
_chemical_formula_sum   'Ba1 Li1 Ag1 As2'
_cell_volume   117.00497722
_cell_formula_units_Z   1
loop_
 _symmetry_equiv_pos_site_id
 _symmetry_equiv_pos_as_xyz
  1  'x, y, z'
loop_
 _atom_site_type_symbol
 _atom_site_label
 _atom_site_symmetry_multiplicity
 _atom_site_fract_x
 _atom_site_fract_y
 _atom_site_fract_z
 _atom_site_occupancy
  Ba  Ba0  1  0.000000  0.000000  0.000000  1
  Li  Li1  1  0.250000  0.750000  0.500000  1
  Ag  Ag2  1  0.750000  0.250000  0.500000  1
  As  As3  1  0.617884  0.617884  0.000000  1
  As  As4  1  0.382116  0.382116  0.000000  1
