# generated using pymatgen
data_CaCeCu2(SbH)2
_symmetry_space_group_name_H-M   'P 1'
_cell_length_a   4.26163900
_cell_length_b   4.26163900
_cell_length_c   7.60803900
_cell_angle_alpha   90.00000000
_cell_angle_beta   90.00000000
_cell_angle_gamma   90.00000000
_symmetry_Int_Tables_number   1
_chemical_formula_structural   CaCeCu2(SbH)2
_chemical_formula_sum   'Ca1 Ce1 Cu2 Sb2 H2'
_cell_volume   138.17390978
_cell_formula_units_Z   1
loop_
 _symmetry_equiv_pos_site_id
 _symmetry_equiv_pos_as_xyz
  1  'x, y, z'
loop_
 _atom_site_type_symbol
 _atom_site_label
 _atom_site_symmetry_multiplicity
 _atom_site_fract_x
 _atom_site_fract_y
 _atom_site_fract_z
 _atom_site_occupancy
  Ca  Ca0  1  0.500000  0.000000  0.348023  1
  Ce  Ce1  1  0.000000  0.500000  0.647271  1
  Cu  Cu2  1  0.000000  0.000000  0.000645  1
  Cu  Cu3  1  0.500000  0.500000  0.000645  1
  Sb  Sb4  1  0.500000  0.000000  0.793977  1
  Sb  Sb5  1  0.000000  0.500000  0.202017  1
  H  H6  1  0.000000  0.000000  0.503711  1
  H  H7  1  0.500000  0.500000  0.503711  1
