# generated using pymatgen
data_Li2TbZn4
_symmetry_space_group_name_H-M   'P 1'
_cell_length_a   5.51110805
_cell_length_b   5.51110771
_cell_length_c   5.51110660
_cell_angle_alpha   101.54109761
_cell_angle_beta   101.54109960
_cell_angle_gamma   126.85976924
_symmetry_Int_Tables_number   1
_chemical_formula_structural   Li2TbZn4
_chemical_formula_sum   'Li2 Tb1 Zn4'
_cell_volume   119.78155565
_cell_formula_units_Z   1
loop_
 _symmetry_equiv_pos_site_id
 _symmetry_equiv_pos_as_xyz
  1  'x, y, z'
loop_
 _atom_site_type_symbol
 _atom_site_label
 _atom_site_symmetry_multiplicity
 _atom_site_fract_x
 _atom_site_fract_y
 _atom_site_fract_z
 _atom_site_occupancy
  Li  Li0  1  0.250000  0.750000  0.500000  1
  Li  Li1  1  0.750000  0.250000  0.500000  1
  Tb  Tb2  1  0.000000  0.000000  0.000000  1
  Zn  Zn3  1  0.307255  0.307255  0.614509  1
  Zn  Zn4  1  0.692745  0.692745  0.385491  1
  Zn  Zn5  1  0.692745  0.307255  0.000000  1
  Zn  Zn6  1  0.307255  0.692745  0.000000  1
