# generated using pymatgen
data_Ho4Tm8Tc3Ru
_symmetry_space_group_name_H-M   'P 1'
_cell_length_a   6.23125581
_cell_length_b   7.34284115
_cell_length_c   8.98432700
_cell_angle_alpha   90.00000000
_cell_angle_beta   90.00000000
_cell_angle_gamma   90.04053735
_symmetry_Int_Tables_number   1
_chemical_formula_structural   Ho4Tm8Tc3Ru
_chemical_formula_sum   'Ho4 Tm8 Tc3 Ru1'
_cell_volume   411.07887073
_cell_formula_units_Z   1
loop_
 _symmetry_equiv_pos_site_id
 _symmetry_equiv_pos_as_xyz
  1  'x, y, z'
loop_
 _atom_site_type_symbol
 _atom_site_label
 _atom_site_symmetry_multiplicity
 _atom_site_fract_x
 _atom_site_fract_y
 _atom_site_fract_z
 _atom_site_occupancy
  Ho  Ho0  1  0.629049  0.041318  0.250000  1
  Ho  Ho1  1  0.375497  0.959994  0.750000  1
  Ho  Ho2  1  0.124042  0.460938  0.750000  1
  Ho  Ho3  1  0.875550  0.541230  0.250000  1
  Tm  Tm4  1  0.160748  0.175130  0.062982  1
  Tm  Tm5  1  0.837147  0.823718  0.936712  1
  Tm  Tm6  1  0.660010  0.324443  0.937274  1
  Tm  Tm7  1  0.837147  0.823718  0.563288  1
  Tm  Tm8  1  0.338693  0.675882  0.062561  1
  Tm  Tm9  1  0.160748  0.175130  0.437018  1
  Tm  Tm10  1  0.338693  0.675882  0.437439  1
  Tm  Tm11  1  0.660010  0.324443  0.562726  1
  Tc  Tc12  1  0.459897  0.384697  0.250000  1
  Tc  Tc13  1  0.541651  0.615698  0.750000  1
  Tc  Tc14  1  0.960386  0.113771  0.750000  1
  Ru  Ru15  1  0.040730  0.884008  0.250000  1
