# generated using pymatgen
data_Tb17Y3Co3Bi8Os
_symmetry_space_group_name_H-M   'P 1'
_cell_length_a   8.05253503
_cell_length_b   8.93414500
_cell_length_c   12.51266346
_cell_angle_alpha   90.00000000
_cell_angle_beta   90.24627112
_cell_angle_gamma   90.00000000
_symmetry_Int_Tables_number   1
_chemical_formula_structural   Tb17Y3Co3Bi8Os
_chemical_formula_sum   'Tb17 Y3 Co3 Bi8 Os1'
_cell_volume   900.18416989
_cell_formula_units_Z   1
loop_
 _symmetry_equiv_pos_site_id
 _symmetry_equiv_pos_as_xyz
  1  'x, y, z'
loop_
 _atom_site_type_symbol
 _atom_site_label
 _atom_site_symmetry_multiplicity
 _atom_site_fract_x
 _atom_site_fract_y
 _atom_site_fract_z
 _atom_site_occupancy
  Tb  Tb0  1  0.653843  0.750000  0.294657  1
  Tb  Tb1  1  0.378703  0.750000  0.695289  1
  Tb  Tb2  1  0.618626  0.250000  0.309245  1
  Tb  Tb3  1  0.881160  0.250000  0.810465  1
  Tb  Tb4  1  0.118387  0.750000  0.187897  1
  Tb  Tb5  1  0.945649  0.750000  0.503946  1
  Tb  Tb6  1  0.050152  0.250000  0.496378  1
  Tb  Tb7  1  0.452993  0.250000  0.997428  1
  Tb  Tb8  1  0.546189  0.750000  0.002336  1
  Tb  Tb9  1  0.677856  0.041412  0.564752  1
  Tb  Tb10  1  0.323560  0.964736  0.436964  1
  Tb  Tb11  1  0.176364  0.966521  0.937035  1
  Tb  Tb12  1  0.323560  0.535264  0.436964  1
  Tb  Tb13  1  0.822763  0.035329  0.062751  1
  Tb  Tb14  1  0.677856  0.458588  0.564752  1
  Tb  Tb15  1  0.822763  0.464671  0.062751  1
  Tb  Tb16  1  0.176364  0.533479  0.937035  1
  Y  Y17  1  0.846960  0.750000  0.799587  1
  Y  Y18  1  0.152020  0.250000  0.198835  1
  Y  Y19  1  0.348157  0.250000  0.699622  1
  Co  Co20  1  0.434037  0.250000  0.489930  1
  Co  Co21  1  0.059080  0.250000  0.991316  1
  Co  Co22  1  0.938813  0.750000  0.007876  1
  Bi  Bi23  1  0.572539  0.491275  0.827202  1
  Bi  Bi24  1  0.426771  0.507377  0.173309  1
  Bi  Bi25  1  0.072226  0.507561  0.674607  1
  Bi  Bi26  1  0.426771  0.992623  0.173309  1
  Bi  Bi27  1  0.929994  0.491878  0.325567  1
  Bi  Bi28  1  0.572539  0.008725  0.827202  1
  Bi  Bi29  1  0.929994  0.008122  0.325567  1
  Bi  Bi30  1  0.072226  0.992439  0.674607  1
  Os  Os31  1  0.571086  0.750000  0.510817  1
