# generated using pymatgen
data_KSr2Cd11
_symmetry_space_group_name_H-M   'P 1'
_cell_length_a   5.01202106
_cell_length_b   9.39539227
_cell_length_c   9.39539109
_cell_angle_alpha   66.38493044
_cell_angle_beta   74.53035716
_cell_angle_gamma   74.53036089
_symmetry_Int_Tables_number   1
_chemical_formula_structural   KSr2Cd11
_chemical_formula_sum   'K1 Sr2 Cd11'
_cell_volume   384.23524849
_cell_formula_units_Z   1
loop_
 _symmetry_equiv_pos_site_id
 _symmetry_equiv_pos_as_xyz
  1  'x, y, z'
loop_
 _atom_site_type_symbol
 _atom_site_label
 _atom_site_symmetry_multiplicity
 _atom_site_fract_x
 _atom_site_fract_y
 _atom_site_fract_z
 _atom_site_occupancy
  K  K0  1  0.000000  0.000000  0.000000  1
  Sr  Sr1  1  0.701599  0.298401  0.298401  1
  Sr  Sr2  1  0.298401  0.701599  0.701599  1
  Cd  Cd3  1  0.664655  0.693671  0.977020  1
  Cd  Cd4  1  0.335345  0.306329  0.022980  1
  Cd  Cd5  1  0.664655  0.977020  0.693671  1
  Cd  Cd6  1  0.335345  0.022980  0.306329  1
  Cd  Cd7  1  0.500000  0.687578  0.312422  1
  Cd  Cd8  1  0.500000  0.312422  0.687578  1
  Cd  Cd9  1  0.864185  0.423342  0.848288  1
  Cd  Cd10  1  0.135815  0.576658  0.151712  1
  Cd  Cd11  1  0.864185  0.848288  0.423342  1
  Cd  Cd12  1  0.135815  0.151712  0.576658  1
  Cd  Cd13  1  0.000000  0.500000  0.500000  1
