# generated using pymatgen
data_Tb6NdEr9(In3Co)2
_symmetry_space_group_name_H-M   'P 1'
_cell_length_a   10.33513800
_cell_length_b   10.33513881
_cell_length_c   7.10599500
_cell_angle_alpha   90.00000000
_cell_angle_beta   90.00000000
_cell_angle_gamma   119.99999739
_symmetry_Int_Tables_number   1
_chemical_formula_structural   Tb6NdEr9(In3Co)2
_chemical_formula_sum   'Tb6 Nd1 Er9 In6 Co2'
_cell_volume   657.33708525
_cell_formula_units_Z   1
loop_
 _symmetry_equiv_pos_site_id
 _symmetry_equiv_pos_as_xyz
  1  'x, y, z'
loop_
 _atom_site_type_symbol
 _atom_site_label
 _atom_site_symmetry_multiplicity
 _atom_site_fract_x
 _atom_site_fract_y
 _atom_site_fract_z
 _atom_site_occupancy
  Tb  Tb0  1  0.535523  0.071047  0.504193  1
  Tb  Tb1  1  0.928953  0.464477  0.504193  1
  Tb  Tb2  1  0.535523  0.464477  0.504193  1
  Tb  Tb3  1  0.464529  0.929059  0.004556  1
  Tb  Tb4  1  0.070941  0.535471  0.004556  1
  Tb  Tb5  1  0.464529  0.535471  0.004556  1
  Nd  Nd6  1  0.000000  0.000000  0.994553  1
  Er  Er7  1  0.179035  0.358067  0.709102  1
  Er  Er8  1  0.641933  0.820965  0.709102  1
  Er  Er9  1  0.179035  0.820965  0.709102  1
  Er  Er10  1  0.821029  0.642058  0.211811  1
  Er  Er11  1  0.357942  0.178971  0.211811  1
  Er  Er12  1  0.821029  0.178971  0.211811  1
  Er  Er13  1  0.666667  0.333333  0.898010  1
  Er  Er14  1  0.333333  0.666667  0.399637  1
  Er  Er15  1  0.000000  0.000000  0.493491  1
  In  In16  1  0.836653  0.673306  0.751692  1
  In  In17  1  0.326694  0.163347  0.751692  1
  In  In18  1  0.836653  0.163347  0.751692  1
  In  In19  1  0.163323  0.326647  0.256774  1
  In  In20  1  0.673353  0.836677  0.256774  1
  In  In21  1  0.163323  0.836677  0.256774  1
  Co  Co22  1  0.666667  0.333333  0.277451  1
  Co  Co23  1  0.333333  0.666667  0.780522  1
