# generated using pymatgen
data_Y20Cd5InCu2
_symmetry_space_group_name_H-M   'P 1'
_cell_length_a   9.73487534
_cell_length_b   9.73487562
_cell_length_c   9.87527100
_cell_angle_alpha   90.00000000
_cell_angle_beta   90.00000000
_cell_angle_gamma   120.13146377
_symmetry_Int_Tables_number   1
_chemical_formula_structural   Y20Cd5InCu2
_chemical_formula_sum   'Y20 Cd5 In1 Cu2'
_cell_volume   809.40076998
_cell_formula_units_Z   1
loop_
 _symmetry_equiv_pos_site_id
 _symmetry_equiv_pos_as_xyz
  1  'x, y, z'
loop_
 _atom_site_type_symbol
 _atom_site_label
 _atom_site_symmetry_multiplicity
 _atom_site_fract_x
 _atom_site_fract_y
 _atom_site_fract_z
 _atom_site_occupancy
  Y  Y0  1  0.001737  0.998263  0.501955  1
  Y  Y1  1  0.001737  0.998263  0.998045  1
  Y  Y2  1  0.543489  0.456511  0.250000  1
  Y  Y3  1  0.540448  0.089188  0.250000  1
  Y  Y4  1  0.910812  0.459552  0.250000  1
  Y  Y5  1  0.455357  0.544643  0.750000  1
  Y  Y6  1  0.456062  0.911290  0.750000  1
  Y  Y7  1  0.088710  0.543938  0.750000  1
  Y  Y8  1  0.209400  0.790600  0.440541  1
  Y  Y9  1  0.208559  0.417712  0.439782  1
  Y  Y10  1  0.582288  0.791441  0.439782  1
  Y  Y11  1  0.791120  0.208880  0.559351  1
  Y  Y12  1  0.790625  0.581551  0.561019  1
  Y  Y13  1  0.418449  0.209375  0.561019  1
  Y  Y14  1  0.791120  0.208880  0.940649  1
  Y  Y15  1  0.790625  0.581551  0.938981  1
  Y  Y16  1  0.418449  0.209375  0.938981  1
  Y  Y17  1  0.209400  0.790600  0.059459  1
  Y  Y18  1  0.208559  0.417712  0.060218  1
  Y  Y19  1  0.582288  0.791441  0.060218  1
  Cd  Cd20  1  0.884983  0.769381  0.250000  1
  Cd  Cd21  1  0.230619  0.115017  0.250000  1
  Cd  Cd22  1  0.116201  0.883799  0.750000  1
  Cd  Cd23  1  0.114867  0.230652  0.750000  1
  Cd  Cd24  1  0.769348  0.885133  0.750000  1
  In  In25  1  0.884442  0.115558  0.250000  1
  Cu  Cu26  1  0.333155  0.666845  0.250000  1
  Cu  Cu27  1  0.667152  0.332848  0.750000  1
