# generated using pymatgen
data_LiBe4Au
_symmetry_space_group_name_H-M   'P 1'
_cell_length_a   4.38203024
_cell_length_b   4.38203087
_cell_length_c   4.38203000
_cell_angle_alpha   59.99999146
_cell_angle_beta   59.99998671
_cell_angle_gamma   59.99999589
_symmetry_Int_Tables_number   1
_chemical_formula_structural   LiBe4Au
_chemical_formula_sum   'Li1 Be4 Au1'
_cell_volume   59.49919178
_cell_formula_units_Z   1
loop_
 _symmetry_equiv_pos_site_id
 _symmetry_equiv_pos_as_xyz
  1  'x, y, z'
loop_
 _atom_site_type_symbol
 _atom_site_label
 _atom_site_symmetry_multiplicity
 _atom_site_fract_x
 _atom_site_fract_y
 _atom_site_fract_z
 _atom_site_occupancy
  Li  Li0  1  0.000000  0.000000  0.000000  1
  Be  Be1  1  0.624757  0.624757  0.125731  1
  Be  Be2  1  0.624757  0.125731  0.624757  1
  Be  Be3  1  0.125731  0.624757  0.624757  1
  Be  Be4  1  0.624757  0.624757  0.624757  1
  Au  Au5  1  0.250000  0.250000  0.250000  1
