# generated using pymatgen
data_Ho4Al18RePd5
_symmetry_space_group_name_H-M   'P 1'
_cell_length_a   7.61959424
_cell_length_b   7.61959428
_cell_length_c   9.50091979
_cell_angle_alpha   89.73410492
_cell_angle_beta   89.73410548
_cell_angle_gamma   119.38092990
_symmetry_Int_Tables_number   1
_chemical_formula_structural   Ho4Al18RePd5
_chemical_formula_sum   'Ho4 Al18 Re1 Pd5'
_cell_volume   480.63694439
_cell_formula_units_Z   1
loop_
 _symmetry_equiv_pos_site_id
 _symmetry_equiv_pos_as_xyz
  1  'x, y, z'
loop_
 _atom_site_type_symbol
 _atom_site_label
 _atom_site_symmetry_multiplicity
 _atom_site_fract_x
 _atom_site_fract_y
 _atom_site_fract_z
 _atom_site_occupancy
  Ho  Ho0  1  0.995546  0.672583  0.248120  1
  Ho  Ho1  1  0.004454  0.327417  0.751880  1
  Ho  Ho2  1  0.672583  0.995546  0.248120  1
  Ho  Ho3  1  0.327417  0.004454  0.751880  1
  Al  Al4  1  0.130330  0.130330  0.247774  1
  Al  Al5  1  0.869670  0.869670  0.752226  1
  Al  Al6  1  0.999877  0.330626  0.074396  1
  Al  Al7  1  0.000123  0.669374  0.925604  1
  Al  Al8  1  0.998924  0.663470  0.578064  1
  Al  Al9  1  0.336530  0.001076  0.421936  1
  Al  Al10  1  0.001076  0.336530  0.421936  1
  Al  Al11  1  0.663470  0.998924  0.578064  1
  Al  Al12  1  0.669374  0.000123  0.925604  1
  Al  Al13  1  0.330626  0.999877  0.074396  1
  Al  Al14  1  0.334033  0.334033  0.557937  1
  Al  Al15  1  0.665967  0.665968  0.442063  1
  Al  Al16  1  0.669880  0.669881  0.054913  1
  Al  Al17  1  0.330120  0.330120  0.945087  1
  Al  Al18  1  0.340869  0.548255  0.249084  1
  Al  Al19  1  0.659131  0.451745  0.750916  1
  Al  Al20  1  0.548255  0.340869  0.249084  1
  Al  Al21  1  0.451745  0.659131  0.750916  1
  Re  Re22  1  0.000000  0.000000  0.000000  1
  Pd  Pd23  1  0.672269  0.327731  0.000000  1
  Pd  Pd24  1  0.327731  0.672269  0.000000  1
  Pd  Pd25  1  0.327551  0.672449  0.500000  1
  Pd  Pd26  1  0.672449  0.327551  0.500000  1
  Pd  Pd27  1  0.000000  0.000000  0.500000  1
