# generated using pymatgen
data_Tm8Ti3Re(Si2Mo)8
_symmetry_space_group_name_H-M   'P 1'
_cell_length_a   6.88028754
_cell_length_b   6.87985220
_cell_length_c   12.76614500
_cell_angle_alpha   90.02388486
_cell_angle_beta   89.97728251
_cell_angle_gamma   89.62981660
_symmetry_Int_Tables_number   1
_chemical_formula_structural   Tm8Ti3Re(Si2Mo)8
_chemical_formula_sum   'Tm8 Ti3 Re1 Si16 Mo8'
_cell_volume   604.27737366
_cell_formula_units_Z   1
loop_
 _symmetry_equiv_pos_site_id
 _symmetry_equiv_pos_as_xyz
  1  'x, y, z'
loop_
 _atom_site_type_symbol
 _atom_site_label
 _atom_site_symmetry_multiplicity
 _atom_site_fract_x
 _atom_site_fract_y
 _atom_site_fract_z
 _atom_site_occupancy
  Tm  Tm0  1  0.338511  0.001000  0.468789  1
  Tm  Tm1  1  0.498503  0.836628  0.719960  1
  Tm  Tm2  1  0.496308  0.164050  0.217571  1
  Tm  Tm3  1  0.836622  0.498488  0.280035  1
  Tm  Tm4  1  0.164027  0.496295  0.782431  1
  Tm  Tm5  1  0.659642  0.001510  0.968972  1
  Tm  Tm6  1  0.000991  0.338495  0.531215  1
  Tm  Tm7  1  0.001508  0.659642  0.031028  1
  Ti  Ti8  1  0.168753  0.834305  0.247788  1
  Ti  Ti9  1  0.834304  0.168755  0.752213  1
  Ti  Ti10  1  0.667904  0.667901  0.500003  1
  Re  Re11  1  0.332287  0.332287  0.000000  1
  Si  Si12  1  0.203540  0.128594  0.683085  1
  Si  Si13  1  0.376091  0.693151  0.934615  1
  Si  Si14  1  0.628696  0.298436  0.433260  1
  Si  Si15  1  0.693158  0.376099  0.065391  1
  Si  Si16  1  0.298436  0.628684  0.566738  1
  Si  Si17  1  0.794362  0.872532  0.183941  1
  Si  Si18  1  0.128600  0.203558  0.316921  1
  Si  Si19  1  0.872518  0.794385  0.816050  1
  Si  Si20  1  0.286336  0.969486  0.059835  1
  Si  Si21  1  0.536602  0.794226  0.313633  1
  Si  Si22  1  0.459997  0.208964  0.816160  1
  Si  Si23  1  0.794231  0.536571  0.686364  1
  Si  Si24  1  0.208971  0.459990  0.183836  1
  Si  Si25  1  0.708718  0.039525  0.564059  1
  Si  Si26  1  0.969464  0.286336  0.940158  1
  Si  Si27  1  0.039525  0.708714  0.435950  1
  Mo  Mo28  1  0.157145  0.997123  0.871347  1
  Mo  Mo29  1  0.495390  0.671881  0.125203  1
  Mo  Mo30  1  0.505008  0.340059  0.624890  1
  Mo  Mo31  1  0.671886  0.495370  0.874789  1
  Mo  Mo32  1  0.340073  0.505012  0.375122  1
  Mo  Mo33  1  0.840304  0.994510  0.374003  1
  Mo  Mo34  1  0.997104  0.157147  0.128648  1
  Mo  Mo35  1  0.994485  0.840296  0.625997  1
