# generated using pymatgen
data_Lu10Sn6S
_symmetry_space_group_name_H-M   'P 1'
_cell_length_a   8.82262800
_cell_length_b   8.82262975
_cell_length_c   6.39605300
_cell_angle_alpha   90.00000000
_cell_angle_beta   90.00000000
_cell_angle_gamma   119.99999343
_symmetry_Int_Tables_number   1
_chemical_formula_structural   Lu10Sn6S
_chemical_formula_sum   'Lu10 Sn6 S1'
_cell_volume   431.16027109
_cell_formula_units_Z   1
loop_
 _symmetry_equiv_pos_site_id
 _symmetry_equiv_pos_as_xyz
  1  'x, y, z'
loop_
 _atom_site_type_symbol
 _atom_site_label
 _atom_site_symmetry_multiplicity
 _atom_site_fract_x
 _atom_site_fract_y
 _atom_site_fract_z
 _atom_site_occupancy
  Lu  Lu0  1  0.666667  0.333333  0.500000  1
  Lu  Lu1  1  0.333333  0.666667  0.500000  1
  Lu  Lu2  1  0.333333  0.666667  0.000000  1
  Lu  Lu3  1  0.666667  0.333333  0.000000  1
  Lu  Lu4  1  0.755607  0.755607  0.246211  1
  Lu  Lu5  1  0.244393  0.000000  0.246211  1
  Lu  Lu6  1  0.000000  0.244393  0.246211  1
  Lu  Lu7  1  0.244393  0.244393  0.753789  1
  Lu  Lu8  1  0.755607  0.000000  0.753789  1
  Lu  Lu9  1  0.000000  0.755607  0.753789  1
  Sn  Sn10  1  0.394554  0.394554  0.249439  1
  Sn  Sn11  1  0.605446  0.000000  0.249439  1
  Sn  Sn12  1  0.000000  0.605446  0.249439  1
  Sn  Sn13  1  0.605446  0.605446  0.750561  1
  Sn  Sn14  1  0.394554  0.000000  0.750561  1
  Sn  Sn15  1  0.000000  0.394554  0.750561  1
  S  S16  1  0.000000  0.000000  0.500000  1
