# generated using pymatgen
data_Ho4Si4RuRh
_symmetry_space_group_name_H-M   'P 1'
_cell_length_a   5.67604865
_cell_length_b   5.67604799
_cell_length_c   10.07232457
_cell_angle_alpha   63.27732041
_cell_angle_beta   63.27732206
_cell_angle_gamma   43.46919612
_symmetry_Int_Tables_number   1
_chemical_formula_structural   Ho4Si4RuRh
_chemical_formula_sum   'Ho4 Si4 Ru1 Rh1'
_cell_volume   195.34661808
_cell_formula_units_Z   1
loop_
 _symmetry_equiv_pos_site_id
 _symmetry_equiv_pos_as_xyz
  1  'x, y, z'
loop_
 _atom_site_type_symbol
 _atom_site_label
 _atom_site_symmetry_multiplicity
 _atom_site_fract_x
 _atom_site_fract_y
 _atom_site_fract_z
 _atom_site_occupancy
  Ho  Ho0  1  0.002873  0.002873  0.324052  1
  Ho  Ho1  1  0.996941  0.996941  0.676014  1
  Ho  Ho2  1  0.814340  0.814340  0.106795  1
  Ho  Ho3  1  0.185128  0.185128  0.890686  1
  Si  Si4  1  0.646244  0.646244  0.433674  1
  Si  Si5  1  0.359610  0.359610  0.563250  1
  Si  Si6  1  0.505940  0.505940  0.123303  1
  Si  Si7  1  0.488607  0.488607  0.879156  1
  Ru  Ru8  1  0.273091  0.273091  0.376730  1
  Rh  Rh9  1  0.727226  0.727226  0.626340  1
