# generated using pymatgen
data_Dy5Ti3P12(Ir3Ru)4
_symmetry_space_group_name_H-M   'P 1'
_cell_length_a   12.69685819
_cell_length_b   12.76435870
_cell_length_c   3.94642300
_cell_angle_alpha   90.00000000
_cell_angle_beta   90.00000000
_cell_angle_gamma   119.84519746
_symmetry_Int_Tables_number   1
_chemical_formula_structural   Dy5Ti3P12(Ir3Ru)4
_chemical_formula_sum   'Dy5 Ti3 P12 Ir12 Ru4'
_cell_volume   554.75966378
_cell_formula_units_Z   1
loop_
 _symmetry_equiv_pos_site_id
 _symmetry_equiv_pos_as_xyz
  1  'x, y, z'
loop_
 _atom_site_type_symbol
 _atom_site_label
 _atom_site_symmetry_multiplicity
 _atom_site_fract_x
 _atom_site_fract_y
 _atom_site_fract_z
 _atom_site_occupancy
  Dy  Dy0  1  0.333183  0.666261  0.500000  1
  Dy  Dy1  1  0.665954  0.333094  0.500000  1
  Dy  Dy2  1  0.000402  0.811110  0.000000  1
  Dy  Dy3  1  0.189887  0.190012  0.000000  1
  Dy  Dy4  1  0.810914  0.999621  0.000000  1
  Ti  Ti5  1  0.998616  0.442749  0.500000  1
  Ti  Ti6  1  0.556446  0.556767  0.500000  1
  Ti  Ti7  1  0.444768  0.002390  0.500000  1
  P  P8  1  0.005216  0.641329  0.500000  1
  P  P9  1  0.360094  0.360350  0.500000  1
  P  P10  1  0.636965  0.994968  0.500000  1
  P  P11  1  0.520713  0.689414  0.000000  1
  P  P12  1  0.310796  0.831073  0.000000  1
  P  P13  1  0.167873  0.479243  0.000000  1
  P  P14  1  0.478520  0.169427  0.000000  1
  P  P15  1  0.685551  0.517858  0.000000  1
  P  P16  1  0.830443  0.312153  0.000000  1
  P  P17  1  0.004232  0.180895  0.500000  1
  P  P18  1  0.820660  0.822756  0.500000  1
  P  P19  1  0.181136  0.000553  0.500000  1
  Ir  Ir20  1  0.510437  0.871818  0.000000  1
  Ir  Ir21  1  0.127463  0.638463  0.000000  1
  Ir  Ir22  1  0.361373  0.492306  0.000000  1
  Ir  Ir23  1  0.488494  0.360702  0.000000  1
  Ir  Ir24  1  0.865855  0.505851  0.000000  1
  Ir  Ir25  1  0.638832  0.133093  0.000000  1
  Ir  Ir26  1  0.998032  0.279548  0.000000  1
  Ir  Ir27  1  0.720917  0.718430  0.000000  1
  Ir  Ir28  1  0.280245  0.999959  0.000000  1
  Ir  Ir29  1  0.808579  0.626666  0.500000  1
  Ir  Ir30  1  0.818228  0.191772  0.500000  1
  Ir  Ir31  1  0.000692  0.000228  0.500000  1
  Ru  Ru32  1  0.623503  0.801998  0.500000  1
  Ru  Ru33  1  0.198607  0.820479  0.500000  1
  Ru  Ru34  1  0.179464  0.376343  0.500000  1
  Ru  Ru35  1  0.376912  0.180321  0.500000  1
