# generated using pymatgen
data_Rb3NaYbI6
_symmetry_space_group_name_H-M   'P 1'
_cell_length_a   9.99559579
_cell_length_b   9.99559650
_cell_length_c   9.99559763
_cell_angle_alpha   92.92525853
_cell_angle_beta   92.92525802
_cell_angle_gamma   92.92525731
_symmetry_Int_Tables_number   1
_chemical_formula_structural   Rb3NaYbI6
_chemical_formula_sum   'Rb6 Na2 Yb2 I12'
_cell_volume   994.63723460
_cell_formula_units_Z   2
loop_
 _symmetry_equiv_pos_site_id
 _symmetry_equiv_pos_as_xyz
  1  'x, y, z'
loop_
 _atom_site_type_symbol
 _atom_site_label
 _atom_site_symmetry_multiplicity
 _atom_site_fract_x
 _atom_site_fract_y
 _atom_site_fract_z
 _atom_site_occupancy
  Rb  Rb0  1  0.869377  0.630623  0.250000  1
  Rb  Rb1  1  0.630623  0.250000  0.869377  1
  Rb  Rb2  1  0.250000  0.869377  0.630623  1
  Rb  Rb3  1  0.130623  0.369377  0.750000  1
  Rb  Rb4  1  0.369377  0.750000  0.130623  1
  Rb  Rb5  1  0.750000  0.130623  0.369377  1
  Na  Na6  1  0.250000  0.250000  0.250000  1
  Na  Na7  1  0.750000  0.750000  0.750000  1
  Yb  Yb8  1  0.000000  0.000000  0.000000  1
  Yb  Yb9  1  0.500000  0.500000  0.500000  1
  I  I10  1  0.200471  0.539599  0.416052  1
  I  I11  1  0.039599  0.700471  0.916052  1
  I  I12  1  0.916052  0.039599  0.700471  1
  I  I13  1  0.799529  0.460401  0.583948  1
  I  I14  1  0.700471  0.916052  0.039599  1
  I  I15  1  0.460401  0.583948  0.799529  1
  I  I16  1  0.583948  0.799529  0.460401  1
  I  I17  1  0.539599  0.416052  0.200471  1
  I  I18  1  0.083948  0.960401  0.299529  1
  I  I19  1  0.960401  0.299529  0.083948  1
  I  I20  1  0.299529  0.083948  0.960401  1
  I  I21  1  0.416052  0.200471  0.539599  1
