# generated using pymatgen
data_HoLuPa(Ga2Co3)3
_symmetry_space_group_name_H-M   'P 1'
_cell_length_a   8.86965400
_cell_length_b   8.86965341
_cell_length_c   3.87937200
_cell_angle_alpha   90.00000000
_cell_angle_beta   90.00000000
_cell_angle_gamma   120.00000222
_symmetry_Int_Tables_number   1
_chemical_formula_structural   HoLuPa(Ga2Co3)3
_chemical_formula_sum   'Ho1 Lu1 Pa1 Ga6 Co9'
_cell_volume   264.30499874
_cell_formula_units_Z   1
loop_
 _symmetry_equiv_pos_site_id
 _symmetry_equiv_pos_as_xyz
  1  'x, y, z'
loop_
 _atom_site_type_symbol
 _atom_site_label
 _atom_site_symmetry_multiplicity
 _atom_site_fract_x
 _atom_site_fract_y
 _atom_site_fract_z
 _atom_site_occupancy
  Ho  Ho0  1  0.333333  0.666667  0.500000  1
  Lu  Lu1  1  0.666667  0.333333  0.500000  1
  Pa  Pa2  1  0.000000  0.000000  0.000000  1
  Ga  Ga3  1  0.676866  0.676236  0.500000  1
  Ga  Ga4  1  0.323764  0.000630  0.500000  1
  Ga  Ga5  1  0.999370  0.323134  0.500000  1
  Ga  Ga6  1  0.323764  0.323134  0.500000  1
  Ga  Ga7  1  0.676866  0.000630  0.500000  1
  Ga  Ga8  1  0.999370  0.676236  0.500000  1
  Co  Co9  1  0.501427  0.498573  0.000000  1
  Co  Co10  1  0.501427  0.002854  0.000000  1
  Co  Co11  1  0.997146  0.498573  0.000000  1
  Co  Co12  1  0.825792  0.174208  0.000000  1
  Co  Co13  1  0.825792  0.651584  0.000000  1
  Co  Co14  1  0.348416  0.174208  0.000000  1
  Co  Co15  1  0.172050  0.827950  0.000000  1
  Co  Co16  1  0.655900  0.827950  0.000000  1
  Co  Co17  1  0.172050  0.344100  0.000000  1
