# generated using pymatgen
data_Cs4Fe3MoS8
_symmetry_space_group_name_H-M   'P 1'
_cell_length_a   5.49920228
_cell_length_b   7.33953874
_cell_length_c   12.54227698
_cell_angle_alpha   88.91995667
_cell_angle_beta   83.19567780
_cell_angle_gamma   79.41953007
_symmetry_Int_Tables_number   1
_chemical_formula_structural   Cs4Fe3MoS8
_chemical_formula_sum   'Cs4 Fe3 Mo1 S8'
_cell_volume   494.11246753
_cell_formula_units_Z   1
loop_
 _symmetry_equiv_pos_site_id
 _symmetry_equiv_pos_as_xyz
  1  'x, y, z'
loop_
 _atom_site_type_symbol
 _atom_site_label
 _atom_site_symmetry_multiplicity
 _atom_site_fract_x
 _atom_site_fract_y
 _atom_site_fract_z
 _atom_site_occupancy
  Cs  Cs0  1  0.079529  0.024485  0.667187  1
  Cs  Cs1  1  0.570026  0.528188  0.183941  1
  Cs  Cs2  1  0.429184  0.471597  0.816532  1
  Cs  Cs3  1  0.920957  0.975580  0.332482  1
  Fe  Fe4  1  0.253520  0.492064  0.497124  1
  Fe  Fe5  1  0.746332  0.508270  0.502821  1
  Fe  Fe6  1  0.249505  0.001165  0.000350  1
  Mo  Mo7  1  0.751005  0.997996  0.999316  1
  S  S8  1  0.961159  0.541622  0.636118  1
  S  S9  1  0.445328  0.062721  0.138308  1
  S  S10  1  0.953402  0.238586  0.962762  1
  S  S11  1  0.448803  0.727532  0.453722  1
  S  S12  1  0.546340  0.938012  0.860985  1
  S  S13  1  0.038230  0.457603  0.363706  1
  S  S14  1  0.551481  0.273617  0.546767  1
  S  S15  1  0.055198  0.760957  0.037876  1
