# generated using pymatgen
data_Nd2Sc2ReB12Ru
_symmetry_space_group_name_H-M   'P 1'
_cell_length_a   3.63501300
_cell_length_b   9.07864885
_cell_length_c   11.53118536
_cell_angle_alpha   90.07321853
_cell_angle_beta   90.00000000
_cell_angle_gamma   90.00000000
_symmetry_Int_Tables_number   1
_chemical_formula_structural   Nd2Sc2ReB12Ru
_chemical_formula_sum   'Nd4 Sc4 Re2 B24 Ru2'
_cell_volume   380.54041329
_cell_formula_units_Z   2
loop_
 _symmetry_equiv_pos_site_id
 _symmetry_equiv_pos_as_xyz
  1  'x, y, z'
loop_
 _atom_site_type_symbol
 _atom_site_label
 _atom_site_symmetry_multiplicity
 _atom_site_fract_x
 _atom_site_fract_y
 _atom_site_fract_z
 _atom_site_occupancy
  Nd  Nd0  1  0.000000  0.320749  0.414555  1
  Nd  Nd1  1  0.000000  0.679251  0.585445  1
  Nd  Nd2  1  0.000000  0.822095  0.084584  1
  Nd  Nd3  1  0.000000  0.177905  0.915416  1
  Sc  Sc4  1  0.000000  0.945548  0.370744  1
  Sc  Sc5  1  0.000000  0.054452  0.629256  1
  Sc  Sc6  1  0.000000  0.443280  0.128852  1
  Sc  Sc7  1  0.000000  0.556720  0.871148  1
  Re  Re8  1  0.000000  0.141948  0.183513  1
  Re  Re9  1  0.000000  0.858052  0.816487  1
  B  B10  1  0.500000  0.557215  0.429422  1
  B  B11  1  0.500000  0.442785  0.570578  1
  B  B12  1  0.500000  0.056207  0.070005  1
  B  B13  1  0.500000  0.943793  0.929995  1
  B  B14  1  0.500000  0.754463  0.415292  1
  B  B15  1  0.500000  0.245537  0.584708  1
  B  B16  1  0.500000  0.254865  0.084249  1
  B  B17  1  0.500000  0.745135  0.915751  1
  B  B18  1  0.500000  0.793528  0.265632  1
  B  B19  1  0.500000  0.206472  0.734368  1
  B  B20  1  0.500000  0.294625  0.234851  1
  B  B21  1  0.500000  0.705375  0.765149  1
  B  B22  1  0.500000  0.628125  0.183718  1
  B  B23  1  0.500000  0.371875  0.816282  1
  B  B24  1  0.500000  0.128612  0.317020  1
  B  B25  1  0.500000  0.871388  0.682980  1
  B  B26  1  0.500000  0.983042  0.215620  1
  B  B27  1  0.500000  0.016958  0.784380  1
  B  B28  1  0.500000  0.484018  0.285085  1
  B  B29  1  0.500000  0.515982  0.714915  1
  B  B30  1  0.500000  0.595099  0.025431  1
  B  B31  1  0.500000  0.404901  0.974569  1
  B  B32  1  0.500000  0.095535  0.474840  1
  B  B33  1  0.500000  0.904465  0.525160  1
  Ru  Ru34  1  0.000000  0.641335  0.317009  1
  Ru  Ru35  1  0.000000  0.358665  0.682991  1
