# generated using pymatgen
data_LiMnPtO4
_symmetry_space_group_name_H-M   'P 1'
_cell_length_a   5.86889800
_cell_length_b   6.20174600
_cell_length_c   8.84238000
_cell_angle_alpha   90.00000924
_cell_angle_beta   90.00000000
_cell_angle_gamma   90.00000000
_symmetry_Int_Tables_number   1
_chemical_formula_structural   LiMnPtO4
_chemical_formula_sum   'Li4 Mn4 Pt4 O16'
_cell_volume   321.83977176
_cell_formula_units_Z   4
loop_
 _symmetry_equiv_pos_site_id
 _symmetry_equiv_pos_as_xyz
  1  'x, y, z'
loop_
 _atom_site_type_symbol
 _atom_site_label
 _atom_site_symmetry_multiplicity
 _atom_site_fract_x
 _atom_site_fract_y
 _atom_site_fract_z
 _atom_site_occupancy
  Li  Li0  1  0.000000  0.250000  0.140899  1
  Li  Li1  1  0.500000  0.750000  0.640899  1
  Li  Li2  1  0.000000  0.750000  0.859101  1
  Li  Li3  1  0.500000  0.250000  0.359101  1
  Mn  Mn4  1  0.750000  0.250000  0.750000  1
  Mn  Mn5  1  0.250000  0.250000  0.750000  1
  Mn  Mn6  1  0.250000  0.750000  0.250000  1
  Mn  Mn7  1  0.750000  0.750000  0.250000  1
  Pt  Pt8  1  0.000000  0.500000  0.500000  1
  Pt  Pt9  1  0.500000  0.000000  0.000000  1
  Pt  Pt10  1  0.000000  0.000000  0.500000  1
  Pt  Pt11  1  0.500000  0.500000  0.000000  1
  O  O12  1  0.000000  0.534583  0.268996  1
  O  O13  1  0.500000  0.034583  0.768996  1
  O  O14  1  0.000000  0.965418  0.268996  1
  O  O15  1  0.500000  0.465418  0.768996  1
  O  O16  1  0.000000  0.034582  0.731004  1
  O  O17  1  0.500000  0.534582  0.231004  1
  O  O18  1  0.000000  0.465417  0.731004  1
  O  O19  1  0.500000  0.965417  0.231004  1
  O  O20  1  0.229323  0.750000  0.501526  1
  O  O21  1  0.729323  0.250000  0.001526  1
  O  O22  1  0.770677  0.750000  0.501526  1
  O  O23  1  0.270677  0.250000  0.001526  1
  O  O24  1  0.770677  0.250000  0.498474  1
  O  O25  1  0.270677  0.750000  0.998474  1
  O  O26  1  0.229323  0.250000  0.498474  1
  O  O27  1  0.729323  0.750000  0.998474  1
