# generated using pymatgen
data_YbPrAl3Ir
_symmetry_space_group_name_H-M   'P 1'
_cell_length_a   5.64487300
_cell_length_b   5.64487239
_cell_length_c   8.76686400
_cell_angle_alpha   90.00000000
_cell_angle_beta   90.00000000
_cell_angle_gamma   119.99999773
_symmetry_Int_Tables_number   1
_chemical_formula_structural   YbPrAl3Ir
_chemical_formula_sum   'Yb2 Pr2 Al6 Ir2'
_cell_volume   241.92637321
_cell_formula_units_Z   2
loop_
 _symmetry_equiv_pos_site_id
 _symmetry_equiv_pos_as_xyz
  1  'x, y, z'
loop_
 _atom_site_type_symbol
 _atom_site_label
 _atom_site_symmetry_multiplicity
 _atom_site_fract_x
 _atom_site_fract_y
 _atom_site_fract_z
 _atom_site_occupancy
  Yb  Yb0  1  0.333333  0.666666  0.556152  1
  Yb  Yb1  1  0.333333  0.666666  0.943847  1
  Pr  Pr2  1  0.666666  0.333334  0.048302  1
  Pr  Pr3  1  0.666666  0.333334  0.451698  1
  Al  Al4  1  0.160477  0.320956  0.250000  1
  Al  Al5  1  0.160478  0.839523  0.250000  1
  Al  Al6  1  0.679045  0.839523  0.250000  1
  Al  Al7  1  0.318549  0.159273  0.750000  1
  Al  Al8  1  0.840724  0.159273  0.750000  1
  Al  Al9  1  0.840725  0.681451  0.750000  1
  Ir  Ir10  1  0.000000  0.000000  0.998128  1
  Ir  Ir11  1  0.000000  0.000000  0.501872  1
