# generated using pymatgen
data_La2PrNd3(CBr5)2
_symmetry_space_group_name_H-M   'P 1'
_cell_length_a   7.74369063
_cell_length_b   9.24192183
_cell_length_c   9.32017520
_cell_angle_alpha   108.10970173
_cell_angle_beta   97.80850510
_cell_angle_gamma   105.54278100
_symmetry_Int_Tables_number   1
_chemical_formula_structural   La2PrNd3(CBr5)2
_chemical_formula_sum   'La2 Pr1 Nd3 C2 Br10'
_cell_volume   593.03718665
_cell_formula_units_Z   1
loop_
 _symmetry_equiv_pos_site_id
 _symmetry_equiv_pos_as_xyz
  1  'x, y, z'
loop_
 _atom_site_type_symbol
 _atom_site_label
 _atom_site_symmetry_multiplicity
 _atom_site_fract_x
 _atom_site_fract_y
 _atom_site_fract_z
 _atom_site_occupancy
  La  La0  1  0.972072  0.284700  0.084831  1
  La  La1  1  0.606847  0.843277  0.793487  1
  Pr  Pr2  1  0.388118  0.149644  0.201745  1
  Nd  Nd3  1  0.888776  0.957074  0.228521  1
  Nd  Nd4  1  0.111842  0.043691  0.771737  1
  Nd  Nd5  1  0.029420  0.722952  0.918015  1
  C  C6  1  0.906382  0.966305  0.952532  1
  C  C7  1  0.089052  0.034109  0.045390  1
  Br  Br8  1  0.755416  0.915965  0.533367  1
  Br  Br9  1  0.247961  0.084337  0.464697  1
  Br  Br10  1  0.457131  0.819335  0.086279  1
  Br  Br11  1  0.537627  0.179861  0.915417  1
  Br  Br12  1  0.820671  0.265354  0.360522  1
  Br  Br13  1  0.172434  0.731851  0.642330  1
  Br  Br14  1  0.910396  0.632016  0.173935  1
  Br  Br15  1  0.093778  0.371634  0.822799  1
  Br  Br16  1  0.657829  0.528798  0.721723  1
  Br  Br17  1  0.354249  0.469099  0.282671  1
