# generated using pymatgen
data_Mg4CdSbPd10
_symmetry_space_group_name_H-M   'P 1'
_cell_length_a   4.21950900
_cell_length_b   5.60756319
_cell_length_c   11.05763081
_cell_angle_alpha   90.48462579
_cell_angle_beta   90.00000000
_cell_angle_gamma   90.00000000
_symmetry_Int_Tables_number   1
_chemical_formula_structural   Mg4CdSbPd10
_chemical_formula_sum   'Mg4 Cd1 Sb1 Pd10'
_cell_volume   261.62704961
_cell_formula_units_Z   1
loop_
 _symmetry_equiv_pos_site_id
 _symmetry_equiv_pos_as_xyz
  1  'x, y, z'
loop_
 _atom_site_type_symbol
 _atom_site_label
 _atom_site_symmetry_multiplicity
 _atom_site_fract_x
 _atom_site_fract_y
 _atom_site_fract_z
 _atom_site_occupancy
  Mg  Mg0  1  0.500000  0.171285  0.141692  1
  Mg  Mg1  1  0.500000  0.828715  0.858308  1
  Mg  Mg2  1  0.500000  0.309626  0.635847  1
  Mg  Mg3  1  0.500000  0.690374  0.364153  1
  Cd  Cd4  1  0.000000  0.000000  0.500000  1
  Sb  Sb5  1  0.000000  0.500000  0.000000  1
  Pd  Pd6  1  0.500000  0.208061  0.380587  1
  Pd  Pd7  1  0.500000  0.791939  0.619413  1
  Pd  Pd8  1  0.500000  0.305762  0.888375  1
  Pd  Pd9  1  0.500000  0.694238  0.111625  1
  Pd  Pd10  1  0.000000  0.431538  0.243243  1
  Pd  Pd11  1  0.000000  0.568462  0.756757  1
  Pd  Pd12  1  0.000000  0.070822  0.747495  1
  Pd  Pd13  1  0.000000  0.929178  0.252505  1
  Pd  Pd14  1  0.000000  0.000000  0.000000  1
  Pd  Pd15  1  0.000000  0.500000  0.500000  1
