# generated using pymatgen
data_Er8Tm2(IrRh)3
_symmetry_space_group_name_H-M   'P 1'
_cell_length_a   10.77438501
_cell_length_b   10.77594700
_cell_length_c   6.31823801
_cell_angle_alpha   90.00063645
_cell_angle_beta   89.99542282
_cell_angle_gamma   90.00199935
_symmetry_Int_Tables_number   1
_chemical_formula_structural   Er8Tm2(IrRh)3
_chemical_formula_sum   'Er16 Tm4 Ir6 Rh6'
_cell_volume   733.57397784
_cell_formula_units_Z   2
loop_
 _symmetry_equiv_pos_site_id
 _symmetry_equiv_pos_as_xyz
  1  'x, y, z'
loop_
 _atom_site_type_symbol
 _atom_site_label
 _atom_site_symmetry_multiplicity
 _atom_site_fract_x
 _atom_site_fract_y
 _atom_site_fract_z
 _atom_site_occupancy
  Er  Er0  1  0.290232  0.088104  0.377481  1
  Er  Er1  1  0.290240  0.911889  0.877520  1
  Er  Er2  1  0.708838  0.088770  0.877279  1
  Er  Er3  1  0.708823  0.911241  0.377309  1
  Er  Er4  1  0.587292  0.790208  0.877821  1
  Er  Er5  1  0.587313  0.209788  0.377800  1
  Er  Er6  1  0.411841  0.790381  0.377631  1
  Er  Er7  1  0.411840  0.209628  0.877651  1
  Er  Er8  1  0.209703  0.411868  0.622297  1
  Er  Er9  1  0.209691  0.588154  0.122269  1
  Er  Er10  1  0.790228  0.412710  0.122317  1
  Er  Er11  1  0.790217  0.587270  0.622277  1
  Er  Er12  1  0.912132  0.709281  0.122895  1
  Er  Er13  1  0.912095  0.290729  0.622881  1
  Er  Er14  1  0.088978  0.709354  0.622279  1
  Er  Er15  1  0.088973  0.290637  0.122292  1
  Tm  Tm16  1  0.000404  0.000014  0.500009  1
  Tm  Tm17  1  0.000402  0.999985  0.000007  1
  Tm  Tm18  1  0.500036  0.499908  0.999989  1
  Tm  Tm19  1  0.500035  0.500090  0.499970  1
  Ir  Ir20  1  0.153048  0.153461  0.750086  1
  Ir  Ir21  1  0.153053  0.846539  0.250080  1
  Ir  Ir22  1  0.653979  0.346081  0.749975  1
  Ir  Ir23  1  0.653979  0.653926  0.249977  1
  Ir  Ir24  1  0.346491  0.346423  0.250029  1
  Ir  Ir25  1  0.346484  0.653581  0.750022  1
  Rh  Rh26  1  0.846504  0.153133  0.249942  1
  Rh  Rh27  1  0.846504  0.846847  0.749971  1
  Rh  Rh28  1  0.500580  0.999996  0.122161  1
  Rh  Rh29  1  0.500585  0.999992  0.622181  1
  Rh  Rh30  1  0.999731  0.500049  0.877801  1
  Rh  Rh31  1  0.999745  0.499965  0.377802  1
