# generated using pymatgen
data_Nd10Al4(OsRu)3
_symmetry_space_group_name_H-M   'P 1'
_cell_length_a   8.59313523
_cell_length_b   8.57408073
_cell_length_c   8.59313431
_cell_angle_alpha   109.24031707
_cell_angle_beta   109.95951950
_cell_angle_gamma   109.30377531
_symmetry_Int_Tables_number   1
_chemical_formula_structural   Nd10Al4(OsRu)3
_chemical_formula_sum   'Nd10 Al4 Os3 Ru3'
_cell_volume   486.82191344
_cell_formula_units_Z   1
loop_
 _symmetry_equiv_pos_site_id
 _symmetry_equiv_pos_as_xyz
  1  'x, y, z'
loop_
 _atom_site_type_symbol
 _atom_site_label
 _atom_site_symmetry_multiplicity
 _atom_site_fract_x
 _atom_site_fract_y
 _atom_site_fract_z
 _atom_site_occupancy
  Nd  Nd0  1  0.247836  0.681204  0.432531  1
  Nd  Nd1  1  0.751327  0.818796  0.066631  1
  Nd  Nd2  1  0.434444  0.250000  0.684443  1
  Nd  Nd3  1  0.681532  0.432754  0.250745  1
  Nd  Nd4  1  0.066310  0.750000  0.816310  1
  Nd  Nd5  1  0.817992  0.067247  0.748778  1
  Nd  Nd6  1  0.212967  0.213402  0.213652  1
  Nd  Nd7  1  0.499422  0.999016  0.286850  1
  Nd  Nd8  1  0.287834  0.500985  0.000405  1
  Nd  Nd9  1  0.000250  0.286598  0.499566  1
  Al  Al10  1  0.500010  0.000879  0.912271  1
  Al  Al11  1  0.587992  0.587616  0.589025  1
  Al  Al12  1  0.911392  0.499122  0.999130  1
  Al  Al13  1  0.001408  0.912384  0.500377  1
  Os  Os14  1  0.250029  0.118659  0.868133  1
  Os  Os15  1  0.749473  0.381340  0.631369  1
  Os  Os16  1  0.867064  0.250001  0.117064  1
  Ru  Ru17  1  0.116726  0.866702  0.249831  1
  Ru  Ru18  1  0.632866  0.750000  0.382866  1
  Ru  Ru19  1  0.383127  0.633297  0.750024  1
