# generated using pymatgen
data_Er3In(OsO4)4
_symmetry_space_group_name_H-M   'P 1'
_cell_length_a   5.34210514
_cell_length_b   7.43160334
_cell_length_c   7.66302200
_cell_angle_alpha   79.71990396
_cell_angle_beta   86.41373994
_cell_angle_gamma   89.90498573
_symmetry_Int_Tables_number   1
_chemical_formula_structural   Er3In(OsO4)4
_chemical_formula_sum   'Er3 In1 Os4 O16'
_cell_volume   298.74121397
_cell_formula_units_Z   1
loop_
 _symmetry_equiv_pos_site_id
 _symmetry_equiv_pos_as_xyz
  1  'x, y, z'
loop_
 _atom_site_type_symbol
 _atom_site_label
 _atom_site_symmetry_multiplicity
 _atom_site_fract_x
 _atom_site_fract_y
 _atom_site_fract_z
 _atom_site_occupancy
  Er  Er0  1  0.302275  0.107127  0.668111  1
  Er  Er1  1  0.758804  0.385170  0.386281  1
  Er  Er2  1  0.240995  0.613944  0.612038  1
  In  In3  1  0.706173  0.885404  0.332457  1
  Os  Os4  1  0.782046  0.299719  0.837876  1
  Os  Os5  1  0.219227  0.697594  0.163196  1
  Os  Os6  1  0.250524  0.204327  0.165581  1
  Os  Os7  1  0.748609  0.793977  0.834134  1
  O  O8  1  0.916166  0.803489  0.056851  1
  O  O9  1  0.088843  0.194068  0.941008  1
  O  O10  1  0.361542  0.944755  0.191319  1
  O  O11  1  0.651986  0.054194  0.818736  1
  O  O12  1  0.107061  0.447144  0.171088  1
  O  O13  1  0.890099  0.551327  0.824804  1
  O  O14  1  0.549329  0.286472  0.032585  1
  O  O15  1  0.450675  0.714147  0.968680  1
  O  O16  1  0.005220  0.322284  0.610639  1
  O  O17  1  0.995511  0.679348  0.387813  1
  O  O18  1  0.433310  0.193408  0.388989  1
  O  O19  1  0.549370  0.825902  0.609446  1
  O  O20  1  0.483356  0.615178  0.334460  1
  O  O21  1  0.519170  0.385704  0.665756  1
  O  O22  1  0.936205  0.125265  0.301528  1
  O  O23  1  0.053504  0.870053  0.696626  1
