# generated using pymatgen
data_Hf3Zr(Ta3Si4)2
_symmetry_space_group_name_H-M   'P 1'
_cell_length_a   6.85736400
_cell_length_b   6.85329700
_cell_length_c   12.70135900
_cell_angle_alpha   90.00000000
_cell_angle_beta   90.00000000
_cell_angle_gamma   90.00126241
_symmetry_Int_Tables_number   1
_chemical_formula_structural   Hf3Zr(Ta3Si4)2
_chemical_formula_sum   'Hf6 Zr2 Ta12 Si16'
_cell_volume   596.90737900
_cell_formula_units_Z   2
loop_
 _symmetry_equiv_pos_site_id
 _symmetry_equiv_pos_as_xyz
  1  'x, y, z'
loop_
 _atom_site_type_symbol
 _atom_site_label
 _atom_site_symmetry_multiplicity
 _atom_site_fract_x
 _atom_site_fract_y
 _atom_site_fract_z
 _atom_site_occupancy
  Hf  Hf0  1  0.001569  0.660794  0.030239  1
  Hf  Hf1  1  0.838156  0.500816  0.280004  1
  Hf  Hf2  1  0.161844  0.499184  0.780004  1
  Hf  Hf3  1  0.500911  0.838172  0.719744  1
  Hf  Hf4  1  0.499089  0.161828  0.219744  1
  Hf  Hf5  1  0.998431  0.339206  0.530239  1
  Zr  Zr6  1  0.661467  0.999892  0.970019  1
  Zr  Zr7  1  0.338533  0.000108  0.470019  1
  Ta  Ta8  1  0.330075  0.331258  0.999992  1
  Ta  Ta9  1  0.168823  0.830706  0.249732  1
  Ta  Ta10  1  0.831177  0.169294  0.749732  1
  Ta  Ta11  1  0.669925  0.668742  0.499992  1
  Ta  Ta12  1  0.003768  0.153517  0.126421  1
  Ta  Ta13  1  0.347557  0.504436  0.376195  1
  Ta  Ta14  1  0.652443  0.495564  0.876195  1
  Ta  Ta15  1  0.505104  0.347431  0.624070  1
  Ta  Ta16  1  0.494896  0.652569  0.124070  1
  Ta  Ta17  1  0.996232  0.846483  0.626421  1
  Ta  Ta18  1  0.153166  0.004016  0.873781  1
  Ta  Ta19  1  0.846834  0.995984  0.373781  1
  Si  Si20  1  0.299794  0.957255  0.063786  1
  Si  Si21  1  0.543109  0.800879  0.313371  1
  Si  Si22  1  0.456891  0.199121  0.813371  1
  Si  Si23  1  0.800952  0.542910  0.686546  1
  Si  Si24  1  0.199048  0.457090  0.186546  1
  Si  Si25  1  0.700206  0.042745  0.563786  1
  Si  Si26  1  0.956920  0.300717  0.936157  1
  Si  Si27  1  0.043080  0.699283  0.436157  1
  Si  Si28  1  0.708211  0.365533  0.073584  1
  Si  Si29  1  0.134826  0.208734  0.323012  1
  Si  Si30  1  0.865174  0.791266  0.823012  1
  Si  Si31  1  0.207976  0.135810  0.676785  1
  Si  Si32  1  0.792024  0.864190  0.176785  1
  Si  Si33  1  0.291789  0.634467  0.573584  1
  Si  Si34  1  0.364592  0.708027  0.926565  1
  Si  Si35  1  0.635408  0.291973  0.426565  1
