# generated using pymatgen
data_NaZr2CuS5
_symmetry_space_group_name_H-M   'P 1'
_cell_length_a   6.92245223
_cell_length_b   6.92245240
_cell_length_c   15.79883100
_cell_angle_alpha   90.00000000
_cell_angle_beta   90.00000000
_cell_angle_gamma   148.91481684
_symmetry_Int_Tables_number   1
_chemical_formula_structural   NaZr2CuS5
_chemical_formula_sum   'Na2 Zr4 Cu2 S10'
_cell_volume   390.89221076
_cell_formula_units_Z   2
loop_
 _symmetry_equiv_pos_site_id
 _symmetry_equiv_pos_as_xyz
  1  'x, y, z'
loop_
 _atom_site_type_symbol
 _atom_site_label
 _atom_site_symmetry_multiplicity
 _atom_site_fract_x
 _atom_site_fract_y
 _atom_site_fract_z
 _atom_site_occupancy
  Na  Na0  1  0.038203  0.961797  0.250000  1
  Na  Na1  1  0.961797  0.038203  0.750000  1
  Zr  Zr2  1  0.209226  0.790774  0.902097  1
  Zr  Zr3  1  0.790774  0.209226  0.402097  1
  Zr  Zr4  1  0.209226  0.790774  0.597903  1
  Zr  Zr5  1  0.790774  0.209226  0.097903  1
  Cu  Cu6  1  0.318597  0.681403  0.250000  1
  Cu  Cu7  1  0.681403  0.318597  0.750000  1
  S  S8  1  0.162038  0.837962  0.440618  1
  S  S9  1  0.837962  0.162038  0.940618  1
  S  S10  1  0.289634  0.710366  0.750000  1
  S  S11  1  0.418894  0.581106  0.367783  1
  S  S12  1  0.162038  0.837962  0.059382  1
  S  S13  1  0.581106  0.418894  0.867783  1
  S  S14  1  0.581106  0.418894  0.632217  1
  S  S15  1  0.418894  0.581106  0.132217  1
  S  S16  1  0.837962  0.162038  0.559382  1
  S  S17  1  0.710366  0.289634  0.250000  1
