# generated using pymatgen
data_Ho3Er2CoSb2
_symmetry_space_group_name_H-M   'P 1'
_cell_length_a   7.84104000
_cell_length_b   8.75561700
_cell_length_c   12.15465800
_cell_angle_alpha   90.00000000
_cell_angle_beta   90.00000000
_cell_angle_gamma   90.00000000
_symmetry_Int_Tables_number   1
_chemical_formula_structural   Ho3Er2CoSb2
_chemical_formula_sum   'Ho12 Er8 Co4 Sb8'
_cell_volume   834.45547527
_cell_formula_units_Z   4
loop_
 _symmetry_equiv_pos_site_id
 _symmetry_equiv_pos_as_xyz
  1  'x, y, z'
loop_
 _atom_site_type_symbol
 _atom_site_label
 _atom_site_symmetry_multiplicity
 _atom_site_fract_x
 _atom_site_fract_y
 _atom_site_fract_z
 _atom_site_occupancy
  Ho  Ho0  1  0.156374  0.750000  0.203799  1
  Ho  Ho1  1  0.656374  0.250000  0.296201  1
  Ho  Ho2  1  0.843626  0.250000  0.796201  1
  Ho  Ho3  1  0.343626  0.750000  0.703799  1
  Ho  Ho4  1  0.452275  0.750000  0.997991  1
  Ho  Ho5  1  0.952275  0.250000  0.502009  1
  Ho  Ho6  1  0.547725  0.250000  0.002009  1
  Ho  Ho7  1  0.047725  0.750000  0.497991  1
  Ho  Ho8  1  0.622655  0.750000  0.307766  1
  Ho  Ho9  1  0.122655  0.250000  0.192234  1
  Ho  Ho10  1  0.377345  0.250000  0.692234  1
  Ho  Ho11  1  0.877345  0.750000  0.807766  1
  Er  Er12  1  0.823359  0.963374  0.065430  1
  Er  Er13  1  0.323359  0.036626  0.434570  1
  Er  Er14  1  0.176641  0.463374  0.934570  1
  Er  Er15  1  0.676641  0.536626  0.565430  1
  Er  Er16  1  0.176641  0.036626  0.934570  1
  Er  Er17  1  0.676641  0.963374  0.565430  1
  Er  Er18  1  0.823359  0.536626  0.065430  1
  Er  Er19  1  0.323359  0.463374  0.434570  1
  Co  Co20  1  0.433032  0.750000  0.490738  1
  Co  Co21  1  0.933032  0.250000  0.009262  1
  Co  Co22  1  0.566968  0.250000  0.509262  1
  Co  Co23  1  0.066968  0.750000  0.990738  1
  Sb  Sb24  1  0.930467  0.991768  0.327080  1
  Sb  Sb25  1  0.430467  0.008232  0.172920  1
  Sb  Sb26  1  0.069533  0.491768  0.672920  1
  Sb  Sb27  1  0.569533  0.508232  0.827080  1
  Sb  Sb28  1  0.069533  0.008232  0.672920  1
  Sb  Sb29  1  0.569533  0.991768  0.827080  1
  Sb  Sb30  1  0.930467  0.508232  0.327080  1
  Sb  Sb31  1  0.430467  0.491768  0.172920  1
