# generated using pymatgen
data_Eu3Ho2Pb3Cl
_symmetry_space_group_name_H-M   'P 1'
_cell_length_a   9.44618700
_cell_length_b   9.44618546
_cell_length_c   6.97663700
_cell_angle_alpha   90.00000000
_cell_angle_beta   90.00000000
_cell_angle_gamma   119.99999488
_symmetry_Int_Tables_number   1
_chemical_formula_structural   Eu3Ho2Pb3Cl
_chemical_formula_sum   'Eu6 Ho4 Pb6 Cl2'
_cell_volume   539.12539302
_cell_formula_units_Z   2
loop_
 _symmetry_equiv_pos_site_id
 _symmetry_equiv_pos_as_xyz
  1  'x, y, z'
loop_
 _atom_site_type_symbol
 _atom_site_label
 _atom_site_symmetry_multiplicity
 _atom_site_fract_x
 _atom_site_fract_y
 _atom_site_fract_z
 _atom_site_occupancy
  Eu  Eu0  1  0.254316  0.000000  0.750000  1
  Eu  Eu1  1  0.745684  0.000000  0.250000  1
  Eu  Eu2  1  0.000000  0.254316  0.750000  1
  Eu  Eu3  1  0.000000  0.745684  0.250000  1
  Eu  Eu4  1  0.745684  0.745684  0.750000  1
  Eu  Eu5  1  0.254316  0.254316  0.250000  1
  Ho  Ho6  1  0.333333  0.666667  0.500000  1
  Ho  Ho7  1  0.666667  0.333333  0.500000  1
  Ho  Ho8  1  0.666667  0.333333  0.000000  1
  Ho  Ho9  1  0.333333  0.666667  0.000000  1
  Pb  Pb10  1  0.596842  0.000000  0.750000  1
  Pb  Pb11  1  0.403158  0.000000  0.250000  1
  Pb  Pb12  1  0.000000  0.596842  0.750000  1
  Pb  Pb13  1  0.000000  0.403158  0.250000  1
  Pb  Pb14  1  0.403158  0.403158  0.750000  1
  Pb  Pb15  1  0.596842  0.596842  0.250000  1
  Cl  Cl16  1  0.000000  0.000000  0.500000  1
  Cl  Cl17  1  0.000000  0.000000  0.000000  1
