# generated using pymatgen
data_KRb3(SiAs)12
_symmetry_space_group_name_H-M   'P 1'
_cell_length_a   3.72312200
_cell_length_b   10.18312741
_cell_length_c   20.09565377
_cell_angle_alpha   89.52443289
_cell_angle_beta   90.00000000
_cell_angle_gamma   90.00000000
_symmetry_Int_Tables_number   1
_chemical_formula_structural   KRb3(SiAs)12
_chemical_formula_sum   'K1 Rb3 Si12 As12'
_cell_volume   761.86079357
_cell_formula_units_Z   1
loop_
 _symmetry_equiv_pos_site_id
 _symmetry_equiv_pos_as_xyz
  1  'x, y, z'
loop_
 _atom_site_type_symbol
 _atom_site_label
 _atom_site_symmetry_multiplicity
 _atom_site_fract_x
 _atom_site_fract_y
 _atom_site_fract_z
 _atom_site_occupancy
  K  K0  1  0.000000  0.806524  0.195380  1
  Rb  Rb1  1  0.000000  0.302704  0.304151  1
  Rb  Rb2  1  0.000000  0.699207  0.694610  1
  Rb  Rb3  1  0.000000  0.198695  0.806160  1
  Si  Si4  1  0.500000  0.404922  0.035433  1
  Si  Si5  1  0.500000  0.593355  0.967529  1
  Si  Si6  1  0.500000  0.093006  0.534004  1
  Si  Si7  1  0.500000  0.907405  0.465378  1
  Si  Si8  1  0.000000  0.110152  0.015392  1
  Si  Si9  1  0.000000  0.887545  0.985925  1
  Si  Si10  1  0.000000  0.388800  0.514228  1
  Si  Si11  1  0.000000  0.611605  0.482805  1
  Si  Si12  1  0.000000  0.171817  0.128059  1
  Si  Si13  1  0.000000  0.823520  0.873346  1
  Si  Si14  1  0.000000  0.323623  0.627169  1
  Si  Si15  1  0.000000  0.680322  0.370051  1
  As  As16  1  0.500000  0.099107  0.190789  1
  As  As17  1  0.500000  0.894764  0.810402  1
  As  As18  1  0.500000  0.393952  0.689711  1
  As  As19  1  0.500000  0.611758  0.306524  1
  As  As20  1  0.500000  0.283397  0.460408  1
  As  As21  1  0.500000  0.715049  0.537567  1
  As  As22  1  0.500000  0.217427  0.961565  1
  As  As23  1  0.500000  0.782097  0.041103  1
  As  As24  1  0.000000  0.409341  0.111342  1
  As  As25  1  0.000000  0.586748  0.891582  1
  As  As26  1  0.000000  0.086721  0.609978  1
  As  As27  1  0.000000  0.916437  0.389410  1
