# generated using pymatgen
data_Th7NpH30
_symmetry_space_group_name_H-M   'P 1'
_cell_length_a   7.87783338
_cell_length_b   7.87783361
_cell_length_c   7.87783324
_cell_angle_alpha   109.50329784
_cell_angle_beta   109.50330563
_cell_angle_gamma   109.50330662
_symmetry_Int_Tables_number   1
_chemical_formula_structural   Th7NpH30
_chemical_formula_sum   'Th7 Np1 H30'
_cell_volume   375.90797887
_cell_formula_units_Z   1
loop_
 _symmetry_equiv_pos_site_id
 _symmetry_equiv_pos_as_xyz
  1  'x, y, z'
loop_
 _atom_site_type_symbol
 _atom_site_label
 _atom_site_symmetry_multiplicity
 _atom_site_fract_x
 _atom_site_fract_y
 _atom_site_fract_z
 _atom_site_occupancy
  Th  Th0  1  0.499199  0.999477  0.082756  1
  Th  Th1  1  0.999477  0.082756  0.499199  1
  Th  Th2  1  0.082756  0.499199  0.999477  1
  Th  Th3  1  0.998974  0.585339  0.502987  1
  Th  Th4  1  0.585339  0.502987  0.998974  1
  Th  Th5  1  0.502987  0.998974  0.585339  1
  Th  Th6  1  0.414637  0.414637  0.414637  1
  Np  Np7  1  0.911184  0.911184  0.911184  1
  H  H8  1  0.652861  0.968642  0.372198  1
  H  H9  1  0.220692  0.317461  0.846658  1
  H  H10  1  0.184142  0.404314  0.531732  1
  H  H11  1  0.095110  0.279160  0.126904  1
  H  H12  1  0.279160  0.126904  0.095110  1
  H  H13  1  0.126904  0.095110  0.279160  1
  H  H14  1  0.469038  0.153751  0.872409  1
  H  H15  1  0.719302  0.346567  0.815478  1
  H  H16  1  0.625592  0.375332  0.250236  1
  H  H17  1  0.250236  0.625592  0.375332  1
  H  H18  1  0.750467  0.875490  0.124782  1
  H  H19  1  0.124782  0.750467  0.875490  1
  H  H20  1  0.375332  0.250236  0.625592  1
  H  H21  1  0.875490  0.124782  0.750467  1
  H  H22  1  0.780570  0.596760  0.628925  1
  H  H23  1  0.317461  0.846658  0.220692  1
  H  H24  1  0.372198  0.652861  0.968642  1
  H  H25  1  0.968642  0.372198  0.652861  1
  H  H26  1  0.531732  0.184142  0.404314  1
  H  H27  1  0.404314  0.531732  0.184142  1
  H  H28  1  0.846658  0.220692  0.317461  1
  H  H29  1  0.904371  0.685913  0.030587  1
  H  H30  1  0.815478  0.719302  0.346567  1
  H  H31  1  0.153751  0.872409  0.469038  1
  H  H32  1  0.685913  0.030587  0.904371  1
  H  H33  1  0.346567  0.815478  0.719302  1
  H  H34  1  0.872409  0.469038  0.153751  1
  H  H35  1  0.628925  0.780570  0.596760  1
  H  H36  1  0.596760  0.628925  0.780570  1
  H  H37  1  0.030587  0.904371  0.685913  1
