# generated using pymatgen
data_HoEr7TcOsBr8
_symmetry_space_group_name_H-M   'P 1'
_cell_length_a   8.90790087
_cell_length_b   8.90404268
_cell_length_c   6.53544264
_cell_angle_alpha   89.55432898
_cell_angle_beta   89.49625180
_cell_angle_gamma   89.39279894
_symmetry_Int_Tables_number   1
_chemical_formula_structural   HoEr7TcOsBr8
_chemical_formula_sum   'Ho1 Er7 Tc1 Os1 Br8'
_cell_volume   518.30287072
_cell_formula_units_Z   1
loop_
 _symmetry_equiv_pos_site_id
 _symmetry_equiv_pos_as_xyz
  1  'x, y, z'
loop_
 _atom_site_type_symbol
 _atom_site_label
 _atom_site_symmetry_multiplicity
 _atom_site_fract_x
 _atom_site_fract_y
 _atom_site_fract_z
 _atom_site_occupancy
  Ho  Ho0  1  0.248972  0.900958  0.011074  1
  Er  Er1  1  0.751744  0.098742  0.989674  1
  Er  Er2  1  0.098427  0.751977  0.488593  1
  Er  Er3  1  0.901139  0.248598  0.510256  1
  Er  Er4  1  0.753146  0.903323  0.507512  1
  Er  Er5  1  0.246680  0.097323  0.491238  1
  Er  Er6  1  0.096584  0.247209  0.992257  1
  Er  Er7  1  0.902610  0.752860  0.008698  1
  Tc  Tc8  1  0.994201  0.005798  0.249936  1
  Os  Os9  1  0.005297  0.994508  0.749684  1
  Br  Br10  1  0.420647  0.816823  0.408029  1
  Br  Br11  1  0.579448  0.182723  0.594579  1
  Br  Br12  1  0.182809  0.579049  0.092853  1
  Br  Br13  1  0.817225  0.420566  0.905489  1
  Br  Br14  1  0.416009  0.191882  0.095323  1
  Br  Br15  1  0.584842  0.807933  0.903808  1
  Br  Br16  1  0.808481  0.583973  0.404879  1
  Br  Br17  1  0.191740  0.415755  0.596116  1
