# generated using pymatgen
data_LiTbY15Cd3Co4
_symmetry_space_group_name_H-M   'P 1'
_cell_length_a   9.52636295
_cell_length_b   9.53183057
_cell_length_c   9.56304995
_cell_angle_alpha   60.10794069
_cell_angle_beta   59.97210262
_cell_angle_gamma   59.98101637
_symmetry_Int_Tables_number   1
_chemical_formula_structural   LiTbY15Cd3Co4
_chemical_formula_sum   'Li1 Tb1 Y15 Cd3 Co4'
_cell_volume   614.30446679
_cell_formula_units_Z   1
loop_
 _symmetry_equiv_pos_site_id
 _symmetry_equiv_pos_as_xyz
  1  'x, y, z'
loop_
 _atom_site_type_symbol
 _atom_site_label
 _atom_site_symmetry_multiplicity
 _atom_site_fract_x
 _atom_site_fract_y
 _atom_site_fract_z
 _atom_site_occupancy
  Li  Li0  1  0.822184  0.822332  0.533149  1
  Tb  Tb1  1  0.061887  0.438876  0.060363  1
  Y  Y2  1  0.438630  0.439469  0.060000  1
  Y  Y3  1  0.594745  0.593777  0.596820  1
  Y  Y4  1  0.187712  0.812558  0.812962  1
  Y  Y5  1  0.062967  0.063664  0.436546  1
  Y  Y6  1  0.438630  0.061901  0.060000  1
  Y  Y7  1  0.813233  0.186988  0.812790  1
  Y  Y8  1  0.435890  0.063533  0.437043  1
  Y  Y9  1  0.594745  0.214659  0.596820  1
  Y  Y10  1  0.812171  0.811366  0.187134  1
  Y  Y11  1  0.214175  0.594411  0.597004  1
  Y  Y12  1  0.812171  0.189331  0.187134  1
  Y  Y13  1  0.062967  0.436823  0.436546  1
  Y  Y14  1  0.189654  0.811783  0.186780  1
  Y  Y15  1  0.597134  0.597223  0.208421  1
  Y  Y16  1  0.187712  0.186766  0.812962  1
  Cd  Cd17  1  0.830934  0.831676  0.827305  1
  Cd  Cd18  1  0.509330  0.831475  0.827719  1
  Cd  Cd19  1  0.830934  0.510085  0.827305  1
  Co  Co20  1  0.391898  0.391360  0.389380  1
  Co  Co21  1  0.828479  0.391621  0.388281  1
  Co  Co22  1  0.391898  0.827363  0.389380  1
  Co  Co23  1  0.389923  0.390962  0.828153  1
