# generated using pymatgen
data_ReTcC
_symmetry_space_group_name_H-M   'P 1'
_cell_length_a   2.85563700
_cell_length_b   2.85560026
_cell_length_c   9.87258600
_cell_angle_alpha   89.99910116
_cell_angle_beta   90.00186894
_cell_angle_gamma   119.99889115
_symmetry_Int_Tables_number   1
_chemical_formula_structural   ReTcC
_chemical_formula_sum   'Re2 Tc2 C2'
_cell_volume   69.72151620
_cell_formula_units_Z   2
loop_
 _symmetry_equiv_pos_site_id
 _symmetry_equiv_pos_as_xyz
  1  'x, y, z'
loop_
 _atom_site_type_symbol
 _atom_site_label
 _atom_site_symmetry_multiplicity
 _atom_site_fract_x
 _atom_site_fract_y
 _atom_site_fract_z
 _atom_site_occupancy
  Re  Re0  1  0.666647  0.333330  0.391456  1
  Re  Re1  1  0.333315  0.666672  0.891467  1
  Tc  Tc2  1  0.333314  0.666666  0.608468  1
  Tc  Tc3  1  0.666652  0.333332  0.108466  1
  C  C4  1  0.333314  0.666668  0.250069  1
  C  C5  1  0.666651  0.333335  0.750074  1
