# generated using pymatgen
data_ScPa7(Pt2Pb)4
_symmetry_space_group_name_H-M   'P 1'
_cell_length_a   7.91439500
_cell_length_b   7.91439340
_cell_length_c   7.34376300
_cell_angle_alpha   90.00000000
_cell_angle_beta   90.00000000
_cell_angle_gamma   90.49167263
_symmetry_Int_Tables_number   1
_chemical_formula_structural   ScPa7(Pt2Pb)4
_chemical_formula_sum   'Sc1 Pa7 Pt8 Pb4'
_cell_volume   459.97901379
_cell_formula_units_Z   1
loop_
 _symmetry_equiv_pos_site_id
 _symmetry_equiv_pos_as_xyz
  1  'x, y, z'
loop_
 _atom_site_type_symbol
 _atom_site_label
 _atom_site_symmetry_multiplicity
 _atom_site_fract_x
 _atom_site_fract_y
 _atom_site_fract_z
 _atom_site_occupancy
  Sc  Sc0  1  0.162148  0.837852  0.000000  1
  Pa  Pa1  1  0.681654  0.681423  0.000000  1
  Pa  Pa2  1  0.340104  0.343009  0.500000  1
  Pa  Pa3  1  0.821988  0.178012  0.500000  1
  Pa  Pa4  1  0.656991  0.659896  0.500000  1
  Pa  Pa5  1  0.318577  0.318346  0.000000  1
  Pa  Pa6  1  0.183294  0.816706  0.500000  1
  Pa  Pa7  1  0.842530  0.157470  0.000000  1
  Pt  Pt8  1  0.869874  0.872370  0.729262  1
  Pt  Pt9  1  0.127630  0.130126  0.729262  1
  Pt  Pt10  1  0.629868  0.370132  0.770056  1
  Pt  Pt11  1  0.629868  0.370132  0.229944  1
  Pt  Pt12  1  0.372451  0.627549  0.221931  1
  Pt  Pt13  1  0.127630  0.130126  0.270738  1
  Pt  Pt14  1  0.869874  0.872370  0.270738  1
  Pt  Pt15  1  0.372451  0.627549  0.778069  1
  Pb  Pb16  1  0.493776  0.997242  0.754727  1
  Pb  Pb17  1  0.493776  0.997242  0.245273  1
  Pb  Pb18  1  0.002758  0.506224  0.754727  1
  Pb  Pb19  1  0.002758  0.506224  0.245273  1
