# generated using pymatgen
data_SrCaGa2F10
_symmetry_space_group_name_H-M   'P 1'
_cell_length_a   5.66155336
_cell_length_b   5.66155285
_cell_length_c   7.81774073
_cell_angle_alpha   69.98926940
_cell_angle_beta   69.98927063
_cell_angle_gamma   71.67162176
_symmetry_Int_Tables_number   1
_chemical_formula_structural   SrCaGa2F10
_chemical_formula_sum   'Sr1 Ca1 Ga2 F10'
_cell_volume   215.64202668
_cell_formula_units_Z   1
loop_
 _symmetry_equiv_pos_site_id
 _symmetry_equiv_pos_as_xyz
  1  'x, y, z'
loop_
 _atom_site_type_symbol
 _atom_site_label
 _atom_site_symmetry_multiplicity
 _atom_site_fract_x
 _atom_site_fract_y
 _atom_site_fract_z
 _atom_site_occupancy
  Sr  Sr0  1  0.545083  0.454917  0.250000  1
  Ca  Ca1  1  0.456562  0.543438  0.750000  1
  Ga  Ga2  1  0.993699  0.994229  0.506525  1
  Ga  Ga3  1  0.005771  0.006301  0.993475  1
  F  F4  1  0.075000  0.925000  0.750000  1
  F  F5  1  0.935105  0.064895  0.250000  1
  F  F6  1  0.211836  0.247633  0.886019  1
  F  F7  1  0.752367  0.788164  0.613981  1
  F  F8  1  0.715764  0.290822  0.541776  1
  F  F9  1  0.709178  0.284236  0.958224  1
  F  F10  1  0.274702  0.697107  0.483470  1
  F  F11  1  0.302893  0.725298  0.016530  1
  F  F12  1  0.227538  0.205499  0.389953  1
  F  F13  1  0.794501  0.772462  0.110047  1
