# generated using pymatgen
data_DyTm5OsRh
_symmetry_space_group_name_H-M   'P 1'
_cell_length_a   7.23598701
_cell_length_b   8.99990300
_cell_length_c   6.31695699
_cell_angle_alpha   90.00000000
_cell_angle_beta   89.82093818
_cell_angle_gamma   90.00000000
_symmetry_Int_Tables_number   1
_chemical_formula_structural   DyTm5OsRh
_chemical_formula_sum   'Dy2 Tm10 Os2 Rh2'
_cell_volume   411.37832610
_cell_formula_units_Z   2
loop_
 _symmetry_equiv_pos_site_id
 _symmetry_equiv_pos_as_xyz
  1  'x, y, z'
loop_
 _atom_site_type_symbol
 _atom_site_label
 _atom_site_symmetry_multiplicity
 _atom_site_fract_x
 _atom_site_fract_y
 _atom_site_fract_z
 _atom_site_occupancy
  Dy  Dy0  1  0.036227  0.250000  0.623787  1
  Dy  Dy1  1  0.963773  0.750000  0.376213  1
  Tm  Tm2  1  0.464422  0.750000  0.128290  1
  Tm  Tm3  1  0.535578  0.250000  0.871710  1
  Tm  Tm4  1  0.175341  0.060652  0.165982  1
  Tm  Tm5  1  0.824659  0.939348  0.834018  1
  Tm  Tm6  1  0.320984  0.934735  0.676085  1
  Tm  Tm7  1  0.824659  0.560652  0.834018  1
  Tm  Tm8  1  0.679016  0.065265  0.323915  1
  Tm  Tm9  1  0.175341  0.439348  0.165982  1
  Tm  Tm10  1  0.679016  0.434735  0.323915  1
  Tm  Tm11  1  0.320984  0.565265  0.676085  1
  Os  Os12  1  0.116776  0.750000  0.962384  1
  Os  Os13  1  0.883224  0.250000  0.037616  1
  Rh  Rh14  1  0.388081  0.250000  0.457219  1
  Rh  Rh15  1  0.611919  0.750000  0.542781  1
