# generated using pymatgen
data_TbDy9Th6(MgRu)4
_symmetry_space_group_name_H-M   'P 1'
_cell_length_a   9.73381145
_cell_length_b   9.82098210
_cell_length_c   9.82242841
_cell_angle_alpha   59.40881618
_cell_angle_beta   60.28818402
_cell_angle_gamma   60.26763809
_symmetry_Int_Tables_number   1
_chemical_formula_structural   TbDy9Th6(MgRu)4
_chemical_formula_sum   'Tb1 Dy9 Th6 Mg4 Ru4'
_cell_volume   663.68094330
_cell_formula_units_Z   1
loop_
 _symmetry_equiv_pos_site_id
 _symmetry_equiv_pos_as_xyz
  1  'x, y, z'
loop_
 _atom_site_type_symbol
 _atom_site_label
 _atom_site_symmetry_multiplicity
 _atom_site_fract_x
 _atom_site_fract_y
 _atom_site_fract_z
 _atom_site_occupancy
  Tb  Tb0  1  0.186732  0.186732  0.813268  1
  Dy  Dy1  1  0.439410  0.060649  0.439093  1
  Dy  Dy2  1  0.060649  0.439410  0.060848  1
  Dy  Dy3  1  0.439263  0.439263  0.060737  1
  Dy  Dy4  1  0.060740  0.060740  0.439260  1
  Dy  Dy5  1  0.183528  0.816214  0.816485  1
  Dy  Dy6  1  0.816214  0.183528  0.183773  1
  Dy  Dy7  1  0.812969  0.186777  0.813223  1
  Dy  Dy8  1  0.186777  0.812969  0.187030  1
  Dy  Dy9  1  0.813204  0.813204  0.186796  1
  Th  Th10  1  0.591985  0.598862  0.598886  1
  Th  Th11  1  0.598862  0.591985  0.210269  1
  Th  Th12  1  0.598929  0.210377  0.591871  1
  Th  Th13  1  0.210377  0.598929  0.598825  1
  Th  Th14  1  0.066038  0.434090  0.433832  1
  Th  Th15  1  0.434090  0.066038  0.066040  1
  Mg  Mg16  1  0.831842  0.829212  0.829196  1
  Mg  Mg17  1  0.829212  0.831842  0.509750  1
  Mg  Mg18  1  0.829039  0.509894  0.831867  1
  Mg  Mg19  1  0.509894  0.829039  0.829200  1
  Ru  Ru20  1  0.378308  0.398913  0.398570  1
  Ru  Ru21  1  0.398913  0.378308  0.824209  1
  Ru  Ru22  1  0.398815  0.824211  0.378140  1
  Ru  Ru23  1  0.824211  0.398815  0.398834  1
