# generated using pymatgen
data_AcPmCd4
_symmetry_space_group_name_H-M   'P 1'
_cell_length_a   5.12938700
_cell_length_b   5.12938686
_cell_length_c   7.39487900
_cell_angle_alpha   90.00000000
_cell_angle_beta   90.00000000
_cell_angle_gamma   120.00000734
_symmetry_Int_Tables_number   1
_chemical_formula_structural   AcPmCd4
_chemical_formula_sum   'Ac1 Pm1 Cd4'
_cell_volume   168.49716325
_cell_formula_units_Z   1
loop_
 _symmetry_equiv_pos_site_id
 _symmetry_equiv_pos_as_xyz
  1  'x, y, z'
loop_
 _atom_site_type_symbol
 _atom_site_label
 _atom_site_symmetry_multiplicity
 _atom_site_fract_x
 _atom_site_fract_y
 _atom_site_fract_z
 _atom_site_occupancy
  Ac  Ac0  1  0.000000  0.000000  0.500000  1
  Pm  Pm1  1  0.000000  0.000000  0.000000  1
  Cd  Cd2  1  0.666665  0.333333  0.227668  1
  Cd  Cd3  1  0.333333  0.666665  0.227668  1
  Cd  Cd4  1  0.666665  0.333333  0.772333  1
  Cd  Cd5  1  0.333333  0.666665  0.772333  1
