# generated using pymatgen
data_TbYb3Er2(MnC3)4
_symmetry_space_group_name_H-M   'P 1'
_cell_length_a   8.06845967
_cell_length_b   8.06099233
_cell_length_c   4.96150900
_cell_angle_alpha   90.00000000
_cell_angle_beta   90.00000000
_cell_angle_gamma   120.29093141
_symmetry_Int_Tables_number   1
_chemical_formula_structural   TbYb3Er2(MnC3)4
_chemical_formula_sum   'Tb1 Yb3 Er2 Mn4 C12'
_cell_volume   278.63963395
_cell_formula_units_Z   1
loop_
 _symmetry_equiv_pos_site_id
 _symmetry_equiv_pos_as_xyz
  1  'x, y, z'
loop_
 _atom_site_type_symbol
 _atom_site_label
 _atom_site_symmetry_multiplicity
 _atom_site_fract_x
 _atom_site_fract_y
 _atom_site_fract_z
 _atom_site_occupancy
  Tb  Tb0  1  0.383109  0.317230  0.250000  1
  Yb  Yb1  1  0.614041  0.685750  0.750000  1
  Yb  Yb2  1  0.927566  0.614274  0.250000  1
  Yb  Yb3  1  0.681633  0.071210  0.250000  1
  Er  Er4  1  0.309200  0.932993  0.750000  1
  Er  Er5  1  0.067135  0.381740  0.750000  1
  Mn  Mn6  1  0.996620  0.997675  0.500509  1
  Mn  Mn7  1  0.996620  0.997675  0.999491  1
  Mn  Mn8  1  0.668536  0.329819  0.750000  1
  Mn  Mn9  1  0.331778  0.664007  0.250000  1
  C  C10  1  0.959319  0.772178  0.750000  1
  C  C11  1  0.194671  0.964478  0.250000  1
  C  C12  1  0.773966  0.818860  0.250000  1
  C  C13  1  0.229947  0.195870  0.750000  1
  C  C14  1  0.822498  0.043694  0.750000  1
  C  C15  1  0.038832  0.222709  0.250000  1
  C  C16  1  0.860393  0.577389  0.750000  1
  C  C17  1  0.281235  0.857214  0.250000  1
  C  C18  1  0.580627  0.720257  0.250000  1
  C  C19  1  0.425716  0.280582  0.750000  1
  C  C20  1  0.135061  0.417711  0.250000  1
  C  C21  1  0.721495  0.136682  0.750000  1
