# generated using pymatgen
data_Ca(Ac4Ir3)2
_symmetry_space_group_name_H-M   'P 1'
_cell_length_a   8.03997748
_cell_length_b   8.03997739
_cell_length_c   8.03997804
_cell_angle_alpha   69.87886155
_cell_angle_beta   69.87885428
_cell_angle_gamma   69.87883870
_symmetry_Int_Tables_number   1
_chemical_formula_structural   Ca(Ac4Ir3)2
_chemical_formula_sum   'Ca1 Ac8 Ir6'
_cell_volume   442.94727289
_cell_formula_units_Z   1
loop_
 _symmetry_equiv_pos_site_id
 _symmetry_equiv_pos_as_xyz
  1  'x, y, z'
loop_
 _atom_site_type_symbol
 _atom_site_label
 _atom_site_symmetry_multiplicity
 _atom_site_fract_x
 _atom_site_fract_y
 _atom_site_fract_z
 _atom_site_occupancy
  Ca  Ca0  1  0.000000  0.000000  0.000000  1
  Ac  Ac1  1  0.807053  0.807053  0.807053  1
  Ac  Ac2  1  0.192947  0.192947  0.192947  1
  Ac  Ac3  1  0.147757  0.387665  0.679437  1
  Ac  Ac4  1  0.679437  0.147757  0.387665  1
  Ac  Ac5  1  0.387665  0.679437  0.147757  1
  Ac  Ac6  1  0.852243  0.612335  0.320563  1
  Ac  Ac7  1  0.320563  0.852243  0.612335  1
  Ac  Ac8  1  0.612335  0.320563  0.852243  1
  Ir  Ir9  1  0.954494  0.173181  0.585596  1
  Ir  Ir10  1  0.585596  0.954494  0.173181  1
  Ir  Ir11  1  0.173181  0.585596  0.954494  1
  Ir  Ir12  1  0.045506  0.826819  0.414404  1
  Ir  Ir13  1  0.414404  0.045506  0.826819  1
  Ir  Ir14  1  0.826819  0.414404  0.045506  1
