# generated using pymatgen
data_La3(ZnSi2)2
_symmetry_space_group_name_H-M   'P 1'
_cell_length_a   4.38863198
_cell_length_b   4.24137083
_cell_length_c   21.70204800
_cell_angle_alpha   84.39221232
_cell_angle_beta   95.80313767
_cell_angle_gamma   90.00000190
_symmetry_Int_Tables_number   1
_chemical_formula_structural   La3(ZnSi2)2
_chemical_formula_sum   'La6 Zn4 Si8'
_cell_volume   399.94440869
_cell_formula_units_Z   2
loop_
 _symmetry_equiv_pos_site_id
 _symmetry_equiv_pos_as_xyz
  1  'x, y, z'
loop_
 _atom_site_type_symbol
 _atom_site_label
 _atom_site_symmetry_multiplicity
 _atom_site_fract_x
 _atom_site_fract_y
 _atom_site_fract_z
 _atom_site_occupancy
  La  La0  1  0.374900  0.875100  0.249798  1
  La  La1  1  0.039611  0.210389  0.579222  1
  La  La2  1  0.703421  0.546579  0.906843  1
  La  La3  1  0.295796  0.454204  0.091590  1
  La  La4  1  0.960379  0.789621  0.420756  1
  La  La5  1  0.625294  0.124706  0.750585  1
  Zn  Zn6  1  0.904344  0.345656  0.308689  1
  Zn  Zn7  1  0.569367  0.680633  0.638732  1
  Zn  Zn8  1  0.235631  0.014369  0.971262  1
  Zn  Zn9  1  0.763796  0.986204  0.027591  1
  Si  Si10  1  0.431789  0.318211  0.363578  1
  Si  Si11  1  0.096488  0.653512  0.692975  1
  Si  Si12  1  0.847982  0.402018  0.195966  1
  Si  Si13  1  0.513119  0.736881  0.526237  1
  Si  Si14  1  0.178254  0.071746  0.856504  1
  Si  Si15  1  0.821559  0.928441  0.143118  1
  Si  Si16  1  0.486781  0.263219  0.473565  1
  Si  Si17  1  0.151494  0.598506  0.802988  1
