# generated using pymatgen
data_NdSmPa2(Al3Rh)6
_symmetry_space_group_name_H-M   'P 1'
_cell_length_a   7.63025112
_cell_length_b   7.62469811
_cell_length_c   9.43824500
_cell_angle_alpha   90.00000000
_cell_angle_beta   90.00000000
_cell_angle_gamma   119.57671773
_symmetry_Int_Tables_number   1
_chemical_formula_structural   NdSmPa2(Al3Rh)6
_chemical_formula_sum   'Nd1 Sm1 Pa2 Al18 Rh6'
_cell_volume   477.55125431
_cell_formula_units_Z   1
loop_
 _symmetry_equiv_pos_site_id
 _symmetry_equiv_pos_as_xyz
  1  'x, y, z'
loop_
 _atom_site_type_symbol
 _atom_site_label
 _atom_site_symmetry_multiplicity
 _atom_site_fract_x
 _atom_site_fract_y
 _atom_site_fract_z
 _atom_site_occupancy
  Nd  Nd0  1  0.670018  0.993794  0.250000  1
  Sm  Sm1  1  0.329828  0.006154  0.750000  1
  Pa  Pa2  1  0.997161  0.671292  0.250000  1
  Pa  Pa3  1  0.002837  0.328640  0.750000  1
  Al  Al4  1  0.131106  0.127179  0.250000  1
  Al  Al5  1  0.869547  0.872999  0.750000  1
  Al  Al6  1  0.001776  0.333981  0.075850  1
  Al  Al7  1  0.998790  0.666566  0.923819  1
  Al  Al8  1  0.998790  0.666566  0.576181  1
  Al  Al9  1  0.336285  0.002712  0.425123  1
  Al  Al10  1  0.001776  0.333981  0.424150  1
  Al  Al11  1  0.663151  0.997256  0.575694  1
  Al  Al12  1  0.663151  0.997256  0.924306  1
  Al  Al13  1  0.336285  0.002712  0.074877  1
  Al  Al14  1  0.334630  0.333898  0.551238  1
  Al  Al15  1  0.665367  0.665643  0.449196  1
  Al  Al16  1  0.665367  0.665643  0.050804  1
  Al  Al17  1  0.334630  0.333898  0.948762  1
  Al  Al18  1  0.338124  0.547075  0.250000  1
  Al  Al19  1  0.661377  0.452253  0.750000  1
  Al  Al20  1  0.550167  0.344167  0.250000  1
  Al  Al21  1  0.449640  0.656153  0.750000  1
  Rh  Rh22  1  0.675242  0.330306  0.999492  1
  Rh  Rh23  1  0.324545  0.669697  0.000107  1
  Rh  Rh24  1  0.324545  0.669697  0.499893  1
  Rh  Rh25  1  0.675242  0.330306  0.500508  1
  Rh  Rh26  1  0.000313  0.000089  0.999717  1
  Rh  Rh27  1  0.000313  0.000089  0.500283  1
