# generated using pymatgen
data_Tm12CdInGa4
_symmetry_space_group_name_H-M   'P 1'
_cell_length_a   8.52453864
_cell_length_b   8.52453899
_cell_length_c   8.52453919
_cell_angle_alpha   112.09385114
_cell_angle_beta   112.33492494
_cell_angle_gamma   104.11417965
_symmetry_Int_Tables_number   1
_chemical_formula_structural   Tm12CdInGa4
_chemical_formula_sum   'Tm12 Cd1 In1 Ga4'
_cell_volume   473.77037443
_cell_formula_units_Z   1
loop_
 _symmetry_equiv_pos_site_id
 _symmetry_equiv_pos_as_xyz
  1  'x, y, z'
loop_
 _atom_site_type_symbol
 _atom_site_label
 _atom_site_symmetry_multiplicity
 _atom_site_fract_x
 _atom_site_fract_y
 _atom_site_fract_z
 _atom_site_occupancy
  Tm  Tm0  1  0.440879  0.239065  0.201814  1
  Tm  Tm1  1  0.559121  0.760935  0.798186  1
  Tm  Tm2  1  0.037250  0.239065  0.798186  1
  Tm  Tm3  1  0.962750  0.760935  0.201814  1
  Tm  Tm4  1  0.184384  0.278248  0.462631  1
  Tm  Tm5  1  0.815616  0.721752  0.537369  1
  Tm  Tm6  1  0.184384  0.721752  0.906136  1
  Tm  Tm7  1  0.815616  0.278248  0.093864  1
  Tm  Tm8  1  0.319525  0.615593  0.296068  1
  Tm  Tm9  1  0.680475  0.384407  0.703932  1
  Tm  Tm10  1  0.319525  0.023457  0.703932  1
  Tm  Tm11  1  0.680475  0.976543  0.296068  1
  Cd  Cd12  1  0.000000  0.000000  0.000000  1
  In  In13  1  0.500000  0.500000  0.000000  1
  Ga  Ga14  1  0.352896  0.000000  0.352896  1
  Ga  Ga15  1  0.647104  0.000000  0.647104  1
  Ga  Ga16  1  0.121575  0.621575  0.500000  1
  Ga  Ga17  1  0.878425  0.378425  0.500000  1
