# generated using pymatgen
data_CeMnSb3
_symmetry_space_group_name_H-M   'P 1'
_cell_length_a   6.07268100
_cell_length_b   6.26860900
_cell_length_c   12.87843800
_cell_angle_alpha   90.00000000
_cell_angle_beta   90.00000000
_cell_angle_gamma   90.00000000
_symmetry_Int_Tables_number   1
_chemical_formula_structural   CeMnSb3
_chemical_formula_sum   'Ce4 Mn4 Sb12'
_cell_volume   490.24688342
_cell_formula_units_Z   4
loop_
 _symmetry_equiv_pos_site_id
 _symmetry_equiv_pos_as_xyz
  1  'x, y, z'
loop_
 _atom_site_type_symbol
 _atom_site_label
 _atom_site_symmetry_multiplicity
 _atom_site_fract_x
 _atom_site_fract_y
 _atom_site_fract_z
 _atom_site_occupancy
  Ce  Ce0  1  0.250000  0.504883  0.308413  1
  Ce  Ce1  1  0.750000  0.495117  0.691587  1
  Ce  Ce2  1  0.250000  0.004883  0.691587  1
  Ce  Ce3  1  0.750000  0.995117  0.308413  1
  Mn  Mn4  1  0.000000  0.750000  0.908444  1
  Mn  Mn5  1  0.000000  0.250000  0.091556  1
  Mn  Mn6  1  0.500000  0.250000  0.091556  1
  Mn  Mn7  1  0.500000  0.750000  0.908444  1
  Sb  Sb8  1  0.000000  0.750000  0.500839  1
  Sb  Sb9  1  0.000000  0.250000  0.499161  1
  Sb  Sb10  1  0.500000  0.250000  0.499161  1
  Sb  Sb11  1  0.500000  0.750000  0.500839  1
  Sb  Sb12  1  0.250000  0.599531  0.063710  1
  Sb  Sb13  1  0.750000  0.400469  0.936290  1
  Sb  Sb14  1  0.250000  0.099531  0.936290  1
  Sb  Sb15  1  0.750000  0.900469  0.063710  1
  Sb  Sb16  1  0.250000  0.009565  0.227264  1
  Sb  Sb17  1  0.750000  0.990435  0.772736  1
  Sb  Sb18  1  0.250000  0.509565  0.772736  1
  Sb  Sb19  1  0.750000  0.490435  0.227264  1
