# generated using pymatgen
data_LiHf8Tc3Os4
_symmetry_space_group_name_H-M   'P 1'
_cell_length_a   6.52518900
_cell_length_b   4.60225600
_cell_length_c   9.22570000
_cell_angle_alpha   90.00000000
_cell_angle_beta   89.99847219
_cell_angle_gamma   90.00000000
_symmetry_Int_Tables_number   1
_chemical_formula_structural   LiHf8Tc3Os4
_chemical_formula_sum   'Li1 Hf8 Tc3 Os4'
_cell_volume   277.05321620
_cell_formula_units_Z   1
loop_
 _symmetry_equiv_pos_site_id
 _symmetry_equiv_pos_as_xyz
  1  'x, y, z'
loop_
 _atom_site_type_symbol
 _atom_site_label
 _atom_site_symmetry_multiplicity
 _atom_site_fract_x
 _atom_site_fract_y
 _atom_site_fract_z
 _atom_site_occupancy
  Li  Li0  1  0.750061  0.250001  0.125077  1
  Hf  Hf1  1  0.004688  0.750001  0.124993  1
  Hf  Hf2  1  0.495444  0.750001  0.124990  1
  Hf  Hf3  1  0.002137  0.250001  0.377418  1
  Hf  Hf4  1  0.497935  0.250001  0.377425  1
  Hf  Hf5  1  0.500508  0.750001  0.625001  1
  Hf  Hf6  1  0.999357  0.750001  0.625007  1
  Hf  Hf7  1  0.497860  0.250001  0.872571  1
  Hf  Hf8  1  0.002012  0.250001  0.872566  1
  Tc  Tc9  1  0.250036  0.750001  0.374660  1
  Tc  Tc10  1  0.749949  0.250001  0.624989  1
  Tc  Tc11  1  0.249947  0.750001  0.875307  1
  Os  Os12  1  0.250040  0.250001  0.125007  1
  Os  Os13  1  0.750038  0.750001  0.371255  1
  Os  Os14  1  0.249943  0.250001  0.625006  1
  Os  Os15  1  0.749944  0.750001  0.878725  1
