# generated using pymatgen
data_Nd2SiGeRu2C
_symmetry_space_group_name_H-M   'P 1'
_cell_length_a   5.97216897
_cell_length_b   5.97216909
_cell_length_c   7.10032255
_cell_angle_alpha   125.59573810
_cell_angle_beta   125.59573842
_cell_angle_gamma   40.79940873
_symmetry_Int_Tables_number   1
_chemical_formula_structural   Nd2SiGeRu2C
_chemical_formula_sum   'Nd2 Si1 Ge1 Ru2 C1'
_cell_volume   129.69901266
_cell_formula_units_Z   1
loop_
 _symmetry_equiv_pos_site_id
 _symmetry_equiv_pos_as_xyz
  1  'x, y, z'
loop_
 _atom_site_type_symbol
 _atom_site_label
 _atom_site_symmetry_multiplicity
 _atom_site_fract_x
 _atom_site_fract_y
 _atom_site_fract_z
 _atom_site_occupancy
  Nd  Nd0  1  0.562055  0.562055  0.299368  1
  Nd  Nd1  1  0.437699  0.437699  0.701421  1
  Si  Si2  1  0.166842  0.166842  0.720865  1
  Ge  Ge3  1  0.841025  0.841025  0.293358  1
  Ru  Ru4  1  0.197185  0.197185  0.088209  1
  Ru  Ru5  1  0.796565  0.796565  0.898260  1
  C  C6  1  0.998627  0.998627  0.998519  1
