# generated using pymatgen
data_DyNp3Ga12Os
_symmetry_space_group_name_H-M   'P 1'
_cell_length_a   7.44208414
_cell_length_b   7.44675940
_cell_length_c   7.44208404
_cell_angle_alpha   109.48394587
_cell_angle_beta   109.45848995
_cell_angle_gamma   109.48393830
_symmetry_Int_Tables_number   1
_chemical_formula_structural   DyNp3Ga12Os
_chemical_formula_sum   'Dy1 Np3 Ga12 Os1'
_cell_volume   317.44347370
_cell_formula_units_Z   1
loop_
 _symmetry_equiv_pos_site_id
 _symmetry_equiv_pos_as_xyz
  1  'x, y, z'
loop_
 _atom_site_type_symbol
 _atom_site_label
 _atom_site_symmetry_multiplicity
 _atom_site_fract_x
 _atom_site_fract_y
 _atom_site_fract_z
 _atom_site_occupancy
  Dy  Dy0  1  0.000000  0.500000  0.000000  1
  Np  Np1  1  0.000000  0.000000  0.500000  1
  Np  Np2  1  0.500000  0.000000  0.000000  1
  Np  Np3  1  0.500000  0.500000  0.500000  1
  Ga  Ga4  1  0.708119  0.709656  0.000000  1
  Ga  Ga5  1  0.291881  0.001537  0.291881  1
  Ga  Ga6  1  0.000000  0.290344  0.291881  1
  Ga  Ga7  1  0.291881  0.290344  0.000000  1
  Ga  Ga8  1  0.708119  0.998463  0.708119  1
  Ga  Ga9  1  0.000000  0.709656  0.708119  1
  Ga  Ga10  1  0.749421  0.249421  0.498843  1
  Ga  Ga11  1  0.749421  0.500000  0.250579  1
  Ga  Ga12  1  0.498843  0.249421  0.749421  1
  Ga  Ga13  1  0.250579  0.500000  0.749421  1
  Ga  Ga14  1  0.250579  0.750579  0.501157  1
  Ga  Ga15  1  0.501157  0.750579  0.250579  1
  Os  Os16  1  0.000000  0.000000  0.000000  1
