# generated using pymatgen
data_La8Yb5Ho7Ge16
_symmetry_space_group_name_H-M   'P 1'
_cell_length_a   7.62340431
_cell_length_b   7.98512252
_cell_length_c   14.99779000
_cell_angle_alpha   90.07425019
_cell_angle_beta   89.82809897
_cell_angle_gamma   90.10680450
_symmetry_Int_Tables_number   1
_chemical_formula_structural   La8Yb5Ho7Ge16
_chemical_formula_sum   'La8 Yb5 Ho7 Ge16'
_cell_volume   912.96627532
_cell_formula_units_Z   1
loop_
 _symmetry_equiv_pos_site_id
 _symmetry_equiv_pos_as_xyz
  1  'x, y, z'
loop_
 _atom_site_type_symbol
 _atom_site_label
 _atom_site_symmetry_multiplicity
 _atom_site_fract_x
 _atom_site_fract_y
 _atom_site_fract_z
 _atom_site_occupancy
  La  La0  1  0.491741  0.319808  0.902360  1
  La  La1  1  0.990251  0.180863  0.596806  1
  La  La2  1  0.509586  0.681050  0.402079  1
  La  La3  1  0.009529  0.817811  0.097319  1
  La  La4  1  0.509641  0.680601  0.097870  1
  La  La5  1  0.009382  0.820013  0.402721  1
  La  La6  1  0.490981  0.319348  0.596188  1
  La  La7  1  0.989250  0.182698  0.902373  1
  Yb  Yb8  1  0.832458  0.671106  0.878067  1
  Yb  Yb9  1  0.168555  0.496147  0.751010  1
  Yb  Yb10  1  0.671520  0.002079  0.750842  1
  Yb  Yb11  1  0.828431  0.506259  0.250724  1
  Yb  Yb12  1  0.328545  0.994264  0.250269  1
  Ho  Ho13  1  0.333481  0.825945  0.876267  1
  Ho  Ho14  1  0.834896  0.674418  0.622577  1
  Ho  Ho15  1  0.665653  0.172793  0.376773  1
  Ho  Ho16  1  0.166491  0.327563  0.123929  1
  Ho  Ho17  1  0.668390  0.173521  0.124158  1
  Ho  Ho18  1  0.166309  0.326717  0.376945  1
  Ho  Ho19  1  0.335041  0.825695  0.622150  1
  Ge  Ge20  1  0.335303  0.038804  0.037540  1
  Ge  Ge21  1  0.831199  0.461520  0.462368  1
  Ge  Ge22  1  0.669849  0.960188  0.536863  1
  Ge  Ge23  1  0.172347  0.538189  0.963907  1
  Ge  Ge24  1  0.659084  0.965555  0.962672  1
  Ge  Ge25  1  0.168314  0.538340  0.537533  1
  Ge  Ge26  1  0.330336  0.039540  0.462683  1
  Ge  Ge27  1  0.835739  0.460194  0.040340  1
  Ge  Ge28  1  0.538427  0.615848  0.747141  1
  Ge  Ge29  1  0.042428  0.889420  0.749735  1
  Ge  Ge30  1  0.461058  0.382948  0.250298  1
  Ge  Ge31  1  0.961256  0.115846  0.249944  1
  Ge  Ge32  1  0.287840  0.121383  0.749050  1
  Ge  Ge33  1  0.786388  0.373463  0.748197  1
  Ge  Ge34  1  0.709871  0.876429  0.250119  1
  Ge  Ge35  1  0.210429  0.623635  0.250179  1
