# generated using pymatgen
data_La2Y(AlI)2
_symmetry_space_group_name_H-M   'P 1'
_cell_length_a   9.94603561
_cell_length_b   9.94603543
_cell_length_c   12.20775086
_cell_angle_alpha   59.73464105
_cell_angle_beta   59.73464118
_cell_angle_gamma   25.11615544
_symmetry_Int_Tables_number   1
_chemical_formula_structural   La2Y(AlI)2
_chemical_formula_sum   'La4 Y2 Al4 I4'
_cell_volume   438.96478956
_cell_formula_units_Z   2
loop_
 _symmetry_equiv_pos_site_id
 _symmetry_equiv_pos_as_xyz
  1  'x, y, z'
loop_
 _atom_site_type_symbol
 _atom_site_label
 _atom_site_symmetry_multiplicity
 _atom_site_fract_x
 _atom_site_fract_y
 _atom_site_fract_z
 _atom_site_occupancy
  La  La0  1  0.753819  0.753819  0.802216  1
  La  La1  1  0.246181  0.246181  0.197784  1
  La  La2  1  0.534711  0.534711  0.309507  1
  La  La3  1  0.465289  0.465289  0.690493  1
  Y  Y4  1  0.830434  0.830434  0.392830  1
  Y  Y5  1  0.169566  0.169566  0.607170  1
  Al  Al6  1  0.925431  0.925431  0.529884  1
  Al  Al7  1  0.074569  0.074569  0.470116  1
  Al  Al8  1  0.336002  0.336002  0.579886  1
  Al  Al9  1  0.663998  0.663998  0.420114  1
  I  I10  1  0.420581  0.420581  0.177788  1
  I  I11  1  0.579419  0.579419  0.822212  1
  I  I12  1  0.860085  0.860085  0.942723  1
  I  I13  1  0.139915  0.139915  0.057277  1
