# generated using pymatgen
data_Hf3Be2IrRh4
_symmetry_space_group_name_H-M   'P 1'
_cell_length_a   9.40859600
_cell_length_b   9.40859600
_cell_length_c   3.35343500
_cell_angle_alpha   90.00000000
_cell_angle_beta   90.00000000
_cell_angle_gamma   90.00000000
_symmetry_Int_Tables_number   1
_chemical_formula_structural   Hf3Be2IrRh4
_chemical_formula_sum   'Hf6 Be4 Ir2 Rh8'
_cell_volume   296.85169558
_cell_formula_units_Z   2
loop_
 _symmetry_equiv_pos_site_id
 _symmetry_equiv_pos_as_xyz
  1  'x, y, z'
loop_
 _atom_site_type_symbol
 _atom_site_label
 _atom_site_symmetry_multiplicity
 _atom_site_fract_x
 _atom_site_fract_y
 _atom_site_fract_z
 _atom_site_occupancy
  Hf  Hf0  1  0.173486  0.673486  0.000000  1
  Hf  Hf1  1  0.326514  0.173486  0.000000  1
  Hf  Hf2  1  0.826514  0.326514  0.000000  1
  Hf  Hf3  1  0.500000  0.500000  0.000000  1
  Hf  Hf4  1  0.673486  0.826514  0.000000  1
  Hf  Hf5  1  0.000000  0.000000  0.000000  1
  Be  Be6  1  0.379505  0.879505  0.000000  1
  Be  Be7  1  0.120495  0.379505  0.000000  1
  Be  Be8  1  0.879505  0.620495  0.000000  1
  Be  Be9  1  0.620495  0.120495  0.000000  1
  Ir  Ir10  1  0.000000  0.500000  0.500000  1
  Ir  Ir11  1  0.500000  0.000000  0.500000  1
  Rh  Rh12  1  0.214905  0.926825  0.500000  1
  Rh  Rh13  1  0.926825  0.785095  0.500000  1
  Rh  Rh14  1  0.426825  0.714905  0.500000  1
  Rh  Rh15  1  0.573175  0.285095  0.500000  1
  Rh  Rh16  1  0.714905  0.573175  0.500000  1
  Rh  Rh17  1  0.285095  0.426825  0.500000  1
  Rh  Rh18  1  0.073175  0.214905  0.500000  1
  Rh  Rh19  1  0.785095  0.073175  0.500000  1
