# generated using pymatgen
data_NdDy3Si6IrRh
_symmetry_space_group_name_H-M   'P 1'
_cell_length_a   8.20153800
_cell_length_b   8.20153814
_cell_length_c   8.04284400
_cell_angle_alpha   90.00000000
_cell_angle_beta   90.00000000
_cell_angle_gamma   119.99999136
_symmetry_Int_Tables_number   1
_chemical_formula_structural   NdDy3Si6IrRh
_chemical_formula_sum   'Nd2 Dy6 Si12 Ir2 Rh2'
_cell_volume   468.52301040
_cell_formula_units_Z   2
loop_
 _symmetry_equiv_pos_site_id
 _symmetry_equiv_pos_as_xyz
  1  'x, y, z'
loop_
 _atom_site_type_symbol
 _atom_site_label
 _atom_site_symmetry_multiplicity
 _atom_site_fract_x
 _atom_site_fract_y
 _atom_site_fract_z
 _atom_site_occupancy
  Nd  Nd0  1  0.000000  0.000000  0.248833  1
  Nd  Nd1  1  0.000000  0.000000  0.751167  1
  Dy  Dy2  1  0.508561  0.491439  0.250429  1
  Dy  Dy3  1  0.508561  0.017122  0.250429  1
  Dy  Dy4  1  0.982878  0.491439  0.250429  1
  Dy  Dy5  1  0.491439  0.508561  0.749571  1
  Dy  Dy6  1  0.491439  0.982878  0.749571  1
  Dy  Dy7  1  0.017122  0.508561  0.749571  1
  Si  Si8  1  0.167999  0.832001  0.500677  1
  Si  Si9  1  0.167999  0.335999  0.500677  1
  Si  Si10  1  0.664001  0.832001  0.500677  1
  Si  Si11  1  0.832001  0.167999  0.499323  1
  Si  Si12  1  0.832001  0.664001  0.499323  1
  Si  Si13  1  0.335999  0.167999  0.499323  1
  Si  Si14  1  0.831736  0.168264  0.001393  1
  Si  Si15  1  0.831736  0.663470  0.001393  1
  Si  Si16  1  0.336530  0.168264  0.001393  1
  Si  Si17  1  0.168264  0.831736  0.998607  1
  Si  Si18  1  0.168264  0.336530  0.998607  1
  Si  Si19  1  0.663470  0.831736  0.998607  1
  Ir  Ir20  1  0.333333  0.666667  0.468290  1
  Ir  Ir21  1  0.666667  0.333333  0.531710  1
  Rh  Rh22  1  0.666667  0.333333  0.963760  1
  Rh  Rh23  1  0.333333  0.666667  0.036240  1
