# generated using pymatgen
data_ErTmCo6(Ni2P3)2
_symmetry_space_group_name_H-M   'P 1'
_cell_length_a   3.65956000
_cell_length_b   10.22024700
_cell_length_c   11.78627800
_cell_angle_alpha   90.00000000
_cell_angle_beta   90.00000000
_cell_angle_gamma   90.00000000
_symmetry_Int_Tables_number   1
_chemical_formula_structural   ErTmCo6(Ni2P3)2
_chemical_formula_sum   'Er2 Tm2 Co12 Ni8 P12'
_cell_volume   440.82573906
_cell_formula_units_Z   2
loop_
 _symmetry_equiv_pos_site_id
 _symmetry_equiv_pos_as_xyz
  1  'x, y, z'
loop_
 _atom_site_type_symbol
 _atom_site_label
 _atom_site_symmetry_multiplicity
 _atom_site_fract_x
 _atom_site_fract_y
 _atom_site_fract_z
 _atom_site_occupancy
  Er  Er0  1  0.750000  0.417843  0.296464  1
  Er  Er1  1  0.750000  0.082157  0.796464  1
  Tm  Tm2  1  0.250000  0.582131  0.703546  1
  Tm  Tm3  1  0.250000  0.917869  0.203546  1
  Co  Co4  1  0.250000  0.221364  0.176569  1
  Co  Co5  1  0.250000  0.278636  0.676569  1
  Co  Co6  1  0.750000  0.778453  0.823386  1
  Co  Co7  1  0.750000  0.721547  0.323386  1
  Co  Co8  1  0.250000  0.881610  0.697804  1
  Co  Co9  1  0.250000  0.618390  0.197804  1
  Co  Co10  1  0.750000  0.118153  0.302134  1
  Co  Co11  1  0.750000  0.381847  0.802134  1
  Co  Co12  1  0.250000  0.467689  0.932382  1
  Co  Co13  1  0.250000  0.032311  0.432382  1
  Co  Co14  1  0.750000  0.532402  0.067498  1
  Co  Co15  1  0.750000  0.967598  0.567498  1
  Ni  Ni16  1  0.250000  0.714209  0.990164  1
  Ni  Ni17  1  0.250000  0.785791  0.490164  1
  Ni  Ni18  1  0.750000  0.285822  0.009863  1
  Ni  Ni19  1  0.750000  0.214178  0.509863  1
  Ni  Ni20  1  0.250000  0.408383  0.485082  1
  Ni  Ni21  1  0.250000  0.091617  0.985082  1
  Ni  Ni22  1  0.750000  0.591667  0.515145  1
  Ni  Ni23  1  0.750000  0.908333  0.015145  1
  P  P24  1  0.250000  0.419420  0.113184  1
  P  P25  1  0.250000  0.080580  0.613184  1
  P  P26  1  0.750000  0.580586  0.886626  1
  P  P27  1  0.750000  0.919414  0.386626  1
  P  P28  1  0.250000  0.271505  0.865955  1
  P  P29  1  0.250000  0.228495  0.365955  1
  P  P30  1  0.750000  0.728725  0.134130  1
  P  P31  1  0.750000  0.771275  0.634130  1
  P  P32  1  0.250000  0.604108  0.387144  1
  P  P33  1  0.250000  0.895892  0.887144  1
  P  P34  1  0.750000  0.396071  0.612925  1
  P  P35  1  0.750000  0.103929  0.112925  1
