# generated using pymatgen
data_Tm20Bi7Ir4Pb
_symmetry_space_group_name_H-M   'P 1'
_cell_length_a   7.91714426
_cell_length_b   8.97016485
_cell_length_c   12.44664500
_cell_angle_alpha   90.04521621
_cell_angle_beta   90.01474885
_cell_angle_gamma   90.00638212
_symmetry_Int_Tables_number   1
_chemical_formula_structural   Tm20Bi7Ir4Pb
_chemical_formula_sum   'Tm20 Bi7 Ir4 Pb1'
_cell_volume   883.93663440
_cell_formula_units_Z   1
loop_
 _symmetry_equiv_pos_site_id
 _symmetry_equiv_pos_as_xyz
  1  'x, y, z'
loop_
 _atom_site_type_symbol
 _atom_site_label
 _atom_site_symmetry_multiplicity
 _atom_site_fract_x
 _atom_site_fract_y
 _atom_site_fract_z
 _atom_site_occupancy
  Tm  Tm0  1  0.664226  0.751894  0.707377  1
  Tm  Tm1  1  0.337924  0.249774  0.293636  1
  Tm  Tm2  1  0.160089  0.247856  0.792422  1
  Tm  Tm3  1  0.838687  0.749734  0.206550  1
  Tm  Tm4  1  0.123001  0.752002  0.810069  1
  Tm  Tm5  1  0.874186  0.249765  0.189083  1
  Tm  Tm6  1  0.628889  0.248178  0.689157  1
  Tm  Tm7  1  0.374101  0.750301  0.310781  1
  Tm  Tm8  1  0.557271  0.749575  0.998048  1
  Tm  Tm9  1  0.442365  0.250332  0.001831  1
  Tm  Tm10  1  0.055816  0.247938  0.503504  1
  Tm  Tm11  1  0.942786  0.751890  0.499024  1
  Tm  Tm12  1  0.826963  0.457370  0.932615  1
  Tm  Tm13  1  0.172371  0.542103  0.067098  1
  Tm  Tm14  1  0.328055  0.542146  0.567687  1
  Tm  Tm15  1  0.172128  0.958456  0.067245  1
  Tm  Tm16  1  0.672740  0.458331  0.432607  1
  Tm  Tm17  1  0.828847  0.041838  0.929998  1
  Tm  Tm18  1  0.673213  0.041866  0.434132  1
  Tm  Tm19  1  0.325362  0.959238  0.567632  1
  Bi  Bi20  1  0.063524  0.991739  0.326615  1
  Bi  Bi21  1  0.435982  0.991623  0.827919  1
  Bi  Bi22  1  0.063860  0.507992  0.327899  1
  Bi  Bi23  1  0.563325  0.007874  0.172385  1
  Bi  Bi24  1  0.936730  0.492369  0.672509  1
  Bi  Bi25  1  0.563124  0.491937  0.172803  1
  Bi  Bi26  1  0.437034  0.507960  0.826948  1
  Ir  Ir27  1  0.927728  0.750044  0.992317  1
  Ir  Ir28  1  0.072025  0.250238  0.007967  1
  Ir  Ir29  1  0.429218  0.250525  0.507999  1
  Ir  Ir30  1  0.571284  0.750135  0.492437  1
  Pb  Pb31  1  0.937148  0.006977  0.671707  1
