# generated using pymatgen
data_Ca19LaNiRh3
_symmetry_space_group_name_H-M   'P 1'
_cell_length_a   6.81508292
_cell_length_b   7.51372948
_cell_length_c   16.22464000
_cell_angle_alpha   90.00000000
_cell_angle_beta   90.00000000
_cell_angle_gamma   91.01166820
_symmetry_Int_Tables_number   1
_chemical_formula_structural   Ca19LaNiRh3
_chemical_formula_sum   'Ca19 La1 Ni1 Rh3'
_cell_volume   830.68059501
_cell_formula_units_Z   1
loop_
 _symmetry_equiv_pos_site_id
 _symmetry_equiv_pos_as_xyz
  1  'x, y, z'
loop_
 _atom_site_type_symbol
 _atom_site_label
 _atom_site_symmetry_multiplicity
 _atom_site_fract_x
 _atom_site_fract_y
 _atom_site_fract_z
 _atom_site_occupancy
  Ca  Ca0  1  0.350852  0.311133  0.062059  1
  Ca  Ca1  1  0.649103  0.688189  0.939452  1
  Ca  Ca2  1  0.852288  0.192217  0.941024  1
  Ca  Ca3  1  0.649103  0.688189  0.560548  1
  Ca  Ca4  1  0.145849  0.810190  0.063865  1
  Ca  Ca5  1  0.350852  0.311133  0.437941  1
  Ca  Ca6  1  0.145849  0.810190  0.436135  1
  Ca  Ca7  1  0.852288  0.192217  0.558976  1
  Ca  Ca8  1  0.156702  0.091371  0.250000  1
  Ca  Ca9  1  0.653518  0.404741  0.750000  1
  Ca  Ca10  1  0.342542  0.594669  0.250000  1
  Ca  Ca11  1  0.324263  0.036443  0.642944  1
  Ca  Ca12  1  0.675662  0.962081  0.354694  1
  Ca  Ca13  1  0.827101  0.463232  0.354573  1
  Ca  Ca14  1  0.675662  0.962081  0.145306  1
  Ca  Ca15  1  0.175650  0.538467  0.644093  1
  Ca  Ca16  1  0.324263  0.036443  0.857056  1
  Ca  Ca17  1  0.175650  0.538467  0.855907  1
  Ca  Ca18  1  0.827101  0.463232  0.145427  1
  La  La19  1  0.837067  0.916889  0.750000  1
  Ni  Ni20  1  0.538014  0.259160  0.250000  1
  Rh  Rh21  1  0.486742  0.749454  0.750000  1
  Rh  Rh22  1  0.023925  0.220722  0.750000  1
  Rh  Rh23  1  0.959953  0.759084  0.250000  1
