# generated using pymatgen
data_La2Pr2AlGaSi2
_symmetry_space_group_name_H-M   'P 1'
_cell_length_a   4.11165000
_cell_length_b   4.53595700
_cell_length_c   11.46150200
_cell_angle_alpha   90.00000000
_cell_angle_beta   90.00000000
_cell_angle_gamma   90.00000000
_symmetry_Int_Tables_number   1
_chemical_formula_structural   La2Pr2AlGaSi2
_chemical_formula_sum   'La2 Pr2 Al1 Ga1 Si2'
_cell_volume   213.76007939
_cell_formula_units_Z   1
loop_
 _symmetry_equiv_pos_site_id
 _symmetry_equiv_pos_as_xyz
  1  'x, y, z'
loop_
 _atom_site_type_symbol
 _atom_site_label
 _atom_site_symmetry_multiplicity
 _atom_site_fract_x
 _atom_site_fract_y
 _atom_site_fract_z
 _atom_site_occupancy
  La  La0  1  0.000000  0.500000  0.857147  1
  La  La1  1  0.500000  0.000000  0.644258  1
  Pr  Pr2  1  0.000000  0.000000  0.356812  1
  Pr  Pr3  1  0.500000  0.500000  0.139339  1
  Al  Al4  1  0.500000  0.500000  0.433057  1
  Ga  Ga5  1  0.000000  0.000000  0.069462  1
  Si  Si6  1  0.000000  0.500000  0.567723  1
  Si  Si7  1  0.500000  0.000000  0.932200  1
