# generated using pymatgen
data_Tb5Tm3AlPd24
_symmetry_space_group_name_H-M   'P 1'
_cell_length_a   8.35350500
_cell_length_b   8.35350416
_cell_length_c   8.35365900
_cell_angle_alpha   89.99951988
_cell_angle_beta   90.00061730
_cell_angle_gamma   90.01105654
_symmetry_Int_Tables_number   1
_chemical_formula_structural   Tb5Tm3AlPd24
_chemical_formula_sum   'Tb5 Tm3 Al1 Pd24'
_cell_volume   582.92699137
_cell_formula_units_Z   1
loop_
 _symmetry_equiv_pos_site_id
 _symmetry_equiv_pos_as_xyz
  1  'x, y, z'
loop_
 _atom_site_type_symbol
 _atom_site_label
 _atom_site_symmetry_multiplicity
 _atom_site_fract_x
 _atom_site_fract_y
 _atom_site_fract_z
 _atom_site_occupancy
  Tb  Tb0  1  0.251609  0.251667  0.251702  1
  Tb  Tb1  1  0.748364  0.748291  0.748276  1
  Tb  Tb2  1  0.748333  0.748391  0.251701  1
  Tb  Tb3  1  0.748300  0.251700  0.748443  1
  Tb  Tb4  1  0.251709  0.251636  0.748277  1
  Tm  Tm5  1  0.251663  0.748339  0.251526  1
  Tm  Tm6  1  0.251550  0.748448  0.748518  1
  Tm  Tm7  1  0.748418  0.251583  0.251540  1
  Al  Al8  1  0.000056  0.999943  0.000057  1
  Pd  Pd9  1  0.259614  0.501686  0.000088  1
  Pd  Pd10  1  0.740504  0.499329  0.001081  1
  Pd  Pd11  1  0.998978  0.259483  0.499159  1
  Pd  Pd12  1  0.500671  0.259496  0.001079  1
  Pd  Pd13  1  0.002201  0.740449  0.499839  1
  Pd  Pd14  1  0.498313  0.740385  0.000089  1
  Pd  Pd15  1  0.499879  0.999984  0.259593  1
  Pd  Pd16  1  0.259552  0.997797  0.499840  1
  Pd  Pd17  1  0.499138  0.998885  0.740480  1
  Pd  Pd18  1  0.740518  0.001022  0.499160  1
  Pd  Pd19  1  0.000018  0.500122  0.259592  1
  Pd  Pd20  1  0.001113  0.500862  0.740479  1
  Pd  Pd21  1  0.252549  0.502137  0.500016  1
  Pd  Pd22  1  0.747472  0.499027  0.498834  1
  Pd  Pd23  1  0.500974  0.252531  0.498834  1
  Pd  Pd24  1  0.497863  0.747450  0.500016  1
  Pd  Pd25  1  0.499959  0.500040  0.252550  1
  Pd  Pd26  1  0.498883  0.501116  0.747449  1
  Pd  Pd27  1  0.288676  0.998069  0.999989  1
  Pd  Pd28  1  0.711108  0.000912  0.001004  1
  Pd  Pd29  1  0.999087  0.288893  0.001003  1
  Pd  Pd30  1  0.001930  0.711322  0.999988  1
  Pd  Pd31  1  0.000018  0.999980  0.288771  1
  Pd  Pd32  1  0.000979  0.999023  0.711025  1
