# generated using pymatgen
data_Th4In2PdRh3
_symmetry_space_group_name_H-M   'P 1'
_cell_length_a   7.87844763
_cell_length_b   7.87844763
_cell_length_c   3.79833700
_cell_angle_alpha   90.00000000
_cell_angle_beta   90.00000000
_cell_angle_gamma   89.72531852
_symmetry_Int_Tables_number   1
_chemical_formula_structural   Th4In2PdRh3
_chemical_formula_sum   'Th4 In2 Pd1 Rh3'
_cell_volume   235.75982946
_cell_formula_units_Z   1
loop_
 _symmetry_equiv_pos_site_id
 _symmetry_equiv_pos_as_xyz
  1  'x, y, z'
loop_
 _atom_site_type_symbol
 _atom_site_label
 _atom_site_symmetry_multiplicity
 _atom_site_fract_x
 _atom_site_fract_y
 _atom_site_fract_z
 _atom_site_occupancy
  Th  Th0  1  0.674598  0.174598  0.500000  1
  Th  Th1  1  0.337659  0.837659  0.500000  1
  Th  Th2  1  0.168760  0.319065  0.500000  1
  Th  Th3  1  0.819065  0.668760  0.500000  1
  In  In4  1  0.999262  0.995574  0.000000  1
  In  In5  1  0.495574  0.499262  0.000000  1
  Pd  Pd6  1  0.132556  0.632556  0.000000  1
  Rh  Rh7  1  0.870655  0.370655  0.000000  1
  Rh  Rh8  1  0.633917  0.867954  0.000000  1
  Rh  Rh9  1  0.367954  0.133917  0.000000  1
