# generated using pymatgen
data_TmNb8AgS16
_symmetry_space_group_name_H-M   'P 1'
_cell_length_a   6.68865600
_cell_length_b   6.68865599
_cell_length_c   13.75372800
_cell_angle_alpha   90.00000000
_cell_angle_beta   90.00000000
_cell_angle_gamma   120.00000006
_symmetry_Int_Tables_number   1
_chemical_formula_structural   TmNb8AgS16
_chemical_formula_sum   'Tm1 Nb8 Ag1 S16'
_cell_volume   532.87921785
_cell_formula_units_Z   1
loop_
 _symmetry_equiv_pos_site_id
 _symmetry_equiv_pos_as_xyz
  1  'x, y, z'
loop_
 _atom_site_type_symbol
 _atom_site_label
 _atom_site_symmetry_multiplicity
 _atom_site_fract_x
 _atom_site_fract_y
 _atom_site_fract_z
 _atom_site_occupancy
  Tm  Tm0  1  0.000000  0.000000  0.500000  1
  Nb  Nb1  1  0.000000  0.000000  0.249978  1
  Nb  Nb2  1  0.000000  0.000000  0.750022  1
  Nb  Nb3  1  0.506427  0.012854  0.250257  1
  Nb  Nb4  1  0.987146  0.493573  0.250257  1
  Nb  Nb5  1  0.506427  0.493573  0.250257  1
  Nb  Nb6  1  0.493573  0.987146  0.749743  1
  Nb  Nb7  1  0.012854  0.506427  0.749743  1
  Nb  Nb8  1  0.493573  0.506427  0.749743  1
  Ag  Ag9  1  0.000000  0.000000  0.000000  1
  S  S10  1  0.333333  0.666667  0.866300  1
  S  S11  1  0.666667  0.333333  0.133700  1
  S  S12  1  0.666667  0.333333  0.369143  1
  S  S13  1  0.333333  0.666667  0.630857  1
  S  S14  1  0.167967  0.832033  0.364774  1
  S  S15  1  0.167967  0.335934  0.364774  1
  S  S16  1  0.664066  0.832033  0.364774  1
  S  S17  1  0.832033  0.167967  0.635226  1
  S  S18  1  0.832033  0.664066  0.635226  1
  S  S19  1  0.335934  0.167967  0.635226  1
  S  S20  1  0.830566  0.169434  0.862712  1
  S  S21  1  0.830566  0.661132  0.862712  1
  S  S22  1  0.338868  0.169434  0.862712  1
  S  S23  1  0.169434  0.830566  0.137288  1
  S  S24  1  0.169434  0.338868  0.137288  1
  S  S25  1  0.661132  0.830566  0.137288  1
