# generated using pymatgen
data_ThPa(GaRu)2
_symmetry_space_group_name_H-M   'P 1'
_cell_length_a   4.15604700
_cell_length_b   6.95859100
_cell_length_c   8.06825000
_cell_angle_alpha   90.00000000
_cell_angle_beta   90.00000000
_cell_angle_gamma   90.00000000
_symmetry_Int_Tables_number   1
_chemical_formula_structural   ThPa(GaRu)2
_chemical_formula_sum   'Th2 Pa2 Ga4 Ru4'
_cell_volume   233.33565578
_cell_formula_units_Z   2
loop_
 _symmetry_equiv_pos_site_id
 _symmetry_equiv_pos_as_xyz
  1  'x, y, z'
loop_
 _atom_site_type_symbol
 _atom_site_label
 _atom_site_symmetry_multiplicity
 _atom_site_fract_x
 _atom_site_fract_y
 _atom_site_fract_z
 _atom_site_occupancy
  Th  Th0  1  0.250000  0.956030  0.314379  1
  Th  Th1  1  0.250000  0.456030  0.185621  1
  Pa  Pa2  1  0.750000  0.044312  0.682735  1
  Pa  Pa3  1  0.750000  0.544312  0.817265  1
  Ga  Ga4  1  0.250000  0.370029  0.564541  1
  Ga  Ga5  1  0.250000  0.870029  0.935459  1
  Ga  Ga6  1  0.750000  0.633283  0.441204  1
  Ga  Ga7  1  0.750000  0.133283  0.058796  1
  Ru  Ru8  1  0.250000  0.257676  0.870811  1
  Ru  Ru9  1  0.250000  0.757676  0.629189  1
  Ru  Ru10  1  0.750000  0.738669  0.105874  1
  Ru  Ru11  1  0.750000  0.238669  0.394126  1
