# generated using pymatgen
data_Dy16MgAl3Pt4
_symmetry_space_group_name_H-M   'P 1'
_cell_length_a   9.62964383
_cell_length_b   9.62964466
_cell_length_c   9.62964500
_cell_angle_alpha   60.00069081
_cell_angle_beta   60.00068802
_cell_angle_gamma   60.00068955
_symmetry_Int_Tables_number   1
_chemical_formula_structural   Dy16MgAl3Pt4
_chemical_formula_sum   'Dy16 Mg1 Al3 Pt4'
_cell_volume   631.42613495
_cell_formula_units_Z   1
loop_
 _symmetry_equiv_pos_site_id
 _symmetry_equiv_pos_as_xyz
  1  'x, y, z'
loop_
 _atom_site_type_symbol
 _atom_site_label
 _atom_site_symmetry_multiplicity
 _atom_site_fract_x
 _atom_site_fract_y
 _atom_site_fract_z
 _atom_site_occupancy
  Dy  Dy0  1  0.352071  0.352071  0.352071  1
  Dy  Dy1  1  0.351650  0.351650  0.940647  1
  Dy  Dy2  1  0.351650  0.940647  0.351650  1
  Dy  Dy3  1  0.940647  0.351650  0.351650  1
  Dy  Dy4  1  0.807134  0.193736  0.193736  1
  Dy  Dy5  1  0.191938  0.809207  0.809207  1
  Dy  Dy6  1  0.193736  0.807134  0.193736  1
  Dy  Dy7  1  0.809207  0.191938  0.809207  1
  Dy  Dy8  1  0.193736  0.193736  0.807134  1
  Dy  Dy9  1  0.809207  0.809207  0.191938  1
  Dy  Dy10  1  0.939211  0.566131  0.566131  1
  Dy  Dy11  1  0.565833  0.935126  0.935126  1
  Dy  Dy12  1  0.566131  0.939211  0.566131  1
  Dy  Dy13  1  0.935126  0.565832  0.935126  1
  Dy  Dy14  1  0.566131  0.566131  0.939211  1
  Dy  Dy15  1  0.935126  0.935126  0.565832  1
  Mg  Mg16  1  0.575450  0.575450  0.575450  1
  Al  Al17  1  0.575234  0.575234  0.266078  1
  Al  Al18  1  0.575234  0.266078  0.575234  1
  Al  Al19  1  0.266078  0.575234  0.575234  1
  Pt  Pt20  1  0.143588  0.143588  0.143588  1
  Pt  Pt21  1  0.142495  0.142495  0.570892  1
  Pt  Pt22  1  0.142495  0.570892  0.142495  1
  Pt  Pt23  1  0.570892  0.142495  0.142495  1
