# generated using pymatgen
data_Gd7Tm13(SnSb)8
_symmetry_space_group_name_H-M   'P 1'
_cell_length_a   8.10819746
_cell_length_b   8.13812563
_cell_length_c   15.39996600
_cell_angle_alpha   89.85637539
_cell_angle_beta   90.09202579
_cell_angle_gamma   89.49446954
_symmetry_Int_Tables_number   1
_chemical_formula_structural   Gd7Tm13(SnSb)8
_chemical_formula_sum   'Gd7 Tm13 Sn8 Sb8'
_cell_volume   1016.13081806
_cell_formula_units_Z   1
loop_
 _symmetry_equiv_pos_site_id
 _symmetry_equiv_pos_as_xyz
  1  'x, y, z'
loop_
 _atom_site_type_symbol
 _atom_site_label
 _atom_site_symmetry_multiplicity
 _atom_site_fract_x
 _atom_site_fract_y
 _atom_site_fract_z
 _atom_site_occupancy
  Gd  Gd0  1  0.966363  0.822058  0.898172  1
  Gd  Gd1  1  0.533887  0.322380  0.101414  1
  Gd  Gd2  1  0.034808  0.175973  0.399184  1
  Gd  Gd3  1  0.535016  0.321956  0.398502  1
  Gd  Gd4  1  0.033207  0.178830  0.100486  1
  Gd  Gd5  1  0.465783  0.677539  0.898662  1
  Gd  Gd6  1  0.965789  0.823123  0.601099  1
  Tm  Tm7  1  0.627132  0.159148  0.622710  1
  Tm  Tm8  1  0.127957  0.342259  0.876292  1
  Tm  Tm9  1  0.373459  0.841329  0.123165  1
  Tm  Tm10  1  0.874812  0.658225  0.376952  1
  Tm  Tm11  1  0.374093  0.840691  0.377382  1
  Tm  Tm12  1  0.872778  0.658047  0.123307  1
  Tm  Tm13  1  0.627093  0.158815  0.875980  1
  Tm  Tm14  1  0.125953  0.341613  0.623289  1
  Tm  Tm15  1  0.461046  0.674687  0.604703  1
  Tm  Tm16  1  0.796198  0.500148  0.749793  1
  Tm  Tm17  1  0.295908  0.999713  0.749515  1
  Tm  Tm18  1  0.204508  0.499503  0.250665  1
  Tm  Tm19  1  0.704252  0.000302  0.250022  1
  Sn  Sn20  1  0.431798  0.375163  0.749131  1
  Sn  Sn21  1  0.931883  0.126062  0.749765  1
  Sn  Sn22  1  0.569004  0.625326  0.250303  1
  Sn  Sn23  1  0.068554  0.874087  0.249828  1
  Sn  Sn24  1  0.656036  0.852450  0.748467  1
  Sn  Sn25  1  0.158700  0.647002  0.749502  1
  Sn  Sn26  1  0.341089  0.146041  0.249694  1
  Sn  Sn27  1  0.842783  0.352944  0.250160  1
  Sb  Sb28  1  0.717051  0.966334  0.454925  1
  Sb  Sb29  1  0.216076  0.535487  0.044204  1
  Sb  Sb30  1  0.283608  0.034259  0.955180  1
  Sb  Sb31  1  0.778524  0.470294  0.545058  1
  Sb  Sb32  1  0.285235  0.031926  0.545135  1
  Sb  Sb33  1  0.784141  0.464488  0.955661  1
  Sb  Sb34  1  0.716620  0.966231  0.044114  1
  Sb  Sb35  1  0.218856  0.535570  0.457577  1
