# generated using pymatgen
data_Tm8Ti11Si16Pt
_symmetry_space_group_name_H-M   'P 1'
_cell_length_a   7.00425673
_cell_length_b   7.00425692
_cell_length_c   12.77753100
_cell_angle_alpha   90.16917879
_cell_angle_beta   89.83081925
_cell_angle_gamma   89.72360789
_symmetry_Int_Tables_number   1
_chemical_formula_structural   Tm8Ti11Si16Pt
_chemical_formula_sum   'Tm8 Ti11 Si16 Pt1'
_cell_volume   626.84794911
_cell_formula_units_Z   1
loop_
 _symmetry_equiv_pos_site_id
 _symmetry_equiv_pos_as_xyz
  1  'x, y, z'
loop_
 _atom_site_type_symbol
 _atom_site_label
 _atom_site_symmetry_multiplicity
 _atom_site_fract_x
 _atom_site_fract_y
 _atom_site_fract_z
 _atom_site_occupancy
  Tm  Tm0  1  0.340787  0.003291  0.467101  1
  Tm  Tm1  1  0.496683  0.842184  0.717881  1
  Tm  Tm2  1  0.501493  0.156763  0.214467  1
  Tm  Tm3  1  0.842184  0.496683  0.282119  1
  Tm  Tm4  1  0.156763  0.501493  0.785533  1
  Tm  Tm5  1  0.656102  0.999027  0.968727  1
  Tm  Tm6  1  0.003291  0.340787  0.532899  1
  Tm  Tm7  1  0.999027  0.656102  0.031273  1
  Ti  Ti8  1  0.175777  0.825824  0.248474  1
  Ti  Ti9  1  0.825824  0.175777  0.751526  1
  Ti  Ti10  1  0.673315  0.673315  0.500000  1
  Ti  Ti11  1  0.147815  0.003769  0.876509  1
  Ti  Ti12  1  0.495025  0.654295  0.123942  1
  Ti  Ti13  1  0.506196  0.351076  0.627333  1
  Ti  Ti14  1  0.654295  0.495025  0.876058  1
  Ti  Ti15  1  0.351076  0.506196  0.372667  1
  Ti  Ti16  1  0.850697  0.993859  0.374450  1
  Ti  Ti17  1  0.003769  0.147815  0.123491  1
  Ti  Ti18  1  0.993859  0.850697  0.625550  1
  Si  Si19  1  0.201826  0.134496  0.684804  1
  Si  Si20  1  0.371924  0.710265  0.931000  1
  Si  Si21  1  0.632279  0.294312  0.432750  1
  Si  Si22  1  0.710265  0.371924  0.069000  1
  Si  Si23  1  0.294312  0.632279  0.567250  1
  Si  Si24  1  0.797243  0.866108  0.182702  1
  Si  Si25  1  0.134496  0.201826  0.315196  1
  Si  Si26  1  0.866108  0.797243  0.817298  1
  Si  Si27  1  0.286301  0.944900  0.064476  1
  Si  Si28  1  0.547617  0.792363  0.315097  1
  Si  Si29  1  0.449628  0.209013  0.815595  1
  Si  Si30  1  0.792363  0.547617  0.684903  1
  Si  Si31  1  0.209013  0.449628  0.184405  1
  Si  Si32  1  0.707487  0.048088  0.565445  1
  Si  Si33  1  0.944900  0.286301  0.935524  1
  Si  Si34  1  0.048088  0.707487  0.434555  1
  Pt  Pt35  1  0.332175  0.332175  0.000000  1
