# generated using pymatgen
data_Dy2Lu10AlCo4Sn
_symmetry_space_group_name_H-M   'P 1'
_cell_length_a   8.17116476
_cell_length_b   8.12007551
_cell_length_c   8.12007592
_cell_angle_alpha   111.90078310
_cell_angle_beta   109.57776739
_cell_angle_gamma   106.73786012
_symmetry_Int_Tables_number   1
_chemical_formula_structural   Dy2Lu10AlCo4Sn
_chemical_formula_sum   'Dy2 Lu10 Al1 Co4 Sn1'
_cell_volume   415.11829153
_cell_formula_units_Z   1
loop_
 _symmetry_equiv_pos_site_id
 _symmetry_equiv_pos_as_xyz
  1  'x, y, z'
loop_
 _atom_site_type_symbol
 _atom_site_label
 _atom_site_symmetry_multiplicity
 _atom_site_fract_x
 _atom_site_fract_y
 _atom_site_fract_z
 _atom_site_occupancy
  Dy  Dy0  1  0.437799  0.234727  0.203071  1
  Dy  Dy1  1  0.562201  0.765273  0.796929  1
  Lu  Lu2  1  0.033477  0.237029  0.796450  1
  Lu  Lu3  1  0.966523  0.762971  0.203550  1
  Lu  Lu4  1  0.179524  0.280237  0.461440  1
  Lu  Lu5  1  0.820476  0.719763  0.538560  1
  Lu  Lu6  1  0.179524  0.718084  0.899286  1
  Lu  Lu7  1  0.820476  0.281916  0.100714  1
  Lu  Lu8  1  0.322328  0.637590  0.310373  1
  Lu  Lu9  1  0.677672  0.362410  0.689627  1
  Lu  Lu10  1  0.322328  0.011956  0.684738  1
  Lu  Lu11  1  0.677672  0.988044  0.315262  1
  Al  Al12  1  0.000000  0.000000  0.000000  1
  Co  Co13  1  0.335250  0.998312  0.336939  1
  Co  Co14  1  0.664750  0.001688  0.663061  1
  Co  Co15  1  0.110412  0.615739  0.494672  1
  Co  Co16  1  0.889588  0.384261  0.505328  1
  Sn  Sn17  1  0.500000  0.500000  0.000000  1
