# generated using pymatgen
data_Li4La4MgPd4
_symmetry_space_group_name_H-M   'P 1'
_cell_length_a   8.44356897
_cell_length_b   8.44357025
_cell_length_c   8.44356900
_cell_angle_alpha   93.74477116
_cell_angle_beta   93.74477173
_cell_angle_gamma   150.38617361
_symmetry_Int_Tables_number   1
_chemical_formula_structural   Li4La4MgPd4
_chemical_formula_sum   'Li4 La4 Mg1 Pd4'
_cell_volume   287.58871506
_cell_formula_units_Z   1
loop_
 _symmetry_equiv_pos_site_id
 _symmetry_equiv_pos_as_xyz
  1  'x, y, z'
loop_
 _atom_site_type_symbol
 _atom_site_label
 _atom_site_symmetry_multiplicity
 _atom_site_fract_x
 _atom_site_fract_y
 _atom_site_fract_z
 _atom_site_occupancy
  Li  Li0  1  0.594350  0.075197  0.669547  1
  Li  Li1  1  0.924803  0.594350  0.519153  1
  Li  Li2  1  0.075197  0.405650  0.480847  1
  Li  Li3  1  0.405650  0.924803  0.330453  1
  La  La4  1  0.117899  0.798527  0.916425  1
  La  La5  1  0.201473  0.117899  0.319371  1
  La  La6  1  0.882101  0.201473  0.083575  1
  La  La7  1  0.798527  0.882101  0.680629  1
  Mg  Mg8  1  0.500000  0.500000  0.000000  1
  Pd  Pd9  1  0.434053  0.248905  0.682957  1
  Pd  Pd10  1  0.565947  0.751095  0.317043  1
  Pd  Pd11  1  0.248905  0.565947  0.814852  1
  Pd  Pd12  1  0.751095  0.434053  0.185148  1
