# generated using pymatgen
data_Nd8Tm12Si15Tc
_symmetry_space_group_name_H-M   'P 1'
_cell_length_a   7.69431204
_cell_length_b   7.74088518
_cell_length_c   14.20234852
_cell_angle_alpha   89.77919358
_cell_angle_beta   90.00156603
_cell_angle_gamma   90.16467716
_symmetry_Int_Tables_number   1
_chemical_formula_structural   Nd8Tm12Si15Tc
_chemical_formula_sum   'Nd8 Tm12 Si15 Tc1'
_cell_volume   845.89326660
_cell_formula_units_Z   1
loop_
 _symmetry_equiv_pos_site_id
 _symmetry_equiv_pos_as_xyz
  1  'x, y, z'
loop_
 _atom_site_type_symbol
 _atom_site_label
 _atom_site_symmetry_multiplicity
 _atom_site_fract_x
 _atom_site_fract_y
 _atom_site_fract_z
 _atom_site_occupancy
  Nd  Nd0  1  0.634355  0.992881  0.461722  1
  Nd  Nd1  1  0.356566  0.007387  0.958915  1
  Nd  Nd2  1  0.995910  0.645687  0.539393  1
  Nd  Nd3  1  0.491912  0.857703  0.209278  1
  Nd  Nd4  1  0.504109  0.138599  0.705756  1
  Nd  Nd5  1  0.856028  0.490971  0.790506  1
  Nd  Nd6  1  0.143727  0.504957  0.290162  1
  Nd  Nd7  1  0.009008  0.355809  0.040041  1
  Tm  Tm8  1  0.491884  0.359372  0.122658  1
  Tm  Tm9  1  0.997850  0.137933  0.624465  1
  Tm  Tm10  1  0.859747  0.006680  0.875136  1
  Tm  Tm11  1  0.142592  0.988950  0.379118  1
  Tm  Tm12  1  0.502326  0.645014  0.621070  1
  Tm  Tm13  1  0.357923  0.493892  0.876903  1
  Tm  Tm14  1  0.639585  0.505012  0.374997  1
  Tm  Tm15  1  0.006557  0.862928  0.125947  1
  Tm  Tm16  1  0.318554  0.309884  0.502242  1
  Tm  Tm17  1  0.184994  0.825172  0.744913  1
  Tm  Tm18  1  0.820376  0.179750  0.252179  1
  Tm  Tm19  1  0.683255  0.681841  0.001085  1
  Si  Si20  1  0.709698  0.063353  0.062290  1
  Si  Si21  1  0.935158  0.294098  0.437602  1
  Si  Si22  1  0.436797  0.210429  0.309479  1
  Si  Si23  1  0.566416  0.788750  0.812923  1
  Si  Si24  1  0.210230  0.439780  0.691036  1
  Si  Si25  1  0.790246  0.563970  0.188209  1
  Si  Si26  1  0.061147  0.710706  0.938632  1
  Si  Si27  1  0.795479  0.847849  0.690608  1
  Si  Si28  1  0.206604  0.148524  0.187704  1
  Si  Si29  1  0.847691  0.793707  0.310857  1
  Si  Si30  1  0.351621  0.701015  0.435701  1
  Si  Si31  1  0.650773  0.296882  0.939770  1
  Si  Si32  1  0.708838  0.353458  0.561415  1
  Si  Si33  1  0.294530  0.651168  0.061569  1
  Si  Si34  1  0.147713  0.208479  0.814046  1
  Tc  Tc35  1  0.289800  0.937412  0.561672  1
