# generated using pymatgen
data_TiNbB2(MoC)2
_symmetry_space_group_name_H-M   'P 1'
_cell_length_a   8.91696133
_cell_length_b   8.91696178
_cell_length_c   3.13265000
_cell_angle_alpha   90.00000000
_cell_angle_beta   90.00000000
_cell_angle_gamma   159.71920905
_symmetry_Int_Tables_number   1
_chemical_formula_structural   TiNbB2(MoC)2
_chemical_formula_sum   'Ti1 Nb1 B2 Mo2 C2'
_cell_volume   86.33776030
_cell_formula_units_Z   1
loop_
 _symmetry_equiv_pos_site_id
 _symmetry_equiv_pos_as_xyz
  1  'x, y, z'
loop_
 _atom_site_type_symbol
 _atom_site_label
 _atom_site_symmetry_multiplicity
 _atom_site_fract_x
 _atom_site_fract_y
 _atom_site_fract_z
 _atom_site_occupancy
  Ti  Ti0  1  0.688641  0.311359  0.750000  1
  Nb  Nb1  1  0.310135  0.689866  0.250000  1
  B  B2  1  0.530319  0.469681  0.750000  1
  B  B3  1  0.471734  0.528266  0.250000  1
  Mo  Mo4  1  0.070402  0.929598  0.250000  1
  Mo  Mo5  1  0.930567  0.069433  0.750000  1
  C  C6  1  0.810019  0.189981  0.750000  1
  C  C7  1  0.188185  0.811815  0.250000  1
