# generated using pymatgen
data_Zn2CrRh3O8
_symmetry_space_group_name_H-M   'P 1'
_cell_length_a   6.02124583
_cell_length_b   6.02124596
_cell_length_c   6.02124586
_cell_angle_alpha   61.24829246
_cell_angle_beta   61.24829488
_cell_angle_gamma   61.24829020
_symmetry_Int_Tables_number   1
_chemical_formula_structural   Zn2CrRh3O8
_chemical_formula_sum   'Zn2 Cr1 Rh3 O8'
_cell_volume   158.69629199
_cell_formula_units_Z   1
loop_
 _symmetry_equiv_pos_site_id
 _symmetry_equiv_pos_as_xyz
  1  'x, y, z'
loop_
 _atom_site_type_symbol
 _atom_site_label
 _atom_site_symmetry_multiplicity
 _atom_site_fract_x
 _atom_site_fract_y
 _atom_site_fract_z
 _atom_site_occupancy
  Zn  Zn0  1  0.622547  0.622547  0.622547  1
  Zn  Zn1  1  0.377453  0.377453  0.377453  1
  Cr  Cr2  1  0.000000  0.000000  0.000000  1
  Rh  Rh3  1  0.000000  0.500000  0.000000  1
  Rh  Rh4  1  0.500000  0.000000  0.000000  1
  Rh  Rh5  1  0.000000  0.000000  0.500000  1
  O  O6  1  0.238922  0.238922  0.238922  1
  O  O7  1  0.236433  0.779897  0.236433  1
  O  O8  1  0.779897  0.236433  0.236433  1
  O  O9  1  0.236433  0.236433  0.779897  1
  O  O10  1  0.761078  0.761078  0.761078  1
  O  O11  1  0.763567  0.220103  0.763567  1
  O  O12  1  0.220103  0.763567  0.763567  1
  O  O13  1  0.763567  0.763567  0.220103  1
