# generated using pymatgen
data_PrGd4Er3(Si3Pd)4
_symmetry_space_group_name_H-M   'P 1'
_cell_length_a   8.16847100
_cell_length_b   8.16847177
_cell_length_c   8.15942700
_cell_angle_alpha   90.00000000
_cell_angle_beta   90.00000000
_cell_angle_gamma   120.00000092
_symmetry_Int_Tables_number   1
_chemical_formula_structural   PrGd4Er3(Si3Pd)4
_chemical_formula_sum   'Pr1 Gd4 Er3 Si12 Pd4'
_cell_volume   471.48933456
_cell_formula_units_Z   1
loop_
 _symmetry_equiv_pos_site_id
 _symmetry_equiv_pos_as_xyz
  1  'x, y, z'
loop_
 _atom_site_type_symbol
 _atom_site_label
 _atom_site_symmetry_multiplicity
 _atom_site_fract_x
 _atom_site_fract_y
 _atom_site_fract_z
 _atom_site_occupancy
  Pr  Pr0  1  0.000000  0.000000  0.250000  1
  Gd  Gd1  1  0.499959  0.500041  0.250000  1
  Gd  Gd2  1  0.000083  0.500041  0.250000  1
  Gd  Gd3  1  0.499959  0.999917  0.250000  1
  Gd  Gd4  1  0.000000  0.000000  0.750000  1
  Er  Er5  1  0.499676  0.500324  0.750000  1
  Er  Er6  1  0.000649  0.500324  0.750000  1
  Er  Er7  1  0.499676  0.999351  0.750000  1
  Si  Si8  1  0.834018  0.165982  0.994068  1
  Si  Si9  1  0.166001  0.833999  0.994325  1
  Si  Si10  1  0.331963  0.165982  0.994068  1
  Si  Si11  1  0.166001  0.833999  0.505675  1
  Si  Si12  1  0.667998  0.833999  0.994325  1
  Si  Si13  1  0.834018  0.165982  0.505932  1
  Si  Si14  1  0.834018  0.668037  0.994068  1
  Si  Si15  1  0.667998  0.833999  0.505675  1
  Si  Si16  1  0.166001  0.332002  0.994325  1
  Si  Si17  1  0.331963  0.165982  0.505932  1
  Si  Si18  1  0.166001  0.332002  0.505675  1
  Si  Si19  1  0.834018  0.668037  0.505932  1
  Pd  Pd20  1  0.666667  0.333333  0.993398  1
  Pd  Pd21  1  0.333333  0.666667  0.994534  1
  Pd  Pd22  1  0.333333  0.666667  0.505466  1
  Pd  Pd23  1  0.666667  0.333333  0.506602  1
