# generated using pymatgen
data_Dy16Tm4Ir5Pt7
_symmetry_space_group_name_H-M   'P 1'
_cell_length_a   11.01406652
_cell_length_b   11.01406600
_cell_length_c   6.30612801
_cell_angle_alpha   90.02421286
_cell_angle_beta   90.02421358
_cell_angle_gamma   90.22271476
_symmetry_Int_Tables_number   1
_chemical_formula_structural   Dy16Tm4Ir5Pt7
_chemical_formula_sum   'Dy16 Tm4 Ir5 Pt7'
_cell_volume   764.98830056
_cell_formula_units_Z   1
loop_
 _symmetry_equiv_pos_site_id
 _symmetry_equiv_pos_as_xyz
  1  'x, y, z'
loop_
 _atom_site_type_symbol
 _atom_site_label
 _atom_site_symmetry_multiplicity
 _atom_site_fract_x
 _atom_site_fract_y
 _atom_site_fract_z
 _atom_site_occupancy
  Dy  Dy0  1  0.294173  0.086407  0.373674  1
  Dy  Dy1  1  0.294356  0.908626  0.874303  1
  Dy  Dy2  1  0.705447  0.086831  0.873497  1
  Dy  Dy3  1  0.705408  0.912099  0.372920  1
  Dy  Dy4  1  0.583672  0.791648  0.872340  1
  Dy  Dy5  1  0.587324  0.206571  0.374671  1
  Dy  Dy6  1  0.410714  0.791344  0.378115  1
  Dy  Dy7  1  0.412217  0.204946  0.874481  1
  Dy  Dy8  1  0.208352  0.416328  0.627660  1
  Dy  Dy9  1  0.208656  0.589286  0.121885  1
  Dy  Dy10  1  0.793429  0.412676  0.125329  1
  Dy  Dy11  1  0.795054  0.587783  0.625519  1
  Dy  Dy12  1  0.913593  0.705827  0.126326  1
  Dy  Dy13  1  0.913169  0.294553  0.626503  1
  Dy  Dy14  1  0.091374  0.705644  0.625697  1
  Dy  Dy15  1  0.087901  0.294592  0.127080  1
  Tm  Tm16  1  0.999454  0.999897  0.500339  1
  Tm  Tm17  1  0.000103  0.000546  0.999661  1
  Tm  Tm18  1  0.497867  0.500655  0.999368  1
  Tm  Tm19  1  0.499345  0.502133  0.500632  1
  Ir  Ir20  1  0.348353  0.651647  0.750000  1
  Ir  Ir21  1  0.499978  0.999909  0.121445  1
  Ir  Ir22  1  0.499827  0.000126  0.620146  1
  Ir  Ir23  1  0.999874  0.500173  0.879854  1
  Ir  Ir24  1  0.000091  0.500022  0.378555  1
  Pt  Pt25  1  0.847776  0.152224  0.250000  1
  Pt  Pt26  1  0.846730  0.847928  0.750750  1
  Pt  Pt27  1  0.152072  0.153270  0.749250  1
  Pt  Pt28  1  0.151387  0.848613  0.250000  1
  Pt  Pt29  1  0.651879  0.348121  0.750000  1
  Pt  Pt30  1  0.653407  0.652981  0.249804  1
  Pt  Pt31  1  0.347019  0.346593  0.250196  1
