# generated using pymatgen
data_Sc4CoI4
_symmetry_space_group_name_H-M   'P 1'
_cell_length_a   15.41506900
_cell_length_b   15.41506900
_cell_length_c   5.44611300
_cell_angle_alpha   90.00000000
_cell_angle_beta   90.00000000
_cell_angle_gamma   90.00000000
_symmetry_Int_Tables_number   1
_chemical_formula_structural   Sc4CoI4
_chemical_formula_sum   'Sc16 Co4 I16'
_cell_volume   1294.12907404
_cell_formula_units_Z   4
loop_
 _symmetry_equiv_pos_site_id
 _symmetry_equiv_pos_as_xyz
  1  'x, y, z'
loop_
 _atom_site_type_symbol
 _atom_site_label
 _atom_site_symmetry_multiplicity
 _atom_site_fract_x
 _atom_site_fract_y
 _atom_site_fract_z
 _atom_site_occupancy
  Sc  Sc0  1  0.135211  0.056481  0.000377  1
  Sc  Sc1  1  0.556481  0.364789  0.000377  1
  Sc  Sc2  1  0.443519  0.635211  0.000377  1
  Sc  Sc3  1  0.864789  0.943520  0.000377  1
  Sc  Sc4  1  0.056481  0.135211  0.499624  1
  Sc  Sc5  1  0.635211  0.443519  0.499624  1
  Sc  Sc6  1  0.364789  0.556481  0.499624  1
  Sc  Sc7  1  0.943520  0.864789  0.499624  1
  Sc  Sc8  1  0.864789  0.056481  0.500376  1
  Sc  Sc9  1  0.443519  0.364789  0.500376  1
  Sc  Sc10  1  0.556481  0.635211  0.500376  1
  Sc  Sc11  1  0.135211  0.943520  0.500376  1
  Sc  Sc12  1  0.943520  0.135211  0.999623  1
  Sc  Sc13  1  0.364789  0.443519  0.999623  1
  Sc  Sc14  1  0.635211  0.556481  0.999623  1
  Sc  Sc15  1  0.056481  0.864789  0.999623  1
  Co  Co16  1  0.000000  0.000000  0.250000  1
  Co  Co17  1  0.500000  0.500000  0.250000  1
  Co  Co18  1  0.000000  0.000000  0.749999  1
  Co  Co19  1  0.500000  0.500000  0.749999  1
  I  I20  1  0.101142  0.247996  0.011690  1
  I  I21  1  0.747996  0.398858  0.011690  1
  I  I22  1  0.252005  0.601142  0.011690  1
  I  I23  1  0.898858  0.752005  0.011690  1
  I  I24  1  0.247996  0.101142  0.488309  1
  I  I25  1  0.601142  0.252005  0.488309  1
  I  I26  1  0.398858  0.747996  0.488309  1
  I  I27  1  0.752005  0.898858  0.488309  1
  I  I28  1  0.898858  0.247996  0.511691  1
  I  I29  1  0.252005  0.398858  0.511691  1
  I  I30  1  0.747996  0.601142  0.511691  1
  I  I31  1  0.101142  0.752005  0.511691  1
  I  I32  1  0.752005  0.101142  0.988310  1
  I  I33  1  0.398858  0.252005  0.988310  1
  I  I34  1  0.601142  0.747996  0.988310  1
  I  I35  1  0.247996  0.898858  0.988310  1
