# generated using pymatgen
data_LaAl10ReRh
_symmetry_space_group_name_H-M   'P 1'
_cell_length_a   6.93629954
_cell_length_b   6.93629912
_cell_length_c   9.25457458
_cell_angle_alpha   89.38027750
_cell_angle_beta   89.38028335
_cell_angle_gamma   96.90198489
_symmetry_Int_Tables_number   1
_chemical_formula_structural   LaAl10ReRh
_chemical_formula_sum   'La2 Al20 Re2 Rh2'
_cell_volume   441.97290572
_cell_formula_units_Z   2
loop_
 _symmetry_equiv_pos_site_id
 _symmetry_equiv_pos_as_xyz
  1  'x, y, z'
loop_
 _atom_site_type_symbol
 _atom_site_label
 _atom_site_symmetry_multiplicity
 _atom_site_fract_x
 _atom_site_fract_y
 _atom_site_fract_z
 _atom_site_occupancy
  La  La0  1  0.875676  0.124324  0.750000  1
  La  La1  1  0.124324  0.875676  0.250000  1
  Al  Al2  1  0.622268  0.381090  0.549297  1
  Al  Al3  1  0.377732  0.618910  0.450703  1
  Al  Al4  1  0.381090  0.622268  0.049297  1
  Al  Al5  1  0.618910  0.377732  0.950703  1
  Al  Al6  1  0.226073  0.225818  0.499635  1
  Al  Al7  1  0.773927  0.774182  0.500365  1
  Al  Al8  1  0.774182  0.773927  0.000365  1
  Al  Al9  1  0.225818  0.226073  0.999635  1
  Al  Al10  1  0.837802  0.159957  0.101859  1
  Al  Al11  1  0.162198  0.840043  0.898141  1
  Al  Al12  1  0.159957  0.837802  0.601859  1
  Al  Al13  1  0.840043  0.162198  0.398141  1
  Al  Al14  1  0.860762  0.593107  0.750429  1
  Al  Al15  1  0.139238  0.406893  0.249571  1
  Al  Al16  1  0.406893  0.139238  0.749571  1
  Al  Al17  1  0.593107  0.860762  0.250429  1
  Al  Al18  1  0.221977  0.480735  0.745113  1
  Al  Al19  1  0.778023  0.519265  0.254887  1
  Al  Al20  1  0.519265  0.778023  0.754887  1
  Al  Al21  1  0.480735  0.221977  0.245113  1
  Re  Re22  1  0.000000  0.500000  0.500000  1
  Re  Re23  1  0.500000  0.000000  0.000000  1
  Rh  Rh24  1  0.000000  0.500000  0.000000  1
  Rh  Rh25  1  0.500000  0.000000  0.500000  1
