# generated using pymatgen
data_Y5HoPtI10
_symmetry_space_group_name_H-M   'P 1'
_cell_length_a   7.73823075
_cell_length_b   9.74060587
_cell_length_c   9.77367462
_cell_angle_alpha   107.28405869
_cell_angle_beta   97.00609188
_cell_angle_gamma   104.71941377
_symmetry_Int_Tables_number   1
_chemical_formula_structural   Y5HoPtI10
_chemical_formula_sum   'Y5 Ho1 Pt1 I10'
_cell_volume   664.60522561
_cell_formula_units_Z   1
loop_
 _symmetry_equiv_pos_site_id
 _symmetry_equiv_pos_as_xyz
  1  'x, y, z'
loop_
 _atom_site_type_symbol
 _atom_site_label
 _atom_site_symmetry_multiplicity
 _atom_site_fract_x
 _atom_site_fract_y
 _atom_site_fract_z
 _atom_site_occupancy
  Y  Y0  1  0.114532  0.040059  0.757470  1
  Y  Y1  1  0.350472  0.126451  0.167100  1
  Y  Y2  1  0.649391  0.873463  0.833255  1
  Y  Y3  1  0.971453  0.288152  0.087457  1
  Y  Y4  1  0.028412  0.711865  0.913218  1
  Ho  Ho5  1  0.886219  0.960245  0.240390  1
  Pt  Pt6  1  0.999842  0.000013  0.000544  1
  I  I7  1  0.356739  0.454285  0.273134  1
  I  I8  1  0.643403  0.545724  0.726707  1
  I  I9  1  0.914019  0.628618  0.180797  1
  I  I10  1  0.085850  0.372718  0.820066  1
  I  I11  1  0.454451  0.817307  0.093290  1
  I  I12  1  0.546572  0.183261  0.907550  1
  I  I13  1  0.257974  0.087205  0.463301  1
  I  I14  1  0.740560  0.912239  0.535565  1
  I  I15  1  0.780774  0.258417  0.348686  1
  I  I16  1  0.219336  0.739977  0.651469  1
