# generated using pymatgen
data_Pr3YAs3Se
_symmetry_space_group_name_H-M   'P 1'
_cell_length_a   7.34374679
_cell_length_b   7.34374613
_cell_length_c   7.36110900
_cell_angle_alpha   80.37419016
_cell_angle_beta   80.37419895
_cell_angle_gamma   33.76011898
_symmetry_Int_Tables_number   1
_chemical_formula_structural   Pr3YAs3Se
_chemical_formula_sum   'Pr3 Y1 As3 Se1'
_cell_volume   217.21933780
_cell_formula_units_Z   1
loop_
 _symmetry_equiv_pos_site_id
 _symmetry_equiv_pos_as_xyz
  1  'x, y, z'
loop_
 _atom_site_type_symbol
 _atom_site_label
 _atom_site_symmetry_multiplicity
 _atom_site_fract_x
 _atom_site_fract_y
 _atom_site_fract_z
 _atom_site_occupancy
  Pr  Pr0  1  0.247274  0.247274  0.254740  1
  Pr  Pr1  1  0.500514  0.500514  0.494729  1
  Pr  Pr2  1  0.748120  0.748120  0.745588  1
  Y  Y3  1  0.004186  0.004186  0.004935  1
  As  As4  1  0.621347  0.621347  0.117928  1
  As  As5  1  0.876230  0.876230  0.367450  1
  As  As6  1  0.122588  0.122588  0.633898  1
  Se  Se7  1  0.379741  0.379741  0.880729  1
