# generated using pymatgen
data_Cs2VZn2Cr(PO3)12
_symmetry_space_group_name_H-M   'P 1'
_cell_length_a   6.43974117
_cell_length_b   15.98059344
_cell_length_c   8.57664500
_cell_angle_alpha   80.03133690
_cell_angle_beta   103.81831740
_cell_angle_gamma   88.95732819
_symmetry_Int_Tables_number   1
_chemical_formula_structural   Cs2VZn2Cr(PO3)12
_chemical_formula_sum   'Cs2 V1 Zn2 Cr1 P12 O36'
_cell_volume   842.50769616
_cell_formula_units_Z   1
loop_
 _symmetry_equiv_pos_site_id
 _symmetry_equiv_pos_as_xyz
  1  'x, y, z'
loop_
 _atom_site_type_symbol
 _atom_site_label
 _atom_site_symmetry_multiplicity
 _atom_site_fract_x
 _atom_site_fract_y
 _atom_site_fract_z
 _atom_site_occupancy
  Cs  Cs0  1  0.071537  0.474647  0.487757  1
  Cs  Cs1  1  0.572198  0.974693  0.988539  1
  V  V2  1  0.890878  0.111662  0.667721  1
  Zn  Zn3  1  0.617571  0.388264  0.838190  1
  Zn  Zn4  1  0.117869  0.888202  0.337901  1
  Cr  Cr5  1  0.388482  0.612311  0.164251  1
  P  P6  1  0.897057  0.204593  0.981500  1
  P  P7  1  0.396167  0.703944  0.478701  1
  P  P8  1  0.008720  0.092432  0.315861  1
  P  P9  1  0.507619  0.592731  0.815962  1
  P  P10  1  0.599503  0.296477  0.516793  1
  P  P11  1  0.101202  0.795349  0.017858  1
  P  P12  1  0.489083  0.409286  0.181776  1
  P  P13  1  0.989795  0.907330  0.682796  1
  P  P14  1  0.143399  0.357665  0.923432  1
  P  P15  1  0.643694  0.856938  0.423415  1
  P  P16  1  0.356775  0.142429  0.570780  1
  P  P17  1  0.856573  0.641813  0.071443  1
  O  O18  1  0.926013  0.174606  0.175632  1
  O  O19  1  0.425286  0.673818  0.673323  1
  O  O20  1  0.575147  0.327403  0.324623  1
  O  O21  1  0.077775  0.825329  0.825374  1
  O  O22  1  0.692362  0.258076  0.918612  1
  O  O23  1  0.191715  0.757722  0.417325  1
  O  O24  1  0.871231  0.091810  0.436259  1
  O  O25  1  0.368985  0.593539  0.935641  1
  O  O26  1  0.799525  0.237388  0.576686  1
  O  O27  1  0.302371  0.736772  0.080023  1
  O  O28  1  0.640098  0.415730  0.073480  1
  O  O29  1  0.140263  0.914880  0.574019  1
  O  O30  1  0.296859  0.362820  0.816547  1
  O  O31  1  0.797158  0.862657  0.316378  1
  O  O32  1  0.570012  0.093378  0.640814  1
  O  O33  1  0.071341  0.593230  0.142049  1
  O  O34  1  0.205111  0.133191  0.681086  1
  O  O35  1  0.703899  0.631258  0.181387  1
  O  O36  1  0.935988  0.409786  0.856694  1
  O  O37  1  0.436690  0.909433  0.357425  1
  O  O38  1  0.919962  0.127625  0.903763  1
  O  O39  1  0.420375  0.627289  0.400323  1
  O  O40  1  0.020573  0.016524  0.238519  1
  O  O41  1  0.518336  0.516225  0.740273  1
  O  O42  1  0.579698  0.372266  0.592710  1
  O  O43  1  0.081684  0.871742  0.092188  1
  O  O44  1  0.454496  0.485840  0.257845  1
  O  O45  1  0.952526  0.983507  0.758950  1
  O  O46  1  0.105983  0.257848  0.978830  1
  O  O47  1  0.605425  0.757212  0.477404  1
  O  O48  1  0.249654  0.116340  0.398646  1
  O  O49  1  0.749121  0.616494  0.898519  1
  O  O50  1  0.388823  0.241842  0.517922  1
  O  O51  1  0.889647  0.741268  0.020007  1
  O  O52  1  0.255659  0.380893  0.100251  1
  O  O53  1  0.756693  0.878900  0.601195  1
