# generated using pymatgen
data_Ta6Co15Si7Ru
_symmetry_space_group_name_H-M   'P 1'
_cell_length_a   7.95022896
_cell_length_b   7.95022864
_cell_length_c   7.95022856
_cell_angle_alpha   59.79238607
_cell_angle_beta   59.79238515
_cell_angle_gamma   59.79239235
_symmetry_Int_Tables_number   1
_chemical_formula_structural   Ta6Co15Si7Ru
_chemical_formula_sum   'Ta6 Co15 Si7 Ru1'
_cell_volume   353.64874186
_cell_formula_units_Z   1
loop_
 _symmetry_equiv_pos_site_id
 _symmetry_equiv_pos_as_xyz
  1  'x, y, z'
loop_
 _atom_site_type_symbol
 _atom_site_label
 _atom_site_symmetry_multiplicity
 _atom_site_fract_x
 _atom_site_fract_y
 _atom_site_fract_z
 _atom_site_occupancy
  Ta  Ta0  1  0.201268  0.797521  0.797521  1
  Ta  Ta1  1  0.200829  0.800624  0.200829  1
  Ta  Ta2  1  0.800624  0.200829  0.200829  1
  Ta  Ta3  1  0.797521  0.201268  0.797521  1
  Ta  Ta4  1  0.797521  0.797521  0.201268  1
  Ta  Ta5  1  0.200829  0.200829  0.800624  1
  Co  Co6  1  0.497967  0.834338  0.834338  1
  Co  Co7  1  0.621630  0.621630  0.142536  1
  Co  Co8  1  0.163228  0.163228  0.504448  1
  Co  Co9  1  0.834338  0.834338  0.497967  1
  Co  Co10  1  0.166961  0.166961  0.166961  1
  Co  Co11  1  0.834196  0.834196  0.834196  1
  Co  Co12  1  0.380807  0.380807  0.856384  1
  Co  Co13  1  0.834338  0.497967  0.834338  1
  Co  Co14  1  0.619407  0.619407  0.619407  1
  Co  Co15  1  0.380807  0.856384  0.380807  1
  Co  Co16  1  0.142536  0.621630  0.621630  1
  Co  Co17  1  0.621630  0.142536  0.621630  1
  Co  Co18  1  0.163228  0.504448  0.163228  1
  Co  Co19  1  0.856384  0.380807  0.380807  1
  Co  Co20  1  0.504448  0.163228  0.163228  1
  Si  Si21  1  0.999378  0.999378  0.499167  1
  Si  Si22  1  0.500740  0.994193  0.500740  1
  Si  Si23  1  0.503878  0.503878  0.503878  1
  Si  Si24  1  0.999378  0.499167  0.999378  1
  Si  Si25  1  0.500740  0.500740  0.994193  1
  Si  Si26  1  0.499167  0.999378  0.999378  1
  Si  Si27  1  0.994193  0.500740  0.500740  1
  Ru  Ru28  1  0.382024  0.382024  0.382024  1
