# generated using pymatgen
data_PrY3(Ga8Pd3)3
_symmetry_space_group_name_H-M   'P 1'
_cell_length_a   7.56120364
_cell_length_b   7.60908498
_cell_length_c   13.44207300
_cell_angle_alpha   84.95155049
_cell_angle_beta   100.36881494
_cell_angle_gamma   119.73831543
_symmetry_Int_Tables_number   1
_chemical_formula_structural   PrY3(Ga8Pd3)3
_chemical_formula_sum   'Pr1 Y3 Ga24 Pd9'
_cell_volume   660.55375861
_cell_formula_units_Z   1
loop_
 _symmetry_equiv_pos_site_id
 _symmetry_equiv_pos_as_xyz
  1  'x, y, z'
loop_
 _atom_site_type_symbol
 _atom_site_label
 _atom_site_symmetry_multiplicity
 _atom_site_fract_x
 _atom_site_fract_y
 _atom_site_fract_z
 _atom_site_occupancy
  Pr  Pr0  1  0.437911  0.831472  0.811002  1
  Y  Y1  1  0.562793  0.168628  0.190019  1
  Y  Y2  1  0.770964  0.503064  0.810803  1
  Y  Y3  1  0.229325  0.497067  0.189983  1
  Ga  Ga4  1  0.480418  0.169284  0.942140  1
  Ga  Ga5  1  0.520388  0.833477  0.062555  1
  Ga  Ga6  1  0.021382  0.165439  0.557847  1
  Ga  Ga7  1  0.978249  0.834494  0.440977  1
  Ga  Ga8  1  0.354067  0.832903  0.555052  1
  Ga  Ga9  1  0.645962  0.167774  0.443078  1
  Ga  Ga10  1  0.613853  0.834902  0.325635  1
  Ga  Ga11  1  0.384902  0.167562  0.671612  1
  Ga  Ga12  1  0.056315  0.493445  0.670705  1
  Ga  Ga13  1  0.940273  0.503890  0.326282  1
  Ga  Ga14  1  0.732199  0.837774  0.669080  1
  Ga  Ga15  1  0.269724  0.162668  0.327369  1
  Ga  Ga16  1  0.143054  0.497641  0.942919  1
  Ga  Ga17  1  0.854646  0.498783  0.059807  1
  Ga  Ga18  1  0.817219  0.832311  0.948718  1
  Ga  Ga19  1  0.187061  0.168232  0.055204  1
  Ga  Ga20  1  0.312434  0.499731  0.442252  1
  Ga  Ga21  1  0.687522  0.500031  0.556981  1
  Ga  Ga22  1  0.101441  0.835963  0.182409  1
  Ga  Ga23  1  0.901721  0.167796  0.817677  1
  Ga  Ga24  1  0.309076  0.366244  0.816761  1
  Ga  Ga25  1  0.692021  0.630232  0.183597  1
  Ga  Ga26  1  0.098758  0.959328  0.816865  1
  Ga  Ga27  1  0.897188  0.039640  0.183631  1
  Pd  Pd28  1  0.385697  0.503469  0.637178  1
  Pd  Pd29  1  0.613502  0.497088  0.361495  1
  Pd  Pd30  1  0.172082  0.830510  0.000117  1
  Pd  Pd31  1  0.828376  0.168434  0.002024  1
  Pd  Pd32  1  0.290025  0.833010  0.360296  1
  Pd  Pd33  1  0.708925  0.166555  0.638090  1
  Pd  Pd34  1  0.050444  0.828852  0.636927  1
  Pd  Pd35  1  0.950404  0.171411  0.361825  1
  Pd  Pd36  1  0.499678  0.500895  0.001088  1
