# generated using pymatgen
data_La7PaZn8(IrRh)4
_symmetry_space_group_name_H-M   'P 1'
_cell_length_a   3.99658100
_cell_length_b   7.53562018
_cell_length_c   16.69157161
_cell_angle_alpha   89.97193982
_cell_angle_beta   90.00000000
_cell_angle_gamma   90.00000000
_symmetry_Int_Tables_number   1
_chemical_formula_structural   La7PaZn8(IrRh)4
_chemical_formula_sum   'La7 Pa1 Zn8 Ir4 Rh4'
_cell_volume   502.69526885
_cell_formula_units_Z   1
loop_
 _symmetry_equiv_pos_site_id
 _symmetry_equiv_pos_as_xyz
  1  'x, y, z'
loop_
 _atom_site_type_symbol
 _atom_site_label
 _atom_site_symmetry_multiplicity
 _atom_site_fract_x
 _atom_site_fract_y
 _atom_site_fract_z
 _atom_site_occupancy
  La  La0  1  0.250000  0.053111  0.715820  1
  La  La1  1  0.250000  0.549224  0.783498  1
  La  La2  1  0.250000  0.673242  0.560539  1
  La  La3  1  0.750000  0.826075  0.059057  1
  La  La4  1  0.250000  0.173177  0.939817  1
  La  La5  1  0.750000  0.449674  0.217323  1
  La  La6  1  0.750000  0.945252  0.284925  1
  Pa  Pa7  1  0.750000  0.325178  0.441016  1
  Zn  Zn8  1  0.250000  0.120480  0.149992  1
  Zn  Zn9  1  0.250000  0.989556  0.439185  1
  Zn  Zn10  1  0.750000  0.877014  0.849899  1
  Zn  Zn11  1  0.750000  0.001949  0.556483  1
  Zn  Zn12  1  0.250000  0.498854  0.059115  1
  Zn  Zn13  1  0.750000  0.376454  0.647719  1
  Zn  Zn14  1  0.750000  0.502378  0.940789  1
  Zn  Zn15  1  0.250000  0.616168  0.350190  1
  Ir  Ir16  1  0.750000  0.254495  0.812503  1
  Ir  Ir17  1  0.250000  0.257638  0.330804  1
  Ir  Ir18  1  0.250000  0.741941  0.934570  1
  Ir  Ir19  1  0.250000  0.255778  0.552057  1
  Rh  Rh20  1  0.250000  0.750985  0.186320  1
  Rh  Rh21  1  0.750000  0.740442  0.435705  1
  Rh  Rh22  1  0.750000  0.261376  0.067866  1
  Rh  Rh23  1  0.750000  0.759557  0.684809  1
