# generated using pymatgen
data_SrCd3(Rh2O7)2
_symmetry_space_group_name_H-M   'P 1'
_cell_length_a   7.25648048
_cell_length_b   7.30669919
_cell_length_c   7.25648000
_cell_angle_alpha   60.22708985
_cell_angle_beta   59.99999307
_cell_angle_gamma   60.22709475
_symmetry_Int_Tables_number   1
_chemical_formula_structural   SrCd3(Rh2O7)2
_chemical_formula_sum   'Sr1 Cd3 Rh4 O14'
_cell_volume   272.98605342
_cell_formula_units_Z   1
loop_
 _symmetry_equiv_pos_site_id
 _symmetry_equiv_pos_as_xyz
  1  'x, y, z'
loop_
 _atom_site_type_symbol
 _atom_site_label
 _atom_site_symmetry_multiplicity
 _atom_site_fract_x
 _atom_site_fract_y
 _atom_site_fract_z
 _atom_site_occupancy
  Sr  Sr0  1  0.125000  0.625000  0.125000  1
  Cd  Cd1  1  0.125000  0.125000  0.125000  1
  Cd  Cd2  1  0.625000  0.125000  0.125000  1
  Cd  Cd3  1  0.125000  0.125000  0.625000  1
  Rh  Rh4  1  0.625000  0.625000  0.125000  1
  Rh  Rh5  1  0.625000  0.625000  0.625000  1
  Rh  Rh6  1  0.625000  0.125000  0.625000  1
  Rh  Rh7  1  0.125000  0.625000  0.625000  1
  O  O8  1  0.697798  0.301826  0.302578  1
  O  O9  1  0.697798  0.301826  0.697798  1
  O  O10  1  0.987812  0.036562  0.987812  1
  O  O11  1  0.299941  0.704527  0.299941  1
  O  O12  1  0.695591  0.704527  0.299941  1
  O  O13  1  0.950059  0.545473  0.554409  1
  O  O14  1  0.299941  0.704527  0.695591  1
  O  O15  1  0.262188  0.213438  0.262188  1
  O  O16  1  0.950059  0.545473  0.950059  1
  O  O17  1  0.552202  0.948174  0.552202  1
  O  O18  1  0.554409  0.545473  0.950059  1
  O  O19  1  0.947422  0.948174  0.552202  1
  O  O20  1  0.552202  0.948174  0.947422  1
  O  O21  1  0.302578  0.301826  0.697798  1
