# generated using pymatgen
data_DyY7Tl3Rh
_symmetry_space_group_name_H-M   'P 1'
_cell_length_a   10.48138300
_cell_length_b   10.48138243
_cell_length_c   7.06408400
_cell_angle_alpha   90.00000000
_cell_angle_beta   90.00000000
_cell_angle_gamma   120.00000495
_symmetry_Int_Tables_number   1
_chemical_formula_structural   DyY7Tl3Rh
_chemical_formula_sum   'Dy2 Y14 Tl6 Rh2'
_cell_volume   672.08410294
_cell_formula_units_Z   2
loop_
 _symmetry_equiv_pos_site_id
 _symmetry_equiv_pos_as_xyz
  1  'x, y, z'
loop_
 _atom_site_type_symbol
 _atom_site_label
 _atom_site_symmetry_multiplicity
 _atom_site_fract_x
 _atom_site_fract_y
 _atom_site_fract_z
 _atom_site_occupancy
  Dy  Dy0  1  0.000000  0.000000  0.499602  1
  Dy  Dy1  1  0.000000  0.000000  0.999602  1
  Y  Y2  1  0.533598  0.067195  0.515540  1
  Y  Y3  1  0.932805  0.466402  0.515540  1
  Y  Y4  1  0.533598  0.466402  0.515540  1
  Y  Y5  1  0.466402  0.932805  0.015540  1
  Y  Y6  1  0.067195  0.533598  0.015540  1
  Y  Y7  1  0.466402  0.533598  0.015540  1
  Y  Y8  1  0.175406  0.350813  0.720070  1
  Y  Y9  1  0.649187  0.824594  0.720070  1
  Y  Y10  1  0.175406  0.824594  0.720070  1
  Y  Y11  1  0.824594  0.649187  0.220070  1
  Y  Y12  1  0.350813  0.175406  0.220070  1
  Y  Y13  1  0.824594  0.175406  0.220070  1
  Y  Y14  1  0.666667  0.333333  0.894575  1
  Y  Y15  1  0.333333  0.666667  0.394575  1
  Tl  Tl16  1  0.836762  0.673523  0.761100  1
  Tl  Tl17  1  0.326477  0.163238  0.761100  1
  Tl  Tl18  1  0.836762  0.163238  0.761100  1
  Tl  Tl19  1  0.163238  0.326477  0.261100  1
  Tl  Tl20  1  0.673523  0.836762  0.261100  1
  Tl  Tl21  1  0.163238  0.836762  0.261100  1
  Rh  Rh22  1  0.666667  0.333333  0.287797  1
  Rh  Rh23  1  0.333333  0.666667  0.787797  1
