# generated using pymatgen
data_Y4HoCo16(P4Ru)3
_symmetry_space_group_name_H-M   'P 1'
_cell_length_a   12.04919100
_cell_length_b   12.04916303
_cell_length_c   3.71909700
_cell_angle_alpha   90.00000000
_cell_angle_beta   90.00000000
_cell_angle_gamma   119.99992182
_symmetry_Int_Tables_number   1
_chemical_formula_structural   Y4HoCo16(P4Ru)3
_chemical_formula_sum   'Y4 Ho1 Co16 P12 Ru3'
_cell_volume   467.60941716
_cell_formula_units_Z   1
loop_
 _symmetry_equiv_pos_site_id
 _symmetry_equiv_pos_as_xyz
  1  'x, y, z'
loop_
 _atom_site_type_symbol
 _atom_site_label
 _atom_site_symmetry_multiplicity
 _atom_site_fract_x
 _atom_site_fract_y
 _atom_site_fract_z
 _atom_site_occupancy
  Y  Y0  1  0.666564  0.333184  0.000000  1
  Y  Y1  1  0.333436  0.666621  0.000000  1
  Y  Y2  1  0.814897  0.815026  0.500000  1
  Y  Y3  1  0.185103  0.000129  0.500000  1
  Ho  Ho4  1  0.000000  0.184992  0.500000  1
  Co  Co5  1  0.874460  0.357918  0.500000  1
  Co  Co6  1  0.641664  0.516108  0.500000  1
  Co  Co7  1  0.483741  0.125575  0.500000  1
  Co  Co8  1  0.358336  0.874444  0.500000  1
  Co  Co9  1  0.516259  0.641833  0.500000  1
  Co  Co10  1  0.125540  0.483458  0.500000  1
  Co  Co11  1  0.804368  0.180139  0.000000  1
  Co  Co12  1  0.819971  0.623657  0.000000  1
  Co  Co13  1  0.376036  0.196293  0.000000  1
  Co  Co14  1  0.180029  0.803688  0.000000  1
  Co  Co15  1  0.623964  0.820259  0.000000  1
  Co  Co16  1  0.195632  0.375773  0.000000  1
  Co  Co17  1  0.282543  0.282956  0.500000  1
  Co  Co18  1  0.717457  0.000413  0.500000  1
  Co  Co19  1  0.000000  0.716917  0.500000  1
  Co  Co20  1  0.000000  0.000456  0.000000  1
  P  P21  1  0.687524  0.165880  0.500000  1
  P  P22  1  0.834136  0.521558  0.500000  1
  P  P23  1  0.478083  0.312363  0.500000  1
  P  P24  1  0.165864  0.687422  0.500000  1
  P  P25  1  0.521917  0.834280  0.500000  1
  P  P26  1  0.312476  0.478356  0.500000  1
  P  P27  1  0.179870  0.180565  0.000000  1
  P  P28  1  0.820130  0.000695  0.000000  1
  P  P29  1  0.000000  0.819649  0.000000  1
  P  P30  1  0.635842  0.635840  0.000000  1
  P  P31  1  0.364158  0.999998  0.000000  1
  P  P32  1  0.000000  0.363513  0.000000  1
  Ru  Ru33  1  0.445560  0.445850  0.000000  1
  Ru  Ru34  1  0.554440  0.000290  0.000000  1
  Ru  Ru35  1  0.000000  0.553905  0.000000  1
