# generated using pymatgen
data_Pt2SeF18
_symmetry_space_group_name_H-M   'P 1'
_cell_length_a   8.91168400
_cell_length_b   8.91168336
_cell_length_c   5.05387800
_cell_angle_alpha   90.00000000
_cell_angle_beta   90.00000000
_cell_angle_gamma   120.00000236
_symmetry_Int_Tables_number   1
_chemical_formula_structural   Pt2SeF18
_chemical_formula_sum   'Pt2 Se1 F18'
_cell_volume   347.59610485
_cell_formula_units_Z   1
loop_
 _symmetry_equiv_pos_site_id
 _symmetry_equiv_pos_as_xyz
  1  'x, y, z'
loop_
 _atom_site_type_symbol
 _atom_site_label
 _atom_site_symmetry_multiplicity
 _atom_site_fract_x
 _atom_site_fract_y
 _atom_site_fract_z
 _atom_site_occupancy
  Pt  Pt0  1  0.666667  0.333333  0.448445  1
  Pt  Pt1  1  0.333333  0.666667  0.551555  1
  Se  Se2  1  0.000000  0.000000  0.000000  1
  F  F3  1  0.233147  0.766853  0.334492  1
  F  F4  1  0.233147  0.466295  0.334492  1
  F  F5  1  0.533705  0.766853  0.334492  1
  F  F6  1  0.091842  0.908158  0.800805  1
  F  F7  1  0.091842  0.183684  0.800805  1
  F  F8  1  0.816316  0.908158  0.800805  1
  F  F9  1  0.183684  0.091842  0.199195  1
  F  F10  1  0.908158  0.816316  0.199195  1
  F  F11  1  0.908158  0.091842  0.199195  1
  F  F12  1  0.433702  0.566298  0.768803  1
  F  F13  1  0.433702  0.867404  0.768803  1
  F  F14  1  0.132596  0.566298  0.768803  1
  F  F15  1  0.867404  0.433702  0.231197  1
  F  F16  1  0.566298  0.132596  0.231197  1
  F  F17  1  0.566298  0.433702  0.231197  1
  F  F18  1  0.766853  0.233147  0.665508  1
  F  F19  1  0.766853  0.533705  0.665508  1
  F  F20  1  0.466295  0.233147  0.665508  1
