# generated using pymatgen
data_AlP6(WO8)3
_symmetry_space_group_name_H-M   'P 1'
_cell_length_a   8.66368715
_cell_length_b   8.65088823
_cell_length_c   8.89696553
_cell_angle_alpha   89.66332403
_cell_angle_beta   61.23554151
_cell_angle_gamma   119.84866350
_symmetry_Int_Tables_number   1
_chemical_formula_structural   AlP6(WO8)3
_chemical_formula_sum   'Al1 P6 W3 O24'
_cell_volume   479.86210450
_cell_formula_units_Z   1
loop_
 _symmetry_equiv_pos_site_id
 _symmetry_equiv_pos_as_xyz
  1  'x, y, z'
loop_
 _atom_site_type_symbol
 _atom_site_label
 _atom_site_symmetry_multiplicity
 _atom_site_fract_x
 _atom_site_fract_y
 _atom_site_fract_z
 _atom_site_occupancy
  Al  Al0  1  0.786444  0.142053  0.071247  1
  P  P1  1  0.300069  0.034080  0.247640  1
  P  P2  1  0.717519  0.762282  0.242325  1
  P  P3  1  0.273624  0.252406  0.759947  1
  P  P4  1  0.717330  0.967985  0.757579  1
  P  P5  1  0.996354  0.525991  0.756467  1
  P  P6  1  0.986739  0.451999  0.250946  1
  W  W7  1  0.787718  0.643192  0.568391  1
  W  W8  1  0.211868  0.354431  0.427144  1
  W  W9  1  0.214293  0.858756  0.928127  1
  O  O10  1  0.501300  0.071651  0.220228  1
  O  O11  1  0.856216  0.357954  0.920731  1
  O  O12  1  0.903132  0.137828  0.579198  1
  O  O13  1  0.854705  0.559589  0.718883  1
  O  O14  1  0.126810  0.636930  0.087850  1
  O  O15  1  0.100155  0.858805  0.414289  1
  O  O16  1  0.155615  0.448379  0.266513  1
  O  O17  1  0.152908  0.710521  0.767499  1
  O  O18  1  0.141518  0.501318  0.580962  1
  O  O19  1  0.281901  0.204648  0.284584  1
  O  O20  1  0.286695  0.012902  0.081721  1
  O  O21  1  0.712444  0.931663  0.225871  1
  O  O22  1  0.515087  0.581579  0.275654  1
  O  O23  1  0.279449  0.270191  0.584715  1
  O  O24  1  0.841948  0.476025  0.424438  1
  O  O25  1  0.077657  0.220185  0.925014  1
  O  O26  1  0.908368  0.779712  0.072426  1
  O  O27  1  0.511448  0.926416  0.776811  1
  O  O28  1  0.732099  0.728998  0.409374  1
  O  O29  1  0.477339  0.430554  0.729911  1
  O  O30  1  0.292257  0.082740  0.780790  1
  O  O31  1  0.724566  0.001360  0.920338  1
  O  O32  1  0.720829  0.793381  0.725950  1
  O  O33  1  0.853601  0.283495  0.216438  1
