# generated using pymatgen
data_Y20Tl3Cd(InRu)2
_symmetry_space_group_name_H-M   'P 1'
_cell_length_a   9.80021497
_cell_length_b   9.87244527
_cell_length_c   9.68101100
_cell_angle_alpha   90.00000000
_cell_angle_beta   90.00000000
_cell_angle_gamma   120.29266757
_symmetry_Int_Tables_number   1
_chemical_formula_structural   Y20Tl3Cd(InRu)2
_chemical_formula_sum   'Y20 Tl3 Cd1 In2 Ru2'
_cell_volume   808.76682731
_cell_formula_units_Z   1
loop_
 _symmetry_equiv_pos_site_id
 _symmetry_equiv_pos_as_xyz
  1  'x, y, z'
loop_
 _atom_site_type_symbol
 _atom_site_label
 _atom_site_symmetry_multiplicity
 _atom_site_fract_x
 _atom_site_fract_y
 _atom_site_fract_z
 _atom_site_occupancy
  Y  Y0  1  0.996131  0.998020  0.500521  1
  Y  Y1  1  0.996131  0.998020  0.999479  1
  Y  Y2  1  0.212357  0.790245  0.439860  1
  Y  Y3  1  0.211979  0.420767  0.440356  1
  Y  Y4  1  0.577854  0.788795  0.438203  1
  Y  Y5  1  0.790068  0.212569  0.560697  1
  Y  Y6  1  0.788496  0.577660  0.560769  1
  Y  Y7  1  0.419804  0.210000  0.561271  1
  Y  Y8  1  0.790068  0.212569  0.939303  1
  Y  Y9  1  0.788496  0.577660  0.939231  1
  Y  Y10  1  0.419804  0.210000  0.938729  1
  Y  Y11  1  0.212357  0.790245  0.060140  1
  Y  Y12  1  0.211979  0.420767  0.059644  1
  Y  Y13  1  0.577854  0.788795  0.061797  1
  Y  Y14  1  0.542153  0.458281  0.250000  1
  Y  Y15  1  0.542919  0.080829  0.250000  1
  Y  Y16  1  0.924492  0.459967  0.250000  1
  Y  Y17  1  0.461095  0.542772  0.750000  1
  Y  Y18  1  0.460627  0.919298  0.750000  1
  Y  Y19  1  0.082895  0.544251  0.750000  1
  Tl  Tl20  1  0.883772  0.122115  0.250000  1
  Tl  Tl21  1  0.883727  0.759320  0.250000  1
  Tl  Tl22  1  0.115422  0.880148  0.750000  1
  Cd  Cd23  1  0.763634  0.883672  0.750000  1
  In  In24  1  0.236491  0.117465  0.250000  1
  In  In25  1  0.113059  0.237528  0.750000  1
  Ru  Ru26  1  0.328770  0.664374  0.250000  1
  Ru  Ru27  1  0.667565  0.333870  0.750000  1
