# generated using pymatgen
data_Ba7Li2Mn3Cr2O20
_symmetry_space_group_name_H-M   'P 1'
_cell_length_a   5.83354138
_cell_length_b   5.83354266
_cell_length_c   18.06247347
_cell_angle_alpha   80.70705856
_cell_angle_beta   99.29294479
_cell_angle_gamma   119.99998557
_symmetry_Int_Tables_number   1
_chemical_formula_structural   Ba7Li2Mn3Cr2O20
_chemical_formula_sum   'Ba7 Li2 Mn3 Cr2 O20'
_cell_volume   522.98384725
_cell_formula_units_Z   1
loop_
 _symmetry_equiv_pos_site_id
 _symmetry_equiv_pos_as_xyz
  1  'x, y, z'
loop_
 _atom_site_type_symbol
 _atom_site_label
 _atom_site_symmetry_multiplicity
 _atom_site_fract_x
 _atom_site_fract_y
 _atom_site_fract_z
 _atom_site_occupancy
  Ba  Ba0  1  0.000000  0.000000  0.000000  1
  Ba  Ba1  1  0.392342  0.607660  0.177025  1
  Ba  Ba2  1  0.773461  0.226538  0.320386  1
  Ba  Ba3  1  0.146746  0.853254  0.440239  1
  Ba  Ba4  1  0.853253  0.146746  0.559761  1
  Ba  Ba5  1  0.226538  0.773462  0.679614  1
  Ba  Ba6  1  0.607659  0.392343  0.822975  1
  Li  Li7  1  0.088725  0.911275  0.266176  1
  Li  Li8  1  0.911274  0.088725  0.733824  1
  Mn  Mn9  1  0.451161  0.548841  0.353483  1
  Mn  Mn10  1  0.500000  0.500001  0.500000  1
  Mn  Mn11  1  0.548840  0.451162  0.646517  1
  Cr  Cr12  1  0.695223  0.304775  0.085673  1
  Cr  Cr13  1  0.304776  0.695225  0.914327  1
  O  O14  1  0.336047  0.663955  0.008139  1
  O  O15  1  0.861131  0.138870  0.118187  1
  O  O16  1  0.395927  0.138869  0.118187  1
  O  O17  1  0.861130  0.604073  0.118187  1
  O  O18  1  0.275319  0.256945  0.293883  1
  O  O19  1  0.743056  0.724491  0.293883  1
  O  O20  1  0.275510  0.724682  0.293883  1
  O  O21  1  0.624729  0.375152  0.430715  1
  O  O22  1  0.181137  0.375270  0.430715  1
  O  O23  1  0.624847  0.818860  0.430715  1
  O  O24  1  0.375152  0.181138  0.569284  1
  O  O25  1  0.818862  0.624729  0.569284  1
  O  O26  1  0.375269  0.624848  0.569284  1
  O  O27  1  0.724491  0.275319  0.706117  1
  O  O28  1  0.256943  0.275509  0.706117  1
  O  O29  1  0.724682  0.743056  0.706117  1
  O  O30  1  0.138870  0.395927  0.881814  1
  O  O31  1  0.604074  0.861131  0.881814  1
  O  O32  1  0.138868  0.861130  0.881814  1
  O  O33  1  0.663954  0.336047  0.991861  1
