# generated using pymatgen
data_Zn8Pd3PtO16
_symmetry_space_group_name_H-M   'P 1'
_cell_length_a   6.12661400
_cell_length_b   6.14080208
_cell_length_c   8.58711228
_cell_angle_alpha   90.29831313
_cell_angle_beta   90.00000000
_cell_angle_gamma   90.00000000
_symmetry_Int_Tables_number   1
_chemical_formula_structural   Zn8Pd3PtO16
_chemical_formula_sum   'Zn8 Pd3 Pt1 O16'
_cell_volume   323.06274133
_cell_formula_units_Z   1
loop_
 _symmetry_equiv_pos_site_id
 _symmetry_equiv_pos_as_xyz
  1  'x, y, z'
loop_
 _atom_site_type_symbol
 _atom_site_label
 _atom_site_symmetry_multiplicity
 _atom_site_fract_x
 _atom_site_fract_y
 _atom_site_fract_z
 _atom_site_occupancy
  Zn  Zn0  1  0.000415  0.234164  0.001057  1
  Zn  Zn1  1  0.000415  0.765836  0.498943  1
  Zn  Zn2  1  0.251867  0.252058  0.624171  1
  Zn  Zn3  1  0.251867  0.747942  0.875829  1
  Zn  Zn4  1  0.234425  0.000000  0.250000  1
  Zn  Zn5  1  0.766067  0.000000  0.750000  1
  Zn  Zn6  1  0.747837  0.250317  0.374723  1
  Zn  Zn7  1  0.747837  0.749683  0.125277  1
  Pd  Pd8  1  0.247514  0.500000  0.250000  1
  Pd  Pd9  1  0.499662  0.752117  0.499309  1
  Pd  Pd10  1  0.499662  0.247883  0.000691  1
  Pt  Pt11  1  0.751842  0.500000  0.750000  1
  O  O12  1  0.521538  0.743938  0.736891  1
  O  O13  1  0.521538  0.256062  0.763109  1
  O  O14  1  0.739005  0.981809  0.504426  1
  O  O15  1  0.739005  0.018191  0.995574  1
  O  O16  1  0.744426  0.521431  0.512552  1
  O  O17  1  0.744426  0.478569  0.987448  1
  O  O18  1  0.981840  0.738825  0.744714  1
  O  O19  1  0.981840  0.261175  0.755286  1
  O  O20  1  0.018297  0.739009  0.254258  1
  O  O21  1  0.018297  0.260991  0.245742  1
  O  O22  1  0.255704  0.520595  0.487301  1
  O  O23  1  0.255704  0.479405  0.012699  1
  O  O24  1  0.261251  0.981485  0.495109  1
  O  O25  1  0.261251  0.018515  0.004891  1
  O  O26  1  0.478235  0.744049  0.262442  1
  O  O27  1  0.478235  0.255951  0.237558  1
