# generated using pymatgen
data_Dy2Hf3Ni9As7
_symmetry_space_group_name_H-M   'P 1'
_cell_length_a   9.79870700
_cell_length_b   9.79870622
_cell_length_c   3.85499000
_cell_angle_alpha   90.00000000
_cell_angle_beta   90.00000000
_cell_angle_gamma   120.00000600
_symmetry_Int_Tables_number   1
_chemical_formula_structural   Dy2Hf3Ni9As7
_chemical_formula_sum   'Dy2 Hf3 Ni9 As7'
_cell_volume   320.54674417
_cell_formula_units_Z   1
loop_
 _symmetry_equiv_pos_site_id
 _symmetry_equiv_pos_as_xyz
  1  'x, y, z'
loop_
 _atom_site_type_symbol
 _atom_site_label
 _atom_site_symmetry_multiplicity
 _atom_site_fract_x
 _atom_site_fract_y
 _atom_site_fract_z
 _atom_site_occupancy
  Dy  Dy0  1  0.333333  0.666667  0.000000  1
  Dy  Dy1  1  0.666667  0.333333  0.500000  1
  Hf  Hf2  1  0.229967  0.120174  0.500000  1
  Hf  Hf3  1  0.879826  0.109793  0.500000  1
  Hf  Hf4  1  0.890207  0.770033  0.500000  1
  Ni  Ni5  1  0.126115  0.284103  0.000000  1
  Ni  Ni6  1  0.715897  0.842012  0.000000  1
  Ni  Ni7  1  0.157988  0.873885  0.000000  1
  Ni  Ni8  1  0.423158  0.360246  0.000000  1
  Ni  Ni9  1  0.639754  0.062914  0.000000  1
  Ni  Ni10  1  0.937086  0.576842  0.000000  1
  Ni  Ni11  1  0.056702  0.437589  0.500000  1
  Ni  Ni12  1  0.562411  0.619112  0.500000  1
  Ni  Ni13  1  0.380888  0.943298  0.500000  1
  As  As14  1  0.293741  0.417410  0.500000  1
  As  As15  1  0.582590  0.876331  0.500000  1
  As  As16  1  0.123669  0.706259  0.500000  1
  As  As17  1  0.424410  0.109950  0.000000  1
  As  As18  1  0.890050  0.314460  0.000000  1
  As  As19  1  0.685540  0.575590  0.000000  1
  As  As20  1  0.000000  0.000000  0.000000  1
