# generated using pymatgen
data_ScMnGa5Fe5Sb
_symmetry_space_group_name_H-M   'P 1'
_cell_length_a   6.59331727
_cell_length_b   6.59331702
_cell_length_c   6.59437016
_cell_angle_alpha   134.91551065
_cell_angle_beta   100.60022436
_cell_angle_gamma   96.30605711
_symmetry_Int_Tables_number   1
_chemical_formula_structural   ScMnGa5Fe5Sb
_chemical_formula_sum   'Sc1 Mn1 Ga5 Fe5 Sb1'
_cell_volume   187.33302069
_cell_formula_units_Z   1
loop_
 _symmetry_equiv_pos_site_id
 _symmetry_equiv_pos_as_xyz
  1  'x, y, z'
loop_
 _atom_site_type_symbol
 _atom_site_label
 _atom_site_symmetry_multiplicity
 _atom_site_fract_x
 _atom_site_fract_y
 _atom_site_fract_z
 _atom_site_occupancy
  Sc  Sc0  1  0.991279  0.999988  0.991267  1
  Mn  Mn1  1  0.753921  0.500024  0.253945  1
  Ga  Ga2  1  0.337479  0.335602  0.001873  1
  Ga  Ga3  1  0.666271  0.664394  0.001873  1
  Ga  Ga4  1  0.831107  0.330718  0.500388  1
  Ga  Ga5  1  0.169671  0.669281  0.500388  1
  Ga  Ga6  1  0.665574  0.999970  0.665544  1
  Fe  Fe7  1  0.996436  0.000764  0.504153  1
  Fe  Fe8  1  0.996433  0.492251  0.995657  1
  Fe  Fe9  1  0.503405  0.999224  0.995657  1
  Fe  Fe10  1  0.503388  0.507717  0.504153  1
  Fe  Fe11  1  0.244642  0.500023  0.744665  1
  Sb  Sb12  1  0.340396  0.000043  0.340439  1
