# generated using pymatgen
data_Pr20TlSi11
_symmetry_space_group_name_H-M   'P 1'
_cell_length_a   7.81850800
_cell_length_b   7.81850800
_cell_length_c   14.42834500
_cell_angle_alpha   90.00000000
_cell_angle_beta   90.00000000
_cell_angle_gamma   90.00000000
_symmetry_Int_Tables_number   1
_chemical_formula_structural   Pr20TlSi11
_chemical_formula_sum   'Pr20 Tl1 Si11'
_cell_volume   881.99127320
_cell_formula_units_Z   1
loop_
 _symmetry_equiv_pos_site_id
 _symmetry_equiv_pos_as_xyz
  1  'x, y, z'
loop_
 _atom_site_type_symbol
 _atom_site_label
 _atom_site_symmetry_multiplicity
 _atom_site_fract_x
 _atom_site_fract_y
 _atom_site_fract_z
 _atom_site_occupancy
  Pr  Pr0  1  0.334646  0.689551  0.112816  1
  Pr  Pr1  1  0.189551  0.165354  0.112816  1
  Pr  Pr2  1  0.500000  0.000000  0.718560  1
  Pr  Pr3  1  0.317422  0.674515  0.397357  1
  Pr  Pr4  1  0.662350  0.692106  0.887212  1
  Pr  Pr5  1  0.174515  0.182578  0.397357  1
  Pr  Pr6  1  0.682578  0.325485  0.397357  1
  Pr  Pr7  1  0.171739  0.814963  0.602783  1
  Pr  Pr8  1  0.337650  0.307894  0.887212  1
  Pr  Pr9  1  0.192106  0.837650  0.887212  1
  Pr  Pr10  1  0.500000  0.000000  0.275188  1
  Pr  Pr11  1  0.828261  0.185037  0.602783  1
  Pr  Pr12  1  0.314963  0.328261  0.602783  1
  Pr  Pr13  1  0.825485  0.817422  0.397357  1
  Pr  Pr14  1  0.807894  0.162350  0.887212  1
  Pr  Pr15  1  0.810449  0.834646  0.112816  1
  Pr  Pr16  1  0.000000  0.500000  0.237358  1
  Pr  Pr17  1  0.000000  0.500000  0.767790  1
  Pr  Pr18  1  0.665354  0.310449  0.112816  1
  Pr  Pr19  1  0.685037  0.671739  0.602783  1
  Tl  Tl20  1  0.000000  0.500000  0.000581  1
  Si  Si21  1  0.112830  0.114663  0.744430  1
  Si  Si22  1  0.385337  0.612830  0.744430  1
  Si  Si23  1  0.614328  0.612745  0.255632  1
  Si  Si24  1  0.500000  0.000000  0.003395  1
  Si  Si25  1  0.112745  0.885672  0.255632  1
  Si  Si26  1  0.614663  0.387170  0.744430  1
  Si  Si27  1  0.887170  0.885337  0.744430  1
  Si  Si28  1  0.385672  0.387255  0.255632  1
  Si  Si29  1  0.887255  0.114328  0.255632  1
  Si  Si30  1  0.500000  0.000000  0.498623  1
  Si  Si31  1  0.000000  0.500000  0.497589  1
