# generated using pymatgen
data_Ti10GaSiAs4O
_symmetry_space_group_name_H-M   'P 1'
_cell_length_a   7.51033809
_cell_length_b   7.53066958
_cell_length_c   5.17823286
_cell_angle_alpha   90.19793287
_cell_angle_beta   89.81412013
_cell_angle_gamma   120.08731648
_symmetry_Int_Tables_number   1
_chemical_formula_structural   Ti10GaSiAs4O
_chemical_formula_sum   'Ti10 Ga1 Si1 As4 O1'
_cell_volume   253.40737116
_cell_formula_units_Z   1
loop_
 _symmetry_equiv_pos_site_id
 _symmetry_equiv_pos_as_xyz
  1  'x, y, z'
loop_
 _atom_site_type_symbol
 _atom_site_label
 _atom_site_symmetry_multiplicity
 _atom_site_fract_x
 _atom_site_fract_y
 _atom_site_fract_z
 _atom_site_occupancy
  Ti  Ti0  1  0.999881  0.759870  0.257335  1
  Ti  Ti1  1  0.240994  0.239383  0.257123  1
  Ti  Ti2  1  0.764279  0.998261  0.256446  1
  Ti  Ti3  1  0.004140  0.241803  0.742199  1
  Ti  Ti4  1  0.756843  0.758021  0.742856  1
  Ti  Ti5  1  0.238830  0.005533  0.746380  1
  Ti  Ti6  1  0.330311  0.660658  0.501857  1
  Ti  Ti7  1  0.667125  0.338142  0.501894  1
  Ti  Ti8  1  0.667101  0.337526  0.998474  1
  Ti  Ti9  1  0.329987  0.661994  0.998692  1
  Ga  Ga10  1  0.602803  0.000498  0.754595  1
  Si  Si11  1  0.396967  0.396730  0.756272  1
  As  As12  1  0.997739  0.391647  0.244237  1
  As  As13  1  0.600470  0.602526  0.242673  1
  As  As14  1  0.401598  0.000046  0.243277  1
  As  As15  1  0.000842  0.608470  0.755990  1
  O  O16  1  0.000089  0.998893  0.499699  1
