# generated using pymatgen
data_ThGeN
_symmetry_space_group_name_H-M   'P 1'
_cell_length_a   4.02540000
_cell_length_b   4.02179306
_cell_length_c   9.02489163
_cell_angle_alpha   102.65724585
_cell_angle_beta   89.99994411
_cell_angle_gamma   120.02976894
_symmetry_Int_Tables_number   1
_chemical_formula_structural   ThGeN
_chemical_formula_sum   'Th2 Ge2 N2'
_cell_volume   122.37597170
_cell_formula_units_Z   2
loop_
 _symmetry_equiv_pos_site_id
 _symmetry_equiv_pos_as_xyz
  1  'x, y, z'
loop_
 _atom_site_type_symbol
 _atom_site_label
 _atom_site_symmetry_multiplicity
 _atom_site_fract_x
 _atom_site_fract_y
 _atom_site_fract_z
 _atom_site_occupancy
  Th  Th0  1  0.221064  0.442127  0.167707  1
  Th  Th1  1  0.778942  0.557883  0.832302  1
  Ge  Ge2  1  0.645963  0.291925  0.436960  1
  Ge  Ge3  1  0.354029  0.708055  0.563022  1
  N  N4  1  0.867906  0.735811  0.107201  1
  N  N5  1  0.132100  0.264199  0.892809  1
