# generated using pymatgen
data_Ca10TiTcN10
_symmetry_space_group_name_H-M   'P 1'
_cell_length_a   6.89702116
_cell_length_b   6.89701984
_cell_length_c   8.90762601
_cell_angle_alpha   80.57307921
_cell_angle_beta   80.57307050
_cell_angle_gamma   59.87341354
_symmetry_Int_Tables_number   1
_chemical_formula_structural   Ca10TiTcN10
_chemical_formula_sum   'Ca10 Ti1 Tc1 N10'
_cell_volume   359.88270095
_cell_formula_units_Z   1
loop_
 _symmetry_equiv_pos_site_id
 _symmetry_equiv_pos_as_xyz
  1  'x, y, z'
loop_
 _atom_site_type_symbol
 _atom_site_label
 _atom_site_symmetry_multiplicity
 _atom_site_fract_x
 _atom_site_fract_y
 _atom_site_fract_z
 _atom_site_occupancy
  Ca  Ca0  1  0.878086  0.351864  0.829701  1
  Ca  Ca1  1  0.874466  0.874466  0.820465  1
  Ca  Ca2  1  0.737866  0.737866  0.535092  1
  Ca  Ca3  1  0.746003  0.251293  0.512853  1
  Ca  Ca4  1  0.628089  0.139328  0.144211  1
  Ca  Ca5  1  0.351864  0.878086  0.829701  1
  Ca  Ca6  1  0.251293  0.746003  0.512853  1
  Ca  Ca7  1  0.243072  0.243072  0.502208  1
  Ca  Ca8  1  0.142656  0.142656  0.156180  1
  Ca  Ca9  1  0.139328  0.628089  0.144211  1
  Ti  Ti10  1  0.369271  0.369271  0.775056  1
  Tc  Tc11  1  0.632190  0.632190  0.227992  1
  N  N12  1  0.906351  0.474038  0.317297  1
  N  N13  1  0.996036  0.996036  0.017818  1
  N  N14  1  0.676731  0.676731  0.023168  1
  N  N15  1  0.536350  0.536350  0.692560  1
  N  N16  1  0.474038  0.906351  0.317297  1
  N  N17  1  0.538018  0.084317  0.676127  1
  N  N18  1  0.474700  0.474700  0.295923  1
  N  N19  1  0.320620  0.320620  0.993024  1
  N  N20  1  0.060941  0.060941  0.645946  1
  N  N21  1  0.084317  0.538018  0.676127  1
