# generated using pymatgen
data_Nd7Th(Sc3Pb4)4
_symmetry_space_group_name_H-M   'P 1'
_cell_length_a   8.00176252
_cell_length_b   15.25164737
_cell_length_c   8.12434500
_cell_angle_alpha   89.96466077
_cell_angle_beta   90.26644641
_cell_angle_gamma   90.12885238
_symmetry_Int_Tables_number   1
_chemical_formula_structural   Nd7Th(Sc3Pb4)4
_chemical_formula_sum   'Nd7 Th1 Sc12 Pb16'
_cell_volume   991.48214359
_cell_formula_units_Z   1
loop_
 _symmetry_equiv_pos_site_id
 _symmetry_equiv_pos_as_xyz
  1  'x, y, z'
loop_
 _atom_site_type_symbol
 _atom_site_label
 _atom_site_symmetry_multiplicity
 _atom_site_fract_x
 _atom_site_fract_y
 _atom_site_fract_z
 _atom_site_occupancy
  Nd  Nd0  1  0.479341  0.595081  0.676506  1
  Nd  Nd1  1  0.980355  0.904910  0.824758  1
  Nd  Nd2  1  0.520004  0.094937  0.324144  1
  Nd  Nd3  1  0.020160  0.404949  0.174923  1
  Nd  Nd4  1  0.519122  0.405630  0.323382  1
  Nd  Nd5  1  0.019512  0.095053  0.175810  1
  Nd  Nd6  1  0.479450  0.904440  0.675587  1
  Th  Th7  1  0.978578  0.595300  0.824426  1
  Sc  Sc8  1  0.643305  0.625149  0.155744  1
  Sc  Sc9  1  0.142869  0.873096  0.343969  1
  Sc  Sc10  1  0.356578  0.125464  0.843198  1
  Sc  Sc11  1  0.858063  0.374354  0.657344  1
  Sc  Sc12  1  0.357441  0.375025  0.843973  1
  Sc  Sc13  1  0.856752  0.125927  0.656172  1
  Sc  Sc14  1  0.644144  0.873930  0.156549  1
  Sc  Sc15  1  0.143510  0.626005  0.343263  1
  Sc  Sc16  1  0.811696  0.749759  0.493715  1
  Sc  Sc17  1  0.311060  0.749761  0.006527  1
  Sc  Sc18  1  0.188846  0.249884  0.507141  1
  Sc  Sc19  1  0.689320  0.250621  0.993941  1
  Pb  Pb20  1  0.694931  0.455641  0.952459  1
  Pb  Pb21  1  0.193501  0.044437  0.546521  1
  Pb  Pb22  1  0.306841  0.954793  0.048342  1
  Pb  Pb23  1  0.806100  0.545502  0.454496  1
  Pb  Pb24  1  0.303798  0.545296  0.045582  1
  Pb  Pb25  1  0.806615  0.954680  0.453861  1
  Pb  Pb26  1  0.692966  0.044689  0.952214  1
  Pb  Pb27  1  0.193112  0.455777  0.547225  1
  Pb  Pb28  1  0.451154  0.749402  0.363263  1
  Pb  Pb29  1  0.950056  0.749160  0.134858  1
  Pb  Pb30  1  0.549863  0.250417  0.636324  1
  Pb  Pb31  1  0.050923  0.249720  0.864870  1
  Pb  Pb32  1  0.668920  0.750126  0.850381  1
  Pb  Pb33  1  0.169401  0.750425  0.648313  1
  Pb  Pb34  1  0.331217  0.250197  0.149113  1
  Pb  Pb35  1  0.830497  0.250462  0.351103  1
