# generated using pymatgen
data_La7ThS12
_symmetry_space_group_name_H-M   'P 1'
_cell_length_a   4.11630900
_cell_length_b   10.88312759
_cell_length_c   11.11779901
_cell_angle_alpha   89.83576032
_cell_angle_beta   90.00000000
_cell_angle_gamma   90.00000000
_symmetry_Int_Tables_number   1
_chemical_formula_structural   La7ThS12
_chemical_formula_sum   'La7 Th1 S12'
_cell_volume   498.05662736
_cell_formula_units_Z   1
loop_
 _symmetry_equiv_pos_site_id
 _symmetry_equiv_pos_as_xyz
  1  'x, y, z'
loop_
 _atom_site_type_symbol
 _atom_site_label
 _atom_site_symmetry_multiplicity
 _atom_site_fract_x
 _atom_site_fract_y
 _atom_site_fract_z
 _atom_site_occupancy
  La  La0  1  0.250000  0.009032  0.311015  1
  La  La1  1  0.750000  0.992607  0.690928  1
  La  La2  1  0.750000  0.506655  0.190064  1
  La  La3  1  0.250000  0.491685  0.809872  1
  La  La4  1  0.250000  0.685950  0.491034  1
  La  La5  1  0.750000  0.314170  0.509820  1
  La  La6  1  0.750000  0.186755  0.009460  1
  Th  Th7  1  0.250000  0.813965  0.990004  1
  S  S8  1  0.250000  0.051298  0.881150  1
  S  S9  1  0.750000  0.940457  0.117954  1
  S  S10  1  0.750000  0.555610  0.622206  1
  S  S11  1  0.250000  0.446838  0.377454  1
  S  S12  1  0.250000  0.127068  0.549210  1
  S  S13  1  0.750000  0.871677  0.451181  1
  S  S14  1  0.750000  0.634772  0.951257  1
  S  S15  1  0.250000  0.374464  0.048058  1
  S  S16  1  0.250000  0.702729  0.221465  1
  S  S17  1  0.750000  0.297874  0.772829  1
  S  S18  1  0.750000  0.199696  0.271007  1
  S  S19  1  0.250000  0.796696  0.734033  1
