# generated using pymatgen
data_Ho11Th5MgCd3Ru4
_symmetry_space_group_name_H-M   'P 1'
_cell_length_a   9.67503920
_cell_length_b   9.72911477
_cell_length_c   9.72911474
_cell_angle_alpha   59.82609158
_cell_angle_beta   60.12376124
_cell_angle_gamma   60.12376483
_symmetry_Int_Tables_number   1
_chemical_formula_structural   Ho11Th5MgCd3Ru4
_chemical_formula_sum   'Ho11 Th5 Mg1 Cd3 Ru4'
_cell_volume   647.91512120
_cell_formula_units_Z   1
loop_
 _symmetry_equiv_pos_site_id
 _symmetry_equiv_pos_as_xyz
  1  'x, y, z'
loop_
 _atom_site_type_symbol
 _atom_site_label
 _atom_site_symmetry_multiplicity
 _atom_site_fract_x
 _atom_site_fract_y
 _atom_site_fract_z
 _atom_site_occupancy
  Ho  Ho0  1  0.185354  0.813297  0.813297  1
  Ho  Ho1  1  0.191395  0.808612  0.186662  1
  Ho  Ho2  1  0.811451  0.185573  0.808551  1
  Ho  Ho3  1  0.191395  0.186662  0.808612  1
  Ho  Ho4  1  0.811451  0.808551  0.185573  1
  Ho  Ho5  1  0.932353  0.567877  0.567877  1
  Ho  Ho6  1  0.563690  0.935499  0.935499  1
  Ho  Ho7  1  0.562129  0.936699  0.564695  1
  Ho  Ho8  1  0.936096  0.563790  0.936955  1
  Ho  Ho9  1  0.562129  0.564695  0.936699  1
  Ho  Ho10  1  0.936096  0.936955  0.563790  1
  Th  Th11  1  0.342553  0.349115  0.349115  1
  Th  Th12  1  0.348089  0.347817  0.957108  1
  Th  Th13  1  0.348089  0.957108  0.347817  1
  Th  Th14  1  0.954309  0.351413  0.351413  1
  Th  Th15  1  0.815353  0.185074  0.185074  1
  Mg  Mg16  1  0.268852  0.575799  0.575799  1
  Cd  Cd17  1  0.582158  0.582576  0.582576  1
  Cd  Cd18  1  0.580264  0.584593  0.252077  1
  Cd  Cd19  1  0.580264  0.252077  0.584593  1
  Ru  Ru20  1  0.129574  0.147168  0.147168  1
  Ru  Ru21  1  0.144880  0.142088  0.569304  1
  Ru  Ru22  1  0.144880  0.569304  0.142088  1
  Ru  Ru23  1  0.577197  0.147659  0.147659  1
