# generated using pymatgen
data_Co4Tc2B4MoW
_symmetry_space_group_name_H-M   'P 1'
_cell_length_a   3.22870200
_cell_length_b   5.72926913
_cell_length_c   6.57299932
_cell_angle_alpha   89.92105478
_cell_angle_beta   90.00000000
_cell_angle_gamma   90.00000000
_symmetry_Int_Tables_number   1
_chemical_formula_structural   Co4Tc2B4MoW
_chemical_formula_sum   'Co4 Tc2 B4 Mo1 W1'
_cell_volume   121.58790108
_cell_formula_units_Z   1
loop_
 _symmetry_equiv_pos_site_id
 _symmetry_equiv_pos_as_xyz
  1  'x, y, z'
loop_
 _atom_site_type_symbol
 _atom_site_label
 _atom_site_symmetry_multiplicity
 _atom_site_fract_x
 _atom_site_fract_y
 _atom_site_fract_z
 _atom_site_occupancy
  Co  Co0  1  0.250000  0.148325  0.445137  1
  Co  Co1  1  0.250000  0.643585  0.055995  1
  Co  Co2  1  0.750000  0.855736  0.555319  1
  Co  Co3  1  0.750000  0.352314  0.946314  1
  Tc  Tc4  1  0.250000  0.529086  0.671455  1
  Tc  Tc5  1  0.750000  0.970324  0.170735  1
  B  B6  1  0.250000  0.270689  0.126494  1
  B  B7  1  0.250000  0.775715  0.374105  1
  B  B8  1  0.750000  0.724121  0.873991  1
  B  B9  1  0.750000  0.229509  0.626186  1
  Mo  Mo10  1  0.250000  0.027565  0.827218  1
  W  W11  1  0.750000  0.473030  0.327051  1
