# generated using pymatgen
data_CaMo8P8(PbO12)3
_symmetry_space_group_name_H-M   'P 1'
_cell_length_a   6.78877700
_cell_length_b   7.58276311
_cell_length_c   15.15298400
_cell_angle_alpha   90.18634777
_cell_angle_beta   90.00000000
_cell_angle_gamma   90.00000000
_symmetry_Int_Tables_number   1
_chemical_formula_structural   CaMo8P8(PbO12)3
_chemical_formula_sum   'Ca1 Mo8 P8 Pb3 O36'
_cell_volume   780.03645343
_cell_formula_units_Z   1
loop_
 _symmetry_equiv_pos_site_id
 _symmetry_equiv_pos_as_xyz
  1  'x, y, z'
loop_
 _atom_site_type_symbol
 _atom_site_label
 _atom_site_symmetry_multiplicity
 _atom_site_fract_x
 _atom_site_fract_y
 _atom_site_fract_z
 _atom_site_occupancy
  Ca  Ca0  1  0.250000  0.091565  0.223127  1
  Mo  Mo1  1  0.750000  0.361305  0.876766  1
  Mo  Mo2  1  0.250000  0.638962  0.123373  1
  Mo  Mo3  1  0.250000  0.863177  0.622093  1
  Mo  Mo4  1  0.750000  0.137533  0.376379  1
  Mo  Mo5  1  0.499617  0.001754  0.001918  1
  Mo  Mo6  1  0.499728  0.499697  0.499188  1
  Mo  Mo7  1  0.000272  0.499697  0.499188  1
  Mo  Mo8  1  0.000383  0.001754  0.001918  1
  P  P9  1  0.250000  0.367350  0.932585  1
  P  P10  1  0.750000  0.634198  0.067750  1
  P  P11  1  0.750000  0.866959  0.567121  1
  P  P12  1  0.250000  0.131804  0.428570  1
  P  P13  1  0.750000  0.396141  0.688571  1
  P  P14  1  0.750000  0.102405  0.191009  1
  P  P15  1  0.250000  0.898275  0.811338  1
  P  P16  1  0.250000  0.603061  0.310044  1
  Pb  Pb17  1  0.750000  0.895413  0.779884  1
  Pb  Pb18  1  0.750000  0.603274  0.280221  1
  Pb  Pb19  1  0.250000  0.396746  0.720089  1
  O  O20  1  0.064450  0.602056  0.369355  1
  O  O21  1  0.564238  0.398631  0.629574  1
  O  O22  1  0.941407  0.098738  0.135017  1
  O  O23  1  0.435586  0.900589  0.870670  1
  O  O24  1  0.935762  0.398631  0.629574  1
  O  O25  1  0.435550  0.602056  0.369355  1
  O  O26  1  0.064414  0.900589  0.870670  1
  O  O27  1  0.558593  0.098738  0.135017  1
  O  O28  1  0.250000  0.316319  0.478376  1
  O  O29  1  0.750000  0.682430  0.517856  1
  O  O30  1  0.750000  0.818917  0.019106  1
  O  O31  1  0.250000  0.184400  0.982893  1
  O  O32  1  0.750000  0.120675  0.941149  1
  O  O33  1  0.250000  0.884955  0.063938  1
  O  O34  1  0.250000  0.619263  0.560189  1
  O  O35  1  0.750000  0.380437  0.439078  1
  O  O36  1  0.750000  0.228328  0.748332  1
  O  O37  1  0.250000  0.773280  0.251418  1
  O  O38  1  0.250000  0.730680  0.750793  1
  O  O39  1  0.750000  0.271764  0.249932  1
  O  O40  1  0.429450  0.125718  0.364644  1
  O  O41  1  0.931468  0.872510  0.629571  1
  O  O42  1  0.568479  0.628811  0.130034  1
  O  O43  1  0.068680  0.371256  0.870089  1
  O  O44  1  0.568532  0.872510  0.629571  1
  O  O45  1  0.070550  0.125718  0.364644  1
  O  O46  1  0.431320  0.371256  0.870089  1
  O  O47  1  0.931521  0.628811  0.130034  1
  O  O48  1  0.750000  0.486197  0.001146  1
  O  O49  1  0.250000  0.050190  0.741593  1
  O  O50  1  0.250000  0.448819  0.241004  1
  O  O51  1  0.750000  0.548399  0.758679  1
  O  O52  1  0.750000  0.014937  0.501005  1
  O  O53  1  0.250000  0.985282  0.495881  1
  O  O54  1  0.250000  0.517186  0.998189  1
  O  O55  1  0.750000  0.949854  0.260405  1
