# generated using pymatgen
data_Tb5LuMg2(Co4P3)4
_symmetry_space_group_name_H-M   'P 1'
_cell_length_a   3.73853900
_cell_length_b   10.64013101
_cell_length_c   12.30684101
_cell_angle_alpha   90.00406925
_cell_angle_beta   90.00000000
_cell_angle_gamma   90.00000000
_symmetry_Int_Tables_number   1
_chemical_formula_structural   Tb5LuMg2(Co4P3)4
_chemical_formula_sum   'Tb5 Lu1 Mg2 Co16 P12'
_cell_volume   489.54822432
_cell_formula_units_Z   1
loop_
 _symmetry_equiv_pos_site_id
 _symmetry_equiv_pos_as_xyz
  1  'x, y, z'
loop_
 _atom_site_type_symbol
 _atom_site_label
 _atom_site_symmetry_multiplicity
 _atom_site_fract_x
 _atom_site_fract_y
 _atom_site_fract_z
 _atom_site_occupancy
  Tb  Tb0  1  0.000000  0.500050  0.525609  1
  Tb  Tb1  1  0.500000  0.999707  0.473784  1
  Tb  Tb2  1  0.500000  0.177249  0.206414  1
  Tb  Tb3  1  0.000000  0.678176  0.793222  1
  Tb  Tb4  1  0.000000  0.322009  0.794162  1
  Lu  Lu5  1  0.500000  0.822440  0.206275  1
  Mg  Mg6  1  0.500000  0.500515  0.156317  1
  Mg  Mg7  1  0.000000  0.999908  0.843504  1
  Co  Co8  1  0.500000  0.500421  0.705662  1
  Co  Co9  1  0.000000  0.997603  0.293677  1
  Co  Co10  1  0.000000  0.501036  0.989681  1
  Co  Co11  1  0.500000  0.998818  0.012241  1
  Co  Co12  1  0.500000  0.332651  0.997135  1
  Co  Co13  1  0.500000  0.668489  0.998104  1
  Co  Co14  1  0.000000  0.166559  0.004058  1
  Co  Co15  1  0.000000  0.832436  0.004227  1
  Co  Co16  1  0.500000  0.296006  0.431925  1
  Co  Co17  1  0.500000  0.704054  0.430252  1
  Co  Co18  1  0.000000  0.203400  0.567988  1
  Co  Co19  1  0.000000  0.796384  0.566635  1
  Co  Co20  1  0.500000  0.878167  0.705127  1
  Co  Co21  1  0.500000  0.121865  0.705800  1
  Co  Co22  1  0.000000  0.623666  0.292794  1
  Co  Co23  1  0.000000  0.378428  0.294606  1
  P  P24  1  0.500000  0.500683  0.886374  1
  P  P25  1  0.000000  0.998141  0.115338  1
  P  P26  1  0.500000  0.499763  0.354732  1
  P  P27  1  0.000000  0.999906  0.644839  1
  P  P28  1  0.500000  0.308872  0.615305  1
  P  P29  1  0.500000  0.691538  0.614156  1
  P  P30  1  0.000000  0.190580  0.384713  1
  P  P31  1  0.000000  0.809353  0.382442  1
  P  P32  1  0.500000  0.839104  0.893466  1
  P  P33  1  0.500000  0.160370  0.894255  1
  P  P34  1  0.000000  0.662512  0.108470  1
  P  P35  1  0.000000  0.339141  0.106713  1
