# generated using pymatgen
data_DyTmNpO6
_symmetry_space_group_name_H-M   'P 1'
_cell_length_a   5.51526400
_cell_length_b   7.80046584
_cell_length_c   11.75445485
_cell_angle_alpha   73.88414979
_cell_angle_beta   90.00000000
_cell_angle_gamma   90.00000000
_symmetry_Int_Tables_number   1
_chemical_formula_structural   DyTmNpO6
_chemical_formula_sum   'Dy4 Tm4 Np4 O24'
_cell_volume   485.82315887
_cell_formula_units_Z   4
loop_
 _symmetry_equiv_pos_site_id
 _symmetry_equiv_pos_as_xyz
  1  'x, y, z'
loop_
 _atom_site_type_symbol
 _atom_site_label
 _atom_site_symmetry_multiplicity
 _atom_site_fract_x
 _atom_site_fract_y
 _atom_site_fract_z
 _atom_site_occupancy
  Dy  Dy0  1  0.746606  0.000000  0.750000  1
  Dy  Dy1  1  0.253394  0.000000  0.250000  1
  Dy  Dy2  1  0.697381  0.500000  0.750000  1
  Dy  Dy3  1  0.302619  0.500000  0.250000  1
  Tm  Tm4  1  0.185219  0.793199  0.580552  1
  Tm  Tm5  1  0.814781  0.793199  0.080552  1
  Tm  Tm6  1  0.185219  0.206801  0.919448  1
  Tm  Tm7  1  0.814781  0.206801  0.419448  1
  Np  Np8  1  0.256865  0.721537  0.887195  1
  Np  Np9  1  0.743135  0.721537  0.387195  1
  Np  Np10  1  0.256865  0.278463  0.612805  1
  Np  Np11  1  0.743135  0.278463  0.112805  1
  O  O12  1  0.048577  0.946249  0.897547  1
  O  O13  1  0.559437  0.846516  0.932777  1
  O  O14  1  0.951423  0.946249  0.397547  1
  O  O15  1  0.449105  0.801071  0.725075  1
  O  O16  1  0.440563  0.846516  0.432777  1
  O  O17  1  0.964606  0.714738  0.766529  1
  O  O18  1  0.550895  0.801071  0.225075  1
  O  O19  1  0.875830  0.628329  0.556137  1
  O  O20  1  0.385053  0.479737  0.883846  1
  O  O21  1  0.035394  0.714738  0.266529  1
  O  O22  1  0.385053  0.520263  0.616154  1
  O  O23  1  0.875830  0.371671  0.943863  1
  O  O24  1  0.124170  0.628329  0.056137  1
  O  O25  1  0.614947  0.479737  0.383846  1
  O  O26  1  0.964606  0.285262  0.733471  1
  O  O27  1  0.614947  0.520263  0.116154  1
  O  O28  1  0.124170  0.371671  0.443863  1
  O  O29  1  0.449105  0.198929  0.774925  1
  O  O30  1  0.035394  0.285262  0.233471  1
  O  O31  1  0.559437  0.153484  0.567223  1
  O  O32  1  0.550895  0.198929  0.274925  1
  O  O33  1  0.048577  0.053751  0.602453  1
  O  O34  1  0.440563  0.153484  0.067223  1
  O  O35  1  0.951423  0.053751  0.102453  1
