# generated using pymatgen
data_Tb20Si3Bi5Ir4
_symmetry_space_group_name_H-M   'P 1'
_cell_length_a   7.91263652
_cell_length_b   8.93272100
_cell_length_c   12.26468807
_cell_angle_alpha   90.16166769
_cell_angle_beta   89.96700705
_cell_angle_gamma   90.08438697
_symmetry_Int_Tables_number   1
_chemical_formula_structural   Tb20Si3Bi5Ir4
_chemical_formula_sum   'Tb20 Si3 Bi5 Ir4'
_cell_volume   866.88047635
_cell_formula_units_Z   1
loop_
 _symmetry_equiv_pos_site_id
 _symmetry_equiv_pos_as_xyz
  1  'x, y, z'
loop_
 _atom_site_type_symbol
 _atom_site_label
 _atom_site_symmetry_multiplicity
 _atom_site_fract_x
 _atom_site_fract_y
 _atom_site_fract_z
 _atom_site_occupancy
  Tb  Tb0  1  0.835522  0.725412  0.788737  1
  Tb  Tb1  1  0.169535  0.262882  0.206006  1
  Tb  Tb2  1  0.337218  0.273763  0.716072  1
  Tb  Tb3  1  0.651779  0.739713  0.287116  1
  Tb  Tb4  1  0.367742  0.727774  0.700619  1
  Tb  Tb5  1  0.617688  0.261856  0.298209  1
  Tb  Tb6  1  0.867169  0.271326  0.800072  1
  Tb  Tb7  1  0.140900  0.737836  0.194019  1
  Tb  Tb8  1  0.954519  0.739864  0.508930  1
  Tb  Tb9  1  0.053430  0.261144  0.506251  1
  Tb  Tb10  1  0.455987  0.271521  0.997170  1
  Tb  Tb11  1  0.545314  0.728699  0.000751  1
  Tb  Tb12  1  0.678518  0.039056  0.567217  1
  Tb  Tb13  1  0.318925  0.961739  0.434667  1
  Tb  Tb14  1  0.181120  0.963463  0.932729  1
  Tb  Tb15  1  0.325701  0.541687  0.428448  1
  Tb  Tb16  1  0.820715  0.037013  0.065536  1
  Tb  Tb17  1  0.681735  0.458038  0.577979  1
  Tb  Tb18  1  0.814046  0.457274  0.064641  1
  Tb  Tb19  1  0.182514  0.542611  0.926253  1
  Si  Si20  1  0.565684  0.493636  0.829976  1
  Si  Si21  1  0.434850  0.506441  0.170419  1
  Si  Si22  1  0.064944  0.506214  0.669952  1
  Bi  Bi23  1  0.429410  0.992343  0.168443  1
  Bi  Bi24  1  0.929184  0.490714  0.327671  1
  Bi  Bi25  1  0.572123  0.007063  0.828385  1
  Bi  Bi26  1  0.929322  0.008352  0.328047  1
  Bi  Bi27  1  0.071837  0.992497  0.675823  1
  Ir  Ir28  1  0.571998  0.747755  0.511766  1
  Ir  Ir29  1  0.428332  0.251669  0.491312  1
  Ir  Ir30  1  0.070737  0.252621  0.986982  1
  Ir  Ir31  1  0.931504  0.748023  0.009803  1
