# generated using pymatgen
data_Zr6Mn5Si12Ni
_symmetry_space_group_name_H-M   'P 1'
_cell_length_a   9.88109415
_cell_length_b   9.88109405
_cell_length_c   9.88109440
_cell_angle_alpha   149.70588978
_cell_angle_beta   133.09934144
_cell_angle_gamma   56.85821279
_symmetry_Int_Tables_number   1
_chemical_formula_structural   Zr6Mn5Si12Ni
_chemical_formula_sum   'Zr6 Mn5 Si12 Ni1'
_cell_volume   352.88458943
_cell_formula_units_Z   1
loop_
 _symmetry_equiv_pos_site_id
 _symmetry_equiv_pos_as_xyz
  1  'x, y, z'
loop_
 _atom_site_type_symbol
 _atom_site_label
 _atom_site_symmetry_multiplicity
 _atom_site_fract_x
 _atom_site_fract_y
 _atom_site_fract_z
 _atom_site_occupancy
  Zr  Zr0  1  0.352136  0.094166  0.257970  1
  Zr  Zr1  1  0.647360  0.905808  0.741552  1
  Zr  Zr2  1  0.163805  0.905834  0.257970  1
  Zr  Zr3  1  0.835743  0.094192  0.741552  1
  Zr  Zr4  1  0.641592  0.641167  0.000425  1
  Zr  Zr5  1  0.359258  0.358833  0.000425  1
  Mn  Mn6  1  0.501305  0.002561  0.001828  1
  Mn  Mn7  1  0.501305  0.499477  0.498744  1
  Mn  Mn8  1  0.999267  0.997439  0.498744  1
  Mn  Mn9  1  0.999267  0.500523  0.001828  1
  Mn  Mn10  1  0.753830  0.500000  0.253830  1
  Si  Si11  1  0.999380  0.759637  0.759017  1
  Si  Si12  1  0.999380  0.240363  0.239743  1
  Si  Si13  1  0.499276  0.243214  0.742490  1
  Si  Si14  1  0.499276  0.756786  0.256061  1
  Si  Si15  1  0.202022  0.202638  0.999384  1
  Si  Si16  1  0.796745  0.797362  0.999384  1
  Si  Si17  1  0.288131  0.787714  0.500417  1
  Si  Si18  1  0.712703  0.212286  0.500417  1
  Si  Si19  1  0.715238  0.363952  0.351286  1
  Si  Si20  1  0.289976  0.639762  0.650216  1
  Si  Si21  1  0.987334  0.636048  0.351286  1
  Si  Si22  1  0.010454  0.360238  0.650216  1
  Ni  Ni23  1  0.245215  0.500000  0.745215  1
