# generated using pymatgen
data_Tb6Al24FeCoOs6
_symmetry_space_group_name_H-M   'P 1'
_cell_length_a   8.79414600
_cell_length_b   8.79414650
_cell_length_c   9.53019300
_cell_angle_alpha   90.00000000
_cell_angle_beta   90.00000000
_cell_angle_gamma   119.99999058
_symmetry_Int_Tables_number   1
_chemical_formula_structural   Tb6Al24FeCoOs6
_chemical_formula_sum   'Tb6 Al24 Fe1 Co1 Os6'
_cell_volume   638.29249283
_cell_formula_units_Z   1
loop_
 _symmetry_equiv_pos_site_id
 _symmetry_equiv_pos_as_xyz
  1  'x, y, z'
loop_
 _atom_site_type_symbol
 _atom_site_label
 _atom_site_symmetry_multiplicity
 _atom_site_fract_x
 _atom_site_fract_y
 _atom_site_fract_z
 _atom_site_occupancy
  Tb  Tb0  1  0.193554  0.387108  0.250037  1
  Tb  Tb1  1  0.806446  0.612892  0.749963  1
  Tb  Tb2  1  0.612892  0.806446  0.250037  1
  Tb  Tb3  1  0.387108  0.193554  0.749963  1
  Tb  Tb4  1  0.193554  0.806446  0.250037  1
  Tb  Tb5  1  0.806446  0.193554  0.749963  1
  Al  Al6  1  0.333333  0.666667  0.013986  1
  Al  Al7  1  0.666667  0.333333  0.986014  1
  Al  Al8  1  0.666667  0.333333  0.513931  1
  Al  Al9  1  0.333333  0.666667  0.486069  1
  Al  Al10  1  0.159484  0.318968  0.575352  1
  Al  Al11  1  0.840516  0.681032  0.424648  1
  Al  Al12  1  0.681032  0.840516  0.575352  1
  Al  Al13  1  0.841511  0.683022  0.075596  1
  Al  Al14  1  0.318968  0.159484  0.424648  1
  Al  Al15  1  0.158489  0.316978  0.924404  1
  Al  Al16  1  0.159484  0.840516  0.575352  1
  Al  Al17  1  0.316978  0.158489  0.075596  1
  Al  Al18  1  0.840516  0.159484  0.424648  1
  Al  Al19  1  0.683022  0.841511  0.924404  1
  Al  Al20  1  0.841511  0.158489  0.075596  1
  Al  Al21  1  0.158489  0.841511  0.924404  1
  Al  Al22  1  0.560814  0.121628  0.250121  1
  Al  Al23  1  0.439186  0.878372  0.749879  1
  Al  Al24  1  0.878372  0.439186  0.250121  1
  Al  Al25  1  0.121628  0.560814  0.749879  1
  Al  Al26  1  0.560814  0.439186  0.250121  1
  Al  Al27  1  0.439186  0.560814  0.749879  1
  Al  Al28  1  0.000000  0.000000  0.249964  1
  Al  Al29  1  0.000000  0.000000  0.750036  1
  Fe  Fe30  1  0.000000  0.000000  0.000000  1
  Co  Co31  1  0.000000  0.000000  0.500000  1
  Os  Os32  1  0.500000  0.000000  0.000000  1
  Os  Os33  1  0.000000  0.500000  0.000000  1
  Os  Os34  1  0.500000  0.000000  0.500000  1
  Os  Os35  1  0.500000  0.500000  0.000000  1
  Os  Os36  1  0.000000  0.500000  0.500000  1
  Os  Os37  1  0.500000  0.500000  0.500000  1
