# generated using pymatgen
data_Er3Tm(Lu2Rh)4
_symmetry_space_group_name_H-M   'P 1'
_cell_length_a   6.24253100
_cell_length_b   7.07899636
_cell_length_c   9.17094500
_cell_angle_alpha   90.00000000
_cell_angle_beta   90.00000000
_cell_angle_gamma   89.98094411
_symmetry_Int_Tables_number   1
_chemical_formula_structural   Er3Tm(Lu2Rh)4
_chemical_formula_sum   'Er3 Tm1 Lu8 Rh4'
_cell_volume   405.27187124
_cell_formula_units_Z   1
loop_
 _symmetry_equiv_pos_site_id
 _symmetry_equiv_pos_as_xyz
  1  'x, y, z'
loop_
 _atom_site_type_symbol
 _atom_site_label
 _atom_site_symmetry_multiplicity
 _atom_site_fract_x
 _atom_site_fract_y
 _atom_site_fract_z
 _atom_site_occupancy
  Er  Er0  1  0.370231  0.533731  0.250000  1
  Er  Er1  1  0.630072  0.466137  0.750000  1
  Er  Er2  1  0.129879  0.033673  0.250000  1
  Tm  Tm3  1  0.869825  0.966042  0.750000  1
  Lu  Lu4  1  0.673570  0.178390  0.062859  1
  Lu  Lu5  1  0.173173  0.321347  0.936806  1
  Lu  Lu6  1  0.826733  0.678719  0.437059  1
  Lu  Lu7  1  0.326232  0.821544  0.563193  1
  Lu  Lu8  1  0.326232  0.821544  0.936807  1
  Lu  Lu9  1  0.826733  0.678719  0.062941  1
  Lu  Lu10  1  0.173173  0.321347  0.563194  1
  Lu  Lu11  1  0.673570  0.178390  0.437141  1
  Rh  Rh12  1  0.050548  0.614599  0.750000  1
  Rh  Rh13  1  0.551310  0.886223  0.250000  1
  Rh  Rh14  1  0.449858  0.113471  0.750000  1
  Rh  Rh15  1  0.948860  0.386126  0.250000  1
