# generated using pymatgen
data_Dy5Ho(Si2Ni)2
_symmetry_space_group_name_H-M   'P 1'
_cell_length_a   4.11904600
_cell_length_b   11.19868600
_cell_length_c   11.25141200
_cell_angle_alpha   90.00000000
_cell_angle_beta   90.00000000
_cell_angle_gamma   90.00000000
_symmetry_Int_Tables_number   1
_chemical_formula_structural   Dy5Ho(Si2Ni)2
_chemical_formula_sum   'Dy10 Ho2 Si8 Ni4'
_cell_volume   519.00403880
_cell_formula_units_Z   2
loop_
 _symmetry_equiv_pos_site_id
 _symmetry_equiv_pos_as_xyz
  1  'x, y, z'
loop_
 _atom_site_type_symbol
 _atom_site_label
 _atom_site_symmetry_multiplicity
 _atom_site_fract_x
 _atom_site_fract_y
 _atom_site_fract_z
 _atom_site_occupancy
  Dy  Dy0  1  0.750000  0.940284  0.117754  1
  Dy  Dy1  1  0.750000  0.559716  0.617754  1
  Dy  Dy2  1  0.250000  0.124915  0.557739  1
  Dy  Dy3  1  0.250000  0.375085  0.057739  1
  Dy  Dy4  1  0.750000  0.875292  0.442366  1
  Dy  Dy5  1  0.750000  0.624708  0.942366  1
  Dy  Dy6  1  0.250000  0.803790  0.714273  1
  Dy  Dy7  1  0.250000  0.696210  0.214273  1
  Dy  Dy8  1  0.750000  0.196433  0.285672  1
  Dy  Dy9  1  0.750000  0.303567  0.785672  1
  Ho  Ho10  1  0.250000  0.059521  0.882384  1
  Ho  Ho11  1  0.250000  0.440479  0.382384  1
  Si  Si12  1  0.250000  0.813746  0.974926  1
  Si  Si13  1  0.250000  0.686254  0.474926  1
  Si  Si14  1  0.750000  0.186158  0.024661  1
  Si  Si15  1  0.750000  0.313842  0.524661  1
  Si  Si16  1  0.250000  0.495304  0.803610  1
  Si  Si17  1  0.250000  0.004696  0.303610  1
  Si  Si18  1  0.750000  0.504413  0.196784  1
  Si  Si19  1  0.750000  0.995587  0.696784  1
  Ni  Ni20  1  0.250000  0.366441  0.629497  1
  Ni  Ni21  1  0.250000  0.133559  0.129497  1
  Ni  Ni22  1  0.750000  0.633463  0.370336  1
  Ni  Ni23  1  0.750000  0.866537  0.870336  1
