# generated using pymatgen
data_SmCr3ReTc8
_symmetry_space_group_name_H-M   'P 1'
_cell_length_a   4.88351063
_cell_length_b   6.81816812
_cell_length_c   6.87232799
_cell_angle_alpha   82.48981826
_cell_angle_beta   69.18802304
_cell_angle_gamma   68.41615873
_symmetry_Int_Tables_number   1
_chemical_formula_structural   SmCr3ReTc8
_chemical_formula_sum   'Sm1 Cr3 Re1 Tc8'
_cell_volume   198.89638525
_cell_formula_units_Z   1
loop_
 _symmetry_equiv_pos_site_id
 _symmetry_equiv_pos_as_xyz
  1  'x, y, z'
loop_
 _atom_site_type_symbol
 _atom_site_label
 _atom_site_symmetry_multiplicity
 _atom_site_fract_x
 _atom_site_fract_y
 _atom_site_fract_z
 _atom_site_occupancy
  Sm  Sm0  1  0.000000  0.000000  0.000000  1
  Cr  Cr1  1  0.000000  0.500000  0.000000  1
  Cr  Cr2  1  0.000000  0.000000  0.500000  1
  Cr  Cr3  1  0.500000  0.000000  0.500000  1
  Re  Re4  1  0.500000  0.500000  0.000000  1
  Tc  Tc5  1  0.995579  0.642892  0.360564  1
  Tc  Tc6  1  0.004421  0.357108  0.639436  1
  Tc  Tc7  1  0.643857  0.357108  0.360564  1
  Tc  Tc8  1  0.356143  0.642892  0.639436  1
  Tc  Tc9  1  0.499835  0.216808  0.773396  1
  Tc  Tc10  1  0.500165  0.783192  0.226604  1
  Tc  Tc11  1  0.726769  0.783192  0.773396  1
  Tc  Tc12  1  0.273231  0.216808  0.226604  1
