# generated using pymatgen
data_EuLuV6O18
_symmetry_space_group_name_H-M   'P 1'
_cell_length_a   8.42985038
_cell_length_b   8.44771238
_cell_length_c   10.84859000
_cell_angle_alpha   57.60534696
_cell_angle_beta   122.28446322
_cell_angle_gamma   127.88860242
_symmetry_Int_Tables_number   1
_chemical_formula_structural   EuLuV6O18
_chemical_formula_sum   'Eu1 Lu1 V6 O18'
_cell_volume   489.83315251
_cell_formula_units_Z   1
loop_
 _symmetry_equiv_pos_site_id
 _symmetry_equiv_pos_as_xyz
  1  'x, y, z'
loop_
 _atom_site_type_symbol
 _atom_site_label
 _atom_site_symmetry_multiplicity
 _atom_site_fract_x
 _atom_site_fract_y
 _atom_site_fract_z
 _atom_site_occupancy
  Eu  Eu0  1  0.386056  0.128927  0.354511  1
  Lu  Lu1  1  0.869119  0.611977  0.853395  1
  V  V2  1  0.659909  0.129291  0.175416  1
  V  V3  1  0.884722  0.351012  0.682696  1
  V  V4  1  0.076183  0.098304  0.527748  1
  V  V5  1  0.889142  0.912279  0.019751  1
  V  V6  1  0.330849  0.577020  0.598021  1
  V  V7  1  0.415383  0.679105  0.088092  1
  O  O8  1  0.856994  0.083909  0.354563  1
  O  O9  1  0.921625  0.145989  0.857433  1
  O  O10  1  0.235284  0.046555  0.521175  1
  O  O11  1  0.940789  0.760349  0.004192  1
  O  O12  1  0.992664  0.923367  0.683850  1
  O  O13  1  0.057521  0.981935  0.180911  1
  O  O14  1  0.215986  0.364133  0.530546  1
  O  O15  1  0.619575  0.777201  0.016833  1
  O  O16  1  0.541615  0.223451  0.186791  1
  O  O17  1  0.789266  0.464204  0.698389  1
  O  O18  1  0.468886  0.878918  0.141588  1
  O  O19  1  0.139318  0.538990  0.652594  1
  O  O20  1  0.391645  0.808304  0.456865  1
  O  O21  1  0.178210  0.620346  0.951512  1
  O  O22  1  0.408304  0.462656  0.242261  1
  O  O23  1  0.550265  0.580731  0.749201  1
  O  O24  1  0.714148  0.247771  0.536797  1
  O  O25  1  0.767139  0.302678  0.030663  1
