# generated using pymatgen
data_Tb5Sm3(CdRu)2
_symmetry_space_group_name_H-M   'P 1'
_cell_length_a   9.72289296
_cell_length_b   9.72289321
_cell_length_c   9.72289200
_cell_angle_alpha   59.99999731
_cell_angle_beta   59.99999646
_cell_angle_gamma   60.00000046
_symmetry_Int_Tables_number   1
_chemical_formula_structural   Tb5Sm3(CdRu)2
_chemical_formula_sum   'Tb10 Sm6 Cd4 Ru4'
_cell_volume   649.93730503
_cell_formula_units_Z   2
loop_
 _symmetry_equiv_pos_site_id
 _symmetry_equiv_pos_as_xyz
  1  'x, y, z'
loop_
 _atom_site_type_symbol
 _atom_site_label
 _atom_site_symmetry_multiplicity
 _atom_site_fract_x
 _atom_site_fract_y
 _atom_site_fract_z
 _atom_site_occupancy
  Tb  Tb0  1  0.345664  0.345664  0.345664  1
  Tb  Tb1  1  0.345664  0.345664  0.963007  1
  Tb  Tb2  1  0.345664  0.963007  0.345664  1
  Tb  Tb3  1  0.963007  0.345664  0.345664  1
  Tb  Tb4  1  0.811350  0.188650  0.188650  1
  Tb  Tb5  1  0.188650  0.811350  0.811350  1
  Tb  Tb6  1  0.188650  0.811350  0.188650  1
  Tb  Tb7  1  0.811350  0.188650  0.811350  1
  Tb  Tb8  1  0.188650  0.188650  0.811350  1
  Tb  Tb9  1  0.811350  0.811350  0.188650  1
  Sm  Sm10  1  0.939367  0.560633  0.560633  1
  Sm  Sm11  1  0.560633  0.939367  0.939367  1
  Sm  Sm12  1  0.560633  0.939367  0.560633  1
  Sm  Sm13  1  0.939367  0.560633  0.939367  1
  Sm  Sm14  1  0.560633  0.560633  0.939367  1
  Sm  Sm15  1  0.939367  0.939367  0.560633  1
  Cd  Cd16  1  0.579477  0.579477  0.579477  1
  Cd  Cd17  1  0.579477  0.579477  0.261569  1
  Cd  Cd18  1  0.579477  0.261569  0.579477  1
  Cd  Cd19  1  0.261569  0.579477  0.579477  1
  Ru  Ru20  1  0.138885  0.138885  0.138885  1
  Ru  Ru21  1  0.138885  0.138885  0.583345  1
  Ru  Ru22  1  0.138885  0.583345  0.138885  1
  Ru  Ru23  1  0.583345  0.138885  0.138885  1
