# generated using pymatgen
data_Tb3DyCoB14
_symmetry_space_group_name_H-M   'P 1'
_cell_length_a   7.24023126
_cell_length_b   7.24115626
_cell_length_c   7.53830400
_cell_angle_alpha   90.00000000
_cell_angle_beta   90.00000000
_cell_angle_gamma   90.06749809
_symmetry_Int_Tables_number   1
_chemical_formula_structural   Tb3DyCoB14
_chemical_formula_sum   'Tb6 Dy2 Co2 B28'
_cell_volume   395.21525822
_cell_formula_units_Z   2
loop_
 _symmetry_equiv_pos_site_id
 _symmetry_equiv_pos_as_xyz
  1  'x, y, z'
loop_
 _atom_site_type_symbol
 _atom_site_label
 _atom_site_symmetry_multiplicity
 _atom_site_fract_x
 _atom_site_fract_y
 _atom_site_fract_z
 _atom_site_occupancy
  Tb  Tb0  1  0.193165  0.329645  0.000000  1
  Tb  Tb1  1  0.670496  0.193281  0.000000  1
  Tb  Tb2  1  0.329504  0.806719  0.000000  1
  Tb  Tb3  1  0.693341  0.170533  0.500000  1
  Tb  Tb4  1  0.306659  0.829467  0.500000  1
  Tb  Tb5  1  0.806835  0.670355  0.000000  1
  Dy  Dy6  1  0.829650  0.693090  0.500000  1
  Dy  Dy7  1  0.170350  0.306910  0.500000  1
  Co  Co8  1  0.000000  0.000000  0.000000  1
  Co  Co9  1  0.500000  0.500000  0.500000  1
  B  B10  1  0.173803  0.038889  0.231343  1
  B  B11  1  0.961400  0.173852  0.231521  1
  B  B12  1  0.038600  0.826148  0.231521  1
  B  B13  1  0.673861  0.461437  0.269229  1
  B  B14  1  0.326139  0.538563  0.269229  1
  B  B15  1  0.826197  0.961111  0.231343  1
  B  B16  1  0.538984  0.673818  0.269138  1
  B  B17  1  0.461016  0.326182  0.269138  1
  B  B18  1  0.826197  0.961111  0.768657  1
  B  B19  1  0.038600  0.826148  0.768479  1
  B  B20  1  0.961400  0.173852  0.768479  1
  B  B21  1  0.326139  0.538563  0.730771  1
  B  B22  1  0.673861  0.461437  0.730771  1
  B  B23  1  0.173803  0.038889  0.768657  1
  B  B24  1  0.461016  0.326182  0.730862  1
  B  B25  1  0.538984  0.673818  0.730862  1
  B  B26  1  0.088456  0.588535  0.250628  1
  B  B27  1  0.411492  0.088504  0.250161  1
  B  B28  1  0.588508  0.911496  0.250161  1
  B  B29  1  0.911544  0.411465  0.250628  1
  B  B30  1  0.911544  0.411465  0.749372  1
  B  B31  1  0.588508  0.911496  0.749839  1
  B  B32  1  0.411492  0.088504  0.749839  1
  B  B33  1  0.088456  0.588535  0.749372  1
  B  B34  1  0.000000  0.000000  0.388292  1
  B  B35  1  0.500000  0.500000  0.112014  1
  B  B36  1  0.000000  0.000000  0.611708  1
  B  B37  1  0.500000  0.500000  0.887986  1
