# generated using pymatgen
data_La2Ni2As4IrRu
_symmetry_space_group_name_H-M   'P 1'
_cell_length_a   4.25477600
_cell_length_b   4.25477600
_cell_length_c   9.82241700
_cell_angle_alpha   90.00000000
_cell_angle_beta   90.00000000
_cell_angle_gamma   90.00000000
_symmetry_Int_Tables_number   1
_chemical_formula_structural   La2Ni2As4IrRu
_chemical_formula_sum   'La2 Ni2 As4 Ir1 Ru1'
_cell_volume   177.81638195
_cell_formula_units_Z   1
loop_
 _symmetry_equiv_pos_site_id
 _symmetry_equiv_pos_as_xyz
  1  'x, y, z'
loop_
 _atom_site_type_symbol
 _atom_site_label
 _atom_site_symmetry_multiplicity
 _atom_site_fract_x
 _atom_site_fract_y
 _atom_site_fract_z
 _atom_site_occupancy
  La  La0  1  0.000000  0.500000  0.757642  1
  La  La1  1  0.500000  0.000000  0.242358  1
  Ni  Ni2  1  0.000000  0.500000  0.115512  1
  Ni  Ni3  1  0.500000  0.000000  0.884488  1
  As  As4  1  0.000000  0.500000  0.360984  1
  As  As5  1  0.000000  0.000000  0.000000  1
  As  As6  1  0.500000  0.000000  0.639016  1
  As  As7  1  0.500000  0.500000  0.000000  1
  Ir  Ir8  1  0.000000  0.000000  0.500000  1
  Ru  Ru9  1  0.500000  0.500000  0.500000  1
