# generated using pymatgen
data_TmTh2In3Ru2
_symmetry_space_group_name_H-M   'P 1'
_cell_length_a   8.32794875
_cell_length_b   8.32794835
_cell_length_c   5.15509453
_cell_angle_alpha   80.49548759
_cell_angle_beta   80.49548630
_cell_angle_gamma   33.98281593
_symmetry_Int_Tables_number   1
_chemical_formula_structural   TmTh2In3Ru2
_chemical_formula_sum   'Tm1 Th2 In3 Ru2'
_cell_volume   196.83805907
_cell_formula_units_Z   1
loop_
 _symmetry_equiv_pos_site_id
 _symmetry_equiv_pos_as_xyz
  1  'x, y, z'
loop_
 _atom_site_type_symbol
 _atom_site_label
 _atom_site_symmetry_multiplicity
 _atom_site_fract_x
 _atom_site_fract_y
 _atom_site_fract_z
 _atom_site_occupancy
  Tm  Tm0  1  0.000000  0.000000  0.000000  1
  Th  Th1  1  0.831424  0.831424  0.586750  1
  Th  Th2  1  0.168576  0.168576  0.413250  1
  In  In3  1  0.371581  0.371581  0.051547  1
  In  In4  1  0.500000  0.500000  0.500000  1
  In  In5  1  0.628419  0.628419  0.948453  1
  Ru  Ru6  1  0.792328  0.792328  0.116144  1
  Ru  Ru7  1  0.207672  0.207672  0.883856  1
