# generated using pymatgen
data_P2I13Cl
_symmetry_space_group_name_H-M   'P 1'
_cell_length_a   9.61803315
_cell_length_b   10.37414076
_cell_length_c   16.69328700
_cell_angle_alpha   90.00000000
_cell_angle_beta   90.00000000
_cell_angle_gamma   87.98927811
_symmetry_Int_Tables_number   1
_chemical_formula_structural   P2I13Cl
_chemical_formula_sum   'P4 I26 Cl2'
_cell_volume   1664.61107429
_cell_formula_units_Z   2
loop_
 _symmetry_equiv_pos_site_id
 _symmetry_equiv_pos_as_xyz
  1  'x, y, z'
loop_
 _atom_site_type_symbol
 _atom_site_label
 _atom_site_symmetry_multiplicity
 _atom_site_fract_x
 _atom_site_fract_y
 _atom_site_fract_z
 _atom_site_occupancy
  P  P0  1  0.765620  0.875295  0.139908  1
  P  P1  1  0.746939  0.373534  0.369402  1
  P  P2  1  0.234380  0.624705  0.639908  1
  P  P3  1  0.253061  0.126466  0.869402  1
  I  I4  1  0.258724  0.365386  0.155126  1
  I  I5  1  0.731409  0.884001  0.753632  1
  I  I6  1  0.782185  0.896025  0.287093  1
  I  I7  1  0.268591  0.615999  0.253632  1
  I  I8  1  0.217815  0.603975  0.787093  1
  I  I9  1  0.259194  0.126239  0.494757  1
  I  I10  1  0.742252  0.592810  0.430285  1
  I  I11  1  0.459107  0.244763  0.913302  1
  I  I12  1  0.257748  0.907190  0.930285  1
  I  I13  1  0.745484  0.398503  0.223320  1
  I  I14  1  0.540893  0.255237  0.413302  1
  I  I15  1  0.741276  0.134614  0.655126  1
  I  I16  1  0.270064  0.864833  0.329325  1
  I  I17  1  0.963883  0.257837  0.412025  1
  I  I18  1  0.769265  0.886500  0.489310  1
  I  I19  1  0.959880  0.745447  0.078799  1
  I  I20  1  0.264147  0.116626  0.230885  1
  I  I21  1  0.749443  0.089978  0.074850  1
  I  I22  1  0.729936  0.635167  0.829325  1
  I  I23  1  0.735853  0.383374  0.730885  1
  I  I24  1  0.230735  0.613500  0.989310  1
  I  I25  1  0.040120  0.754553  0.578799  1
  I  I26  1  0.740806  0.373761  0.994757  1
  I  I27  1  0.250557  0.410022  0.574850  1
  I  I28  1  0.254516  0.101497  0.723320  1
  I  I29  1  0.036117  0.242163  0.912025  1
  Cl  Cl30  1  0.585300  0.783847  0.117983  1
  Cl  Cl31  1  0.414700  0.716153  0.617983  1
