# generated using pymatgen
data_Dy3Er9CdCo5
_symmetry_space_group_name_H-M   'P 1'
_cell_length_a   8.22369018
_cell_length_b   8.22368969
_cell_length_c   8.23064556
_cell_angle_alpha   107.43905296
_cell_angle_beta   110.06404496
_cell_angle_gamma   110.89735856
_symmetry_Int_Tables_number   1
_chemical_formula_structural   Dy3Er9CdCo5
_chemical_formula_sum   'Dy3 Er9 Cd1 Co5'
_cell_volume   428.24764824
_cell_formula_units_Z   1
loop_
 _symmetry_equiv_pos_site_id
 _symmetry_equiv_pos_as_xyz
  1  'x, y, z'
loop_
 _atom_site_type_symbol
 _atom_site_label
 _atom_site_symmetry_multiplicity
 _atom_site_fract_x
 _atom_site_fract_y
 _atom_site_fract_z
 _atom_site_occupancy
  Dy  Dy0  1  0.806626  0.790002  0.596629  1
  Dy  Dy1  1  0.194072  0.789505  0.983576  1
  Dy  Dy2  1  0.806726  0.210039  0.016766  1
  Er  Er3  1  0.471458  0.288859  0.182767  1
  Er  Er4  1  0.106840  0.289833  0.816384  1
  Er  Er5  1  0.893908  0.711309  0.182767  1
  Er  Er6  1  0.526551  0.709544  0.816384  1
  Er  Er7  1  0.304326  0.620038  0.316572  1
  Er  Er8  1  0.303566  0.987682  0.682930  1
  Er  Er9  1  0.695249  0.379364  0.682930  1
  Er  Er10  1  0.696534  0.012244  0.316572  1
  Er  Er11  1  0.194151  0.210747  0.404896  1
  Cd  Cd12  1  0.000990  0.500062  0.501052  1
  Co  Co13  1  0.500055  0.613316  0.113371  1
  Co  Co14  1  0.499141  0.386441  0.885581  1
  Co  Co15  1  0.376479  0.000157  0.376637  1
  Co  Co16  1  0.621503  0.999983  0.621486  1
  Co  Co17  1  0.001827  0.000873  0.002699  1
