# generated using pymatgen
data_Ta3Ti9Al8(IrN)4
_symmetry_space_group_name_H-M   'P 1'
_cell_length_a   8.19976034
_cell_length_b   8.18234928
_cell_length_c   8.19261950
_cell_angle_alpha   60.09918094
_cell_angle_beta   59.88829480
_cell_angle_gamma   60.00903707
_symmetry_Int_Tables_number   1
_chemical_formula_structural   Ta3Ti9Al8(IrN)4
_chemical_formula_sum   'Ta3 Ti9 Al8 Ir4 N4'
_cell_volume   388.66242235
_cell_formula_units_Z   1
loop_
 _symmetry_equiv_pos_site_id
 _symmetry_equiv_pos_as_xyz
  1  'x, y, z'
loop_
 _atom_site_type_symbol
 _atom_site_label
 _atom_site_symmetry_multiplicity
 _atom_site_fract_x
 _atom_site_fract_y
 _atom_site_fract_z
 _atom_site_occupancy
  Ta  Ta0  1  0.814310  0.814310  0.185690  1
  Ta  Ta1  1  0.064482  0.434802  0.436911  1
  Ta  Ta2  1  0.434802  0.064482  0.063805  1
  Ti  Ti3  1  0.064639  0.064639  0.435361  1
  Ti  Ti4  1  0.064662  0.434746  0.064217  1
  Ti  Ti5  1  0.434746  0.064662  0.436375  1
  Ti  Ti6  1  0.185030  0.815236  0.185925  1
  Ti  Ti7  1  0.184343  0.816110  0.814200  1
  Ti  Ti8  1  0.816110  0.184343  0.185346  1
  Ti  Ti9  1  0.815236  0.185030  0.813809  1
  Ti  Ti10  1  0.435307  0.435307  0.064693  1
  Ti  Ti11  1  0.185621  0.185621  0.814379  1
  Al  Al12  1  0.413295  0.754202  0.418012  1
  Al  Al13  1  0.835176  0.836452  0.496286  1
  Al  Al14  1  0.494383  0.834413  0.835103  1
  Al  Al15  1  0.836452  0.835176  0.832088  1
  Al  Al16  1  0.754202  0.413295  0.414489  1
  Al  Al17  1  0.417933  0.414101  0.414263  1
  Al  Al18  1  0.414101  0.417933  0.753701  1
  Al  Al19  1  0.834413  0.494383  0.836103  1
  Ir  Ir20  1  0.624216  0.125031  0.626088  1
  Ir  Ir21  1  0.625012  0.625320  0.124823  1
  Ir  Ir22  1  0.125031  0.624216  0.624665  1
  Ir  Ir23  1  0.625320  0.625012  0.624845  1
  N  N24  1  0.128461  0.624561  0.122153  1
  N  N25  1  0.125464  0.122691  0.626802  1
  N  N26  1  0.624561  0.128461  0.124824  1
  N  N27  1  0.122691  0.125464  0.125043  1
