# generated using pymatgen
data_Ba4Sr2Sm2Fe4O15
_symmetry_space_group_name_H-M   'P 1'
_cell_length_a   11.77619352
_cell_length_b   11.77619405
_cell_length_c   7.02102561
_cell_angle_alpha   89.85840623
_cell_angle_beta   89.85840626
_cell_angle_gamma   119.83010636
_symmetry_Int_Tables_number   1
_chemical_formula_structural   Ba4Sr2Sm2Fe4O15
_chemical_formula_sum   'Ba8 Sr4 Sm4 Fe8 O30'
_cell_volume   844.64993140
_cell_formula_units_Z   2
loop_
 _symmetry_equiv_pos_site_id
 _symmetry_equiv_pos_as_xyz
  1  'x, y, z'
loop_
 _atom_site_type_symbol
 _atom_site_label
 _atom_site_symmetry_multiplicity
 _atom_site_fract_x
 _atom_site_fract_y
 _atom_site_fract_z
 _atom_site_occupancy
  Ba  Ba0  1  0.826828  0.172729  0.333593  1
  Ba  Ba1  1  0.830442  0.656450  0.330045  1
  Ba  Ba2  1  0.342969  0.169725  0.336334  1
  Ba  Ba3  1  0.172729  0.826828  0.833593  1
  Ba  Ba4  1  0.169725  0.342969  0.836334  1
  Ba  Ba5  1  0.656450  0.830442  0.830045  1
  Ba  Ba6  1  0.668411  0.334392  0.015642  1
  Ba  Ba7  1  0.334392  0.668411  0.515642  1
  Sr  Sr8  1  0.000087  0.000065  0.512513  1
  Sr  Sr9  1  0.000065  0.000087  0.012513  1
  Sr  Sr10  1  0.521846  0.045124  0.667230  1
  Sr  Sr11  1  0.045124  0.521846  0.167230  1
  Sm  Sm12  1  0.521314  0.478354  0.662355  1
  Sm  Sm13  1  0.956664  0.478124  0.666904  1
  Sm  Sm14  1  0.478354  0.521314  0.162355  1
  Sm  Sm15  1  0.478124  0.956664  0.166904  1
  Fe  Fe16  1  0.664698  0.332626  0.473417  1
  Fe  Fe17  1  0.332626  0.664698  0.973417  1
  Fe  Fe18  1  0.820685  0.174719  0.838486  1
  Fe  Fe19  1  0.820948  0.647669  0.833589  1
  Fe  Fe20  1  0.354377  0.178166  0.843346  1
  Fe  Fe21  1  0.174719  0.820685  0.338486  1
  Fe  Fe22  1  0.178166  0.354377  0.343346  1
  Fe  Fe23  1  0.647669  0.820948  0.333589  1
  O  O24  1  0.062342  0.671350  0.489145  1
  O  O25  1  0.334937  0.396478  0.475406  1
  O  O26  1  0.602898  0.934149  0.457162  1
  O  O27  1  0.064923  0.392251  0.488585  1
  O  O28  1  0.329132  0.937262  0.464864  1
  O  O29  1  0.603048  0.663929  0.470619  1
  O  O30  1  0.937262  0.329132  0.964864  1
  O  O31  1  0.663929  0.603048  0.970619  1
  O  O32  1  0.392251  0.064923  0.988585  1
  O  O33  1  0.934149  0.602898  0.957162  1
  O  O34  1  0.671350  0.062342  0.989145  1
  O  O35  1  0.396478  0.334937  0.975406  1
  O  O36  1  0.579858  0.418904  0.329521  1
  O  O37  1  0.582834  0.168484  0.323739  1
  O  O38  1  0.832084  0.417813  0.339899  1
  O  O39  1  0.418904  0.579858  0.829521  1
  O  O40  1  0.417813  0.832084  0.839899  1
  O  O41  1  0.168484  0.582834  0.823739  1
  O  O42  1  0.085483  0.903119  0.245214  1
  O  O43  1  0.093589  0.183785  0.248155  1
  O  O44  1  0.820505  0.905768  0.248453  1
  O  O45  1  0.903119  0.085483  0.745214  1
  O  O46  1  0.905768  0.820505  0.748453  1
  O  O47  1  0.183785  0.093589  0.748155  1
  O  O48  1  0.755876  0.255954  0.662275  1
  O  O49  1  0.746924  0.504734  0.655624  1
  O  O50  1  0.496624  0.257550  0.662083  1
  O  O51  1  0.255954  0.755876  0.162275  1
  O  O52  1  0.257550  0.496624  0.162083  1
  O  O53  1  0.504734  0.746924  0.155624  1
