# generated using pymatgen
data_Hf4Ga2GeMo
_symmetry_space_group_name_H-M   'P 1'
_cell_length_a   7.93782243
_cell_length_b   7.93331535
_cell_length_c   5.44883101
_cell_angle_alpha   89.99197513
_cell_angle_beta   90.00401390
_cell_angle_gamma   119.98122029
_symmetry_Int_Tables_number   1
_chemical_formula_structural   Hf4Ga2GeMo
_chemical_formula_sum   'Hf8 Ga4 Ge2 Mo2'
_cell_volume   297.21602224
_cell_formula_units_Z   2
loop_
 _symmetry_equiv_pos_site_id
 _symmetry_equiv_pos_as_xyz
  1  'x, y, z'
loop_
 _atom_site_type_symbol
 _atom_site_label
 _atom_site_symmetry_multiplicity
 _atom_site_fract_x
 _atom_site_fract_y
 _atom_site_fract_z
 _atom_site_occupancy
  Hf  Hf0  1  0.334160  0.666822  0.498459  1
  Hf  Hf1  1  0.665840  0.332660  0.498459  1
  Hf  Hf2  1  0.753218  0.752838  0.755933  1
  Hf  Hf3  1  0.246782  0.999620  0.755933  1
  Hf  Hf4  1  0.000000  0.246364  0.756038  1
  Hf  Hf5  1  0.246766  0.247353  0.245860  1
  Hf  Hf6  1  0.753234  0.000587  0.245860  1
  Hf  Hf7  1  0.000000  0.754681  0.244823  1
  Ga  Ga8  1  0.000000  0.602006  0.764336  1
  Ga  Ga9  1  0.604195  0.603680  0.236804  1
  Ga  Ga10  1  0.395805  0.999485  0.236804  1
  Ga  Ga11  1  0.000000  0.398466  0.235110  1
  Ge  Ge12  1  0.396032  0.396196  0.763750  1
  Ge  Ge13  1  0.603968  0.000164  0.763750  1
  Mo  Mo14  1  0.664236  0.331658  0.999040  1
  Mo  Mo15  1  0.335764  0.667423  0.999040  1
