# generated using pymatgen
data_Tb2TmZn2Ga6Co7
_symmetry_space_group_name_H-M   'P 1'
_cell_length_a   4.09115300
_cell_length_b   8.79398612
_cell_length_c   8.89622812
_cell_angle_alpha   59.57851254
_cell_angle_beta   90.00000000
_cell_angle_gamma   90.00000000
_symmetry_Int_Tables_number   1
_chemical_formula_structural   Tb2TmZn2Ga6Co7
_chemical_formula_sum   'Tb2 Tm1 Zn2 Ga6 Co7'
_cell_volume   275.99918344
_cell_formula_units_Z   1
loop_
 _symmetry_equiv_pos_site_id
 _symmetry_equiv_pos_as_xyz
  1  'x, y, z'
loop_
 _atom_site_type_symbol
 _atom_site_label
 _atom_site_symmetry_multiplicity
 _atom_site_fract_x
 _atom_site_fract_y
 _atom_site_fract_z
 _atom_site_occupancy
  Tb  Tb0  1  0.500000  0.323111  0.334363  1
  Tb  Tb1  1  0.500000  0.677181  0.657325  1
  Tm  Tm2  1  0.000000  0.999951  0.001663  1
  Zn  Zn3  1  0.500000  0.295985  0.706819  1
  Zn  Zn4  1  0.500000  0.704167  0.002686  1
  Ga  Ga5  1  0.000000  0.496727  0.505388  1
  Ga  Ga6  1  0.000000  0.503147  0.002158  1
  Ga  Ga7  1  0.000000  0.000108  0.490664  1
  Ga  Ga8  1  0.500000  0.728120  0.279995  1
  Ga  Ga9  1  0.500000  0.271811  0.008346  1
  Ga  Ga10  1  0.500000  0.999880  0.720015  1
  Co  Co11  1  0.000000  0.179346  0.178294  1
  Co  Co12  1  0.000000  0.177527  0.634078  1
  Co  Co13  1  0.000000  0.634834  0.188189  1
  Co  Co14  1  0.000000  0.822743  0.811653  1
  Co  Co15  1  0.000000  0.364809  0.823235  1
  Co  Co16  1  0.000000  0.820420  0.357937  1
  Co  Co17  1  0.500000  0.000034  0.297290  1
