# generated using pymatgen
data_Li2LaPrPd2
_symmetry_space_group_name_H-M   'P 1'
_cell_length_a   7.36981900
_cell_length_b   4.17067100
_cell_length_c   8.74210200
_cell_angle_alpha   90.00000000
_cell_angle_beta   90.00000000
_cell_angle_gamma   90.00000000
_symmetry_Int_Tables_number   1
_chemical_formula_structural   Li2LaPrPd2
_chemical_formula_sum   'Li4 La2 Pr2 Pd4'
_cell_volume   268.70677927
_cell_formula_units_Z   2
loop_
 _symmetry_equiv_pos_site_id
 _symmetry_equiv_pos_as_xyz
  1  'x, y, z'
loop_
 _atom_site_type_symbol
 _atom_site_label
 _atom_site_symmetry_multiplicity
 _atom_site_fract_x
 _atom_site_fract_y
 _atom_site_fract_z
 _atom_site_occupancy
  Li  Li0  1  0.626725  0.250000  0.552445  1
  Li  Li1  1  0.126725  0.250000  0.947555  1
  Li  Li2  1  0.372375  0.750000  0.443431  1
  Li  Li3  1  0.872375  0.750000  0.056569  1
  La  La4  1  0.953048  0.750000  0.685314  1
  La  La5  1  0.453048  0.750000  0.814686  1
  Pr  Pr6  1  0.048002  0.250000  0.311640  1
  Pr  Pr7  1  0.548002  0.250000  0.188360  1
  Pd  Pd8  1  0.245893  0.250000  0.620326  1
  Pd  Pd9  1  0.745893  0.250000  0.879674  1
  Pd  Pd10  1  0.753956  0.750000  0.381377  1
  Pd  Pd11  1  0.253956  0.750000  0.118623  1
