# generated using pymatgen
data_Er8Ta3Ti8Si16Ru
_symmetry_space_group_name_H-M   'P 1'
_cell_length_a   6.99494166
_cell_length_b   6.99494186
_cell_length_c   12.84937158
_cell_angle_alpha   90.12179838
_cell_angle_beta   89.87819927
_cell_angle_gamma   89.78274113
_symmetry_Int_Tables_number   1
_chemical_formula_structural   Er8Ta3Ti8Si16Ru
_chemical_formula_sum   'Er8 Ta3 Ti8 Si16 Ru1'
_cell_volume   628.70223182
_cell_formula_units_Z   1
loop_
 _symmetry_equiv_pos_site_id
 _symmetry_equiv_pos_as_xyz
  1  'x, y, z'
loop_
 _atom_site_type_symbol
 _atom_site_label
 _atom_site_symmetry_multiplicity
 _atom_site_fract_x
 _atom_site_fract_y
 _atom_site_fract_z
 _atom_site_occupancy
  Er  Er0  1  0.341203  0.003158  0.467732  1
  Er  Er1  1  0.497284  0.841643  0.717992  1
  Er  Er2  1  0.501025  0.159030  0.215796  1
  Er  Er3  1  0.841643  0.497284  0.282008  1
  Er  Er4  1  0.159030  0.501025  0.784204  1
  Er  Er5  1  0.658331  0.999165  0.968753  1
  Er  Er6  1  0.003158  0.341203  0.532268  1
  Er  Er7  1  0.999165  0.658331  0.031247  1
  Ta  Ta8  1  0.174165  0.827368  0.248139  1
  Ta  Ta9  1  0.827368  0.174165  0.751861  1
  Ta  Ta10  1  0.673753  0.673753  0.500000  1
  Ti  Ti11  1  0.148648  0.002923  0.874537  1
  Ti  Ti12  1  0.491858  0.656565  0.125194  1
  Ti  Ti13  1  0.508376  0.348675  0.627742  1
  Ti  Ti14  1  0.656565  0.491858  0.874806  1
  Ti  Ti15  1  0.348675  0.508376  0.372258  1
  Ti  Ti16  1  0.848483  0.993184  0.374543  1
  Ti  Ti17  1  0.002923  0.148648  0.125463  1
  Ti  Ti18  1  0.993184  0.848483  0.625457  1
  Si  Si19  1  0.203252  0.132944  0.684343  1
  Si  Si20  1  0.371898  0.700000  0.933410  1
  Si  Si21  1  0.631462  0.296512  0.434175  1
  Si  Si22  1  0.700000  0.371898  0.066590  1
  Si  Si23  1  0.296512  0.631462  0.565825  1
  Si  Si24  1  0.796401  0.867046  0.183566  1
  Si  Si25  1  0.132944  0.203252  0.315657  1
  Si  Si26  1  0.867046  0.796401  0.816434  1
  Si  Si27  1  0.288825  0.955041  0.062738  1
  Si  Si28  1  0.546964  0.793839  0.314915  1
  Si  Si29  1  0.449692  0.208469  0.818023  1
  Si  Si30  1  0.793839  0.546964  0.685085  1
  Si  Si31  1  0.208469  0.449692  0.181977  1
  Si  Si32  1  0.707322  0.047467  0.564839  1
  Si  Si33  1  0.955041  0.288825  0.937262  1
  Si  Si34  1  0.047467  0.707322  0.435161  1
  Ru  Ru35  1  0.328031  0.328031  0.000000  1
