# generated using pymatgen
data_La5Nd3(HoSn4)2
_symmetry_space_group_name_H-M   'P 1'
_cell_length_a   8.34909700
_cell_length_b   8.46573125
_cell_length_c   16.11036400
_cell_angle_alpha   90.06962885
_cell_angle_beta   90.00000000
_cell_angle_gamma   90.00000000
_symmetry_Int_Tables_number   1
_chemical_formula_structural   La5Nd3(HoSn4)2
_chemical_formula_sum   'La10 Nd6 Ho4 Sn16'
_cell_volume   1138.69920266
_cell_formula_units_Z   2
loop_
 _symmetry_equiv_pos_site_id
 _symmetry_equiv_pos_as_xyz
  1  'x, y, z'
loop_
 _atom_site_type_symbol
 _atom_site_label
 _atom_site_symmetry_multiplicity
 _atom_site_fract_x
 _atom_site_fract_y
 _atom_site_fract_z
 _atom_site_occupancy
  La  La0  1  0.368052  0.837652  0.619462  1
  La  La1  1  0.868052  0.662348  0.880538  1
  La  La2  1  0.519768  0.318694  0.902437  1
  La  La3  1  0.019768  0.181306  0.597563  1
  La  La4  1  0.480171  0.680935  0.401460  1
  La  La5  1  0.980171  0.819065  0.098540  1
  La  La6  1  0.480139  0.680668  0.098437  1
  La  La7  1  0.980139  0.819332  0.401563  1
  La  La8  1  0.519857  0.319196  0.597621  1
  La  La9  1  0.019857  0.180804  0.902379  1
  Nd  Nd10  1  0.366696  0.838313  0.879736  1
  Nd  Nd11  1  0.866696  0.661687  0.620264  1
  Nd  Nd12  1  0.632770  0.161355  0.379140  1
  Nd  Nd13  1  0.132770  0.338645  0.120860  1
  Nd  Nd14  1  0.632622  0.161649  0.121494  1
  Nd  Nd15  1  0.132622  0.338351  0.378506  1
  Ho  Ho16  1  0.200360  0.502030  0.750148  1
  Ho  Ho17  1  0.700360  0.997970  0.749852  1
  Ho  Ho18  1  0.799896  0.497401  0.250128  1
  Ho  Ho19  1  0.299896  0.002599  0.249872  1
  Sn  Sn20  1  0.292748  0.035333  0.044859  1
  Sn  Sn21  1  0.792748  0.464667  0.455141  1
  Sn  Sn22  1  0.710272  0.965802  0.544410  1
  Sn  Sn23  1  0.210272  0.534198  0.955590  1
  Sn  Sn24  1  0.704984  0.967344  0.955622  1
  Sn  Sn25  1  0.204984  0.532656  0.544378  1
  Sn  Sn26  1  0.292461  0.036382  0.453453  1
  Sn  Sn27  1  0.792461  0.463618  0.046547  1
  Sn  Sn28  1  0.565211  0.616294  0.749688  1
  Sn  Sn29  1  0.065211  0.883706  0.750312  1
  Sn  Sn30  1  0.434784  0.381876  0.249972  1
  Sn  Sn31  1  0.934784  0.118124  0.250028  1
  Sn  Sn32  1  0.324494  0.145782  0.750554  1
  Sn  Sn33  1  0.824494  0.354218  0.749446  1
  Sn  Sn34  1  0.674715  0.855311  0.250019  1
  Sn  Sn35  1  0.174715  0.644689  0.249981  1
