# generated using pymatgen
data_Hf3AlZnGaNi3
_symmetry_space_group_name_H-M   'P 1'
_cell_length_a   6.89579910
_cell_length_b   6.94808456
_cell_length_c   3.35778800
_cell_angle_alpha   90.00000000
_cell_angle_beta   90.00000000
_cell_angle_gamma   119.79287911
_symmetry_Int_Tables_number   1
_chemical_formula_structural   Hf3AlZnGaNi3
_chemical_formula_sum   'Hf3 Al1 Zn1 Ga1 Ni3'
_cell_volume   139.61633460
_cell_formula_units_Z   1
loop_
 _symmetry_equiv_pos_site_id
 _symmetry_equiv_pos_as_xyz
  1  'x, y, z'
loop_
 _atom_site_type_symbol
 _atom_site_label
 _atom_site_symmetry_multiplicity
 _atom_site_fract_x
 _atom_site_fract_y
 _atom_site_fract_z
 _atom_site_occupancy
  Hf  Hf0  1  0.410267  0.409939  0.500000  1
  Hf  Hf1  1  0.598535  0.994565  0.500000  1
  Hf  Hf2  1  0.995212  0.595218  0.500000  1
  Al  Al3  1  0.255644  0.999676  0.000000  1
  Zn  Zn4  1  0.739466  0.736921  0.000000  1
  Ga  Ga5  1  0.002266  0.261794  0.000000  1
  Ni  Ni6  1  0.662617  0.326911  0.000000  1
  Ni  Ni7  1  0.329252  0.669418  0.000000  1
  Ni  Ni8  1  0.006739  0.005557  0.500000  1
