# generated using pymatgen
data_Zr8Nb12Si15Ag
_symmetry_space_group_name_H-M   'P 1'
_cell_length_a   6.94537411
_cell_length_b   6.91270267
_cell_length_c   12.82062074
_cell_angle_alpha   90.11661793
_cell_angle_beta   89.77776101
_cell_angle_gamma   90.01671852
_symmetry_Int_Tables_number   1
_chemical_formula_structural   Zr8Nb12Si15Ag
_chemical_formula_sum   'Zr8 Nb12 Si15 Ag1'
_cell_volume   615.52881801
_cell_formula_units_Z   1
loop_
 _symmetry_equiv_pos_site_id
 _symmetry_equiv_pos_as_xyz
  1  'x, y, z'
loop_
 _atom_site_type_symbol
 _atom_site_label
 _atom_site_symmetry_multiplicity
 _atom_site_fract_x
 _atom_site_fract_y
 _atom_site_fract_z
 _atom_site_occupancy
  Zr  Zr0  1  0.999280  0.658404  0.031373  1
  Zr  Zr1  1  0.996297  0.332132  0.533471  1
  Zr  Zr2  1  0.658648  0.000568  0.969108  1
  Zr  Zr3  1  0.157919  0.498657  0.783256  1
  Zr  Zr4  1  0.833787  0.495680  0.276920  1
  Zr  Zr5  1  0.498764  0.157200  0.216233  1
  Zr  Zr6  1  0.500293  0.842424  0.718796  1
  Zr  Zr7  1  0.351074  0.004118  0.469066  1
  Nb  Nb8  1  0.359888  0.500028  0.373422  1
  Nb  Nb9  1  0.839468  0.005807  0.368001  1
  Nb  Nb10  1  0.003916  0.153229  0.125984  1
  Nb  Nb11  1  0.994393  0.847915  0.634143  1
  Nb  Nb12  1  0.652894  0.494772  0.877355  1
  Nb  Nb13  1  0.503646  0.348702  0.624156  1
  Nb  Nb14  1  0.495100  0.652750  0.122952  1
  Nb  Nb15  1  0.153128  0.003728  0.873433  1
  Nb  Nb16  1  0.660830  0.670489  0.502811  1
  Nb  Nb17  1  0.829793  0.170196  0.750200  1
  Nb  Nb18  1  0.173742  0.833977  0.245765  1
  Nb  Nb19  1  0.329937  0.330221  0.000306  1
  Si  Si20  1  0.955297  0.296764  0.936812  1
  Si  Si21  1  0.707713  0.043316  0.562322  1
  Si  Si22  1  0.200439  0.456242  0.188205  1
  Si  Si23  1  0.798094  0.544979  0.686492  1
  Si  Si24  1  0.455148  0.202598  0.813310  1
  Si  Si25  1  0.545236  0.797895  0.313543  1
  Si  Si26  1  0.297860  0.955864  0.061754  1
  Si  Si27  1  0.863511  0.791702  0.824111  1
  Si  Si28  1  0.136653  0.207564  0.324772  1
  Si  Si29  1  0.792920  0.863078  0.176961  1
  Si  Si30  1  0.291623  0.637405  0.573370  1
  Si  Si31  1  0.707184  0.364300  0.071681  1
  Si  Si32  1  0.639706  0.295377  0.429096  1
  Si  Si33  1  0.364238  0.707328  0.926812  1
  Si  Si34  1  0.208895  0.135522  0.677770  1
  Ag  Ag35  1  0.042686  0.699069  0.436238  1
