# generated using pymatgen
data_Sr21Ga8Sn6Bi
_symmetry_space_group_name_H-M   'P 1'
_cell_length_a   12.13269244
_cell_length_b   12.13269334
_cell_length_c   12.13269200
_cell_angle_alpha   60.00000366
_cell_angle_beta   60.00000121
_cell_angle_gamma   60.00000168
_symmetry_Int_Tables_number   1
_chemical_formula_structural   Sr21Ga8Sn6Bi
_chemical_formula_sum   'Sr21 Ga8 Sn6 Bi1'
_cell_volume   1262.86406584
_cell_formula_units_Z   1
loop_
 _symmetry_equiv_pos_site_id
 _symmetry_equiv_pos_as_xyz
  1  'x, y, z'
loop_
 _atom_site_type_symbol
 _atom_site_label
 _atom_site_symmetry_multiplicity
 _atom_site_fract_x
 _atom_site_fract_y
 _atom_site_fract_z
 _atom_site_occupancy
  Sr  Sr0  1  0.869762  0.869762  0.390712  1
  Sr  Sr1  1  0.609288  0.130238  0.130238  1
  Sr  Sr2  1  0.869762  0.390712  0.869762  1
  Sr  Sr3  1  0.130238  0.130238  0.130238  1
  Sr  Sr4  1  0.390712  0.869762  0.869762  1
  Sr  Sr5  1  0.869762  0.869762  0.869762  1
  Sr  Sr6  1  0.176805  0.823195  0.500000  1
  Sr  Sr7  1  0.823195  0.500000  0.500000  1
  Sr  Sr8  1  0.130238  0.130238  0.609288  1
  Sr  Sr9  1  0.823195  0.176805  0.500000  1
  Sr  Sr10  1  0.176805  0.500000  0.500000  1
  Sr  Sr11  1  0.130238  0.609288  0.130238  1
  Sr  Sr12  1  0.500000  0.500000  0.176805  1
  Sr  Sr13  1  0.500000  0.176805  0.823195  1
  Sr  Sr14  1  0.500000  0.823195  0.176805  1
  Sr  Sr15  1  0.500000  0.500000  0.823195  1
  Sr  Sr16  1  0.500000  0.176805  0.500000  1
  Sr  Sr17  1  0.176805  0.500000  0.823195  1
  Sr  Sr18  1  0.000000  0.000000  0.000000  1
  Sr  Sr19  1  0.500000  0.823195  0.500000  1
  Sr  Sr20  1  0.823195  0.500000  0.176805  1
  Ga  Ga21  1  0.693396  0.919814  0.693396  1
  Ga  Ga22  1  0.693396  0.693396  0.919814  1
  Ga  Ga23  1  0.693396  0.693396  0.693396  1
  Ga  Ga24  1  0.306604  0.080186  0.306604  1
  Ga  Ga25  1  0.919814  0.693396  0.693396  1
  Ga  Ga26  1  0.306604  0.306604  0.080186  1
  Ga  Ga27  1  0.080186  0.306604  0.306604  1
  Ga  Ga28  1  0.306604  0.306604  0.306604  1
  Sn  Sn29  1  0.787614  0.212386  0.787614  1
  Sn  Sn30  1  0.787614  0.212386  0.212386  1
  Sn  Sn31  1  0.212386  0.787614  0.212386  1
  Sn  Sn32  1  0.212386  0.787614  0.787614  1
  Sn  Sn33  1  0.787614  0.787614  0.212386  1
  Sn  Sn34  1  0.212386  0.212386  0.787614  1
  Bi  Bi35  1  0.500000  0.500000  0.500000  1
