# generated using pymatgen
data_Dy3Ga3Sn2
_symmetry_space_group_name_H-M   'P 1'
_cell_length_a   6.25510155
_cell_length_b   6.25510153
_cell_length_c   9.79138000
_cell_angle_alpha   90.00000000
_cell_angle_beta   90.00000000
_cell_angle_gamma   103.67433382
_symmetry_Int_Tables_number   1
_chemical_formula_structural   Dy3Ga3Sn2
_chemical_formula_sum   'Dy6 Ga6 Sn4'
_cell_volume   372.24148792
_cell_formula_units_Z   2
loop_
 _symmetry_equiv_pos_site_id
 _symmetry_equiv_pos_as_xyz
  1  'x, y, z'
loop_
 _atom_site_type_symbol
 _atom_site_label
 _atom_site_symmetry_multiplicity
 _atom_site_fract_x
 _atom_site_fract_y
 _atom_site_fract_z
 _atom_site_occupancy
  Dy  Dy0  1  0.640539  0.640539  0.250000  1
  Dy  Dy1  1  0.359461  0.359461  0.750000  1
  Dy  Dy2  1  0.194993  0.805007  0.500000  1
  Dy  Dy3  1  0.194993  0.805007  0.000000  1
  Dy  Dy4  1  0.805007  0.194993  0.500000  1
  Dy  Dy5  1  0.805007  0.194993  0.000000  1
  Ga  Ga6  1  0.026204  0.026204  0.250000  1
  Ga  Ga7  1  0.973796  0.973796  0.750000  1
  Ga  Ga8  1  0.310727  0.310727  0.044489  1
  Ga  Ga9  1  0.689273  0.689273  0.955511  1
  Ga  Ga10  1  0.310727  0.310727  0.455511  1
  Ga  Ga11  1  0.689273  0.689273  0.544489  1
  Sn  Sn12  1  0.491907  0.084489  0.250000  1
  Sn  Sn13  1  0.915511  0.508093  0.750000  1
  Sn  Sn14  1  0.508093  0.915511  0.750000  1
  Sn  Sn15  1  0.084489  0.491907  0.250000  1
