# generated using pymatgen
data_Sm4Mn3GeF28
_symmetry_space_group_name_H-M   'P 1'
_cell_length_a   5.49969616
_cell_length_b   8.89024792
_cell_length_c   11.90008346
_cell_angle_alpha   62.04907377
_cell_angle_beta   89.97316153
_cell_angle_gamma   89.99332423
_symmetry_Int_Tables_number   1
_chemical_formula_structural   Sm4Mn3GeF28
_chemical_formula_sum   'Sm4 Mn3 Ge1 F28'
_cell_volume   513.96675648
_cell_formula_units_Z   1
loop_
 _symmetry_equiv_pos_site_id
 _symmetry_equiv_pos_as_xyz
  1  'x, y, z'
loop_
 _atom_site_type_symbol
 _atom_site_label
 _atom_site_symmetry_multiplicity
 _atom_site_fract_x
 _atom_site_fract_y
 _atom_site_fract_z
 _atom_site_occupancy
  Sm  Sm0  1  0.761005  0.809026  0.764292  1
  Sm  Sm1  1  0.260700  0.190981  0.735841  1
  Sm  Sm2  1  0.239402  0.191149  0.235306  1
  Sm  Sm3  1  0.739145  0.809750  0.263737  1
  Mn  Mn4  1  0.257642  0.726073  0.542687  1
  Mn  Mn5  1  0.242344  0.725869  0.042669  1
  Mn  Mn6  1  0.742406  0.274280  0.457158  1
  Ge  Ge7  1  0.757151  0.273977  0.957538  1
  F  F8  1  0.428325  0.707206  0.921557  1
  F  F9  1  0.928298  0.292653  0.578358  1
  F  F10  1  0.570230  0.292516  0.077167  1
  F  F11  1  0.071659  0.707527  0.421693  1
  F  F12  1  0.459003  0.281627  0.538526  1
  F  F13  1  0.958859  0.718215  0.961526  1
  F  F14  1  0.541031  0.718562  0.461417  1
  F  F15  1  0.038519  0.282096  0.038345  1
  F  F16  1  0.769853  0.506004  0.864858  1
  F  F17  1  0.269453  0.491691  0.636254  1
  F  F18  1  0.230097  0.491658  0.136304  1
  F  F19  1  0.730499  0.508511  0.363647  1
  F  F20  1  0.759963  0.042198  0.046779  1
  F  F21  1  0.259257  0.959204  0.453202  1
  F  F22  1  0.240840  0.959040  0.953248  1
  F  F23  1  0.740915  0.040885  0.546788  1
  F  F24  1  0.980242  0.727866  0.629067  1
  F  F25  1  0.483970  0.271612  0.870541  1
  F  F26  1  0.019813  0.272111  0.370972  1
  F  F27  1  0.519838  0.727838  0.128722  1
  F  F28  1  0.059058  0.740506  0.167853  1
  F  F29  1  0.558752  0.259409  0.332135  1
  F  F30  1  0.941772  0.259509  0.833845  1
  F  F31  1  0.441406  0.740516  0.667923  1
  F  F32  1  0.399718  0.966686  0.226905  1
  F  F33  1  0.900222  0.033401  0.273084  1
  F  F34  1  0.599315  0.032946  0.772839  1
  F  F35  1  0.099298  0.966899  0.727219  1
