# generated using pymatgen
data_Nd3Al12(OsRh)2
_symmetry_space_group_name_H-M   'P 1'
_cell_length_a   8.94402731
_cell_length_b   8.87316859
_cell_length_c   9.69195400
_cell_angle_alpha   90.00000000
_cell_angle_beta   90.00000000
_cell_angle_gamma   119.73827927
_symmetry_Int_Tables_number   1
_chemical_formula_structural   Nd3Al12(OsRh)2
_chemical_formula_sum   'Nd6 Al24 Os4 Rh4'
_cell_volume   667.87186359
_cell_formula_units_Z   2
loop_
 _symmetry_equiv_pos_site_id
 _symmetry_equiv_pos_as_xyz
  1  'x, y, z'
loop_
 _atom_site_type_symbol
 _atom_site_label
 _atom_site_symmetry_multiplicity
 _atom_site_fract_x
 _atom_site_fract_y
 _atom_site_fract_z
 _atom_site_occupancy
  Nd  Nd0  1  0.187141  0.382772  0.250000  1
  Nd  Nd1  1  0.812859  0.617228  0.750000  1
  Nd  Nd2  1  0.621188  0.810594  0.250000  1
  Nd  Nd3  1  0.378812  0.189406  0.750000  1
  Nd  Nd4  1  0.187141  0.804370  0.250000  1
  Nd  Nd5  1  0.812859  0.195630  0.750000  1
  Al  Al6  1  0.332087  0.666044  0.018489  1
  Al  Al7  1  0.667913  0.333956  0.981511  1
  Al  Al8  1  0.667913  0.333956  0.518489  1
  Al  Al9  1  0.332087  0.666044  0.481511  1
  Al  Al10  1  0.162455  0.327570  0.575370  1
  Al  Al11  1  0.837545  0.672430  0.424630  1
  Al  Al12  1  0.673810  0.836905  0.575651  1
  Al  Al13  1  0.837545  0.672430  0.075370  1
  Al  Al14  1  0.326190  0.163095  0.424349  1
  Al  Al15  1  0.162455  0.327570  0.924630  1
  Al  Al16  1  0.162455  0.834885  0.575370  1
  Al  Al17  1  0.326190  0.163095  0.075651  1
  Al  Al18  1  0.837545  0.165115  0.424630  1
  Al  Al19  1  0.673810  0.836905  0.924349  1
  Al  Al20  1  0.837545  0.165115  0.075370  1
  Al  Al21  1  0.162455  0.834885  0.924630  1
  Al  Al22  1  0.561442  0.124172  0.250000  1
  Al  Al23  1  0.438558  0.875828  0.750000  1
  Al  Al24  1  0.872905  0.436453  0.250000  1
  Al  Al25  1  0.127095  0.563547  0.750000  1
  Al  Al26  1  0.561442  0.437271  0.250000  1
  Al  Al27  1  0.438558  0.562729  0.750000  1
  Al  Al28  1  0.998152  0.999076  0.250000  1
  Al  Al29  1  0.001848  0.000924  0.750000  1
  Os  Os30  1  0.000000  0.500000  0.000000  1
  Os  Os31  1  0.000000  0.500000  0.500000  1
  Os  Os32  1  0.000000  0.000000  0.000000  1
  Os  Os33  1  0.000000  0.000000  0.500000  1
  Rh  Rh34  1  0.500000  0.000000  0.000000  1
  Rh  Rh35  1  0.500000  0.000000  0.500000  1
  Rh  Rh36  1  0.500000  0.500000  0.000000  1
  Rh  Rh37  1  0.500000  0.500000  0.500000  1
