# generated using pymatgen
data_HoErB5
_symmetry_space_group_name_H-M   'P 1'
_cell_length_a   7.06469500
_cell_length_b   7.05643358
_cell_length_c   7.08754737
_cell_angle_alpha   76.33083983
_cell_angle_beta   90.00000000
_cell_angle_gamma   90.00000000
_symmetry_Int_Tables_number   1
_chemical_formula_structural   HoErB5
_chemical_formula_sum   'Ho4 Er4 B20'
_cell_volume   343.31780799
_cell_formula_units_Z   4
loop_
 _symmetry_equiv_pos_site_id
 _symmetry_equiv_pos_as_xyz
  1  'x, y, z'
loop_
 _atom_site_type_symbol
 _atom_site_label
 _atom_site_symmetry_multiplicity
 _atom_site_fract_x
 _atom_site_fract_y
 _atom_site_fract_z
 _atom_site_occupancy
  Ho  Ho0  1  0.692979  0.769964  0.624946  1
  Ho  Ho1  1  0.192979  0.230036  0.875054  1
  Ho  Ho2  1  0.307021  0.230036  0.375054  1
  Ho  Ho3  1  0.807021  0.769964  0.124946  1
  Er  Er4  1  0.314798  0.755951  0.251961  1
  Er  Er5  1  0.814798  0.244049  0.248039  1
  Er  Er6  1  0.685202  0.244049  0.748039  1
  Er  Er7  1  0.185202  0.755951  0.751961  1
  B  B8  1  0.502751  0.312908  0.042565  1
  B  B9  1  0.002751  0.687092  0.457435  1
  B  B10  1  0.497249  0.687092  0.957435  1
  B  B11  1  0.997249  0.312908  0.542565  1
  B  B12  1  0.487325  0.927907  0.922488  1
  B  B13  1  0.987325  0.072093  0.577512  1
  B  B14  1  0.512675  0.072093  0.077512  1
  B  B15  1  0.012675  0.927907  0.422488  1
  B  B16  1  0.325844  0.495751  0.039988  1
  B  B17  1  0.825844  0.504249  0.460012  1
  B  B18  1  0.674156  0.504249  0.960012  1
  B  B19  1  0.174156  0.495751  0.539988  1
  B  B20  1  0.911196  0.499114  0.911124  1
  B  B21  1  0.411196  0.500886  0.588876  1
  B  B22  1  0.088804  0.500886  0.088876  1
  B  B23  1  0.588804  0.499114  0.411124  1
  B  B24  1  0.961790  0.496451  0.674706  1
  B  B25  1  0.461790  0.503549  0.825294  1
  B  B26  1  0.038210  0.503549  0.325294  1
  B  B27  1  0.538210  0.496451  0.174706  1
