# generated using pymatgen
data_Dy2Sc2Si7Pt9W
_symmetry_space_group_name_H-M   'P 1'
_cell_length_a   9.94021204
_cell_length_b   9.95688262
_cell_length_c   3.98090200
_cell_angle_alpha   90.00000000
_cell_angle_beta   90.00000000
_cell_angle_gamma   119.64994884
_symmetry_Int_Tables_number   1
_chemical_formula_structural   Dy2Sc2Si7Pt9W
_chemical_formula_sum   'Dy2 Sc2 Si7 Pt9 W1'
_cell_volume   342.41460462
_cell_formula_units_Z   1
loop_
 _symmetry_equiv_pos_site_id
 _symmetry_equiv_pos_as_xyz
  1  'x, y, z'
loop_
 _atom_site_type_symbol
 _atom_site_label
 _atom_site_symmetry_multiplicity
 _atom_site_fract_x
 _atom_site_fract_y
 _atom_site_fract_z
 _atom_site_occupancy
  Dy  Dy0  1  0.001372  0.995485  0.000000  1
  Dy  Dy1  1  0.331544  0.668548  0.500000  1
  Sc  Sc2  1  0.567547  0.110650  0.500000  1
  Sc  Sc3  1  0.547944  0.438462  0.500000  1
  Si  Si4  1  0.246921  0.202147  0.500000  1
  Si  Si5  1  0.804346  0.045462  0.500000  1
  Si  Si6  1  0.952196  0.734280  0.500000  1
  Si  Si7  1  0.552182  0.642730  0.000000  1
  Si  Si8  1  0.356501  0.913201  0.000000  1
  Si  Si9  1  0.079323  0.448224  0.000000  1
  Si  Si10  1  0.680028  0.338879  0.000000  1
  Pt  Pt11  1  0.219456  0.941120  0.500000  1
  Pt  Pt12  1  0.058785  0.286640  0.500000  1
  Pt  Pt13  1  0.718583  0.776679  0.500000  1
  Pt  Pt14  1  0.305001  0.410640  0.000000  1
  Pt  Pt15  1  0.588455  0.899226  0.000000  1
  Pt  Pt16  1  0.098622  0.693752  0.000000  1
  Pt  Pt17  1  0.393738  0.178142  0.000000  1
  Pt  Pt18  1  0.829377  0.207190  0.000000  1
  Pt  Pt19  1  0.784891  0.613424  0.000000  1
  W  W20  1  0.883190  0.455118  0.500000  1
