# generated using pymatgen
data_Ho3Al12(RePd)2
_symmetry_space_group_name_H-M   'P 1'
_cell_length_a   8.88233642
_cell_length_b   8.88233607
_cell_length_c   9.62558074
_cell_angle_alpha   90.63060859
_cell_angle_beta   89.36939130
_cell_angle_gamma   119.45862145
_symmetry_Int_Tables_number   1
_chemical_formula_structural   Ho3Al12(RePd)2
_chemical_formula_sum   'Ho6 Al24 Re4 Pd4'
_cell_volume   661.18070511
_cell_formula_units_Z   2
loop_
 _symmetry_equiv_pos_site_id
 _symmetry_equiv_pos_as_xyz
  1  'x, y, z'
loop_
 _atom_site_type_symbol
 _atom_site_label
 _atom_site_symmetry_multiplicity
 _atom_site_fract_x
 _atom_site_fract_y
 _atom_site_fract_z
 _atom_site_occupancy
  Ho  Ho0  1  0.185964  0.383217  0.254958  1
  Ho  Ho1  1  0.814036  0.616783  0.745042  1
  Ho  Ho2  1  0.616783  0.814036  0.254958  1
  Ho  Ho3  1  0.383217  0.185964  0.745042  1
  Ho  Ho4  1  0.193121  0.806879  0.254743  1
  Ho  Ho5  1  0.806879  0.193121  0.745257  1
  Al  Al6  1  0.333980  0.666020  0.029274  1
  Al  Al7  1  0.666020  0.333980  0.970726  1
  Al  Al8  1  0.669365  0.330635  0.522561  1
  Al  Al9  1  0.330635  0.669365  0.477439  1
  Al  Al10  1  0.157990  0.324620  0.577764  1
  Al  Al11  1  0.842010  0.675380  0.422236  1
  Al  Al12  1  0.675380  0.842010  0.577764  1
  Al  Al13  1  0.837129  0.677549  0.078922  1
  Al  Al14  1  0.324620  0.157990  0.422236  1
  Al  Al15  1  0.162871  0.322451  0.921078  1
  Al  Al16  1  0.164056  0.835944  0.576022  1
  Al  Al17  1  0.322451  0.162871  0.078922  1
  Al  Al18  1  0.835944  0.164056  0.423978  1
  Al  Al19  1  0.677549  0.837129  0.921078  1
  Al  Al20  1  0.837378  0.162622  0.079012  1
  Al  Al21  1  0.162622  0.837378  0.920988  1
  Al  Al22  1  0.563255  0.127994  0.251407  1
  Al  Al23  1  0.436745  0.872006  0.748593  1
  Al  Al24  1  0.872006  0.436745  0.251407  1
  Al  Al25  1  0.127994  0.563255  0.748593  1
  Al  Al26  1  0.561835  0.438165  0.246891  1
  Al  Al27  1  0.438165  0.561835  0.753109  1
  Al  Al28  1  0.998997  0.001003  0.250504  1
  Al  Al29  1  0.001003  0.998997  0.749496  1
  Re  Re30  1  0.500000  0.000000  0.500000  1
  Re  Re31  1  0.000000  0.500000  0.500000  1
  Re  Re32  1  0.000000  0.000000  0.000000  1
  Re  Re33  1  0.000000  0.000000  0.500000  1
  Pd  Pd34  1  0.500000  0.000000  0.000000  1
  Pd  Pd35  1  0.000000  0.500000  0.000000  1
  Pd  Pd36  1  0.500000  0.500000  0.000000  1
  Pd  Pd37  1  0.500000  0.500000  0.500000  1
