# generated using pymatgen
data_DyHo2VB7
_symmetry_space_group_name_H-M   'P 1'
_cell_length_a   8.10634602
_cell_length_b   8.10634481
_cell_length_c   9.42232900
_cell_angle_alpha   90.00000000
_cell_angle_beta   90.00000000
_cell_angle_gamma   155.55164745
_symmetry_Int_Tables_number   1
_chemical_formula_structural   DyHo2VB7
_chemical_formula_sum   'Dy2 Ho4 V2 B14'
_cell_volume   256.25678904
_cell_formula_units_Z   2
loop_
 _symmetry_equiv_pos_site_id
 _symmetry_equiv_pos_as_xyz
  1  'x, y, z'
loop_
 _atom_site_type_symbol
 _atom_site_label
 _atom_site_symmetry_multiplicity
 _atom_site_fract_x
 _atom_site_fract_y
 _atom_site_fract_z
 _atom_site_occupancy
  Dy  Dy0  1  0.243450  0.756550  0.250000  1
  Dy  Dy1  1  0.756550  0.243450  0.750000  1
  Ho  Ho2  1  0.894362  0.105638  0.441604  1
  Ho  Ho3  1  0.105638  0.894362  0.558396  1
  Ho  Ho4  1  0.894362  0.105638  0.058396  1
  Ho  Ho5  1  0.105638  0.894362  0.941604  1
  V  V6  1  0.052626  0.947374  0.250000  1
  V  V7  1  0.947374  0.052626  0.750000  1
  B  B8  1  0.726902  0.273098  0.468672  1
  B  B9  1  0.273098  0.726902  0.531328  1
  B  B10  1  0.726902  0.273098  0.031328  1
  B  B11  1  0.273098  0.726902  0.968672  1
  B  B12  1  0.632492  0.367508  0.149708  1
  B  B13  1  0.367508  0.632492  0.850292  1
  B  B14  1  0.632492  0.367508  0.350292  1
  B  B15  1  0.367508  0.632492  0.649708  1
  B  B16  1  0.520744  0.479256  0.095080  1
  B  B17  1  0.479256  0.520744  0.904920  1
  B  B18  1  0.520744  0.479256  0.404920  1
  B  B19  1  0.479256  0.520744  0.595080  1
  B  B20  1  0.457744  0.542256  0.250000  1
  B  B21  1  0.542256  0.457744  0.750000  1
