# generated using pymatgen
data_CaEr2(BPt2)3
_symmetry_space_group_name_H-M   'P 1'
_cell_length_a   5.36188700
_cell_length_b   5.36188733
_cell_length_c   7.84286800
_cell_angle_alpha   90.00000000
_cell_angle_beta   90.00000000
_cell_angle_gamma   119.52351840
_symmetry_Int_Tables_number   1
_chemical_formula_structural   CaEr2(BPt2)3
_chemical_formula_sum   'Ca1 Er2 B3 Pt6'
_cell_volume   196.20321321
_cell_formula_units_Z   1
loop_
 _symmetry_equiv_pos_site_id
 _symmetry_equiv_pos_as_xyz
  1  'x, y, z'
loop_
 _atom_site_type_symbol
 _atom_site_label
 _atom_site_symmetry_multiplicity
 _atom_site_fract_x
 _atom_site_fract_y
 _atom_site_fract_z
 _atom_site_occupancy
  Ca  Ca0  1  0.500000  0.500000  0.833333  1
  Er  Er1  1  0.500000  0.000000  0.502207  1
  Er  Er2  1  0.000000  0.500000  0.164460  1
  B  B3  1  0.500000  0.500000  0.333333  1
  B  B4  1  0.500000  0.000000  0.998408  1
  B  B5  1  0.000000  0.500000  0.668259  1
  Pt  Pt6  1  0.149337  0.850663  0.833333  1
  Pt  Pt7  1  0.144712  0.300943  0.496505  1
  Pt  Pt8  1  0.699057  0.855288  0.170162  1
  Pt  Pt9  1  0.850663  0.149337  0.833333  1
  Pt  Pt10  1  0.855288  0.699057  0.496505  1
  Pt  Pt11  1  0.300943  0.144712  0.170162  1
