# generated using pymatgen
data_Y2AlIrRh
_symmetry_space_group_name_H-M   'P 1'
_cell_length_a   5.58061570
_cell_length_b   5.58061757
_cell_length_c   5.58061622
_cell_angle_alpha   137.04935855
_cell_angle_beta   116.59667708
_cell_angle_gamma   79.65074274
_symmetry_Int_Tables_number   1
_chemical_formula_structural   Y2AlIrRh
_chemical_formula_sum   'Y2 Al1 Ir1 Rh1'
_cell_volume   102.71589781
_cell_formula_units_Z   1
loop_
 _symmetry_equiv_pos_site_id
 _symmetry_equiv_pos_as_xyz
  1  'x, y, z'
loop_
 _atom_site_type_symbol
 _atom_site_label
 _atom_site_symmetry_multiplicity
 _atom_site_fract_x
 _atom_site_fract_y
 _atom_site_fract_z
 _atom_site_occupancy
  Y  Y0  1  0.696042  0.198942  0.497101  1
  Y  Y1  1  0.298158  0.801058  0.497101  1
  Al  Al2  1  0.002265  0.000000  0.002265  1
  Ir  Ir3  1  0.259756  0.500000  0.759756  1
  Rh  Rh4  1  0.743779  0.500000  0.243779  1
