# generated using pymatgen
data_DyEr2Tm5(CdPt)2
_symmetry_space_group_name_H-M   'P 1'
_cell_length_a   9.58359473
_cell_length_b   9.58359422
_cell_length_c   9.57965600
_cell_angle_alpha   60.01358574
_cell_angle_beta   60.01358750
_cell_angle_gamma   59.97282061
_symmetry_Int_Tables_number   1
_chemical_formula_structural   DyEr2Tm5(CdPt)2
_chemical_formula_sum   'Dy2 Er4 Tm10 Cd4 Pt4'
_cell_volume   622.14498761
_cell_formula_units_Z   2
loop_
 _symmetry_equiv_pos_site_id
 _symmetry_equiv_pos_as_xyz
  1  'x, y, z'
loop_
 _atom_site_type_symbol
 _atom_site_label
 _atom_site_symmetry_multiplicity
 _atom_site_fract_x
 _atom_site_fract_y
 _atom_site_fract_z
 _atom_site_occupancy
  Dy  Dy0  1  0.564643  0.564643  0.935357  1
  Dy  Dy1  1  0.935357  0.935357  0.564642  1
  Er  Er2  1  0.935911  0.564089  0.564089  1
  Er  Er3  1  0.564089  0.935911  0.935911  1
  Er  Er4  1  0.564089  0.935911  0.564089  1
  Er  Er5  1  0.935911  0.564088  0.935911  1
  Tm  Tm6  1  0.352153  0.352153  0.352466  1
  Tm  Tm7  1  0.352153  0.352153  0.943230  1
  Tm  Tm8  1  0.352466  0.943230  0.352153  1
  Tm  Tm9  1  0.943230  0.352466  0.352153  1
  Tm  Tm10  1  0.810624  0.189376  0.189376  1
  Tm  Tm11  1  0.189376  0.810624  0.810624  1
  Tm  Tm12  1  0.189376  0.810624  0.189376  1
  Tm  Tm13  1  0.810624  0.189376  0.810624  1
  Tm  Tm14  1  0.189375  0.189375  0.810625  1
  Tm  Tm15  1  0.810625  0.810625  0.189375  1
  Cd  Cd16  1  0.581846  0.581846  0.581438  1
  Cd  Cd17  1  0.581846  0.581846  0.254868  1
  Cd  Cd18  1  0.581438  0.254868  0.581846  1
  Cd  Cd19  1  0.254868  0.581438  0.581846  1
  Pt  Pt20  1  0.143366  0.143366  0.142986  1
  Pt  Pt21  1  0.143366  0.143366  0.570283  1
  Pt  Pt22  1  0.142986  0.570283  0.143366  1
  Pt  Pt23  1  0.570283  0.142986  0.143366  1
