# generated using pymatgen
data_Dy4Er2Al24ZnRu7
_symmetry_space_group_name_H-M   'P 1'
_cell_length_a   8.83309610
_cell_length_b   8.83309560
_cell_length_c   9.53354784
_cell_angle_alpha   90.00596810
_cell_angle_beta   89.99403251
_cell_angle_gamma   119.98352630
_symmetry_Int_Tables_number   1
_chemical_formula_structural   Dy4Er2Al24ZnRu7
_chemical_formula_sum   'Dy4 Er2 Al24 Zn1 Ru7'
_cell_volume   644.29258578
_cell_formula_units_Z   1
loop_
 _symmetry_equiv_pos_site_id
 _symmetry_equiv_pos_as_xyz
  1  'x, y, z'
loop_
 _atom_site_type_symbol
 _atom_site_label
 _atom_site_symmetry_multiplicity
 _atom_site_fract_x
 _atom_site_fract_y
 _atom_site_fract_z
 _atom_site_occupancy
  Dy  Dy0  1  0.192833  0.386242  0.247621  1
  Dy  Dy1  1  0.807167  0.613758  0.752379  1
  Dy  Dy2  1  0.613758  0.807167  0.247621  1
  Dy  Dy3  1  0.386242  0.192833  0.752379  1
  Er  Er4  1  0.194649  0.805351  0.252662  1
  Er  Er5  1  0.805351  0.194649  0.747338  1
  Al  Al6  1  0.329060  0.670940  0.021173  1
  Al  Al7  1  0.670940  0.329060  0.978827  1
  Al  Al8  1  0.666492  0.333508  0.516394  1
  Al  Al9  1  0.333508  0.666492  0.483606  1
  Al  Al10  1  0.161954  0.324201  0.576976  1
  Al  Al11  1  0.838046  0.675799  0.423024  1
  Al  Al12  1  0.675799  0.838046  0.576976  1
  Al  Al13  1  0.849442  0.678071  0.081933  1
  Al  Al14  1  0.324201  0.161954  0.423024  1
  Al  Al15  1  0.150558  0.321929  0.918067  1
  Al  Al16  1  0.162455  0.837545  0.578036  1
  Al  Al17  1  0.321929  0.150558  0.081933  1
  Al  Al18  1  0.837545  0.162455  0.421964  1
  Al  Al19  1  0.678071  0.849442  0.918067  1
  Al  Al20  1  0.837278  0.162722  0.078383  1
  Al  Al21  1  0.162722  0.837278  0.921617  1
  Al  Al22  1  0.560815  0.121097  0.248539  1
  Al  Al23  1  0.439185  0.878903  0.751461  1
  Al  Al24  1  0.878903  0.439185  0.248539  1
  Al  Al25  1  0.121097  0.560815  0.751461  1
  Al  Al26  1  0.563474  0.436526  0.254550  1
  Al  Al27  1  0.436526  0.563474  0.745450  1
  Al  Al28  1  0.999398  0.000602  0.250381  1
  Al  Al29  1  0.000602  0.999398  0.749619  1
  Zn  Zn30  1  0.500000  0.500000  0.000000  1
  Ru  Ru31  1  0.500000  0.000000  0.000000  1
  Ru  Ru32  1  0.000000  0.500000  0.000000  1
  Ru  Ru33  1  0.500000  0.000000  0.500000  1
  Ru  Ru34  1  0.000000  0.500000  0.500000  1
  Ru  Ru35  1  0.500000  0.500000  0.500000  1
  Ru  Ru36  1  0.000000  0.000000  0.000000  1
  Ru  Ru37  1  0.000000  0.000000  0.500000  1
