# generated using pymatgen
data_Tm11LuInFe3Bi
_symmetry_space_group_name_H-M   'P 1'
_cell_length_a   8.27628420
_cell_length_b   8.27078018
_cell_length_c   8.27077973
_cell_angle_alpha   108.63626790
_cell_angle_beta   108.23203978
_cell_angle_gamma   111.53823770
_symmetry_Int_Tables_number   1
_chemical_formula_structural   Tm11LuInFe3Bi
_chemical_formula_sum   'Tm11 Lu1 In1 Fe3 Bi1'
_cell_volume   435.53102057
_cell_formula_units_Z   1
loop_
 _symmetry_equiv_pos_site_id
 _symmetry_equiv_pos_as_xyz
  1  'x, y, z'
loop_
 _atom_site_type_symbol
 _atom_site_label
 _atom_site_symmetry_multiplicity
 _atom_site_fract_x
 _atom_site_fract_y
 _atom_site_fract_z
 _atom_site_occupancy
  Tm  Tm0  1  0.312988  0.303457  0.616080  1
  Tm  Tm1  1  0.687094  0.696902  0.384165  1
  Tm  Tm2  1  0.687094  0.302929  0.990192  1
  Tm  Tm3  1  0.312988  0.696908  0.009531  1
  Tm  Tm4  1  0.194039  0.425500  0.231624  1
  Tm  Tm5  1  0.805860  0.574814  0.768544  1
  Tm  Tm6  1  0.194039  0.962413  0.768539  1
  Tm  Tm7  1  0.954654  0.190753  0.763904  1
  Tm  Tm8  1  0.805860  0.037317  0.231046  1
  Tm  Tm9  1  0.045068  0.809015  0.236051  1
  Tm  Tm10  1  0.427073  0.190912  0.236161  1
  Lu  Lu11  1  0.573479  0.809222  0.764257  1
  In  In12  1  0.500002  0.999788  0.500214  1
  Fe  Fe13  1  0.384199  0.384207  0.999992  1
  Fe  Fe14  1  0.615863  0.616007  0.999856  1
  Fe  Fe15  1  0.999726  0.999866  0.999859  1
  Bi  Bi16  1  0.999974  0.499990  0.499984  1
