# generated using pymatgen
data_Tb5Ni(As2Ru3)6
_symmetry_space_group_name_H-M   'P 1'
_cell_length_a   12.96208800
_cell_length_b   12.96208894
_cell_length_c   4.06103300
_cell_angle_alpha   90.00000000
_cell_angle_beta   90.00000000
_cell_angle_gamma   120.00000271
_symmetry_Int_Tables_number   1
_chemical_formula_structural   Tb5Ni(As2Ru3)6
_chemical_formula_sum   'Tb5 Ni1 As12 Ru18'
_cell_volume   590.90423284
_cell_formula_units_Z   1
loop_
 _symmetry_equiv_pos_site_id
 _symmetry_equiv_pos_as_xyz
  1  'x, y, z'
loop_
 _atom_site_type_symbol
 _atom_site_label
 _atom_site_symmetry_multiplicity
 _atom_site_fract_x
 _atom_site_fract_y
 _atom_site_fract_z
 _atom_site_occupancy
  Tb  Tb0  1  0.333333  0.666667  0.000000  1
  Tb  Tb1  1  0.666667  0.333333  0.000000  1
  Tb  Tb2  1  0.190395  0.000000  0.500000  1
  Tb  Tb3  1  0.000000  0.190395  0.500000  1
  Tb  Tb4  1  0.809605  0.809605  0.500000  1
  Ni  Ni5  1  0.000000  0.000000  0.000000  1
  As  As6  1  0.372753  0.000000  0.000000  1
  As  As7  1  0.000000  0.372753  0.000000  1
  As  As8  1  0.627247  0.627247  0.000000  1
  As  As9  1  0.310568  0.478599  0.500000  1
  As  As10  1  0.521401  0.831969  0.500000  1
  As  As11  1  0.168031  0.689432  0.500000  1
  As  As12  1  0.831969  0.521401  0.500000  1
  As  As13  1  0.689432  0.168031  0.500000  1
  As  As14  1  0.478599  0.310568  0.500000  1
  As  As15  1  0.824360  0.000000  0.000000  1
  As  As16  1  0.000000  0.824360  0.000000  1
  As  As17  1  0.175640  0.175640  0.000000  1
  Ru  Ru18  1  0.191813  0.374396  0.000000  1
  Ru  Ru19  1  0.625604  0.817416  0.000000  1
  Ru  Ru20  1  0.182584  0.808187  0.000000  1
  Ru  Ru21  1  0.817416  0.625604  0.000000  1
  Ru  Ru22  1  0.808187  0.182584  0.000000  1
  Ru  Ru23  1  0.374396  0.191813  0.000000  1
  Ru  Ru24  1  0.559975  0.000000  0.000000  1
  Ru  Ru25  1  0.000000  0.559975  0.000000  1
  Ru  Ru26  1  0.440025  0.440025  0.000000  1
  Ru  Ru27  1  0.124263  0.486822  0.500000  1
  Ru  Ru28  1  0.513178  0.637440  0.500000  1
  Ru  Ru29  1  0.362560  0.875737  0.500000  1
  Ru  Ru30  1  0.637440  0.513178  0.500000  1
  Ru  Ru31  1  0.875737  0.362560  0.500000  1
  Ru  Ru32  1  0.486822  0.124263  0.500000  1
  Ru  Ru33  1  0.721106  0.000000  0.500000  1
  Ru  Ru34  1  0.000000  0.721106  0.500000  1
  Ru  Ru35  1  0.278894  0.278894  0.500000  1
