# generated using pymatgen
data_La14Ir4PdPt
_symmetry_space_group_name_H-M   'P 1'
_cell_length_a   10.24835754
_cell_length_b   10.25114208
_cell_length_c   6.56133400
_cell_angle_alpha   89.83458712
_cell_angle_beta   89.95967408
_cell_angle_gamma   120.00095428
_symmetry_Int_Tables_number   1
_chemical_formula_structural   La14Ir4PdPt
_chemical_formula_sum   'La14 Ir4 Pd1 Pt1'
_cell_volume   596.95552691
_cell_formula_units_Z   1
loop_
 _symmetry_equiv_pos_site_id
 _symmetry_equiv_pos_as_xyz
  1  'x, y, z'
loop_
 _atom_site_type_symbol
 _atom_site_label
 _atom_site_symmetry_multiplicity
 _atom_site_fract_x
 _atom_site_fract_y
 _atom_site_fract_z
 _atom_site_occupancy
  La  La0  1  0.332834  0.671019  0.466738  1
  La  La1  1  0.665921  0.332119  0.976814  1
  La  La2  1  0.124968  0.875311  0.241662  1
  La  La3  1  0.751821  0.876607  0.238906  1
  La  La4  1  0.123587  0.248166  0.231738  1
  La  La5  1  0.869226  0.125539  0.742059  1
  La  La6  1  0.254061  0.120121  0.740937  1
  La  La7  1  0.878349  0.748889  0.745085  1
  La  La8  1  0.539715  0.462493  0.438085  1
  La  La9  1  0.922622  0.463138  0.437749  1
  La  La10  1  0.537583  0.076481  0.433035  1
  La  La11  1  0.468422  0.537601  0.945878  1
  La  La12  1  0.072816  0.542923  0.941912  1
  La  La13  1  0.457312  0.921541  0.942219  1
  Ir  Ir14  1  0.814180  0.188052  0.195251  1
  Ir  Ir15  1  0.374544  0.188902  0.194564  1
  Ir  Ir16  1  0.811092  0.623368  0.191248  1
  Ir  Ir17  1  0.188764  0.810503  0.694776  1
  Pd  Pd18  1  0.188945  0.376699  0.693152  1
  Pt  Pt19  1  0.623238  0.810525  0.693979  1
