# generated using pymatgen
data_Sr4Cd7InAu6
_symmetry_space_group_name_H-M   'P 1'
_cell_length_a   15.39258886
_cell_length_b   15.32378896
_cell_length_c   4.56079600
_cell_angle_alpha   90.00000000
_cell_angle_beta   90.00000000
_cell_angle_gamma   119.95951989
_symmetry_Int_Tables_number   1
_chemical_formula_structural   Sr4Cd7InAu6
_chemical_formula_sum   'Sr8 Cd14 In2 Au12'
_cell_volume   932.02189838
_cell_formula_units_Z   2
loop_
 _symmetry_equiv_pos_site_id
 _symmetry_equiv_pos_as_xyz
  1  'x, y, z'
loop_
 _atom_site_type_symbol
 _atom_site_label
 _atom_site_symmetry_multiplicity
 _atom_site_fract_x
 _atom_site_fract_y
 _atom_site_fract_z
 _atom_site_occupancy
  Sr  Sr0  1  0.448540  0.999268  0.000000  1
  Sr  Sr1  1  0.001331  0.451244  0.000000  1
  Sr  Sr2  1  0.550586  0.549916  0.000000  1
  Sr  Sr3  1  0.333245  0.665939  0.000000  1
  Sr  Sr4  1  0.666725  0.333629  0.000000  1
  Sr  Sr5  1  0.820451  0.998940  0.500000  1
  Sr  Sr6  1  0.999813  0.820056  0.500000  1
  Sr  Sr7  1  0.179860  0.179812  0.500000  1
  Cd  Cd8  1  0.180914  0.379155  0.000000  1
  Cd  Cd9  1  0.621606  0.801837  0.000000  1
  Cd  Cd10  1  0.377648  0.179792  0.000000  1
  Cd  Cd11  1  0.197709  0.819261  0.000000  1
  Cd  Cd12  1  0.802802  0.621167  0.000000  1
  Cd  Cd13  1  0.280677  0.000812  0.500000  1
  Cd  Cd14  1  0.004287  0.282804  0.500000  1
  Cd  Cd15  1  0.718949  0.719573  0.500000  1
  Cd  Cd16  1  0.347543  0.471693  0.500000  1
  Cd  Cd17  1  0.528800  0.876482  0.500000  1
  Cd  Cd18  1  0.471538  0.347686  0.500000  1
  Cd  Cd19  1  0.123644  0.651974  0.500000  1
  Cd  Cd20  1  0.876125  0.528132  0.500000  1
  Cd  Cd21  1  0.649053  0.123321  0.500000  1
  In  In22  1  0.817996  0.197956  0.000000  1
  In  In23  1  0.000289  0.000076  0.000000  1
  Au  Au24  1  0.170306  0.493301  0.500000  1
  Au  Au25  1  0.506817  0.676572  0.500000  1
  Au  Au26  1  0.493142  0.170605  0.500000  1
  Au  Au27  1  0.323185  0.829814  0.500000  1
  Au  Au28  1  0.677345  0.506811  0.500000  1
  Au  Au29  1  0.830412  0.321710  0.500000  1
  Au  Au30  1  0.175469  0.000419  0.000000  1
  Au  Au31  1  0.997508  0.174564  0.000000  1
  Au  Au32  1  0.824483  0.824781  0.000000  1
  Au  Au33  1  0.656353  0.000560  0.000000  1
  Au  Au34  1  0.000275  0.655589  0.000000  1
  Au  Au35  1  0.344571  0.344750  0.000000  1
