# generated using pymatgen
data_Na2Mn2Co10P7
_symmetry_space_group_name_H-M   'P 1'
_cell_length_a   3.54842100
_cell_length_b   8.97275788
_cell_length_c   9.00492221
_cell_angle_alpha   120.06533359
_cell_angle_beta   90.00000000
_cell_angle_gamma   90.00000000
_symmetry_Int_Tables_number   1
_chemical_formula_structural   Na2Mn2Co10P7
_chemical_formula_sum   'Na2 Mn2 Co10 P7'
_cell_volume   248.13349613
_cell_formula_units_Z   1
loop_
 _symmetry_equiv_pos_site_id
 _symmetry_equiv_pos_as_xyz
  1  'x, y, z'
loop_
 _atom_site_type_symbol
 _atom_site_label
 _atom_site_symmetry_multiplicity
 _atom_site_fract_x
 _atom_site_fract_y
 _atom_site_fract_z
 _atom_site_occupancy
  Na  Na0  1  0.000000  0.667988  0.333830  1
  Na  Na1  1  0.500000  0.333197  0.667061  1
  Mn  Mn2  1  0.500000  0.777954  0.901362  1
  Mn  Mn3  1  0.500000  0.124797  0.222543  1
  Co  Co4  1  0.000000  0.566368  0.940448  1
  Co  Co5  1  0.000000  0.374284  0.432152  1
  Co  Co6  1  0.000000  0.057861  0.626474  1
  Co  Co7  1  0.500000  0.094435  0.873865  1
  Co  Co8  1  0.000000  0.881843  0.157547  1
  Co  Co9  1  0.000000  0.274726  0.117148  1
  Co  Co10  1  0.000000  0.844786  0.726113  1
  Co  Co11  1  0.500000  0.950914  0.387259  1
  Co  Co12  1  0.500000  0.434379  0.047797  1
  Co  Co13  1  0.500000  0.614636  0.564575  1
  P  P14  1  0.000000  0.000247  0.999770  1
  P  P15  1  0.500000  0.709463  0.114960  1
  P  P16  1  0.500000  0.407372  0.289900  1
  P  P17  1  0.500000  0.886152  0.597035  1
  P  P18  1  0.000000  0.588464  0.703621  1
  P  P19  1  0.000000  0.116620  0.412470  1
  P  P20  1  0.000000  0.293512  0.884070  1
