# generated using pymatgen
data_LiDy5Si24Os5Ru3
_symmetry_space_group_name_H-M   'P 1'
_cell_length_a   10.11980231
_cell_length_b   10.11980209
_cell_length_c   8.12674770
_cell_angle_alpha   89.97101481
_cell_angle_beta   89.97101209
_cell_angle_gamma   132.53354036
_symmetry_Int_Tables_number   1
_chemical_formula_structural   LiDy5Si24Os5Ru3
_chemical_formula_sum   'Li1 Dy5 Si24 Os5 Ru3'
_cell_volume   613.27924755
_cell_formula_units_Z   1
loop_
 _symmetry_equiv_pos_site_id
 _symmetry_equiv_pos_as_xyz
  1  'x, y, z'
loop_
 _atom_site_type_symbol
 _atom_site_label
 _atom_site_symmetry_multiplicity
 _atom_site_fract_x
 _atom_site_fract_y
 _atom_site_fract_z
 _atom_site_occupancy
  Li  Li0  1  0.499148  0.499148  0.499989  1
  Dy  Dy1  1  0.000065  0.000065  0.999182  1
  Dy  Dy2  1  0.500937  0.000850  0.749532  1
  Dy  Dy3  1  0.998994  0.499303  0.250453  1
  Dy  Dy4  1  0.499303  0.998994  0.250453  1
  Dy  Dy5  1  0.000850  0.500937  0.749532  1
  Si  Si6  1  0.797665  0.202610  0.500046  1
  Si  Si7  1  0.297280  0.702696  0.000176  1
  Si  Si8  1  0.202610  0.797665  0.500046  1
  Si  Si9  1  0.702696  0.297280  0.000176  1
  Si  Si10  1  0.336753  0.336753  0.827749  1
  Si  Si11  1  0.663754  0.663754  0.172651  1
  Si  Si12  1  0.170911  0.170911  0.334093  1
  Si  Si13  1  0.826017  0.826017  0.663201  1
  Si  Si14  1  0.123054  0.889414  0.728492  1
  Si  Si15  1  0.110769  0.878058  0.271661  1
  Si  Si16  1  0.607636  0.379333  0.233812  1
  Si  Si17  1  0.621580  0.392601  0.766510  1
  Si  Si18  1  0.878058  0.110769  0.271661  1
  Si  Si19  1  0.889414  0.123054  0.728492  1
  Si  Si20  1  0.392601  0.621580  0.766510  1
  Si  Si21  1  0.379333  0.607636  0.233812  1
  Si  Si22  1  0.349445  0.120772  0.507216  1
  Si  Si23  1  0.879204  0.650998  0.493515  1
  Si  Si24  1  0.388457  0.155280  0.006082  1
  Si  Si25  1  0.844904  0.612067  0.994185  1
  Si  Si26  1  0.650998  0.879204  0.493515  1
  Si  Si27  1  0.120772  0.349445  0.507216  1
  Si  Si28  1  0.612067  0.844904  0.994185  1
  Si  Si29  1  0.155280  0.388457  0.006082  1
  Os  Os30  1  0.671840  0.328226  0.499840  1
  Os  Os31  1  0.171124  0.828969  0.000085  1
  Os  Os32  1  0.328226  0.671840  0.499840  1
  Os  Os33  1  0.828969  0.171124  0.000085  1
  Os  Os34  1  0.123728  0.123728  0.628515  1
  Ru  Ru35  1  0.875641  0.875641  0.371426  1
  Ru  Ru36  1  0.371341  0.371341  0.124051  1
  Ru  Ru37  1  0.628576  0.628576  0.875935  1
