# generated using pymatgen
data_BaEu5(SbI3)2
_symmetry_space_group_name_H-M   'P 1'
_cell_length_a   11.59399202
_cell_length_b   11.67329466
_cell_length_c   11.67329440
_cell_angle_alpha   109.47555056
_cell_angle_beta   109.02345285
_cell_angle_gamma   110.19398899
_symmetry_Int_Tables_number   1
_chemical_formula_structural   BaEu5(SbI3)2
_chemical_formula_sum   'Ba2 Eu10 Sb4 I12'
_cell_volume   1211.87322286
_cell_formula_units_Z   2
loop_
 _symmetry_equiv_pos_site_id
 _symmetry_equiv_pos_as_xyz
  1  'x, y, z'
loop_
 _atom_site_type_symbol
 _atom_site_label
 _atom_site_symmetry_multiplicity
 _atom_site_fract_x
 _atom_site_fract_y
 _atom_site_fract_z
 _atom_site_occupancy
  Ba  Ba0  1  0.251422  0.001433  0.006337  1
  Ba  Ba1  1  0.248578  0.254915  0.750011  1
  Eu  Eu2  1  0.483320  0.495411  0.244539  1
  Eu  Eu3  1  0.750486  0.241961  0.259467  1
  Eu  Eu4  1  0.749514  0.008981  0.491475  1
  Eu  Eu5  1  0.241332  0.484000  0.491227  1
  Eu  Eu6  1  0.258668  0.749895  0.242668  1
  Eu  Eu7  1  0.016680  0.261219  0.012091  1
  Eu  Eu8  1  0.006348  0.018429  0.257945  1
  Eu  Eu9  1  0.493652  0.751597  0.012081  1
  Eu  Eu10  1  0.492453  0.242024  0.480864  1
  Eu  Eu11  1  0.007547  0.488411  0.749571  1
  Sb  Sb12  1  0.250152  0.254810  0.254212  1
  Sb  Sb13  1  0.503648  0.999791  0.254112  1
  Sb  Sb14  1  0.996352  0.250464  0.496142  1
  Sb  Sb15  1  0.249848  0.504060  0.004658  1
  I  I16  1  0.251984  0.738323  0.744860  1
  I  I17  1  0.507792  0.512473  0.746029  1
  I  I18  1  0.992208  0.738237  0.004681  1
  I  I19  1  0.750492  0.248711  0.746680  1
  I  I20  1  0.977724  0.994849  0.745706  1
  I  I21  1  0.248016  0.992876  0.486339  1
  I  I22  1  0.749508  0.496186  0.498219  1
  I  I23  1  0.522276  0.267981  0.017124  1
  I  I24  1  0.748323  0.753710  0.251139  1
  I  I25  1  0.751677  0.002815  0.005388  1
  I  I26  1  0.002394  0.497878  0.250953  1
  I  I27  1  0.497606  0.748559  0.495483  1
