# generated using pymatgen
data_NdSm4Ho3(Si3Rh)4
_symmetry_space_group_name_H-M   'P 1'
_cell_length_a   8.20417000
_cell_length_b   8.20416945
_cell_length_c   8.06905900
_cell_angle_alpha   90.00000000
_cell_angle_beta   90.00000000
_cell_angle_gamma   120.00000222
_symmetry_Int_Tables_number   1
_chemical_formula_structural   NdSm4Ho3(Si3Rh)4
_chemical_formula_sum   'Nd1 Sm4 Ho3 Si12 Rh4'
_cell_volume   470.35177307
_cell_formula_units_Z   1
loop_
 _symmetry_equiv_pos_site_id
 _symmetry_equiv_pos_as_xyz
  1  'x, y, z'
loop_
 _atom_site_type_symbol
 _atom_site_label
 _atom_site_symmetry_multiplicity
 _atom_site_fract_x
 _atom_site_fract_y
 _atom_site_fract_z
 _atom_site_occupancy
  Nd  Nd0  1  0.000000  0.000000  0.250000  1
  Sm  Sm1  1  0.000000  0.000000  0.750000  1
  Sm  Sm2  1  0.507105  0.492895  0.250000  1
  Sm  Sm3  1  0.507105  0.014211  0.250000  1
  Sm  Sm4  1  0.985789  0.492895  0.250000  1
  Ho  Ho5  1  0.491585  0.508415  0.750000  1
  Ho  Ho6  1  0.491585  0.983170  0.750000  1
  Ho  Ho7  1  0.016830  0.508415  0.750000  1
  Si  Si8  1  0.167160  0.832840  0.505096  1
  Si  Si9  1  0.167160  0.334321  0.505096  1
  Si  Si10  1  0.665679  0.832840  0.505096  1
  Si  Si11  1  0.831971  0.168029  0.503393  1
  Si  Si12  1  0.831971  0.663944  0.503393  1
  Si  Si13  1  0.336056  0.168029  0.503393  1
  Si  Si14  1  0.831971  0.168029  0.996607  1
  Si  Si15  1  0.831971  0.663944  0.996607  1
  Si  Si16  1  0.336056  0.168029  0.996607  1
  Si  Si17  1  0.167160  0.832840  0.994904  1
  Si  Si18  1  0.167160  0.334321  0.994904  1
  Si  Si19  1  0.665679  0.832840  0.994904  1
  Rh  Rh20  1  0.333333  0.666667  0.478582  1
  Rh  Rh21  1  0.666667  0.333333  0.542462  1
  Rh  Rh22  1  0.666667  0.333333  0.957538  1
  Rh  Rh23  1  0.333333  0.666667  0.021418  1
