# generated using pymatgen
data_K4Hf6RuI18
_symmetry_space_group_name_H-M   'P 1'
_cell_length_a   11.30325551
_cell_length_b   11.44830186
_cell_length_c   11.56389664
_cell_angle_alpha   118.57851398
_cell_angle_beta   100.09161946
_cell_angle_gamma   103.71658947
_symmetry_Int_Tables_number   1
_chemical_formula_structural   K4Hf6RuI18
_chemical_formula_sum   'K4 Hf6 Ru1 I18'
_cell_volume   1201.31494585
_cell_formula_units_Z   1
loop_
 _symmetry_equiv_pos_site_id
 _symmetry_equiv_pos_as_xyz
  1  'x, y, z'
loop_
 _atom_site_type_symbol
 _atom_site_label
 _atom_site_symmetry_multiplicity
 _atom_site_fract_x
 _atom_site_fract_y
 _atom_site_fract_z
 _atom_site_occupancy
  K  K0  1  0.650124  0.537913  0.226271  1
  K  K1  1  0.349876  0.462087  0.773729  1
  K  K2  1  0.683623  0.223918  0.563452  1
  K  K3  1  0.316377  0.776082  0.436548  1
  Hf  Hf4  1  0.148847  0.055096  0.227998  1
  Hf  Hf5  1  0.851153  0.944904  0.772002  1
  Hf  Hf6  1  0.863027  0.125905  0.132048  1
  Hf  Hf7  1  0.136973  0.874095  0.867952  1
  Hf  Hf8  1  0.144112  0.236818  0.044852  1
  Hf  Hf9  1  0.855888  0.763182  0.955148  1
  Ru  Ru10  1  0.000000  0.000000  0.000000  1
  I  I11  1  0.007837  0.412663  0.198600  1
  I  I12  1  0.992163  0.587337  0.801400  1
  I  I13  1  0.330557  0.335107  0.313355  1
  I  I14  1  0.669443  0.664893  0.686645  1
  I  I15  1  0.321201  0.521394  0.099673  1
  I  I16  1  0.678799  0.478606  0.900327  1
  I  I17  1  0.004235  0.794235  0.210672  1
  I  I18  1  0.995765  0.205765  0.789328  1
  I  I19  1  0.702946  0.276529  0.288897  1
  I  I20  1  0.297054  0.723471  0.711103  1
  I  I21  1  0.318396  0.127315  0.901814  1
  I  I22  1  0.681604  0.872685  0.098186  1
  I  I23  1  0.014674  0.205842  0.410590  1
  I  I24  1  0.985326  0.794158  0.589410  1
  I  I25  1  0.322623  0.921696  0.109978  1
  I  I26  1  0.677377  0.078304  0.890022  1
  I  I27  1  0.332365  0.120710  0.501752  1
  I  I28  1  0.667635  0.879290  0.498248  1
