# generated using pymatgen
data_Ca3Ga3SnSbO12
_symmetry_space_group_name_H-M   'P 1'
_cell_length_a   11.01011218
_cell_length_b   11.01011354
_cell_length_c   11.01011311
_cell_angle_alpha   109.44553798
_cell_angle_beta   109.44553402
_cell_angle_gamma   109.52260588
_symmetry_Int_Tables_number   1
_chemical_formula_structural   Ca3Ga3SnSbO12
_chemical_formula_sum   'Ca12 Ga12 Sn4 Sb4 O48'
_cell_volume   1027.43214527
_cell_formula_units_Z   4
loop_
 _symmetry_equiv_pos_site_id
 _symmetry_equiv_pos_as_xyz
  1  'x, y, z'
loop_
 _atom_site_type_symbol
 _atom_site_label
 _atom_site_symmetry_multiplicity
 _atom_site_fract_x
 _atom_site_fract_y
 _atom_site_fract_z
 _atom_site_occupancy
  Ca  Ca0  1  0.242177  0.371425  0.120814  1
  Ca  Ca1  1  0.757823  0.628575  0.879186  1
  Ca  Ca2  1  0.750611  0.121363  0.379186  1
  Ca  Ca3  1  0.121363  0.242177  0.370752  1
  Ca  Ca4  1  0.371425  0.750611  0.129248  1
  Ca  Ca5  1  0.249389  0.878637  0.620814  1
  Ca  Ca6  1  0.878637  0.757823  0.629248  1
  Ca  Ca7  1  0.628575  0.249389  0.870752  1
  Ca  Ca8  1  0.372764  0.122764  0.250000  1
  Ca  Ca9  1  0.627236  0.877236  0.750000  1
  Ca  Ca10  1  0.122764  0.372764  0.750000  1
  Ca  Ca11  1  0.877236  0.627236  0.250000  1
  Ga  Ga12  1  0.253906  0.626459  0.377494  1
  Ga  Ga13  1  0.746094  0.373541  0.622506  1
  Ga  Ga14  1  0.748965  0.876413  0.122506  1
  Ga  Ga15  1  0.373541  0.251035  0.627448  1
  Ga  Ga16  1  0.626459  0.748965  0.372552  1
  Ga  Ga17  1  0.251035  0.123587  0.877494  1
  Ga  Ga18  1  0.123587  0.746094  0.872552  1
  Ga  Ga19  1  0.876413  0.253906  0.127448  1
  Ga  Ga20  1  0.625000  0.375000  0.250000  1
  Ga  Ga21  1  0.375000  0.625000  0.750000  1
  Ga  Ga22  1  0.875000  0.125000  0.750000  1
  Ga  Ga23  1  0.125000  0.875000  0.250000  1
  Sn  Sn24  1  0.000000  0.000000  0.000000  1
  Sn  Sn25  1  0.500000  0.000000  0.500000  1
  Sn  Sn26  1  0.000000  0.000000  0.500000  1
  Sn  Sn27  1  0.000000  0.500000  0.000000  1
  Sb  Sb28  1  0.000000  0.500000  0.500000  1
  Sb  Sb29  1  0.500000  0.000000  0.000000  1
  Sb  Sb30  1  0.500000  0.500000  0.000000  1
  Sb  Sb31  1  0.500000  0.500000  0.500000  1
  O  O32  1  0.481118  0.380949  0.303107  1
  O  O33  1  0.518882  0.619051  0.696893  1
  O  O34  1  0.577843  0.178011  0.196893  1
  O  O35  1  0.916514  0.123052  0.597912  1
  O  O36  1  0.301490  0.476707  0.381130  1
  O  O37  1  0.318602  0.916514  0.293462  1
  O  O38  1  0.422157  0.821989  0.803107  1
  O  O39  1  0.083486  0.876948  0.402088  1
  O  O40  1  0.698510  0.523293  0.618870  1
  O  O41  1  0.681398  0.083486  0.706538  1
  O  O42  1  0.025140  0.318602  0.902088  1
  O  O43  1  0.205169  0.581495  0.183986  1
  O  O44  1  0.123052  0.025140  0.206538  1
  O  O45  1  0.974860  0.681398  0.097912  1
  O  O46  1  0.794831  0.418505  0.816014  1
  O  O47  1  0.876948  0.974860  0.793462  1
  O  O48  1  0.595577  0.920360  0.118870  1
  O  O49  1  0.178011  0.481118  0.600169  1
  O  O50  1  0.404423  0.079640  0.881130  1
  O  O51  1  0.821989  0.518882  0.399831  1
  O  O52  1  0.897509  0.021183  0.316014  1
  O  O53  1  0.380949  0.577843  0.899831  1
  O  O54  1  0.102491  0.978817  0.683986  1
  O  O55  1  0.619051  0.422157  0.100169  1
  O  O56  1  0.383703  0.303557  0.482016  1
  O  O57  1  0.581495  0.897509  0.376326  1
  O  O58  1  0.616297  0.696443  0.517984  1
  O  O59  1  0.418505  0.102491  0.623674  1
  O  O60  1  0.125829  0.599198  0.918190  1
  O  O61  1  0.021183  0.205169  0.123674  1
  O  O62  1  0.874171  0.400802  0.081810  1
  O  O63  1  0.978817  0.794831  0.876326  1
  O  O64  1  0.321542  0.901687  0.017984  1
  O  O65  1  0.920360  0.301490  0.324782  1
  O  O66  1  0.678458  0.098313  0.982016  1
  O  O67  1  0.079640  0.698510  0.675218  1
  O  O68  1  0.181007  0.207639  0.581810  1
  O  O69  1  0.476707  0.595577  0.175218  1
  O  O70  1  0.818993  0.792361  0.418190  1
  O  O71  1  0.523293  0.404423  0.824782  1
  O  O72  1  0.303557  0.321542  0.919854  1
  O  O73  1  0.696443  0.678458  0.080146  1
  O  O74  1  0.207639  0.125829  0.026632  1
  O  O75  1  0.792361  0.874171  0.973368  1
  O  O76  1  0.901687  0.383703  0.580146  1
  O  O77  1  0.098313  0.616297  0.419854  1
  O  O78  1  0.599198  0.181007  0.473368  1
  O  O79  1  0.400802  0.818993  0.526632  1
