# generated using pymatgen
data_V12Ga5Co3N4
_symmetry_space_group_name_H-M   'P 1'
_cell_length_a   6.51347643
_cell_length_b   6.51347678
_cell_length_c   6.51347716
_cell_angle_alpha   90.17254222
_cell_angle_beta   90.17254201
_cell_angle_gamma   90.17254562
_symmetry_Int_Tables_number   1
_chemical_formula_structural   V12Ga5Co3N4
_chemical_formula_sum   'V12 Ga5 Co3 N4'
_cell_volume   276.33296068
_cell_formula_units_Z   1
loop_
 _symmetry_equiv_pos_site_id
 _symmetry_equiv_pos_as_xyz
  1  'x, y, z'
loop_
 _atom_site_type_symbol
 _atom_site_label
 _atom_site_symmetry_multiplicity
 _atom_site_fract_x
 _atom_site_fract_y
 _atom_site_fract_z
 _atom_site_occupancy
  V  V0  1  0.796734  0.963624  0.370283  1
  V  V1  1  0.707294  0.043583  0.876937  1
  V  V2  1  0.206461  0.459381  0.124009  1
  V  V3  1  0.290066  0.538996  0.625423  1
  V  V4  1  0.963624  0.370283  0.796734  1
  V  V5  1  0.043583  0.876937  0.707294  1
  V  V6  1  0.459381  0.124009  0.206461  1
  V  V7  1  0.538996  0.625423  0.290066  1
  V  V8  1  0.370283  0.796734  0.963624  1
  V  V9  1  0.876937  0.707294  0.043583  1
  V  V10  1  0.124009  0.206461  0.459381  1
  V  V11  1  0.625423  0.290066  0.538996  1
  Ga  Ga12  1  0.679017  0.679017  0.679017  1
  Ga  Ga13  1  0.568386  0.420299  0.935971  1
  Ga  Ga14  1  0.420299  0.935971  0.568386  1
  Ga  Ga15  1  0.935971  0.568386  0.420299  1
  Ga  Ga16  1  0.072426  0.072426  0.072426  1
  Co  Co17  1  0.176607  0.823731  0.320437  1
  Co  Co18  1  0.320437  0.176607  0.823731  1
  Co  Co19  1  0.823731  0.320437  0.176607  1
  N  N20  1  0.876099  0.124976  0.625024  1
  N  N21  1  0.625024  0.876099  0.124976  1
  N  N22  1  0.124976  0.625024  0.876099  1
  N  N23  1  0.374236  0.374236  0.374236  1
