# generated using pymatgen
data_Ac5Sm5Sn8
_symmetry_space_group_name_H-M   'P 1'
_cell_length_a   8.46512900
_cell_length_b   8.64412869
_cell_length_c   16.46046142
_cell_angle_alpha   89.75579295
_cell_angle_beta   90.00000000
_cell_angle_gamma   90.00000000
_symmetry_Int_Tables_number   1
_chemical_formula_structural   Ac5Sm5Sn8
_chemical_formula_sum   'Ac10 Sm10 Sn16'
_cell_volume   1204.46133956
_cell_formula_units_Z   2
loop_
 _symmetry_equiv_pos_site_id
 _symmetry_equiv_pos_as_xyz
  1  'x, y, z'
loop_
 _atom_site_type_symbol
 _atom_site_label
 _atom_site_symmetry_multiplicity
 _atom_site_fract_x
 _atom_site_fract_y
 _atom_site_fract_z
 _atom_site_occupancy
  Ac  Ac0  1  0.487486  0.819965  0.904574  1
  Ac  Ac1  1  0.987486  0.680035  0.595426  1
  Ac  Ac2  1  0.513992  0.175682  0.400522  1
  Ac  Ac3  1  0.013992  0.324318  0.099478  1
  Ac  Ac4  1  0.513166  0.182149  0.099150  1
  Ac  Ac5  1  0.013166  0.317851  0.400850  1
  Ac  Ac6  1  0.484717  0.817113  0.595623  1
  Ac  Ac7  1  0.984717  0.682887  0.904377  1
  Ac  Ac8  1  0.639629  0.341101  0.884352  1
  Ac  Ac9  1  0.139629  0.158899  0.615648  1
  Sm  Sm10  1  0.361405  0.658625  0.373109  1
  Sm  Sm11  1  0.861405  0.841375  0.126891  1
  Sm  Sm12  1  0.356250  0.660203  0.122600  1
  Sm  Sm13  1  0.856250  0.839797  0.377400  1
  Sm  Sm14  1  0.644063  0.338249  0.623063  1
  Sm  Sm15  1  0.144063  0.161751  0.876937  1
  Sm  Sm16  1  0.306418  0.496852  0.750962  1
  Sm  Sm17  1  0.806418  0.003148  0.749038  1
  Sm  Sm18  1  0.694663  0.502784  0.250472  1
  Sm  Sm19  1  0.194663  0.997216  0.249528  1
  Sn  Sn20  1  0.193502  0.960390  0.043880  1
  Sn  Sn21  1  0.693502  0.539610  0.456120  1
  Sn  Sn22  1  0.789392  0.038885  0.541749  1
  Sn  Sn23  1  0.289392  0.461115  0.958251  1
  Sn  Sn24  1  0.818506  0.036392  0.960230  1
  Sn  Sn25  1  0.318506  0.463608  0.539770  1
  Sn  Sn26  1  0.195133  0.947060  0.448618  1
  Sn  Sn27  1  0.695133  0.552940  0.051382  1
  Sn  Sn28  1  0.682671  0.644758  0.748266  1
  Sn  Sn29  1  0.182671  0.855242  0.751734  1
  Sn  Sn30  1  0.318537  0.360928  0.249483  1
  Sn  Sn31  1  0.818537  0.139072  0.250517  1
  Sn  Sn32  1  0.443376  0.122281  0.751258  1
  Sn  Sn33  1  0.943376  0.377719  0.748742  1
  Sn  Sn34  1  0.557094  0.870174  0.248616  1
  Sn  Sn35  1  0.057094  0.629826  0.251384  1
