# generated using pymatgen
data_Lu2V3Ni9As7
_symmetry_space_group_name_H-M   'P 1'
_cell_length_a   9.46216200
_cell_length_b   9.46216092
_cell_length_c   3.75067700
_cell_angle_alpha   90.00000000
_cell_angle_beta   90.00000000
_cell_angle_gamma   120.00000283
_symmetry_Int_Tables_number   1
_chemical_formula_structural   Lu2V3Ni9As7
_chemical_formula_sum   'Lu2 V3 Ni9 As7'
_cell_volume   290.81780597
_cell_formula_units_Z   1
loop_
 _symmetry_equiv_pos_site_id
 _symmetry_equiv_pos_as_xyz
  1  'x, y, z'
loop_
 _atom_site_type_symbol
 _atom_site_label
 _atom_site_symmetry_multiplicity
 _atom_site_fract_x
 _atom_site_fract_y
 _atom_site_fract_z
 _atom_site_occupancy
  Lu  Lu0  1  0.333333  0.666667  0.000000  1
  Lu  Lu1  1  0.666667  0.333333  0.500000  1
  V  V2  1  0.218617  0.116192  0.500000  1
  V  V3  1  0.883808  0.102426  0.500000  1
  V  V4  1  0.897574  0.781383  0.500000  1
  Ni  Ni5  1  0.126314  0.281311  0.000000  1
  Ni  Ni6  1  0.718689  0.845004  0.000000  1
  Ni  Ni7  1  0.154996  0.873686  0.000000  1
  Ni  Ni8  1  0.434151  0.372337  0.000000  1
  Ni  Ni9  1  0.627663  0.061814  0.000000  1
  Ni  Ni10  1  0.938186  0.565849  0.000000  1
  Ni  Ni11  1  0.056620  0.436707  0.500000  1
  Ni  Ni12  1  0.563293  0.619913  0.500000  1
  Ni  Ni13  1  0.380087  0.943380  0.500000  1
  As  As14  1  0.293148  0.408424  0.500000  1
  As  As15  1  0.591576  0.884724  0.500000  1
  As  As16  1  0.115276  0.706852  0.500000  1
  As  As17  1  0.411112  0.117262  0.000000  1
  As  As18  1  0.882738  0.293850  0.000000  1
  As  As19  1  0.706150  0.588888  0.000000  1
  As  As20  1  0.000000  0.000000  0.000000  1
