# generated using pymatgen
data_VI31
_symmetry_space_group_name_H-M   'P 1'
_cell_length_a   9.16918000
_cell_length_b   10.38510117
_cell_length_c   20.67628600
_cell_angle_alpha   85.30545102
_cell_angle_beta   90.00000000
_cell_angle_gamma   90.00000000
_symmetry_Int_Tables_number   1
_chemical_formula_structural   VI31
_chemical_formula_sum   'V1 I31'
_cell_volume   1962.24996806
_cell_formula_units_Z   1
loop_
 _symmetry_equiv_pos_site_id
 _symmetry_equiv_pos_as_xyz
  1  'x, y, z'
loop_
 _atom_site_type_symbol
 _atom_site_label
 _atom_site_symmetry_multiplicity
 _atom_site_fract_x
 _atom_site_fract_y
 _atom_site_fract_z
 _atom_site_occupancy
  V  V0  1  0.750000  0.848439  0.161829  1
  I  I1  1  0.750000  0.388039  0.343780  1
  I  I2  1  0.250000  0.674632  0.660826  1
  I  I3  1  0.250000  0.158370  0.829989  1
  I  I4  1  0.250000  0.308691  0.161455  1
  I  I5  1  0.750000  0.977383  0.750074  1
  I  I6  1  0.750000  0.915278  0.273408  1
  I  I7  1  0.530400  0.720120  0.143123  1
  I  I8  1  0.250000  0.522940  0.268055  1
  I  I9  1  0.500704  0.803438  0.593850  1
  I  I10  1  0.250000  0.760807  0.806757  1
  I  I11  1  0.250000  0.049342  0.427037  1
  I  I12  1  0.750000  0.530879  0.458380  1
  I  I13  1  0.500631  0.268878  0.895325  1
  I  I14  1  0.250000  0.808029  0.936147  1
  I  I15  1  0.750000  0.298562  0.212242  1
  I  I16  1  0.493517  0.209615  0.387926  1
  I  I17  1  0.750000  0.236373  0.676893  1
  I  I18  1  0.250000  0.739332  0.341478  1
  I  I19  1  0.006483  0.209615  0.387926  1
  I  I20  1  0.750000  0.932317  0.529187  1
  I  I21  1  0.969600  0.720120  0.143123  1
  I  I22  1  0.250000  0.052590  0.227823  1
  I  I23  1  0.750000  0.051494  0.090327  1
  I  I24  1  0.750000  0.714304  0.811913  1
  I  I25  1  0.750000  0.478605  0.738753  1
  I  I26  1  0.250000  0.538449  0.062441  1
  I  I27  1  0.999296  0.803438  0.593850  1
  I  I28  1  0.750000  0.378370  0.959219  1
  I  I29  1  0.250000  0.359478  0.550982  1
  I  I30  1  0.250000  0.273186  0.680555  1
  I  I31  1  0.999369  0.268878  0.895325  1
