# generated using pymatgen
data_Rb4Na2HoInAs4
_symmetry_space_group_name_H-M   'P 1'
_cell_length_a   9.48618987
_cell_length_b   9.48618926
_cell_length_c   9.48618869
_cell_angle_alpha   136.26626786
_cell_angle_beta   137.22791686
_cell_angle_gamma   62.83071019
_symmetry_Int_Tables_number   1
_chemical_formula_structural   Rb4Na2HoInAs4
_chemical_formula_sum   'Rb4 Na2 Ho1 In1 As4'
_cell_volume   395.76659870
_cell_formula_units_Z   1
loop_
 _symmetry_equiv_pos_site_id
 _symmetry_equiv_pos_as_xyz
  1  'x, y, z'
loop_
 _atom_site_type_symbol
 _atom_site_label
 _atom_site_symmetry_multiplicity
 _atom_site_fract_x
 _atom_site_fract_y
 _atom_site_fract_z
 _atom_site_occupancy
  Rb  Rb0  1  0.668738  0.401347  0.715402  1
  Rb  Rb1  1  0.831262  0.046663  0.232610  1
  Rb  Rb2  1  0.185946  0.953337  0.784598  1
  Rb  Rb3  1  0.314054  0.598653  0.267390  1
  Na  Na4  1  0.750000  0.000000  0.750000  1
  Na  Na5  1  0.250000  0.000000  0.250000  1
  Ho  Ho6  1  0.750000  0.500000  0.250000  1
  In  In7  1  0.250000  0.500000  0.750000  1
  As  As8  1  0.399064  0.183106  0.777110  1
  As  As9  1  0.594004  0.816894  0.215958  1
  As  As10  1  0.100936  0.378047  0.284042  1
  As  As11  1  0.905996  0.621953  0.722890  1
