# generated using pymatgen
data_Tb17Dy(ErSn8)2
_symmetry_space_group_name_H-M   'P 1'
_cell_length_a   8.06248900
_cell_length_b   8.21386467
_cell_length_c   15.53329300
_cell_angle_alpha   90.00000000
_cell_angle_beta   90.00000000
_cell_angle_gamma   89.97691111
_symmetry_Int_Tables_number   1
_chemical_formula_structural   Tb17Dy(ErSn8)2
_chemical_formula_sum   'Tb17 Dy1 Er2 Sn16'
_cell_volume   1028.67971818
_cell_formula_units_Z   1
loop_
 _symmetry_equiv_pos_site_id
 _symmetry_equiv_pos_as_xyz
  1  'x, y, z'
loop_
 _atom_site_type_symbol
 _atom_site_label
 _atom_site_symmetry_multiplicity
 _atom_site_fract_x
 _atom_site_fract_y
 _atom_site_fract_z
 _atom_site_occupancy
  Tb  Tb0  1  0.367438  0.836165  0.878013  1
  Tb  Tb1  1  0.867722  0.663632  0.621820  1
  Tb  Tb2  1  0.632672  0.163901  0.378318  1
  Tb  Tb3  1  0.132255  0.336408  0.121576  1
  Tb  Tb4  1  0.632672  0.163901  0.121682  1
  Tb  Tb5  1  0.132255  0.336408  0.378424  1
  Tb  Tb6  1  0.367438  0.836165  0.621987  1
  Tb  Tb7  1  0.867722  0.663632  0.878180  1
  Tb  Tb8  1  0.519926  0.320201  0.902115  1
  Tb  Tb9  1  0.020182  0.179956  0.597969  1
  Tb  Tb10  1  0.480114  0.679735  0.402293  1
  Tb  Tb11  1  0.979790  0.819988  0.097748  1
  Tb  Tb12  1  0.480114  0.679735  0.097707  1
  Tb  Tb13  1  0.979790  0.819988  0.402252  1
  Tb  Tb14  1  0.519926  0.320201  0.597885  1
  Tb  Tb15  1  0.020182  0.179956  0.902031  1
  Tb  Tb16  1  0.301413  0.002201  0.250000  1
  Dy  Dy17  1  0.698617  0.997717  0.750000  1
  Er  Er18  1  0.199140  0.502217  0.750000  1
  Er  Er19  1  0.800901  0.497624  0.250000  1
  Sn  Sn20  1  0.292582  0.035299  0.041785  1
  Sn  Sn21  1  0.792575  0.464775  0.457665  1
  Sn  Sn22  1  0.707447  0.964844  0.542194  1
  Sn  Sn23  1  0.207442  0.535291  0.957479  1
  Sn  Sn24  1  0.707447  0.964844  0.957806  1
  Sn  Sn25  1  0.207442  0.535291  0.542521  1
  Sn  Sn26  1  0.292582  0.035299  0.458215  1
  Sn  Sn27  1  0.792575  0.464775  0.042335  1
  Sn  Sn28  1  0.564877  0.618214  0.750000  1
  Sn  Sn29  1  0.065343  0.881256  0.750000  1
  Sn  Sn30  1  0.435182  0.381981  0.250000  1
  Sn  Sn31  1  0.934120  0.119033  0.250000  1
  Sn  Sn32  1  0.328335  0.147359  0.750000  1
  Sn  Sn33  1  0.828653  0.353627  0.750000  1
  Sn  Sn34  1  0.672040  0.852451  0.250000  1
  Sn  Sn35  1  0.171099  0.645932  0.250000  1
