# generated using pymatgen
data_Pr8Sc12Si15As
_symmetry_space_group_name_H-M   'P 1'
_cell_length_a   7.26498044
_cell_length_b   7.56077732
_cell_length_c   14.22497500
_cell_angle_alpha   90.00000000
_cell_angle_beta   90.00000000
_cell_angle_gamma   90.40535882
_symmetry_Int_Tables_number   1
_chemical_formula_structural   Pr8Sc12Si15As
_chemical_formula_sum   'Pr8 Sc12 Si15 As1'
_cell_volume   781.34266510
_cell_formula_units_Z   1
loop_
 _symmetry_equiv_pos_site_id
 _symmetry_equiv_pos_as_xyz
  1  'x, y, z'
loop_
 _atom_site_type_symbol
 _atom_site_label
 _atom_site_symmetry_multiplicity
 _atom_site_fract_x
 _atom_site_fract_y
 _atom_site_fract_z
 _atom_site_occupancy
  Pr  Pr0  1  0.012181  0.172321  0.402301  1
  Pr  Pr1  1  0.511645  0.327324  0.401969  1
  Pr  Pr2  1  0.491516  0.669343  0.904017  1
  Pr  Pr3  1  0.491516  0.669343  0.595983  1
  Pr  Pr4  1  0.988183  0.828588  0.598947  1
  Pr  Pr5  1  0.988183  0.828588  0.901053  1
  Pr  Pr6  1  0.511645  0.327324  0.098031  1
  Pr  Pr7  1  0.012181  0.172321  0.097699  1
  Sc  Sc8  1  0.328384  0.175935  0.626049  1
  Sc  Sc9  1  0.670234  0.824222  0.374436  1
  Sc  Sc10  1  0.661577  0.002609  0.750000  1
  Sc  Sc11  1  0.169878  0.676028  0.374721  1
  Sc  Sc12  1  0.828774  0.325547  0.875198  1
  Sc  Sc13  1  0.828774  0.325547  0.624802  1
  Sc  Sc14  1  0.840516  0.501528  0.250000  1
  Sc  Sc15  1  0.341053  0.998141  0.250000  1
  Sc  Sc16  1  0.328384  0.175935  0.873951  1
  Sc  Sc17  1  0.169878  0.676028  0.125279  1
  Sc  Sc18  1  0.670234  0.824222  0.125564  1
  Sc  Sc19  1  0.157251  0.494565  0.750000  1
  Si  Si20  1  0.465004  0.625189  0.250000  1
  Si  Si21  1  0.023305  0.138019  0.750000  1
  Si  Si22  1  0.532403  0.372921  0.750000  1
  Si  Si23  1  0.152040  0.464076  0.540284  1
  Si  Si24  1  0.966388  0.874611  0.250000  1
  Si  Si25  1  0.711699  0.116084  0.250000  1
  Si  Si26  1  0.848206  0.537359  0.039781  1
  Si  Si27  1  0.348801  0.963585  0.039536  1
  Si  Si28  1  0.152040  0.464076  0.959716  1
  Si  Si29  1  0.650315  0.036193  0.540348  1
  Si  Si30  1  0.348801  0.963585  0.460464  1
  Si  Si31  1  0.848206  0.537359  0.460219  1
  Si  Si32  1  0.789913  0.618474  0.750000  1
  Si  Si33  1  0.211885  0.384039  0.250000  1
  Si  Si34  1  0.650315  0.036193  0.959652  1
  As  As35  1  0.298690  0.872778  0.750000  1
