# generated using pymatgen
data_Dy16In6ReAu
_symmetry_space_group_name_H-M   'P 1'
_cell_length_a   10.45612300
_cell_length_b   10.45612313
_cell_length_c   6.98026800
_cell_angle_alpha   90.00000000
_cell_angle_beta   90.00000000
_cell_angle_gamma   120.00000276
_symmetry_Int_Tables_number   1
_chemical_formula_structural   Dy16In6ReAu
_chemical_formula_sum   'Dy16 In6 Re1 Au1'
_cell_volume   660.91268716
_cell_formula_units_Z   1
loop_
 _symmetry_equiv_pos_site_id
 _symmetry_equiv_pos_as_xyz
  1  'x, y, z'
loop_
 _atom_site_type_symbol
 _atom_site_label
 _atom_site_symmetry_multiplicity
 _atom_site_fract_x
 _atom_site_fract_y
 _atom_site_fract_z
 _atom_site_occupancy
  Dy  Dy0  1  0.523935  0.047868  0.512289  1
  Dy  Dy1  1  0.952132  0.476065  0.512289  1
  Dy  Dy2  1  0.523935  0.476065  0.512289  1
  Dy  Dy3  1  0.466321  0.932643  0.007651  1
  Dy  Dy4  1  0.067357  0.533679  0.007651  1
  Dy  Dy5  1  0.466321  0.533679  0.007651  1
  Dy  Dy6  1  0.174501  0.349000  0.718675  1
  Dy  Dy7  1  0.651000  0.825499  0.718675  1
  Dy  Dy8  1  0.174501  0.825499  0.718675  1
  Dy  Dy9  1  0.826554  0.653108  0.215343  1
  Dy  Dy10  1  0.346892  0.173446  0.215343  1
  Dy  Dy11  1  0.826554  0.173446  0.215343  1
  Dy  Dy12  1  0.666667  0.333333  0.872518  1
  Dy  Dy13  1  0.333333  0.666667  0.374179  1
  Dy  Dy14  1  0.000000  0.000000  0.489942  1
  Dy  Dy15  1  0.000000  0.000000  0.993647  1
  In  In16  1  0.835553  0.671107  0.749674  1
  In  In17  1  0.328893  0.164447  0.749674  1
  In  In18  1  0.835553  0.164447  0.749674  1
  In  In19  1  0.162466  0.324931  0.252767  1
  In  In20  1  0.675069  0.837534  0.252767  1
  In  In21  1  0.162466  0.837534  0.252767  1
  Re  Re22  1  0.333333  0.666667  0.774133  1
  Au  Au23  1  0.666667  0.333333  0.284426  1
