# generated using pymatgen
data_Dy2Lu2Al17SiIr6
_symmetry_space_group_name_H-M   'P 1'
_cell_length_a   7.52885405
_cell_length_b   7.52887525
_cell_length_c   9.38497000
_cell_angle_alpha   90.00000000
_cell_angle_beta   90.00000000
_cell_angle_gamma   119.54966496
_symmetry_Int_Tables_number   1
_chemical_formula_structural   Dy2Lu2Al17SiIr6
_chemical_formula_sum   'Dy2 Lu2 Al17 Si1 Ir6'
_cell_volume   462.78091566
_cell_formula_units_Z   1
loop_
 _symmetry_equiv_pos_site_id
 _symmetry_equiv_pos_as_xyz
  1  'x, y, z'
loop_
 _atom_site_type_symbol
 _atom_site_label
 _atom_site_symmetry_multiplicity
 _atom_site_fract_x
 _atom_site_fract_y
 _atom_site_fract_z
 _atom_site_occupancy
  Dy  Dy0  1  0.003735  0.329986  0.750000  1
  Dy  Dy1  1  0.329988  0.003739  0.750000  1
  Lu  Lu2  1  0.994235  0.677911  0.250000  1
  Lu  Lu3  1  0.677916  0.994241  0.250000  1
  Al  Al4  1  0.873712  0.873715  0.750000  1
  Al  Al5  1  0.999944  0.337706  0.079379  1
  Al  Al6  1  0.998081  0.665503  0.926442  1
  Al  Al7  1  0.998081  0.665503  0.573558  1
  Al  Al8  1  0.337709  0.999946  0.420621  1
  Al  Al9  1  0.999944  0.337706  0.420621  1
  Al  Al10  1  0.665501  0.998080  0.573557  1
  Al  Al11  1  0.665501  0.998080  0.926443  1
  Al  Al12  1  0.337709  0.999946  0.079379  1
  Al  Al13  1  0.332170  0.332170  0.554425  1
  Al  Al14  1  0.663907  0.663906  0.444720  1
  Al  Al15  1  0.663907  0.663906  0.055280  1
  Al  Al16  1  0.332170  0.332170  0.945575  1
  Al  Al17  1  0.337139  0.551031  0.250000  1
  Al  Al18  1  0.660921  0.452291  0.750000  1
  Al  Al19  1  0.551033  0.337137  0.250000  1
  Al  Al20  1  0.452289  0.660920  0.750000  1
  Si  Si21  1  0.131600  0.131598  0.250000  1
  Ir  Ir22  1  0.670478  0.326521  0.001270  1
  Ir  Ir23  1  0.326521  0.670478  0.001270  1
  Ir  Ir24  1  0.326521  0.670478  0.498730  1
  Ir  Ir25  1  0.670478  0.326521  0.498730  1
  Ir  Ir26  1  0.999407  0.999407  0.009252  1
  Ir  Ir27  1  0.999407  0.999407  0.490748  1
