# generated using pymatgen
data_LiGd12Co4Sn
_symmetry_space_group_name_H-M   'P 1'
_cell_length_a   8.44032903
_cell_length_b   8.43982513
_cell_length_c   8.44026800
_cell_angle_alpha   106.71917643
_cell_angle_beta   110.22306550
_cell_angle_gamma   111.51432198
_symmetry_Int_Tables_number   1
_chemical_formula_structural   LiGd12Co4Sn
_chemical_formula_sum   'Li1 Gd12 Co4 Sn1'
_cell_volume   461.94565572
_cell_formula_units_Z   1
loop_
 _symmetry_equiv_pos_site_id
 _symmetry_equiv_pos_as_xyz
  1  'x, y, z'
loop_
 _atom_site_type_symbol
 _atom_site_label
 _atom_site_symmetry_multiplicity
 _atom_site_fract_x
 _atom_site_fract_y
 _atom_site_fract_z
 _atom_site_occupancy
  Li  Li0  1  0.501058  0.501156  0.999931  1
  Gd  Gd1  1  0.699137  0.274996  0.974875  1
  Gd  Gd2  1  0.300141  0.724368  0.025169  1
  Gd  Gd3  1  0.699112  0.724255  0.424118  1
  Gd  Gd4  1  0.300136  0.274941  0.575721  1
  Gd  Gd5  1  0.812170  0.134472  0.322302  1
  Gd  Gd6  1  0.812195  0.489937  0.677712  1
  Gd  Gd7  1  0.188345  0.866418  0.677981  1
  Gd  Gd8  1  0.188364  0.510402  0.321993  1
  Gd  Gd9  1  0.606576  0.790823  0.815742  1
  Gd  Gd10  1  0.975092  0.790832  0.184257  1
  Gd  Gd11  1  0.023176  0.207953  0.815204  1
  Gd  Gd12  1  0.392817  0.207950  0.184847  1
  Co  Co13  1  0.841909  0.499681  0.342252  1
  Co  Co14  1  0.157594  0.499716  0.657861  1
  Co  Co15  1  0.000973  0.115570  0.114676  1
  Co  Co16  1  0.001031  0.886325  0.885373  1
  Sn  Sn17  1  0.500174  0.000208  0.499987  1
