# generated using pymatgen
data_Yb2HoU(B4Ru)4
_symmetry_space_group_name_H-M   'P 1'
_cell_length_a   3.54646700
_cell_length_b   5.94307020
_cell_length_c   11.48392022
_cell_angle_alpha   89.97395977
_cell_angle_beta   90.00000000
_cell_angle_gamma   90.00000000
_symmetry_Int_Tables_number   1
_chemical_formula_structural   Yb2HoU(B4Ru)4
_chemical_formula_sum   'Yb2 Ho1 U1 B16 Ru4'
_cell_volume   242.04543997
_cell_formula_units_Z   1
loop_
 _symmetry_equiv_pos_site_id
 _symmetry_equiv_pos_as_xyz
  1  'x, y, z'
loop_
 _atom_site_type_symbol
 _atom_site_label
 _atom_site_symmetry_multiplicity
 _atom_site_fract_x
 _atom_site_fract_y
 _atom_site_fract_z
 _atom_site_occupancy
  Yb  Yb0  1  0.500000  0.127859  0.353134  1
  Yb  Yb1  1  0.500000  0.871231  0.649276  1
  Ho  Ho2  1  0.500000  0.370537  0.847369  1
  U  U3  1  0.500000  0.628973  0.152149  1
  B  B4  1  0.000000  0.973858  0.191785  1
  B  B5  1  0.000000  0.024492  0.807995  1
  B  B6  1  0.000000  0.477600  0.307818  1
  B  B7  1  0.000000  0.524292  0.691216  1
  B  B8  1  0.000000  0.787869  0.313648  1
  B  B9  1  0.000000  0.211459  0.684403  1
  B  B10  1  0.000000  0.291011  0.185756  1
  B  B11  1  0.000000  0.713918  0.813208  1
  B  B12  1  0.000000  0.862912  0.469145  1
  B  B13  1  0.000000  0.135790  0.529958  1
  B  B14  1  0.000000  0.366577  0.031547  1
  B  B15  1  0.000000  0.634972  0.969516  1
  B  B16  1  0.000000  0.886840  0.047250  1
  B  B17  1  0.000000  0.111607  0.952412  1
  B  B18  1  0.000000  0.386106  0.453685  1
  B  B19  1  0.000000  0.612447  0.546007  1
  Ru  Ru20  1  0.500000  0.637238  0.406159  1
  Ru  Ru21  1  0.500000  0.362703  0.590747  1
  Ru  Ru22  1  0.500000  0.142171  0.094436  1
  Ru  Ru23  1  0.500000  0.857538  0.911383  1
