# generated using pymatgen
data_Ho16In6FePt
_symmetry_space_group_name_H-M   'P 1'
_cell_length_a   10.37725900
_cell_length_b   10.37726019
_cell_length_c   6.99143500
_cell_angle_alpha   90.00000000
_cell_angle_beta   90.00000000
_cell_angle_gamma   119.99999940
_symmetry_Int_Tables_number   1
_chemical_formula_structural   Ho16In6FePt
_chemical_formula_sum   'Ho16 In6 Fe1 Pt1'
_cell_volume   652.02210687
_cell_formula_units_Z   1
loop_
 _symmetry_equiv_pos_site_id
 _symmetry_equiv_pos_as_xyz
  1  'x, y, z'
loop_
 _atom_site_type_symbol
 _atom_site_label
 _atom_site_symmetry_multiplicity
 _atom_site_fract_x
 _atom_site_fract_y
 _atom_site_fract_z
 _atom_site_occupancy
  Ho  Ho0  1  0.530102  0.060203  0.507000  1
  Ho  Ho1  1  0.939797  0.469898  0.507000  1
  Ho  Ho2  1  0.530102  0.469898  0.507000  1
  Ho  Ho3  1  0.463087  0.926174  0.005276  1
  Ho  Ho4  1  0.073826  0.536913  0.005276  1
  Ho  Ho5  1  0.463087  0.536913  0.005276  1
  Ho  Ho6  1  0.177800  0.355599  0.715669  1
  Ho  Ho7  1  0.644401  0.822200  0.715669  1
  Ho  Ho8  1  0.177800  0.822200  0.715669  1
  Ho  Ho9  1  0.824779  0.649558  0.211859  1
  Ho  Ho10  1  0.350442  0.175221  0.211859  1
  Ho  Ho11  1  0.824779  0.175221  0.211859  1
  Ho  Ho12  1  0.666667  0.333333  0.882676  1
  Ho  Ho13  1  0.333333  0.666667  0.394430  1
  Ho  Ho14  1  0.000000  0.000000  0.492734  1
  Ho  Ho15  1  0.000000  0.000000  0.992308  1
  In  In16  1  0.837301  0.674604  0.750761  1
  In  In17  1  0.325396  0.162699  0.750761  1
  In  In18  1  0.837301  0.162699  0.750761  1
  In  In19  1  0.163235  0.326470  0.254398  1
  In  In20  1  0.673530  0.836765  0.254398  1
  In  In21  1  0.163235  0.836765  0.254398  1
  Fe  Fe22  1  0.333333  0.666667  0.779573  1
  Pt  Pt23  1  0.666667  0.333333  0.281430  1
