# generated using pymatgen
data_Ho3Sc2(In2Ag)2
_symmetry_space_group_name_H-M   'P 1'
_cell_length_a   3.58616300
_cell_length_b   8.07353600
_cell_length_c   18.12106000
_cell_angle_alpha   90.00000000
_cell_angle_beta   90.00000000
_cell_angle_gamma   90.00000000
_symmetry_Int_Tables_number   1
_chemical_formula_structural   Ho3Sc2(In2Ag)2
_chemical_formula_sum   'Ho6 Sc4 In8 Ag4'
_cell_volume   524.65934161
_cell_formula_units_Z   2
loop_
 _symmetry_equiv_pos_site_id
 _symmetry_equiv_pos_as_xyz
  1  'x, y, z'
loop_
 _atom_site_type_symbol
 _atom_site_label
 _atom_site_symmetry_multiplicity
 _atom_site_fract_x
 _atom_site_fract_y
 _atom_site_fract_z
 _atom_site_occupancy
  Ho  Ho0  1  0.000000  0.233209  0.209775  1
  Ho  Ho1  1  0.000000  0.766791  0.790225  1
  Ho  Ho2  1  0.000000  0.266791  0.709775  1
  Ho  Ho3  1  0.000000  0.733209  0.290225  1
  Ho  Ho4  1  0.000000  0.000000  0.000000  1
  Ho  Ho5  1  0.000000  0.500000  0.500000  1
  Sc  Sc6  1  0.000000  0.125572  0.422426  1
  Sc  Sc7  1  0.000000  0.874428  0.577574  1
  Sc  Sc8  1  0.000000  0.374428  0.922426  1
  Sc  Sc9  1  0.000000  0.625572  0.077574  1
  In  In10  1  0.500000  0.406257  0.350244  1
  In  In11  1  0.500000  0.593743  0.649756  1
  In  In12  1  0.500000  0.093743  0.850244  1
  In  In13  1  0.500000  0.906257  0.149756  1
  In  In14  1  0.500000  0.307328  0.060703  1
  In  In15  1  0.500000  0.692672  0.939297  1
  In  In16  1  0.500000  0.192672  0.560703  1
  In  In17  1  0.500000  0.807328  0.439297  1
  Ag  Ag18  1  0.500000  0.032035  0.306684  1
  Ag  Ag19  1  0.500000  0.967965  0.693316  1
  Ag  Ag20  1  0.500000  0.467965  0.806684  1
  Ag  Ag21  1  0.500000  0.532035  0.193316  1
