# generated using pymatgen
data_LaDy(NiIr)5
_symmetry_space_group_name_H-M   'P 1'
_cell_length_a   4.05295500
_cell_length_b   5.24551200
_cell_length_c   8.92035100
_cell_angle_alpha   90.00000000
_cell_angle_beta   90.00000000
_cell_angle_gamma   90.00000000
_symmetry_Int_Tables_number   1
_chemical_formula_structural   LaDy(NiIr)5
_chemical_formula_sum   'La1 Dy1 Ni5 Ir5'
_cell_volume   189.64509306
_cell_formula_units_Z   1
loop_
 _symmetry_equiv_pos_site_id
 _symmetry_equiv_pos_as_xyz
  1  'x, y, z'
loop_
 _atom_site_type_symbol
 _atom_site_label
 _atom_site_symmetry_multiplicity
 _atom_site_fract_x
 _atom_site_fract_y
 _atom_site_fract_z
 _atom_site_occupancy
  La  La0  1  0.000000  0.500000  0.000000  1
  Dy  Dy1  1  0.000000  0.000000  0.500000  1
  Ni  Ni2  1  0.000000  0.500000  0.347337  1
  Ni  Ni3  1  0.000000  0.000000  0.827299  1
  Ni  Ni4  1  0.000000  0.000000  0.172701  1
  Ni  Ni5  1  0.000000  0.500000  0.652663  1
  Ni  Ni6  1  0.500000  0.500000  0.500000  1
  Ir  Ir7  1  0.500000  0.000000  0.000000  1
  Ir  Ir8  1  0.500000  0.747922  0.257642  1
  Ir  Ir9  1  0.500000  0.252078  0.742358  1
  Ir  Ir10  1  0.500000  0.252078  0.257642  1
  Ir  Ir11  1  0.500000  0.747922  0.742358  1
