# generated using pymatgen
data_Y4Ho4Sc11Si16Mo
_symmetry_space_group_name_H-M   'P 1'
_cell_length_a   7.06295432
_cell_length_b   7.31542512
_cell_length_c   13.87626808
_cell_angle_alpha   90.16442865
_cell_angle_beta   89.68337295
_cell_angle_gamma   89.73727549
_symmetry_Int_Tables_number   1
_chemical_formula_structural   Y4Ho4Sc11Si16Mo
_chemical_formula_sum   'Y4 Ho4 Sc11 Si16 Mo1'
_cell_volume   716.94465374
_cell_formula_units_Z   1
loop_
 _symmetry_equiv_pos_site_id
 _symmetry_equiv_pos_as_xyz
  1  'x, y, z'
loop_
 _atom_site_type_symbol
 _atom_site_label
 _atom_site_symmetry_multiplicity
 _atom_site_fract_x
 _atom_site_fract_y
 _atom_site_fract_z
 _atom_site_occupancy
  Y  Y0  1  0.011731  0.174607  0.097162  1
  Y  Y1  1  0.989295  0.825657  0.898765  1
  Y  Y2  1  0.487508  0.677396  0.899505  1
  Y  Y3  1  0.992822  0.829239  0.595706  1
  Ho  Ho4  1  0.513014  0.323489  0.096649  1
  Ho  Ho5  1  0.010043  0.175310  0.403456  1
  Ho  Ho6  1  0.507012  0.323609  0.409804  1
  Ho  Ho7  1  0.487396  0.676002  0.596179  1
  Sc  Sc8  1  0.163696  0.495045  0.744855  1
  Sc  Sc9  1  0.837547  0.497858  0.251946  1
  Sc  Sc10  1  0.337039  0.003006  0.252472  1
  Sc  Sc11  1  0.658066  0.002007  0.747089  1
  Sc  Sc12  1  0.665622  0.825665  0.379038  1
  Sc  Sc13  1  0.168784  0.678185  0.378030  1
  Sc  Sc14  1  0.669196  0.824153  0.124646  1
  Sc  Sc15  1  0.832737  0.323460  0.623726  1
  Sc  Sc16  1  0.332686  0.176865  0.874997  1
  Sc  Sc17  1  0.830336  0.322683  0.871858  1
  Sc  Sc18  1  0.170202  0.676616  0.125818  1
  Si  Si19  1  0.042674  0.120551  0.745203  1
  Si  Si20  1  0.963787  0.885155  0.251568  1
  Si  Si21  1  0.466976  0.616863  0.250906  1
  Si  Si22  1  0.531241  0.375230  0.745680  1
  Si  Si23  1  0.286985  0.880094  0.745861  1
  Si  Si24  1  0.710963  0.127435  0.251065  1
  Si  Si25  1  0.215771  0.373174  0.250930  1
  Si  Si26  1  0.783865  0.623925  0.746662  1
  Si  Si27  1  0.174618  0.451174  0.540690  1
  Si  Si28  1  0.842873  0.531825  0.460646  1
  Si  Si29  1  0.333981  0.970050  0.470873  1
  Si  Si30  1  0.844694  0.535093  0.038907  1
  Si  Si31  1  0.646808  0.035370  0.544718  1
  Si  Si32  1  0.154603  0.466185  0.959082  1
  Si  Si33  1  0.660658  0.036252  0.958948  1
  Si  Si34  1  0.341720  0.963313  0.038552  1
  Mo  Mo35  1  0.333053  0.177458  0.628009  1
