# generated using pymatgen
data_Ho3Mg(Co4P3)2
_symmetry_space_group_name_H-M   'P 1'
_cell_length_a   3.72041700
_cell_length_b   10.60963600
_cell_length_c   12.25857400
_cell_angle_alpha   90.00000000
_cell_angle_beta   90.00000000
_cell_angle_gamma   90.00000000
_symmetry_Int_Tables_number   1
_chemical_formula_structural   Ho3Mg(Co4P3)2
_chemical_formula_sum   'Ho6 Mg2 Co16 P12'
_cell_volume   483.87374444
_cell_formula_units_Z   2
loop_
 _symmetry_equiv_pos_site_id
 _symmetry_equiv_pos_as_xyz
  1  'x, y, z'
loop_
 _atom_site_type_symbol
 _atom_site_label
 _atom_site_symmetry_multiplicity
 _atom_site_fract_x
 _atom_site_fract_y
 _atom_site_fract_z
 _atom_site_occupancy
  Ho  Ho0  1  0.750000  0.250000  0.473866  1
  Ho  Ho1  1  0.250000  0.750000  0.526134  1
  Ho  Ho2  1  0.250000  0.927701  0.793776  1
  Ho  Ho3  1  0.250000  0.572299  0.793776  1
  Ho  Ho4  1  0.750000  0.072299  0.206224  1
  Ho  Ho5  1  0.750000  0.427701  0.206224  1
  Mg  Mg6  1  0.250000  0.250000  0.842851  1
  Mg  Mg7  1  0.750000  0.750000  0.157149  1
  Co  Co8  1  0.250000  0.250000  0.295015  1
  Co  Co9  1  0.750000  0.750000  0.704985  1
  Co  Co10  1  0.750000  0.250000  0.011211  1
  Co  Co11  1  0.250000  0.750000  0.988789  1
  Co  Co12  1  0.250000  0.417451  0.003247  1
  Co  Co13  1  0.250000  0.082549  0.003247  1
  Co  Co14  1  0.750000  0.582549  0.996753  1
  Co  Co15  1  0.750000  0.917451  0.996753  1
  Co  Co16  1  0.250000  0.453881  0.567952  1
  Co  Co17  1  0.250000  0.046119  0.567952  1
  Co  Co18  1  0.750000  0.546119  0.432048  1
  Co  Co19  1  0.750000  0.953881  0.432048  1
  Co  Co20  1  0.250000  0.872545  0.294744  1
  Co  Co21  1  0.250000  0.627455  0.294744  1
  Co  Co22  1  0.750000  0.127455  0.705256  1
  Co  Co23  1  0.750000  0.372545  0.705256  1
  P  P24  1  0.250000  0.250000  0.114973  1
  P  P25  1  0.750000  0.750000  0.885027  1
  P  P26  1  0.250000  0.250000  0.643770  1
  P  P27  1  0.750000  0.750000  0.356230  1
  P  P28  1  0.250000  0.440000  0.384459  1
  P  P29  1  0.250000  0.060000  0.384459  1
  P  P30  1  0.750000  0.560000  0.615541  1
  P  P31  1  0.750000  0.940000  0.615541  1
  P  P32  1  0.250000  0.911342  0.107304  1
  P  P33  1  0.250000  0.588658  0.107304  1
  P  P34  1  0.750000  0.088658  0.892696  1
  P  P35  1  0.750000  0.411342  0.892696  1
