# generated using pymatgen
data_Ca2TbPaN4
_symmetry_space_group_name_H-M   'P 1'
_cell_length_a   6.96296521
_cell_length_b   9.29366145
_cell_length_c   6.15542363
_cell_angle_alpha   29.04933021
_cell_angle_beta   55.55632263
_cell_angle_gamma   41.47743341
_symmetry_Int_Tables_number   1
_chemical_formula_structural   Ca2TbPaN4
_chemical_formula_sum   'Ca2 Tb1 Pa1 N4'
_cell_volume   123.05609958
_cell_formula_units_Z   1
loop_
 _symmetry_equiv_pos_site_id
 _symmetry_equiv_pos_as_xyz
  1  'x, y, z'
loop_
 _atom_site_type_symbol
 _atom_site_label
 _atom_site_symmetry_multiplicity
 _atom_site_fract_x
 _atom_site_fract_y
 _atom_site_fract_z
 _atom_site_occupancy
  Ca  Ca0  1  0.750000  0.500000  0.000000  1
  Ca  Ca1  1  0.500000  0.000000  0.000000  1
  Tb  Tb2  1  0.250000  0.500000  0.000000  1
  Pa  Pa3  1  0.000000  0.000000  0.000000  1
  N  N4  1  0.489071  0.500000  0.521858  1
  N  N5  1  0.216974  0.000000  0.566052  1
  N  N6  1  0.010929  0.500000  0.478142  1
  N  N7  1  0.783026  0.000000  0.433948  1
