# generated using pymatgen
data_Pr5ErU4O20
_symmetry_space_group_name_H-M   'P 1'
_cell_length_a   6.77216227
_cell_length_b   7.71321090
_cell_length_c   8.62621851
_cell_angle_alpha   101.54983855
_cell_angle_beta   97.71129899
_cell_angle_gamma   107.18146113
_symmetry_Int_Tables_number   1
_chemical_formula_structural   Pr5ErU4O20
_chemical_formula_sum   'Pr5 Er1 U4 O20'
_cell_volume   412.67254690
_cell_formula_units_Z   1
loop_
 _symmetry_equiv_pos_site_id
 _symmetry_equiv_pos_as_xyz
  1  'x, y, z'
loop_
 _atom_site_type_symbol
 _atom_site_label
 _atom_site_symmetry_multiplicity
 _atom_site_fract_x
 _atom_site_fract_y
 _atom_site_fract_z
 _atom_site_occupancy
  Pr  Pr0  1  0.612770  0.704198  0.699325  1
  Pr  Pr1  1  0.387230  0.295802  0.300675  1
  Pr  Pr2  1  0.198720  0.898119  0.892308  1
  Pr  Pr3  1  0.000000  0.500000  0.500000  1
  Pr  Pr4  1  0.801280  0.101881  0.107692  1
  Er  Er5  1  0.000000  0.000000  0.500000  1
  U  U6  1  0.402032  0.804531  0.302376  1
  U  U7  1  0.198260  0.400674  0.900443  1
  U  U8  1  0.801740  0.599326  0.099557  1
  U  U9  1  0.597968  0.195469  0.697624  1
  O  O10  1  0.439055  0.534940  0.132935  1
  O  O11  1  0.557097  0.994172  0.836499  1
  O  O12  1  0.271796  0.151223  0.741080  1
  O  O13  1  0.360011  0.600095  0.437547  1
  O  O14  1  0.055028  0.735082  0.327257  1
  O  O15  1  0.442903  0.005828  0.163501  1
  O  O16  1  0.150570  0.190276  0.028657  1
  O  O17  1  0.560945  0.465060  0.867065  1
  O  O18  1  0.855426  0.342099  0.948250  1
  O  O19  1  0.254076  0.600799  0.763718  1
  O  O20  1  0.955427  0.781855  0.644909  1
  O  O21  1  0.352438  0.056468  0.456864  1
  O  O22  1  0.647562  0.943532  0.543136  1
  O  O23  1  0.044573  0.218145  0.355091  1
  O  O24  1  0.745924  0.399201  0.236282  1
  O  O25  1  0.144574  0.657901  0.051750  1
  O  O26  1  0.849430  0.809724  0.971343  1
  O  O27  1  0.944972  0.264918  0.672743  1
  O  O28  1  0.639989  0.399905  0.562453  1
  O  O29  1  0.728204  0.848777  0.258920  1
