# generated using pymatgen
data_Dy4Lu4B24Ir3Rh
_symmetry_space_group_name_H-M   'P 1'
_cell_length_a   3.61599600
_cell_length_b   9.10907915
_cell_length_c   11.47434919
_cell_angle_alpha   90.02095668
_cell_angle_beta   90.00000000
_cell_angle_gamma   90.00000000
_symmetry_Int_Tables_number   1
_chemical_formula_structural   Dy4Lu4B24Ir3Rh
_chemical_formula_sum   'Dy4 Lu4 B24 Ir3 Rh1'
_cell_volume   377.94660675
_cell_formula_units_Z   1
loop_
 _symmetry_equiv_pos_site_id
 _symmetry_equiv_pos_as_xyz
  1  'x, y, z'
loop_
 _atom_site_type_symbol
 _atom_site_label
 _atom_site_symmetry_multiplicity
 _atom_site_fract_x
 _atom_site_fract_y
 _atom_site_fract_z
 _atom_site_occupancy
  Dy  Dy0  1  0.500000  0.322300  0.413212  1
  Dy  Dy1  1  0.500000  0.678092  0.585830  1
  Dy  Dy2  1  0.500000  0.178863  0.913669  1
  Dy  Dy3  1  0.500000  0.821011  0.087161  1
  Lu  Lu4  1  0.500000  0.444696  0.126246  1
  Lu  Lu5  1  0.500000  0.555803  0.874759  1
  Lu  Lu6  1  0.500000  0.055705  0.625143  1
  Lu  Lu7  1  0.500000  0.943242  0.374214  1
  B  B8  1  0.000000  0.105761  0.471019  1
  B  B9  1  0.000000  0.894000  0.528700  1
  B  B10  1  0.000000  0.394301  0.971424  1
  B  B11  1  0.000000  0.606146  0.028877  1
  B  B12  1  0.000000  0.130888  0.316406  1
  B  B13  1  0.000000  0.869073  0.683105  1
  B  B14  1  0.000000  0.369187  0.816912  1
  B  B15  1  0.000000  0.631155  0.183400  1
  B  B16  1  0.000000  0.054133  0.066399  1
  B  B17  1  0.000000  0.946086  0.933510  1
  B  B18  1  0.000000  0.445883  0.566404  1
  B  B19  1  0.000000  0.553884  0.433783  1
  B  B20  1  0.000000  0.481926  0.286390  1
  B  B21  1  0.000000  0.518135  0.713999  1
  B  B22  1  0.000000  0.018387  0.786106  1
  B  B23  1  0.000000  0.981405  0.213834  1
  B  B24  1  0.000000  0.251404  0.080060  1
  B  B25  1  0.000000  0.748885  0.920122  1
  B  B26  1  0.000000  0.249086  0.579649  1
  B  B27  1  0.000000  0.750701  0.420043  1
  B  B28  1  0.000000  0.293795  0.234798  1
  B  B29  1  0.000000  0.706362  0.765179  1
  B  B30  1  0.000000  0.206252  0.734700  1
  B  B31  1  0.000000  0.793700  0.264907  1
  Ir  Ir32  1  0.500000  0.138946  0.179570  1
  Ir  Ir33  1  0.500000  0.861315  0.820043  1
  Ir  Ir34  1  0.500000  0.360271  0.680895  1
  Rh  Rh35  1  0.500000  0.639219  0.319535  1
