# generated using pymatgen
data_Hf2ZrSc(VP)4
_symmetry_space_group_name_H-M   'P 1'
_cell_length_a   3.48582000
_cell_length_b   6.61438107
_cell_length_c   7.88431712
_cell_angle_alpha   90.28897142
_cell_angle_beta   90.00000000
_cell_angle_gamma   90.00000000
_symmetry_Int_Tables_number   1
_chemical_formula_structural   Hf2ZrSc(VP)4
_chemical_formula_sum   'Hf2 Zr1 Sc1 V4 P4'
_cell_volume   181.78277539
_cell_formula_units_Z   1
loop_
 _symmetry_equiv_pos_site_id
 _symmetry_equiv_pos_as_xyz
  1  'x, y, z'
loop_
 _atom_site_type_symbol
 _atom_site_label
 _atom_site_symmetry_multiplicity
 _atom_site_fract_x
 _atom_site_fract_y
 _atom_site_fract_z
 _atom_site_occupancy
  Hf  Hf0  1  0.250000  0.539275  0.667188  1
  Hf  Hf1  1  0.750000  0.460226  0.331608  1
  Zr  Zr2  1  0.750000  0.959907  0.168641  1
  Sc  Sc3  1  0.250000  0.039986  0.832330  1
  V  V4  1  0.250000  0.132698  0.441972  1
  V  V5  1  0.250000  0.627233  0.057254  1
  V  V6  1  0.750000  0.868644  0.557362  1
  V  V7  1  0.750000  0.372688  0.942530  1
  P  P8  1  0.250000  0.760970  0.364074  1
  P  P9  1  0.250000  0.263177  0.136864  1
  P  P10  1  0.750000  0.236393  0.638981  1
  P  P11  1  0.750000  0.738800  0.861196  1
