# generated using pymatgen
data_Tm4CdPt4Au
_symmetry_space_group_name_H-M   'P 1'
_cell_length_a   7.72629800
_cell_length_b   7.72629800
_cell_length_c   3.54733700
_cell_angle_alpha   90.00000000
_cell_angle_beta   90.00000000
_cell_angle_gamma   90.00000000
_symmetry_Int_Tables_number   1
_chemical_formula_structural   Tm4CdPt4Au
_chemical_formula_sum   'Tm4 Cd1 Pt4 Au1'
_cell_volume   211.76069719
_cell_formula_units_Z   1
loop_
 _symmetry_equiv_pos_site_id
 _symmetry_equiv_pos_as_xyz
  1  'x, y, z'
loop_
 _atom_site_type_symbol
 _atom_site_label
 _atom_site_symmetry_multiplicity
 _atom_site_fract_x
 _atom_site_fract_y
 _atom_site_fract_z
 _atom_site_occupancy
  Tm  Tm0  1  0.689274  0.146725  0.500000  1
  Tm  Tm1  1  0.310726  0.853275  0.500000  1
  Tm  Tm2  1  0.146725  0.310726  0.500000  1
  Tm  Tm3  1  0.853275  0.689274  0.500000  1
  Cd  Cd4  1  0.500000  0.500000  0.000000  1
  Pt  Pt5  1  0.144451  0.615811  0.000000  1
  Pt  Pt6  1  0.855549  0.384189  0.000000  1
  Pt  Pt7  1  0.615811  0.855549  0.000000  1
  Pt  Pt8  1  0.384189  0.144451  0.000000  1
  Au  Au9  1  0.000000  0.000000  0.000000  1
