# generated using pymatgen
data_LiAcCeAgAs4
_symmetry_space_group_name_H-M   'P 1'
_cell_length_a   4.11287092
_cell_length_b   4.11287111
_cell_length_c   21.29490246
_cell_angle_alpha   90.36133432
_cell_angle_beta   90.36133316
_cell_angle_gamma   89.78226922
_symmetry_Int_Tables_number   1
_chemical_formula_structural   LiAcCeAgAs4
_chemical_formula_sum   'Li2 Ac2 Ce2 Ag2 As8'
_cell_volume   360.20147823
_cell_formula_units_Z   2
loop_
 _symmetry_equiv_pos_site_id
 _symmetry_equiv_pos_as_xyz
  1  'x, y, z'
loop_
 _atom_site_type_symbol
 _atom_site_label
 _atom_site_symmetry_multiplicity
 _atom_site_fract_x
 _atom_site_fract_y
 _atom_site_fract_z
 _atom_site_occupancy
  Li  Li0  1  0.243273  0.743593  0.763008  1
  Li  Li1  1  0.256407  0.756727  0.236992  1
  Ac  Ac2  1  0.259732  0.260276  0.377381  1
  Ac  Ac3  1  0.739724  0.740268  0.622619  1
  Ce  Ce4  1  0.753224  0.753176  0.106028  1
  Ce  Ce5  1  0.246824  0.246776  0.893972  1
  Ag  Ag6  1  0.757360  0.256490  0.235384  1
  Ag  Ag7  1  0.743510  0.242640  0.764616  1
  As  As8  1  0.745263  0.745239  0.849193  1
  As  As9  1  0.254761  0.254737  0.150807  1
  As  As10  1  0.240855  0.241233  0.682980  1
  As  As11  1  0.758767  0.759145  0.317020  1
  As  As12  1  0.249874  0.750126  0.000000  1
  As  As13  1  0.218695  0.781305  0.500000  1
  As  As14  1  0.750265  0.249735  0.000000  1
  As  As15  1  0.781465  0.218535  0.500000  1
