# generated using pymatgen
data_CaAl4Cd(SiO4)4
_symmetry_space_group_name_H-M   'P 1'
_cell_length_a   8.27294640
_cell_length_b   8.64451490
_cell_length_c   4.88867334
_cell_angle_alpha   89.71929958
_cell_angle_beta   90.20020857
_cell_angle_gamma   89.91866623
_symmetry_Int_Tables_number   1
_chemical_formula_structural   CaAl4Cd(SiO4)4
_chemical_formula_sum   'Ca1 Al4 Cd1 Si4 O16'
_cell_volume   349.60975719
_cell_formula_units_Z   1
loop_
 _symmetry_equiv_pos_site_id
 _symmetry_equiv_pos_as_xyz
  1  'x, y, z'
loop_
 _atom_site_type_symbol
 _atom_site_label
 _atom_site_symmetry_multiplicity
 _atom_site_fract_x
 _atom_site_fract_y
 _atom_site_fract_z
 _atom_site_occupancy
  Ca  Ca0  1  0.750556  0.508096  0.639403  1
  Al  Al1  1  0.430689  0.640288  0.101042  1
  Al  Al2  1  0.066035  0.342589  0.400619  1
  Al  Al3  1  0.935521  0.843569  0.599636  1
  Al  Al4  1  0.568404  0.139562  0.902346  1
  Cd  Cd5  1  0.248410  0.004881  0.344459  1
  Si  Si6  1  0.051002  0.651858  0.107663  1
  Si  Si7  1  0.449472  0.330337  0.405810  1
  Si  Si8  1  0.548718  0.830844  0.597201  1
  Si  Si9  1  0.950331  0.151265  0.892277  1
  O  O10  1  0.231040  0.602743  0.020158  1
  O  O11  1  0.063411  0.185839  0.164757  1
  O  O12  1  0.451446  0.179490  0.197927  1
  O  O13  1  0.534206  0.483681  0.263685  1
  O  O14  1  0.961523  0.509522  0.278569  1
  O  O15  1  0.056302  0.805944  0.307631  1
  O  O16  1  0.431733  0.801303  0.327832  1
  O  O17  1  0.734255  0.845608  0.496832  1
  O  O18  1  0.265645  0.355303  0.502833  1
  O  O19  1  0.566787  0.299236  0.672804  1
  O  O20  1  0.944523  0.305472  0.692485  1
  O  O21  1  0.037972  0.009425  0.721203  1
  O  O22  1  0.468413  0.984313  0.738211  1
  O  O23  1  0.544678  0.679952  0.804424  1
  O  O24  1  0.939224  0.687340  0.836532  1
  O  O25  1  0.769708  0.103942  0.983662  1
