# generated using pymatgen
data_Zr5UFe16Si7
_symmetry_space_group_name_H-M   'P 1'
_cell_length_a   8.13033059
_cell_length_b   8.12153291
_cell_length_c   8.12153277
_cell_angle_alpha   60.07167828
_cell_angle_beta   59.96416286
_cell_angle_gamma   59.96416260
_symmetry_Int_Tables_number   1
_chemical_formula_structural   Zr5UFe16Si7
_chemical_formula_sum   'Zr5 U1 Fe16 Si7'
_cell_volume   379.19989526
_cell_formula_units_Z   1
loop_
 _symmetry_equiv_pos_site_id
 _symmetry_equiv_pos_as_xyz
  1  'x, y, z'
loop_
 _atom_site_type_symbol
 _atom_site_label
 _atom_site_symmetry_multiplicity
 _atom_site_fract_x
 _atom_site_fract_y
 _atom_site_fract_z
 _atom_site_occupancy
  Zr  Zr0  1  0.294185  0.705814  0.705814  1
  Zr  Zr1  1  0.290718  0.709281  0.291723  1
  Zr  Zr2  1  0.290718  0.291723  0.709281  1
  Zr  Zr3  1  0.708276  0.291723  0.709281  1
  Zr  Zr4  1  0.708276  0.709281  0.291723  1
  U  U5  1  0.721331  0.278668  0.278668  1
  Fe  Fe6  1  0.326992  0.324130  0.324130  1
  Fe  Fe7  1  0.323552  0.322424  0.030473  1
  Fe  Fe8  1  0.024750  0.324130  0.324130  1
  Fe  Fe9  1  0.323552  0.030473  0.322424  1
  Fe  Fe10  1  0.677576  0.676448  0.676448  1
  Fe  Fe11  1  0.675870  0.673008  0.975250  1
  Fe  Fe12  1  0.675870  0.975250  0.673008  1
  Fe  Fe13  1  0.969527  0.676448  0.676448  1
  Fe  Fe14  1  0.119739  0.123196  0.123196  1
  Fe  Fe15  1  0.120926  0.123253  0.634895  1
  Fe  Fe16  1  0.633870  0.123196  0.123196  1
  Fe  Fe17  1  0.120926  0.634895  0.123253  1
  Fe  Fe18  1  0.876747  0.879074  0.879074  1
  Fe  Fe19  1  0.876804  0.880261  0.366130  1
  Fe  Fe20  1  0.876804  0.366130  0.880261  1
  Fe  Fe21  1  0.365105  0.879074  0.879074  1
  Si  Si22  1  0.500595  0.999406  0.999406  1
  Si  Si23  1  0.000595  0.499406  0.499406  1
  Si  Si24  1  0.006639  0.509218  0.993361  1
  Si  Si25  1  0.006639  0.993361  0.509218  1
  Si  Si26  1  0.490783  0.993362  0.509217  1
  Si  Si27  1  0.490783  0.509217  0.993362  1
  Si  Si28  1  0.001851  0.998149  0.998149  1
