# generated using pymatgen
data_Bi6Sb(TeO9)2
_symmetry_space_group_name_H-M   'P 1'
_cell_length_a   9.36997800
_cell_length_b   9.36997765
_cell_length_c   5.46492700
_cell_angle_alpha   90.00000000
_cell_angle_beta   90.00000000
_cell_angle_gamma   120.00000218
_symmetry_Int_Tables_number   1
_chemical_formula_structural   Bi6Sb(TeO9)2
_chemical_formula_sum   'Bi6 Sb1 Te2 O18'
_cell_volume   415.52017330
_cell_formula_units_Z   1
loop_
 _symmetry_equiv_pos_site_id
 _symmetry_equiv_pos_as_xyz
  1  'x, y, z'
loop_
 _atom_site_type_symbol
 _atom_site_label
 _atom_site_symmetry_multiplicity
 _atom_site_fract_x
 _atom_site_fract_y
 _atom_site_fract_z
 _atom_site_occupancy
  Bi  Bi0  1  0.993287  0.374693  0.502313  1
  Bi  Bi1  1  0.290034  0.288807  0.001778  1
  Bi  Bi2  1  0.998773  0.709966  0.001778  1
  Bi  Bi3  1  0.625307  0.618594  0.502313  1
  Bi  Bi4  1  0.381406  0.006713  0.502313  1
  Bi  Bi5  1  0.711193  0.001227  0.001778  1
  Sb  Sb6  1  0.666667  0.333333  0.989569  1
  Te  Te7  1  0.000000  0.000000  0.501653  1
  Te  Te8  1  0.333333  0.666667  0.010718  1
  O  O9  1  0.079580  0.199285  0.699373  1
  O  O10  1  0.228362  0.468392  0.216798  1
  O  O11  1  0.137715  0.596474  0.802920  1
  O  O12  1  0.403526  0.541241  0.802920  1
  O  O13  1  0.240031  0.771638  0.216798  1
  O  O14  1  0.119704  0.920420  0.699373  1
  O  O15  1  0.531608  0.759969  0.216798  1
  O  O16  1  0.198497  0.075996  0.299745  1
  O  O17  1  0.458759  0.862285  0.802920  1
  O  O18  1  0.800715  0.880296  0.699373  1
  O  O19  1  0.462781  0.229882  0.774630  1
  O  O20  1  0.594982  0.132391  0.201798  1
  O  O21  1  0.537409  0.405018  0.201798  1
  O  O22  1  0.770118  0.232900  0.774630  1
  O  O23  1  0.924004  0.122501  0.299745  1
  O  O24  1  0.767100  0.537219  0.774630  1
  O  O25  1  0.867609  0.462591  0.201798  1
  O  O26  1  0.877499  0.801503  0.299745  1
