# generated using pymatgen
data_SrPrMgRhO6
_symmetry_space_group_name_H-M   'P 1'
_cell_length_a   5.66801900
_cell_length_b   5.59709744
_cell_length_c   9.67968334
_cell_angle_alpha   54.90225348
_cell_angle_beta   90.00000000
_cell_angle_gamma   90.00000000
_symmetry_Int_Tables_number   1
_chemical_formula_structural   SrPrMgRhO6
_chemical_formula_sum   'Sr2 Pr2 Mg2 Rh2 O12'
_cell_volume   251.24654854
_cell_formula_units_Z   2
loop_
 _symmetry_equiv_pos_site_id
 _symmetry_equiv_pos_as_xyz
  1  'x, y, z'
loop_
 _atom_site_type_symbol
 _atom_site_label
 _atom_site_symmetry_multiplicity
 _atom_site_fract_x
 _atom_site_fract_y
 _atom_site_fract_z
 _atom_site_occupancy
  Sr  Sr0  1  0.218369  0.244752  0.250464  1
  Sr  Sr1  1  0.781631  0.244752  0.750464  1
  Pr  Pr2  1  0.298924  0.761230  0.751142  1
  Pr  Pr3  1  0.701076  0.761230  0.251142  1
  Mg  Mg4  1  0.756226  0.499999  0.000901  1
  Mg  Mg5  1  0.243774  0.499999  0.500901  1
  Rh  Rh6  1  0.752544  0.000659  0.499462  1
  Rh  Rh7  1  0.247456  0.000659  0.999462  1
  O  O8  1  0.763376  0.332454  0.255070  1
  O  O9  1  0.236624  0.332454  0.755070  1
  O  O10  1  0.727884  0.691288  0.745134  1
  O  O11  1  0.272116  0.691288  0.245134  1
  O  O12  1  0.952044  0.756617  0.456587  1
  O  O13  1  0.047956  0.756617  0.956587  1
  O  O14  1  0.531918  0.236507  0.536295  1
  O  O15  1  0.468082  0.236507  0.036295  1
  O  O16  1  0.037649  0.154416  0.543919  1
  O  O17  1  0.962351  0.154416  0.043919  1
  O  O18  1  0.477397  0.822079  0.461024  1
  O  O19  1  0.522603  0.822079  0.961024  1
