# generated using pymatgen
data_Yb(FeI4)2
_symmetry_space_group_name_H-M   'P 1'
_cell_length_a   8.18933500
_cell_length_b   8.34645338
_cell_length_c   15.26277467
_cell_angle_alpha   87.23523709
_cell_angle_beta   90.00000000
_cell_angle_gamma   90.00000000
_symmetry_Int_Tables_number   1
_chemical_formula_structural   Yb(FeI4)2
_chemical_formula_sum   'Yb2 Fe4 I16'
_cell_volume   1042.02535055
_cell_formula_units_Z   2
loop_
 _symmetry_equiv_pos_site_id
 _symmetry_equiv_pos_as_xyz
  1  'x, y, z'
loop_
 _atom_site_type_symbol
 _atom_site_label
 _atom_site_symmetry_multiplicity
 _atom_site_fract_x
 _atom_site_fract_y
 _atom_site_fract_z
 _atom_site_occupancy
  Yb  Yb0  1  0.754336  0.073268  0.811130  1
  Yb  Yb1  1  0.245664  0.073268  0.311130  1
  Fe  Fe2  1  0.932845  0.217620  0.581258  1
  Fe  Fe3  1  0.067155  0.217620  0.081258  1
  Fe  Fe4  1  0.574484  0.643880  0.779420  1
  Fe  Fe5  1  0.425516  0.643880  0.279420  1
  I  I6  1  0.424833  0.615623  0.638790  1
  I  I7  1  0.575167  0.615623  0.138790  1
  I  I8  1  0.874995  0.731611  0.757568  1
  I  I9  1  0.125005  0.731611  0.257568  1
  I  I10  1  0.937643  0.479919  0.496689  1
  I  I11  1  0.062357  0.479919  0.996689  1
  I  I12  1  0.917723  0.997758  0.996599  1
  I  I13  1  0.082277  0.997758  0.496599  1
  I  I14  1  0.636014  0.128412  0.615783  1
  I  I15  1  0.363986  0.128412  0.115783  1
  I  I16  1  0.565080  0.377119  0.874601  1
  I  I17  1  0.434920  0.377119  0.374601  1
  I  I18  1  0.442799  0.869134  0.867110  1
  I  I19  1  0.557201  0.869134  0.367110  1
  I  I20  1  0.927721  0.233057  0.233256  1
  I  I21  1  0.072279  0.233057  0.733256  1
