# generated using pymatgen
data_Dy4Tm16Bi7Sb5
_symmetry_space_group_name_H-M   'P 1'
_cell_length_a   8.11354315
_cell_length_b   9.34287425
_cell_length_c   11.84920810
_cell_angle_alpha   90.04893909
_cell_angle_beta   89.92631153
_cell_angle_gamma   89.96278773
_symmetry_Int_Tables_number   1
_chemical_formula_structural   Dy4Tm16Bi7Sb5
_chemical_formula_sum   'Dy4 Tm16 Bi7 Sb5'
_cell_volume   898.21389804
_cell_formula_units_Z   1
loop_
 _symmetry_equiv_pos_site_id
 _symmetry_equiv_pos_as_xyz
  1  'x, y, z'
loop_
 _atom_site_type_symbol
 _atom_site_label
 _atom_site_symmetry_multiplicity
 _atom_site_fract_x
 _atom_site_fract_y
 _atom_site_fract_z
 _atom_site_occupancy
  Dy  Dy0  1  0.317664  0.247140  0.218569  1
  Dy  Dy1  1  0.812203  0.245991  0.282958  1
  Dy  Dy2  1  0.684633  0.750097  0.782391  1
  Dy  Dy3  1  0.184359  0.749905  0.717544  1
  Tm  Tm4  1  0.356576  0.753741  0.215594  1
  Tm  Tm5  1  0.848943  0.753097  0.286307  1
  Tm  Tm6  1  0.647493  0.250215  0.785498  1
  Tm  Tm7  1  0.147191  0.249973  0.714229  1
  Tm  Tm8  1  0.689454  0.565158  0.058587  1
  Tm  Tm9  1  0.191638  0.936120  0.440757  1
  Tm  Tm10  1  0.310507  0.064666  0.941607  1
  Tm  Tm11  1  0.809979  0.434872  0.557874  1
  Tm  Tm12  1  0.310700  0.435146  0.941749  1
  Tm  Tm13  1  0.809305  0.064086  0.556378  1
  Tm  Tm14  1  0.687608  0.935604  0.061034  1
  Tm  Tm15  1  0.190375  0.564823  0.441088  1
  Tm  Tm16  1  0.473829  0.247511  0.487085  1
  Tm  Tm17  1  0.972732  0.250022  0.011792  1
  Tm  Tm18  1  0.528036  0.752409  0.509582  1
  Tm  Tm19  1  0.026436  0.750216  0.988707  1
  Bi  Bi20  1  0.065223  0.505447  0.175143  1
  Bi  Bi21  1  0.435204  0.494740  0.673410  1
  Bi  Bi22  1  0.934668  0.005392  0.825332  1
  Bi  Bi23  1  0.434864  0.005323  0.674742  1
  Bi  Bi24  1  0.934932  0.494585  0.825423  1
  Bi  Bi25  1  0.565037  0.505059  0.325385  1
  Bi  Bi26  1  0.065393  0.994523  0.174290  1
  Sb  Sb27  1  0.405567  0.749954  0.959610  1
  Sb  Sb28  1  0.906875  0.749730  0.540586  1
  Sb  Sb29  1  0.594210  0.250143  0.040515  1
  Sb  Sb30  1  0.093778  0.250120  0.459004  1
  Sb  Sb31  1  0.564586  0.994195  0.327229  1
