# generated using pymatgen
data_Ba3NaCrPN6
_symmetry_space_group_name_H-M   'P 1'
_cell_length_a   6.41555786
_cell_length_b   6.41555605
_cell_length_c   12.76005078
_cell_angle_alpha   87.39642359
_cell_angle_beta   92.60358289
_cell_angle_gamma   127.73668320
_symmetry_Int_Tables_number   1
_chemical_formula_structural   Ba3NaCrPN6
_chemical_formula_sum   'Ba6 Na2 Cr2 P2 N12'
_cell_volume   414.80946210
_cell_formula_units_Z   2
loop_
 _symmetry_equiv_pos_site_id
 _symmetry_equiv_pos_as_xyz
  1  'x, y, z'
loop_
 _atom_site_type_symbol
 _atom_site_label
 _atom_site_symmetry_multiplicity
 _atom_site_fract_x
 _atom_site_fract_y
 _atom_site_fract_z
 _atom_site_occupancy
  Ba  Ba0  1  0.952403  0.047597  0.149025  1
  Ba  Ba1  1  0.047597  0.952403  0.850975  1
  Ba  Ba2  1  0.857321  0.142679  0.579526  1
  Ba  Ba3  1  0.142679  0.857321  0.420474  1
  Ba  Ba4  1  0.639354  0.360646  0.074990  1
  Ba  Ba5  1  0.360646  0.639354  0.925010  1
  Na  Na6  1  0.557995  0.442005  0.651739  1
  Na  Na7  1  0.442005  0.557995  0.348261  1
  Cr  Cr8  1  0.758907  0.241093  0.323232  1
  Cr  Cr9  1  0.241093  0.758907  0.676768  1
  P  P10  1  0.736261  0.263739  0.832276  1
  P  P11  1  0.263739  0.736261  0.167724  1
  N  N12  1  0.825874  0.174126  0.936347  1
  N  N13  1  0.174126  0.825874  0.063653  1
  N  N14  1  0.674854  0.325146  0.429255  1
  N  N15  1  0.325146  0.674854  0.570745  1
  N  N16  1  0.597045  0.402955  0.850987  1
  N  N17  1  0.402955  0.597045  0.149013  1
  N  N18  1  0.902041  0.097959  0.363661  1
  N  N19  1  0.097959  0.902041  0.636339  1
  N  N20  1  0.534717  0.988413  0.757433  1
  N  N21  1  0.988413  0.534717  0.242567  1
  N  N22  1  0.465283  0.011587  0.242567  1
  N  N23  1  0.011587  0.465283  0.757433  1
