# generated using pymatgen
data_Sm3NiSn3PdPt
_symmetry_space_group_name_H-M   'P 1'
_cell_length_a   7.60656300
_cell_length_b   7.60656393
_cell_length_c   3.98592400
_cell_angle_alpha   90.00000000
_cell_angle_beta   90.00000000
_cell_angle_gamma   120.00000901
_symmetry_Int_Tables_number   1
_chemical_formula_structural   Sm3NiSn3PdPt
_chemical_formula_sum   'Sm3 Ni1 Sn3 Pd1 Pt1'
_cell_volume   199.72691421
_cell_formula_units_Z   1
loop_
 _symmetry_equiv_pos_site_id
 _symmetry_equiv_pos_as_xyz
  1  'x, y, z'
loop_
 _atom_site_type_symbol
 _atom_site_label
 _atom_site_symmetry_multiplicity
 _atom_site_fract_x
 _atom_site_fract_y
 _atom_site_fract_z
 _atom_site_occupancy
  Sm  Sm0  1  0.591484  0.996244  0.000000  1
  Sm  Sm1  1  0.003756  0.595240  0.000000  1
  Sm  Sm2  1  0.404760  0.408516  0.000000  1
  Ni  Ni3  1  0.000000  0.000000  0.000000  1
  Sn  Sn4  1  0.246952  0.003577  0.500000  1
  Sn  Sn5  1  0.996423  0.243376  0.500000  1
  Sn  Sn6  1  0.756624  0.753048  0.500000  1
  Pd  Pd7  1  0.666667  0.333333  0.500000  1
  Pt  Pt8  1  0.333333  0.666667  0.500000  1
