# generated using pymatgen
data_Ho4Fe3ReOs4
_symmetry_space_group_name_H-M   'P 1'
_cell_length_a   5.13050300
_cell_length_b   5.24603228
_cell_length_c   8.73137000
_cell_angle_alpha   90.00000000
_cell_angle_beta   90.00000000
_cell_angle_gamma   118.41845237
_symmetry_Int_Tables_number   1
_chemical_formula_structural   Ho4Fe3ReOs4
_chemical_formula_sum   'Ho4 Fe3 Re1 Os4'
_cell_volume   206.68399370
_cell_formula_units_Z   1
loop_
 _symmetry_equiv_pos_site_id
 _symmetry_equiv_pos_as_xyz
  1  'x, y, z'
loop_
 _atom_site_type_symbol
 _atom_site_label
 _atom_site_symmetry_multiplicity
 _atom_site_fract_x
 _atom_site_fract_y
 _atom_site_fract_z
 _atom_site_occupancy
  Ho  Ho0  1  0.329112  0.668714  0.439050  1
  Ho  Ho1  1  0.662550  0.334113  0.564730  1
  Ho  Ho2  1  0.662550  0.334113  0.935270  1
  Ho  Ho3  1  0.329112  0.668714  0.060950  1
  Fe  Fe4  1  0.829825  0.654266  0.250000  1
  Fe  Fe5  1  0.179488  0.834836  0.750000  1
  Fe  Fe6  1  0.176409  0.342454  0.750000  1
  Re  Re7  1  0.835314  0.158881  0.250000  1
  Os  Os8  1  0.991044  0.001879  0.504740  1
  Os  Os9  1  0.991044  0.001879  0.995260  1
  Os  Os10  1  0.349914  0.166723  0.250000  1
  Os  Os11  1  0.663637  0.833430  0.750000  1
