# generated using pymatgen
data_NaFe2NiSb12Rh
_symmetry_space_group_name_H-M   'P 1'
_cell_length_a   7.98188636
_cell_length_b   8.02467450
_cell_length_c   8.01010928
_cell_angle_alpha   109.49204922
_cell_angle_beta   109.31873790
_cell_angle_gamma   109.52757136
_symmetry_Int_Tables_number   1
_chemical_formula_structural   NaFe2NiSb12Rh
_chemical_formula_sum   'Na1 Fe2 Ni1 Sb12 Rh1'
_cell_volume   395.32222541
_cell_formula_units_Z   1
loop_
 _symmetry_equiv_pos_site_id
 _symmetry_equiv_pos_as_xyz
  1  'x, y, z'
loop_
 _atom_site_type_symbol
 _atom_site_label
 _atom_site_symmetry_multiplicity
 _atom_site_fract_x
 _atom_site_fract_y
 _atom_site_fract_z
 _atom_site_occupancy
  Na  Na0  1  0.000000  0.000000  0.000000  1
  Fe  Fe1  1  0.000000  0.000000  0.500000  1
  Fe  Fe2  1  0.500000  0.500000  0.500000  1
  Ni  Ni3  1  0.000000  0.500000  0.000000  1
  Sb  Sb4  1  0.669606  0.821738  0.165349  1
  Sb  Sb5  1  0.847198  0.347001  0.186745  1
  Sb  Sb6  1  0.503210  0.833294  0.655188  1
  Sb  Sb7  1  0.838280  0.669855  0.507448  1
  Sb  Sb8  1  0.496790  0.166706  0.344812  1
  Sb  Sb9  1  0.152802  0.652999  0.813255  1
  Sb  Sb10  1  0.822749  0.155567  0.658637  1
  Sb  Sb11  1  0.177251  0.844433  0.341363  1
  Sb  Sb12  1  0.161720  0.330145  0.492552  1
  Sb  Sb13  1  0.659219  0.503706  0.836660  1
  Sb  Sb14  1  0.340781  0.496294  0.163340  1
  Sb  Sb15  1  0.330394  0.178262  0.834651  1
  Rh  Rh16  1  0.500000  0.000000  0.000000  1
