# generated using pymatgen
data_Nd16Cd4CuIrRu2
_symmetry_space_group_name_H-M   'P 1'
_cell_length_a   9.90260953
_cell_length_b   9.89828588
_cell_length_c   9.89828641
_cell_angle_alpha   60.42444694
_cell_angle_beta   60.38252563
_cell_angle_gamma   60.38252766
_symmetry_Int_Tables_number   1
_chemical_formula_structural   Nd16Cd4CuIrRu2
_chemical_formula_sum   'Nd16 Cd4 Cu1 Ir1 Ru2'
_cell_volume   692.19973630
_cell_formula_units_Z   1
loop_
 _symmetry_equiv_pos_site_id
 _symmetry_equiv_pos_as_xyz
  1  'x, y, z'
loop_
 _atom_site_type_symbol
 _atom_site_label
 _atom_site_symmetry_multiplicity
 _atom_site_fract_x
 _atom_site_fract_y
 _atom_site_fract_z
 _atom_site_occupancy
  Nd  Nd0  1  0.345110  0.346626  0.346626  1
  Nd  Nd1  1  0.350562  0.353439  0.949655  1
  Nd  Nd2  1  0.350562  0.949655  0.353439  1
  Nd  Nd3  1  0.951572  0.351256  0.351256  1
  Nd  Nd4  1  0.803890  0.191448  0.191448  1
  Nd  Nd5  1  0.189768  0.810053  0.810053  1
  Nd  Nd6  1  0.191130  0.802386  0.190696  1
  Nd  Nd7  1  0.811290  0.190102  0.807896  1
  Nd  Nd8  1  0.191130  0.190696  0.802386  1
  Nd  Nd9  1  0.811290  0.807896  0.190102  1
  Nd  Nd10  1  0.940603  0.562252  0.562252  1
  Nd  Nd11  1  0.564124  0.939235  0.939235  1
  Nd  Nd12  1  0.560928  0.941216  0.562361  1
  Nd  Nd13  1  0.938894  0.565068  0.939430  1
  Nd  Nd14  1  0.560928  0.562361  0.941216  1
  Nd  Nd15  1  0.938894  0.939430  0.565068  1
  Cd  Cd16  1  0.579918  0.579958  0.579958  1
  Cd  Cd17  1  0.579868  0.579474  0.260742  1
  Cd  Cd18  1  0.579868  0.260742  0.579474  1
  Cd  Cd19  1  0.260406  0.579746  0.579746  1
  Cu  Cu20  1  0.143398  0.142062  0.142062  1
  Ir  Ir21  1  0.574762  0.139670  0.139670  1
  Ru  Ru22  1  0.140551  0.138678  0.576549  1
  Ru  Ru23  1  0.140551  0.576549  0.138678  1
