# generated using pymatgen
data_LiTb4Sc5Si8
_symmetry_space_group_name_H-M   'P 1'
_cell_length_a   7.02380904
_cell_length_b   7.41955213
_cell_length_c   14.04379400
_cell_angle_alpha   90.00000000
_cell_angle_beta   90.00000000
_cell_angle_gamma   89.95042104
_symmetry_Int_Tables_number   1
_chemical_formula_structural   LiTb4Sc5Si8
_chemical_formula_sum   'Li2 Tb8 Sc10 Si16'
_cell_volume   731.87122835
_cell_formula_units_Z   2
loop_
 _symmetry_equiv_pos_site_id
 _symmetry_equiv_pos_as_xyz
  1  'x, y, z'
loop_
 _atom_site_type_symbol
 _atom_site_label
 _atom_site_symmetry_multiplicity
 _atom_site_fract_x
 _atom_site_fract_y
 _atom_site_fract_z
 _atom_site_occupancy
  Li  Li0  1  0.159022  0.504091  0.750000  1
  Li  Li1  1  0.840978  0.495909  0.250000  1
  Tb  Tb2  1  0.010237  0.182937  0.098655  1
  Tb  Tb3  1  0.989763  0.817063  0.901345  1
  Tb  Tb4  1  0.484275  0.674289  0.902015  1
  Tb  Tb5  1  0.989763  0.817063  0.598655  1
  Tb  Tb6  1  0.515725  0.325711  0.097985  1
  Tb  Tb7  1  0.010237  0.182937  0.401345  1
  Tb  Tb8  1  0.515725  0.325711  0.402015  1
  Tb  Tb9  1  0.484275  0.674289  0.597985  1
  Sc  Sc10  1  0.340475  0.002297  0.250000  1
  Sc  Sc11  1  0.659525  0.997703  0.750000  1
  Sc  Sc12  1  0.327111  0.182044  0.625900  1
  Sc  Sc13  1  0.672889  0.817956  0.374100  1
  Sc  Sc14  1  0.166305  0.674543  0.373310  1
  Sc  Sc15  1  0.672889  0.817956  0.125900  1
  Sc  Sc16  1  0.833695  0.325457  0.626690  1
  Sc  Sc17  1  0.327111  0.182044  0.874100  1
  Sc  Sc18  1  0.833695  0.325457  0.873310  1
  Sc  Sc19  1  0.166305  0.674543  0.126690  1
  Si  Si20  1  0.030615  0.104927  0.750000  1
  Si  Si21  1  0.969385  0.895073  0.250000  1
  Si  Si22  1  0.464319  0.614373  0.250000  1
  Si  Si23  1  0.535681  0.385627  0.750000  1
  Si  Si24  1  0.287999  0.882753  0.750000  1
  Si  Si25  1  0.712001  0.117247  0.250000  1
  Si  Si26  1  0.220033  0.374164  0.250000  1
  Si  Si27  1  0.779967  0.625836  0.750000  1
  Si  Si28  1  0.158414  0.461273  0.533665  1
  Si  Si29  1  0.841586  0.538727  0.466335  1
  Si  Si30  1  0.343705  0.966503  0.461213  1
  Si  Si31  1  0.841586  0.538727  0.033665  1
  Si  Si32  1  0.656295  0.033497  0.538787  1
  Si  Si33  1  0.158414  0.461273  0.966335  1
  Si  Si34  1  0.656295  0.033497  0.961213  1
  Si  Si35  1  0.343705  0.966503  0.038787  1
