# generated using pymatgen
data_Dy7Th3(Sn3C)2
_symmetry_space_group_name_H-M   'P 1'
_cell_length_a   9.12785898
_cell_length_b   9.10459557
_cell_length_c   6.55968700
_cell_angle_alpha   90.00000000
_cell_angle_beta   90.00000000
_cell_angle_gamma   120.35861907
_symmetry_Int_Tables_number   1
_chemical_formula_structural   Dy7Th3(Sn3C)2
_chemical_formula_sum   'Dy7 Th3 Sn6 C2'
_cell_volume   470.39484822
_cell_formula_units_Z   1
loop_
 _symmetry_equiv_pos_site_id
 _symmetry_equiv_pos_as_xyz
  1  'x, y, z'
loop_
 _atom_site_type_symbol
 _atom_site_label
 _atom_site_symmetry_multiplicity
 _atom_site_fract_x
 _atom_site_fract_y
 _atom_site_fract_z
 _atom_site_occupancy
  Dy  Dy0  1  0.332977  0.666552  0.500532  1
  Dy  Dy1  1  0.666793  0.333132  0.500531  1
  Dy  Dy2  1  0.666793  0.333132  0.999469  1
  Dy  Dy3  1  0.332977  0.666552  0.999468  1
  Dy  Dy4  1  0.218228  0.002370  0.750000  1
  Dy  Dy5  1  0.780552  0.000613  0.250000  1
  Dy  Dy6  1  0.001273  0.217338  0.750000  1
  Th  Th7  1  0.999097  0.781047  0.250000  1
  Th  Th8  1  0.783303  0.784034  0.750000  1
  Th  Th9  1  0.217070  0.218751  0.250000  1
  Sn  Sn10  1  0.596353  0.002796  0.750000  1
  Sn  Sn11  1  0.409896  0.000975  0.250000  1
  Sn  Sn12  1  0.002603  0.595748  0.750000  1
  Sn  Sn13  1  0.997762  0.403448  0.250000  1
  Sn  Sn14  1  0.400756  0.400470  0.750000  1
  Sn  Sn15  1  0.593599  0.597287  0.250000  1
  C  C16  1  0.999983  0.997879  0.498818  1
  C  C17  1  0.999983  0.997879  0.001182  1
