# generated using pymatgen
data_Er6Tm4TlPb5
_symmetry_space_group_name_H-M   'P 1'
_cell_length_a   6.58326600
_cell_length_b   8.95207048
_cell_length_c   8.95903100
_cell_angle_alpha   119.97430509
_cell_angle_beta   89.99966057
_cell_angle_gamma   90.00069440
_symmetry_Int_Tables_number   1
_chemical_formula_structural   Er6Tm4TlPb5
_chemical_formula_sum   'Er6 Tm4 Tl1 Pb5'
_cell_volume   457.37134933
_cell_formula_units_Z   1
loop_
 _symmetry_equiv_pos_site_id
 _symmetry_equiv_pos_as_xyz
  1  'x, y, z'
loop_
 _atom_site_type_symbol
 _atom_site_label
 _atom_site_symmetry_multiplicity
 _atom_site_fract_x
 _atom_site_fract_y
 _atom_site_fract_z
 _atom_site_occupancy
  Er  Er0  1  0.750005  0.238179  0.000000  1
  Er  Er1  1  0.750017  0.761704  0.766472  1
  Er  Er2  1  0.750017  0.995231  0.233528  1
  Er  Er3  1  0.250004  0.763576  0.000000  1
  Er  Er4  1  0.249976  0.236893  0.236403  1
  Er  Er5  1  0.249976  0.000491  0.763597  1
  Tm  Tm6  1  0.501863  0.336281  0.670060  1
  Tm  Tm7  1  0.501863  0.666221  0.329940  1
  Tm  Tm8  1  0.998127  0.666232  0.329928  1
  Tm  Tm9  1  0.998127  0.336304  0.670072  1
  Tl  Tl10  1  0.749971  0.603405  0.000000  1
  Pb  Pb11  1  0.749996  0.393659  0.394669  1
  Pb  Pb12  1  0.749996  0.998991  0.605331  1
  Pb  Pb13  1  0.250017  0.395370  0.000000  1
  Pb  Pb14  1  0.250021  0.605423  0.603378  1
  Pb  Pb15  1  0.250021  0.002044  0.396622  1
