# generated using pymatgen
data_Be6Si6PdRu11
_symmetry_space_group_name_H-M   'P 1'
_cell_length_a   4.06613700
_cell_length_b   5.73499700
_cell_length_c   12.18263100
_cell_angle_alpha   89.99960266
_cell_angle_beta   89.99997180
_cell_angle_gamma   89.99997592
_symmetry_Int_Tables_number   1
_chemical_formula_structural   Be6Si6PdRu11
_chemical_formula_sum   'Be6 Si6 Pd1 Ru11'
_cell_volume   284.09022602
_cell_formula_units_Z   1
loop_
 _symmetry_equiv_pos_site_id
 _symmetry_equiv_pos_as_xyz
  1  'x, y, z'
loop_
 _atom_site_type_symbol
 _atom_site_label
 _atom_site_symmetry_multiplicity
 _atom_site_fract_x
 _atom_site_fract_y
 _atom_site_fract_z
 _atom_site_occupancy
  Be  Be0  1  0.000002  0.514239  0.999902  1
  Be  Be1  1  0.499861  0.990991  0.171229  1
  Be  Be2  1  0.999852  0.497692  0.332980  1
  Be  Be3  1  0.499998  0.007827  0.500109  1
  Be  Be4  1  0.000147  0.497777  0.667078  1
  Be  Be5  1  0.500149  0.990950  0.828675  1
  Si  Si6  1  0.000001  0.983822  0.999915  1
  Si  Si7  1  0.499877  0.507963  0.172061  1
  Si  Si8  1  0.999894  0.004644  0.331697  1
  Si  Si9  1  0.499996  0.492508  0.500138  1
  Si  Si10  1  0.000100  0.004563  0.668371  1
  Si  Si11  1  0.500124  0.508022  0.827821  1
  Pd  Pd12  1  0.500000  0.249691  0.999963  1
  Ru  Ru13  1  0.500001  0.746596  0.999941  1
  Ru  Ru14  1  0.999944  0.250161  0.162044  1
  Ru  Ru15  1  0.999918  0.749938  0.168257  1
  Ru  Ru16  1  0.499903  0.249832  0.331991  1
  Ru  Ru17  1  0.499917  0.751278  0.337888  1
  Ru  Ru18  1  0.999999  0.249279  0.500045  1
  Ru  Ru19  1  0.999997  0.751039  0.499981  1
  Ru  Ru20  1  0.500103  0.249751  0.668103  1
  Ru  Ru21  1  0.500089  0.751342  0.662160  1
  Ru  Ru22  1  0.000048  0.250200  0.837949  1
  Ru  Ru23  1  0.000085  0.749903  0.831705  1
