# generated using pymatgen
data_Y3Si2GeOs2
_symmetry_space_group_name_H-M   'P 1'
_cell_length_a   5.77610618
_cell_length_b   5.77610702
_cell_length_c   13.86963300
_cell_angle_alpha   90.00000000
_cell_angle_beta   90.00000000
_cell_angle_gamma   137.26855506
_symmetry_Int_Tables_number   1
_chemical_formula_structural   Y3Si2GeOs2
_chemical_formula_sum   'Y6 Si4 Ge2 Os4'
_cell_volume   313.99698737
_cell_formula_units_Z   2
loop_
 _symmetry_equiv_pos_site_id
 _symmetry_equiv_pos_as_xyz
  1  'x, y, z'
loop_
 _atom_site_type_symbol
 _atom_site_label
 _atom_site_symmetry_multiplicity
 _atom_site_fract_x
 _atom_site_fract_y
 _atom_site_fract_z
 _atom_site_occupancy
  Y  Y0  1  0.642407  0.357593  0.250000  1
  Y  Y1  1  0.357593  0.642407  0.750000  1
  Y  Y2  1  0.925014  0.074986  0.114235  1
  Y  Y3  1  0.074986  0.925014  0.885765  1
  Y  Y4  1  0.074986  0.925014  0.614235  1
  Y  Y5  1  0.925014  0.074986  0.385765  1
  Si  Si6  1  0.618161  0.381839  0.038433  1
  Si  Si7  1  0.381839  0.618161  0.961567  1
  Si  Si8  1  0.381839  0.618161  0.538433  1
  Si  Si9  1  0.618161  0.381839  0.461567  1
  Ge  Ge10  1  0.332065  0.667935  0.250000  1
  Ge  Ge11  1  0.667935  0.332065  0.750000  1
  Os  Os12  1  0.788455  0.211545  0.579604  1
  Os  Os13  1  0.211545  0.788455  0.420396  1
  Os  Os14  1  0.211545  0.788455  0.079604  1
  Os  Os15  1  0.788455  0.211545  0.920396  1
