# generated using pymatgen
data_Tb10Tl6PCl
_symmetry_space_group_name_H-M   'P 1'
_cell_length_a   9.21749900
_cell_length_b   9.21750073
_cell_length_c   6.76265700
_cell_angle_alpha   90.00000000
_cell_angle_beta   90.00000000
_cell_angle_gamma   119.99999739
_symmetry_Int_Tables_number   1
_chemical_formula_structural   Tb10Tl6PCl
_chemical_formula_sum   'Tb10 Tl6 P1 Cl1'
_cell_volume   497.59302449
_cell_formula_units_Z   1
loop_
 _symmetry_equiv_pos_site_id
 _symmetry_equiv_pos_as_xyz
  1  'x, y, z'
loop_
 _atom_site_type_symbol
 _atom_site_label
 _atom_site_symmetry_multiplicity
 _atom_site_fract_x
 _atom_site_fract_y
 _atom_site_fract_z
 _atom_site_occupancy
  Tb  Tb0  1  0.245802  0.000000  0.241030  1
  Tb  Tb1  1  0.754198  0.000000  0.758970  1
  Tb  Tb2  1  0.000000  0.245802  0.241030  1
  Tb  Tb3  1  0.000000  0.754198  0.758970  1
  Tb  Tb4  1  0.754198  0.754198  0.241030  1
  Tb  Tb5  1  0.245802  0.245802  0.758970  1
  Tb  Tb6  1  0.333333  0.666667  0.000000  1
  Tb  Tb7  1  0.666667  0.333333  0.000000  1
  Tb  Tb8  1  0.666667  0.333333  0.500000  1
  Tb  Tb9  1  0.333333  0.666667  0.500000  1
  Tl  Tl10  1  0.600477  0.000000  0.254029  1
  Tl  Tl11  1  0.399523  0.000000  0.745971  1
  Tl  Tl12  1  0.000000  0.600477  0.254029  1
  Tl  Tl13  1  0.000000  0.399523  0.745971  1
  Tl  Tl14  1  0.399523  0.399523  0.254029  1
  Tl  Tl15  1  0.600477  0.600477  0.745971  1
  P  P16  1  0.000000  0.000000  0.000000  1
  Cl  Cl17  1  0.000000  0.000000  0.500000  1
