# generated using pymatgen
data_Li2Ti9FeO20
_symmetry_space_group_name_H-M   'P 1'
_cell_length_a   10.10010400
_cell_length_b   5.24808109
_cell_length_c   7.47483763
_cell_angle_alpha   69.91629774
_cell_angle_beta   90.00000000
_cell_angle_gamma   90.00000000
_symmetry_Int_Tables_number   1
_chemical_formula_structural   Li2Ti9FeO20
_chemical_formula_sum   'Li2 Ti9 Fe1 O20'
_cell_volume   372.11957439
_cell_formula_units_Z   1
loop_
 _symmetry_equiv_pos_site_id
 _symmetry_equiv_pos_as_xyz
  1  'x, y, z'
loop_
 _atom_site_type_symbol
 _atom_site_label
 _atom_site_symmetry_multiplicity
 _atom_site_fract_x
 _atom_site_fract_y
 _atom_site_fract_z
 _atom_site_occupancy
  Li  Li0  1  0.500000  0.219846  0.402350  1
  Li  Li1  1  0.000000  0.278554  0.093820  1
  Ti  Ti2  1  0.182961  0.803352  0.939413  1
  Ti  Ti3  1  0.188823  0.305792  0.427807  1
  Ti  Ti4  1  0.316548  0.200777  0.068904  1
  Ti  Ti5  1  0.320290  0.707886  0.567912  1
  Ti  Ti6  1  0.817039  0.803352  0.939413  1
  Ti  Ti7  1  0.811177  0.305792  0.427807  1
  Ti  Ti8  1  0.683452  0.200777  0.068904  1
  Ti  Ti9  1  0.679710  0.707886  0.567912  1
  Ti  Ti10  1  0.000000  0.797270  0.598004  1
  Fe  Fe11  1  0.500000  0.702281  0.905033  1
  O  O12  1  0.500000  0.302015  0.106814  1
  O  O13  1  0.500000  0.814908  0.599397  1
  O  O14  1  0.000000  0.683772  0.869836  1
  O  O15  1  0.000000  0.149135  0.408195  1
  O  O16  1  0.308649  0.527259  0.842898  1
  O  O17  1  0.300105  0.030176  0.343572  1
  O  O18  1  0.184618  0.478046  0.160353  1
  O  O19  1  0.183233  0.965198  0.655099  1
  O  O20  1  0.691351  0.527259  0.842898  1
  O  O21  1  0.699895  0.030176  0.343572  1
  O  O22  1  0.815382  0.478046  0.160353  1
  O  O23  1  0.816767  0.965198  0.655099  1
  O  O24  1  0.361572  0.931440  0.975552  1
  O  O25  1  0.357131  0.432238  0.479167  1
  O  O26  1  0.135971  0.068543  0.022503  1
  O  O27  1  0.127464  0.575403  0.525095  1
  O  O28  1  0.638428  0.931440  0.975552  1
  O  O29  1  0.642869  0.432238  0.479167  1
  O  O30  1  0.864029  0.068543  0.022503  1
  O  O31  1  0.872536  0.575403  0.525095  1
