# generated using pymatgen
data_SmDy5(SbO7)2
_symmetry_space_group_name_H-M   'P 1'
_cell_length_a   6.48333359
_cell_length_b   6.48333319
_cell_length_c   7.57286819
_cell_angle_alpha   90.02141891
_cell_angle_beta   89.97858022
_cell_angle_gamma   109.31419035
_symmetry_Int_Tables_number   1
_chemical_formula_structural   SmDy5(SbO7)2
_chemical_formula_sum   'Sm1 Dy5 Sb2 O14'
_cell_volume   300.39990443
_cell_formula_units_Z   1
loop_
 _symmetry_equiv_pos_site_id
 _symmetry_equiv_pos_as_xyz
  1  'x, y, z'
loop_
 _atom_site_type_symbol
 _atom_site_label
 _atom_site_symmetry_multiplicity
 _atom_site_fract_x
 _atom_site_fract_y
 _atom_site_fract_z
 _atom_site_occupancy
  Sm  Sm0  1  0.500000  0.500000  0.000000  1
  Dy  Dy1  1  0.500000  0.500000  0.500000  1
  Dy  Dy2  1  0.531584  0.000283  0.748641  1
  Dy  Dy3  1  0.000283  0.531584  0.251359  1
  Dy  Dy4  1  0.468416  0.999717  0.251359  1
  Dy  Dy5  1  0.999717  0.468416  0.748641  1
  Sb  Sb6  1  0.000000  0.000000  0.500000  1
  Sb  Sb7  1  0.000000  0.000000  0.000000  1
  O  O8  1  0.678114  0.928106  0.470902  1
  O  O9  1  0.928106  0.678114  0.529098  1
  O  O10  1  0.677941  0.929908  0.029250  1
  O  O11  1  0.929908  0.677941  0.970750  1
  O  O12  1  0.321886  0.071894  0.529098  1
  O  O13  1  0.071894  0.321886  0.470902  1
  O  O14  1  0.322059  0.070092  0.970750  1
  O  O15  1  0.070092  0.322059  0.029250  1
  O  O16  1  0.930896  0.069104  0.750178  1
  O  O17  1  0.069104  0.930896  0.249822  1
  O  O18  1  0.367962  0.632038  0.744747  1
  O  O19  1  0.632038  0.367962  0.255253  1
  O  O20  1  0.638759  0.361241  0.745531  1
  O  O21  1  0.361241  0.638759  0.254469  1
