# generated using pymatgen
data_Nd5(GaTe)2
_symmetry_space_group_name_H-M   'P 1'
_cell_length_a   8.18310900
_cell_length_b   8.17608800
_cell_length_c   15.92913200
_cell_angle_alpha   90.00000000
_cell_angle_beta   90.00000000
_cell_angle_gamma   90.00000000
_symmetry_Int_Tables_number   1
_chemical_formula_structural   Nd5(GaTe)2
_chemical_formula_sum   'Nd20 Ga8 Te8'
_cell_volume   1065.75162716
_cell_formula_units_Z   4
loop_
 _symmetry_equiv_pos_site_id
 _symmetry_equiv_pos_as_xyz
  1  'x, y, z'
loop_
 _atom_site_type_symbol
 _atom_site_label
 _atom_site_symmetry_multiplicity
 _atom_site_fract_x
 _atom_site_fract_y
 _atom_site_fract_z
 _atom_site_occupancy
  Nd  Nd0  1  0.073842  0.168460  0.381963  1
  Nd  Nd1  1  0.412989  0.832433  0.120853  1
  Nd  Nd2  1  0.087011  0.332433  0.620853  1
  Nd  Nd3  1  0.426158  0.668460  0.881963  1
  Nd  Nd4  1  0.912989  0.667567  0.120853  1
  Nd  Nd5  1  0.087011  0.332433  0.879147  1
  Nd  Nd6  1  0.242781  0.497320  0.250000  1
  Nd  Nd7  1  0.742781  0.002680  0.250000  1
  Nd  Nd8  1  0.426158  0.668460  0.618037  1
  Nd  Nd9  1  0.257219  0.997320  0.750000  1
  Nd  Nd10  1  0.587011  0.167567  0.620853  1
  Nd  Nd11  1  0.757219  0.502680  0.750000  1
  Nd  Nd12  1  0.912989  0.667567  0.379147  1
  Nd  Nd13  1  0.073842  0.168460  0.118037  1
  Nd  Nd14  1  0.926158  0.831540  0.881963  1
  Nd  Nd15  1  0.587011  0.167567  0.879147  1
  Nd  Nd16  1  0.573842  0.331540  0.118037  1
  Nd  Nd17  1  0.412989  0.832433  0.379147  1
  Nd  Nd18  1  0.926158  0.831540  0.618037  1
  Nd  Nd19  1  0.573842  0.331540  0.381963  1
  Ga  Ga20  1  0.634342  0.878747  0.750000  1
  Ga  Ga21  1  0.865658  0.378747  0.250000  1
  Ga  Ga22  1  0.619130  0.618980  0.250000  1
  Ga  Ga23  1  0.380870  0.381020  0.750000  1
  Ga  Ga24  1  0.134342  0.621253  0.750000  1
  Ga  Ga25  1  0.880870  0.118980  0.750000  1
  Ga  Ga26  1  0.365658  0.121253  0.250000  1
  Ga  Ga27  1  0.119130  0.881020  0.250000  1
  Te  Te28  1  0.754872  0.496905  0.547199  1
  Te  Te29  1  0.745128  0.996905  0.452801  1
  Te  Te30  1  0.245128  0.503095  0.452801  1
  Te  Te31  1  0.254872  0.003095  0.952801  1
  Te  Te32  1  0.754872  0.496905  0.952801  1
  Te  Te33  1  0.245128  0.503095  0.047199  1
  Te  Te34  1  0.254872  0.003095  0.547199  1
  Te  Te35  1  0.745128  0.996905  0.047199  1
