# generated using pymatgen
data_RbLaUSe6
_symmetry_space_group_name_H-M   'P 1'
_cell_length_a   11.95364409
_cell_length_b   11.95364443
_cell_length_c   11.95364432
_cell_angle_alpha   159.44173196
_cell_angle_beta   152.54085421
_cell_angle_gamma   34.54759561
_symmetry_Int_Tables_number   1
_chemical_formula_structural   RbLaUSe6
_chemical_formula_sum   'Rb1 La1 U1 Se6'
_cell_volume   276.30529642
_cell_formula_units_Z   1
loop_
 _symmetry_equiv_pos_site_id
 _symmetry_equiv_pos_as_xyz
  1  'x, y, z'
loop_
 _atom_site_type_symbol
 _atom_site_label
 _atom_site_symmetry_multiplicity
 _atom_site_fract_x
 _atom_site_fract_y
 _atom_site_fract_z
 _atom_site_occupancy
  Rb  Rb0  1  0.998041  0.998041  0.000000  1
  La  La1  1  0.315209  0.815209  0.500000  1
  U  U2  1  0.686009  0.186009  0.500000  1
  Se  Se3  1  0.182876  0.396131  0.786745  1
  Se  Se4  1  0.218378  0.218378  0.000000  1
  Se  Se5  1  0.398602  0.610281  0.788321  1
  Se  Se6  1  0.609387  0.396131  0.213255  1
  Se  Se7  1  0.821960  0.610281  0.211679  1
  Se  Se8  1  0.769537  0.769537  0.000000  1
