# generated using pymatgen
data_Nb9Re8W
_symmetry_space_group_name_H-M   'P 1'
_cell_length_a   7.88097400
_cell_length_b   7.88112099
_cell_length_c   5.57030400
_cell_angle_alpha   89.99998542
_cell_angle_beta   90.00000030
_cell_angle_gamma   120.00061766
_symmetry_Int_Tables_number   1
_chemical_formula_structural   Nb9Re8W
_chemical_formula_sum   'Nb9 Re8 W1'
_cell_volume   299.62270194
_cell_formula_units_Z   1
loop_
 _symmetry_equiv_pos_site_id
 _symmetry_equiv_pos_as_xyz
  1  'x, y, z'
loop_
 _atom_site_type_symbol
 _atom_site_label
 _atom_site_symmetry_multiplicity
 _atom_site_fract_x
 _atom_site_fract_y
 _atom_site_fract_z
 _atom_site_occupancy
  Nb  Nb0  1  0.666675  0.000004  0.225439  1
  Nb  Nb1  1  0.333325  0.333328  0.225439  1
  Nb  Nb2  1  0.000000  0.666664  0.225460  1
  Nb  Nb3  1  0.666264  0.332930  0.558474  1
  Nb  Nb4  1  0.333736  0.666665  0.558474  1
  Nb  Nb5  1  0.000000  0.000392  0.558530  1
  Nb  Nb6  1  0.333728  0.000414  0.892387  1
  Nb  Nb7  1  0.000000  0.332906  0.892397  1
  Nb  Nb8  1  0.666273  0.666687  0.892387  1
  Re  Re9  1  0.665759  0.332419  0.058606  1
  Re  Re10  1  0.334241  0.666660  0.058606  1
  Re  Re11  1  0.000000  0.000928  0.058534  1
  Re  Re12  1  0.334240  0.000909  0.392297  1
  Re  Re13  1  0.000000  0.332429  0.392277  1
  Re  Re14  1  0.665761  0.666671  0.392297  1
  Re  Re15  1  0.666708  0.000007  0.725420  1
  Re  Re16  1  0.333292  0.333298  0.725420  1
  W  W17  1  0.000000  0.666688  0.725397  1
