# generated using pymatgen
data_Nd3Al9Mo3Os4
_symmetry_space_group_name_H-M   'P 1'
_cell_length_a   8.94379700
_cell_length_b   8.94379740
_cell_length_c   9.76560200
_cell_angle_alpha   90.00000000
_cell_angle_beta   90.00000000
_cell_angle_gamma   120.00000963
_symmetry_Int_Tables_number   1
_chemical_formula_structural   Nd3Al9Mo3Os4
_chemical_formula_sum   'Nd6 Al18 Mo6 Os8'
_cell_volume   676.50887126
_cell_formula_units_Z   2
loop_
 _symmetry_equiv_pos_site_id
 _symmetry_equiv_pos_as_xyz
  1  'x, y, z'
loop_
 _atom_site_type_symbol
 _atom_site_label
 _atom_site_symmetry_multiplicity
 _atom_site_fract_x
 _atom_site_fract_y
 _atom_site_fract_z
 _atom_site_occupancy
  Nd  Nd0  1  0.193217  0.386437  0.250000  1
  Nd  Nd1  1  0.806783  0.613563  0.750000  1
  Nd  Nd2  1  0.613563  0.806783  0.250000  1
  Nd  Nd3  1  0.386437  0.193217  0.750000  1
  Nd  Nd4  1  0.193217  0.806783  0.250000  1
  Nd  Nd5  1  0.806783  0.193217  0.750000  1
  Al  Al6  1  0.333333  0.666667  0.005245  1
  Al  Al7  1  0.666667  0.333333  0.994755  1
  Al  Al8  1  0.666667  0.333333  0.505245  1
  Al  Al9  1  0.333333  0.666667  0.494755  1
  Al  Al10  1  0.164042  0.328085  0.575641  1
  Al  Al11  1  0.835958  0.671915  0.424359  1
  Al  Al12  1  0.671915  0.835958  0.575641  1
  Al  Al13  1  0.835958  0.671915  0.075641  1
  Al  Al14  1  0.328085  0.164042  0.424359  1
  Al  Al15  1  0.164042  0.328085  0.924359  1
  Al  Al16  1  0.164042  0.835958  0.575641  1
  Al  Al17  1  0.328085  0.164042  0.075641  1
  Al  Al18  1  0.835958  0.164042  0.424359  1
  Al  Al19  1  0.671915  0.835958  0.924359  1
  Al  Al20  1  0.835958  0.164042  0.075641  1
  Al  Al21  1  0.164042  0.835958  0.924359  1
  Al  Al22  1  0.000000  0.000000  0.250000  1
  Al  Al23  1  0.000000  0.000000  0.750000  1
  Mo  Mo24  1  0.570258  0.140517  0.250000  1
  Mo  Mo25  1  0.429742  0.859483  0.750000  1
  Mo  Mo26  1  0.859483  0.429742  0.250000  1
  Mo  Mo27  1  0.140517  0.570258  0.750000  1
  Mo  Mo28  1  0.570258  0.429742  0.250000  1
  Mo  Mo29  1  0.429742  0.570258  0.750000  1
  Os  Os30  1  0.500000  0.000000  0.000000  1
  Os  Os31  1  0.000000  0.500000  0.000000  1
  Os  Os32  1  0.500000  0.000000  0.500000  1
  Os  Os33  1  0.500000  0.500000  0.000000  1
  Os  Os34  1  0.000000  0.500000  0.500000  1
  Os  Os35  1  0.500000  0.500000  0.500000  1
  Os  Os36  1  0.000000  0.000000  0.000000  1
  Os  Os37  1  0.000000  0.000000  0.500000  1
