# generated using pymatgen
data_HoLu3(AlRh)4
_symmetry_space_group_name_H-M   'P 1'
_cell_length_a   4.19149000
_cell_length_b   6.78317184
_cell_length_c   7.88706268
_cell_angle_alpha   90.21377981
_cell_angle_beta   90.00000000
_cell_angle_gamma   90.00000000
_symmetry_Int_Tables_number   1
_chemical_formula_structural   HoLu3(AlRh)4
_chemical_formula_sum   'Ho1 Lu3 Al4 Rh4'
_cell_volume   224.24022632
_cell_formula_units_Z   1
loop_
 _symmetry_equiv_pos_site_id
 _symmetry_equiv_pos_as_xyz
  1  'x, y, z'
loop_
 _atom_site_type_symbol
 _atom_site_label
 _atom_site_symmetry_multiplicity
 _atom_site_fract_x
 _atom_site_fract_y
 _atom_site_fract_z
 _atom_site_occupancy
  Ho  Ho0  1  0.250000  0.032037  0.320854  1
  Lu  Lu1  1  0.250000  0.532880  0.178542  1
  Lu  Lu2  1  0.750000  0.467310  0.820689  1
  Lu  Lu3  1  0.750000  0.967096  0.680158  1
  Al  Al4  1  0.250000  0.639389  0.561042  1
  Al  Al5  1  0.750000  0.360834  0.439856  1
  Al  Al6  1  0.750000  0.859359  0.059744  1
  Al  Al7  1  0.250000  0.140366  0.938419  1
  Rh  Rh8  1  0.250000  0.764739  0.879148  1
  Rh  Rh9  1  0.750000  0.237739  0.119031  1
  Rh  Rh10  1  0.750000  0.732529  0.379522  1
  Rh  Rh11  1  0.250000  0.265721  0.622995  1
