# generated using pymatgen
data_Dy17Lu(MgIr6)2
_symmetry_space_group_name_H-M   'P 1'
_cell_length_a   10.79296300
_cell_length_b   10.79296300
_cell_length_c   6.29409000
_cell_angle_alpha   90.00000000
_cell_angle_beta   90.00000000
_cell_angle_gamma   90.00000000
_symmetry_Int_Tables_number   1
_chemical_formula_structural   Dy17Lu(MgIr6)2
_chemical_formula_sum   'Dy17 Lu1 Mg2 Ir12'
_cell_volume   733.18627263
_cell_formula_units_Z   1
loop_
 _symmetry_equiv_pos_site_id
 _symmetry_equiv_pos_as_xyz
  1  'x, y, z'
loop_
 _atom_site_type_symbol
 _atom_site_label
 _atom_site_symmetry_multiplicity
 _atom_site_fract_x
 _atom_site_fract_y
 _atom_site_fract_z
 _atom_site_occupancy
  Dy  Dy0  1  0.284719  0.086253  0.379699  1
  Dy  Dy1  1  0.290336  0.913383  0.879008  1
  Dy  Dy2  1  0.709664  0.086617  0.879008  1
  Dy  Dy3  1  0.715281  0.913747  0.379699  1
  Dy  Dy4  1  0.585458  0.784946  0.879484  1
  Dy  Dy5  1  0.588272  0.207403  0.378699  1
  Dy  Dy6  1  0.411728  0.792597  0.378699  1
  Dy  Dy7  1  0.414542  0.215054  0.879484  1
  Dy  Dy8  1  0.207403  0.411728  0.621301  1
  Dy  Dy9  1  0.215054  0.585458  0.120516  1
  Dy  Dy10  1  0.784946  0.414542  0.120516  1
  Dy  Dy11  1  0.792597  0.588272  0.621301  1
  Dy  Dy12  1  0.913383  0.709664  0.120992  1
  Dy  Dy13  1  0.913747  0.284719  0.620301  1
  Dy  Dy14  1  0.086253  0.715281  0.620301  1
  Dy  Dy15  1  0.086617  0.290336  0.120992  1
  Dy  Dy16  1  0.500000  0.500000  0.500000  1
  Lu  Lu17  1  0.000000  0.000000  0.000000  1
  Mg  Mg18  1  0.000000  0.000000  0.500000  1
  Mg  Mg19  1  0.500000  0.500000  0.000000  1
  Ir  Ir20  1  0.848131  0.153074  0.244291  1
  Ir  Ir21  1  0.846926  0.848131  0.755709  1
  Ir  Ir22  1  0.153074  0.151869  0.755709  1
  Ir  Ir23  1  0.151869  0.846926  0.244291  1
  Ir  Ir24  1  0.655297  0.346175  0.745360  1
  Ir  Ir25  1  0.653825  0.655297  0.254640  1
  Ir  Ir26  1  0.346175  0.344703  0.254640  1
  Ir  Ir27  1  0.344703  0.653825  0.745360  1
  Ir  Ir28  1  0.500000  0.000000  0.121885  1
  Ir  Ir29  1  0.500000  0.000000  0.623575  1
  Ir  Ir30  1  0.000000  0.500000  0.878115  1
  Ir  Ir31  1  0.000000  0.500000  0.376425  1
