# generated using pymatgen
data_Np4Sc4Mn(CrB8)3
_symmetry_space_group_name_H-M   'P 1'
_cell_length_a   3.47726300
_cell_length_b   8.93288951
_cell_length_c   11.27801564
_cell_angle_alpha   89.96129400
_cell_angle_beta   90.00000000
_cell_angle_gamma   90.00000000
_symmetry_Int_Tables_number   1
_chemical_formula_structural   Np4Sc4Mn(CrB8)3
_chemical_formula_sum   'Np4 Sc4 Mn1 Cr3 B24'
_cell_volume   350.31771162
_cell_formula_units_Z   1
loop_
 _symmetry_equiv_pos_site_id
 _symmetry_equiv_pos_as_xyz
  1  'x, y, z'
loop_
 _atom_site_type_symbol
 _atom_site_label
 _atom_site_symmetry_multiplicity
 _atom_site_fract_x
 _atom_site_fract_y
 _atom_site_fract_z
 _atom_site_occupancy
  Np  Np0  1  0.000000  0.821907  0.085712  1
  Np  Np1  1  0.000000  0.178332  0.914170  1
  Np  Np2  1  0.000000  0.322122  0.414681  1
  Np  Np3  1  0.000000  0.678555  0.585708  1
  Sc  Sc4  1  0.000000  0.443651  0.128213  1
  Sc  Sc5  1  0.000000  0.555143  0.872308  1
  Sc  Sc6  1  0.000000  0.945027  0.371298  1
  Sc  Sc7  1  0.000000  0.055493  0.627721  1
  Mn  Mn8  1  0.000000  0.139095  0.179726  1
  Cr  Cr9  1  0.000000  0.860249  0.820151  1
  Cr  Cr10  1  0.000000  0.641125  0.319692  1
  Cr  Cr11  1  0.000000  0.359121  0.680593  1
  B  B12  1  0.500000  0.054522  0.068308  1
  B  B13  1  0.500000  0.946557  0.933184  1
  B  B14  1  0.500000  0.553852  0.432634  1
  B  B15  1  0.500000  0.446566  0.567265  1
  B  B16  1  0.500000  0.251199  0.081810  1
  B  B17  1  0.500000  0.747959  0.918928  1
  B  B18  1  0.500000  0.752051  0.418593  1
  B  B19  1  0.500000  0.247965  0.581175  1
  B  B20  1  0.500000  0.292925  0.234256  1
  B  B21  1  0.500000  0.705857  0.765191  1
  B  B22  1  0.500000  0.794594  0.265004  1
  B  B23  1  0.500000  0.205613  0.734976  1
  B  B24  1  0.500000  0.130740  0.315883  1
  B  B25  1  0.500000  0.869331  0.683319  1
  B  B26  1  0.500000  0.631001  0.183273  1
  B  B27  1  0.500000  0.369014  0.816821  1
  B  B28  1  0.500000  0.481915  0.286059  1
  B  B29  1  0.500000  0.517889  0.713778  1
  B  B30  1  0.500000  0.983457  0.213292  1
  B  B31  1  0.500000  0.017849  0.786454  1
  B  B32  1  0.500000  0.100693  0.471919  1
  B  B33  1  0.500000  0.899183  0.527231  1
  B  B34  1  0.500000  0.600938  0.027638  1
  B  B35  1  0.500000  0.398507  0.973034  1
