# generated using pymatgen
data_Rb2Hf3(CuS4)2
_symmetry_space_group_name_H-M   'P 1'
_cell_length_a   3.74793033
_cell_length_b   7.78707543
_cell_length_c   12.88996114
_cell_angle_alpha   93.67389177
_cell_angle_beta   98.35938073
_cell_angle_gamma   103.92494677
_symmetry_Int_Tables_number   1
_chemical_formula_structural   Rb2Hf3(CuS4)2
_chemical_formula_sum   'Rb2 Hf3 Cu2 S8'
_cell_volume   359.33626821
_cell_formula_units_Z   1
loop_
 _symmetry_equiv_pos_site_id
 _symmetry_equiv_pos_as_xyz
  1  'x, y, z'
loop_
 _atom_site_type_symbol
 _atom_site_label
 _atom_site_symmetry_multiplicity
 _atom_site_fract_x
 _atom_site_fract_y
 _atom_site_fract_z
 _atom_site_occupancy
  Rb  Rb0  1  0.871405  0.542476  0.200332  1
  Rb  Rb1  1  0.128595  0.457524  0.799667  1
  Hf  Hf2  1  0.500000  0.000000  0.000000  1
  Hf  Hf3  1  0.722293  0.064266  0.380320  1
  Hf  Hf4  1  0.277706  0.935734  0.619679  1
  Cu  Cu5  1  0.150014  0.103222  0.196807  1
  Cu  Cu6  1  0.849985  0.896779  0.803192  1
  S  S7  1  0.136630  0.231961  0.041297  1
  S  S8  1  0.551848  0.913021  0.190675  1
  S  S9  1  0.318208  0.284025  0.352391  1
  S  S10  1  0.132389  0.843296  0.421484  1
  S  S11  1  0.867611  0.156705  0.578515  1
  S  S12  1  0.681793  0.715976  0.647610  1
  S  S13  1  0.448152  0.086979  0.809325  1
  S  S14  1  0.863369  0.768038  0.958702  1
