# generated using pymatgen
data_Er6Pb5
_symmetry_space_group_name_H-M   'P 1'
_cell_length_a   11.67564483
_cell_length_b   11.67564513
_cell_length_c   11.67564485
_cell_angle_alpha   146.89607051
_cell_angle_beta   132.74659452
_cell_angle_gamma   58.90635588
_symmetry_Int_Tables_number   1
_chemical_formula_structural   Er6Pb5
_chemical_formula_sum   'Er12 Pb10'
_cell_volume   632.95249083
_cell_formula_units_Z   2
loop_
 _symmetry_equiv_pos_site_id
 _symmetry_equiv_pos_as_xyz
  1  'x, y, z'
loop_
 _atom_site_type_symbol
 _atom_site_label
 _atom_site_symmetry_multiplicity
 _atom_site_fract_x
 _atom_site_fract_y
 _atom_site_fract_z
 _atom_site_occupancy
  Er  Er0  1  0.696361  0.946361  0.250000  1
  Er  Er1  1  0.249416  0.637260  0.612154  1
  Er  Er2  1  0.681475  0.941286  0.740188  1
  Er  Er3  1  0.025106  0.137260  0.887846  1
  Er  Er4  1  0.974894  0.862740  0.112154  1
  Er  Er5  1  0.798903  0.558714  0.240188  1
  Er  Er6  1  0.201097  0.441286  0.759812  1
  Er  Er7  1  0.303639  0.053639  0.750000  1
  Er  Er8  1  0.318525  0.058714  0.259812  1
  Er  Er9  1  0.303639  0.553639  0.250000  1
  Er  Er10  1  0.750584  0.362740  0.387846  1
  Er  Er11  1  0.696361  0.446361  0.750000  1
  Pb  Pb12  1  0.480751  0.574379  0.906372  1
  Pb  Pb13  1  0.599663  0.794657  0.805006  1
  Pb  Pb14  1  0.668007  0.074379  0.593628  1
  Pb  Pb15  1  0.000000  0.750000  0.750000  1
  Pb  Pb16  1  0.989652  0.294657  0.694994  1
  Pb  Pb17  1  0.519249  0.425621  0.093628  1
  Pb  Pb18  1  0.010348  0.705343  0.305006  1
  Pb  Pb19  1  0.400337  0.205343  0.194994  1
  Pb  Pb20  1  0.331993  0.925621  0.406372  1
  Pb  Pb21  1  0.000000  0.250000  0.250000  1
