# generated using pymatgen
data_Lu12Co4BiRu
_symmetry_space_group_name_H-M   'P 1'
_cell_length_a   8.14844180
_cell_length_b   8.14844273
_cell_length_c   8.14844248
_cell_angle_alpha   111.49202129
_cell_angle_beta   110.80132653
_cell_angle_gamma   106.17068428
_symmetry_Int_Tables_number   1
_chemical_formula_structural   Lu12Co4BiRu
_chemical_formula_sum   'Lu12 Co4 Bi1 Ru1'
_cell_volume   415.44246877
_cell_formula_units_Z   1
loop_
 _symmetry_equiv_pos_site_id
 _symmetry_equiv_pos_as_xyz
  1  'x, y, z'
loop_
 _atom_site_type_symbol
 _atom_site_label
 _atom_site_symmetry_multiplicity
 _atom_site_fract_x
 _atom_site_fract_y
 _atom_site_fract_z
 _atom_site_occupancy
  Lu  Lu0  1  0.414070  0.216795  0.197273  1
  Lu  Lu1  1  0.585930  0.783205  0.802727  1
  Lu  Lu2  1  0.019522  0.216795  0.802727  1
  Lu  Lu3  1  0.980478  0.783205  0.197273  1
  Lu  Lu4  1  0.181632  0.279591  0.461223  1
  Lu  Lu5  1  0.818368  0.720409  0.538777  1
  Lu  Lu6  1  0.181632  0.720409  0.902041  1
  Lu  Lu7  1  0.818368  0.279591  0.097959  1
  Lu  Lu8  1  0.311471  0.620988  0.309516  1
  Lu  Lu9  1  0.688529  0.379012  0.690484  1
  Lu  Lu10  1  0.311471  0.001955  0.690484  1
  Lu  Lu11  1  0.688529  0.998045  0.309516  1
  Co  Co12  1  0.372255  0.000000  0.372255  1
  Co  Co13  1  0.627745  0.000000  0.627745  1
  Co  Co14  1  0.112177  0.612177  0.500000  1
  Co  Co15  1  0.887823  0.387823  0.500000  1
  Bi  Bi16  1  0.500000  0.500000  0.000000  1
  Ru  Ru17  1  0.000000  0.000000  0.000000  1
