# generated using pymatgen
data_Tm9Lu3In2Fe2Os
_symmetry_space_group_name_H-M   'P 1'
_cell_length_a   8.24919884
_cell_length_b   8.25223146
_cell_length_c   8.24920016
_cell_angle_alpha   108.65705091
_cell_angle_beta   108.65137704
_cell_angle_gamma   111.10254937
_symmetry_Int_Tables_number   1
_chemical_formula_structural   Tm9Lu3In2Fe2Os
_chemical_formula_sum   'Tm9 Lu3 In2 Fe2 Os1'
_cell_volume   432.10358764
_cell_formula_units_Z   1
loop_
 _symmetry_equiv_pos_site_id
 _symmetry_equiv_pos_as_xyz
  1  'x, y, z'
loop_
 _atom_site_type_symbol
 _atom_site_label
 _atom_site_symmetry_multiplicity
 _atom_site_fract_x
 _atom_site_fract_y
 _atom_site_fract_z
 _atom_site_occupancy
  Tm  Tm0  1  0.954688  0.192373  0.762524  1
  Tm  Tm1  1  0.808125  0.046129  0.238005  1
  Tm  Tm2  1  0.045664  0.807531  0.237733  1
  Tm  Tm3  1  0.429850  0.192373  0.237686  1
  Tm  Tm4  1  0.569797  0.807531  0.761866  1
  Tm  Tm5  1  0.308438  0.308125  0.616412  1
  Tm  Tm6  1  0.691720  0.691698  0.383857  1
  Tm  Tm7  1  0.691712  0.308125  0.999688  1
  Tm  Tm8  1  0.307842  0.691698  0.999977  1
  Lu  Lu9  1  0.191863  0.429376  0.237513  1
  Lu  Lu10  1  0.808428  0.570834  0.762407  1
  Lu  Lu11  1  0.191622  0.954168  0.762545  1
  In  In12  1  0.000222  0.500463  0.500240  1
  In  In13  1  0.499999  0.999976  0.499977  1
  Fe  Fe14  1  0.384189  0.384158  0.999969  1
  Fe  Fe15  1  0.615582  0.615489  0.999907  1
  Os  Os16  1  0.000258  0.999952  0.999694  1
