# generated using pymatgen
data_Gd6BiO12
_symmetry_space_group_name_H-M   'P 1'
_cell_length_a   6.64585791
_cell_length_b   6.64585897
_cell_length_c   6.64585761
_cell_angle_alpha   98.95862353
_cell_angle_beta   98.95861932
_cell_angle_gamma   98.95862683
_symmetry_Int_Tables_number   1
_chemical_formula_structural   Gd6BiO12
_chemical_formula_sum   'Gd6 Bi1 O12'
_cell_volume   281.49872663
_cell_formula_units_Z   1
loop_
 _symmetry_equiv_pos_site_id
 _symmetry_equiv_pos_as_xyz
  1  'x, y, z'
loop_
 _atom_site_type_symbol
 _atom_site_label
 _atom_site_symmetry_multiplicity
 _atom_site_fract_x
 _atom_site_fract_y
 _atom_site_fract_z
 _atom_site_occupancy
  Gd  Gd0  1  0.859543  0.392132  0.693741  1
  Gd  Gd1  1  0.607868  0.306259  0.140457  1
  Gd  Gd2  1  0.306259  0.140457  0.607868  1
  Gd  Gd3  1  0.693741  0.859543  0.392132  1
  Gd  Gd4  1  0.392132  0.693741  0.859543  1
  Gd  Gd5  1  0.140457  0.607868  0.306259  1
  Bi  Bi6  1  0.000000  0.000000  0.000000  1
  O  O7  1  0.929570  0.049214  0.686400  1
  O  O8  1  0.950786  0.313600  0.070430  1
  O  O9  1  0.587695  0.177464  0.433369  1
  O  O10  1  0.822536  0.566631  0.412305  1
  O  O11  1  0.313600  0.070430  0.950786  1
  O  O12  1  0.566631  0.412305  0.822536  1
  O  O13  1  0.433369  0.587695  0.177464  1
  O  O14  1  0.686400  0.929570  0.049214  1
  O  O15  1  0.177464  0.433369  0.587695  1
  O  O16  1  0.412305  0.822536  0.566631  1
  O  O17  1  0.049214  0.686400  0.929570  1
  O  O18  1  0.070430  0.950786  0.313600  1
