# generated using pymatgen
data_Sc12Si12OsRh3
_symmetry_space_group_name_H-M   'P 1'
_cell_length_a   4.03655100
_cell_length_b   10.24688429
_cell_length_c   11.69742662
_cell_angle_alpha   90.07663776
_cell_angle_beta   90.00000000
_cell_angle_gamma   90.00000000
_symmetry_Int_Tables_number   1
_chemical_formula_structural   Sc12Si12OsRh3
_chemical_formula_sum   'Sc12 Si12 Os1 Rh3'
_cell_volume   483.82935779
_cell_formula_units_Z   1
loop_
 _symmetry_equiv_pos_site_id
 _symmetry_equiv_pos_as_xyz
  1  'x, y, z'
loop_
 _atom_site_type_symbol
 _atom_site_label
 _atom_site_symmetry_multiplicity
 _atom_site_fract_x
 _atom_site_fract_y
 _atom_site_fract_z
 _atom_site_occupancy
  Sc  Sc0  1  0.250000  0.876406  0.019979  1
  Sc  Sc1  1  0.250000  0.621691  0.521093  1
  Sc  Sc2  1  0.750000  0.122621  0.979923  1
  Sc  Sc3  1  0.750000  0.376427  0.481680  1
  Sc  Sc4  1  0.250000  0.920565  0.601581  1
  Sc  Sc5  1  0.250000  0.579814  0.102080  1
  Sc  Sc6  1  0.750000  0.079043  0.398038  1
  Sc  Sc7  1  0.750000  0.420542  0.896562  1
  Sc  Sc8  1  0.250000  0.659084  0.798357  1
  Sc  Sc9  1  0.250000  0.841655  0.299440  1
  Sc  Sc10  1  0.750000  0.341858  0.200603  1
  Sc  Sc11  1  0.750000  0.158557  0.701102  1
  Si  Si12  1  0.250000  0.014836  0.823063  1
  Si  Si13  1  0.250000  0.485167  0.322246  1
  Si  Si14  1  0.750000  0.984809  0.177479  1
  Si  Si15  1  0.750000  0.514441  0.678896  1
  Si  Si16  1  0.250000  0.250616  0.841334  1
  Si  Si17  1  0.250000  0.249474  0.342141  1
  Si  Si18  1  0.750000  0.749451  0.157937  1
  Si  Si19  1  0.750000  0.751242  0.657503  1
  Si  Si20  1  0.250000  0.194859  0.545910  1
  Si  Si21  1  0.250000  0.306551  0.044451  1
  Si  Si22  1  0.750000  0.806519  0.455008  1
  Si  Si23  1  0.750000  0.692585  0.954755  1
  Os  Os24  1  0.250000  0.390697  0.676116  1
  Rh  Rh25  1  0.250000  0.110272  0.177373  1
  Rh  Rh26  1  0.750000  0.610606  0.322648  1
  Rh  Rh27  1  0.750000  0.889612  0.822702  1
