# generated using pymatgen
data_ThSb12(OsRu)2
_symmetry_space_group_name_H-M   'P 1'
_cell_length_a   8.12932599
_cell_length_b   8.12059274
_cell_length_c   8.12068001
_cell_angle_alpha   109.42863628
_cell_angle_beta   109.47128370
_cell_angle_gamma   109.46856372
_symmetry_Int_Tables_number   1
_chemical_formula_structural   ThSb12(OsRu)2
_chemical_formula_sum   'Th1 Sb12 Os2 Ru2'
_cell_volume   412.90926613
_cell_formula_units_Z   1
loop_
 _symmetry_equiv_pos_site_id
 _symmetry_equiv_pos_as_xyz
  1  'x, y, z'
loop_
 _atom_site_type_symbol
 _atom_site_label
 _atom_site_symmetry_multiplicity
 _atom_site_fract_x
 _atom_site_fract_y
 _atom_site_fract_z
 _atom_site_occupancy
  Th  Th0  1  0.000000  0.000000  0.000000  1
  Sb  Sb1  1  0.338623  0.181121  0.843559  1
  Sb  Sb2  1  0.661377  0.818879  0.156441  1
  Sb  Sb3  1  0.661376  0.504935  0.842495  1
  Sb  Sb4  1  0.338624  0.495065  0.157505  1
  Sb  Sb5  1  0.181636  0.843293  0.338345  1
  Sb  Sb6  1  0.818364  0.156707  0.661655  1
  Sb  Sb7  1  0.504995  0.842844  0.662153  1
  Sb  Sb8  1  0.495005  0.157156  0.337847  1
  Sb  Sb9  1  0.842392  0.337376  0.181112  1
  Sb  Sb10  1  0.157608  0.662624  0.818888  1
  Sb  Sb11  1  0.842392  0.661283  0.505018  1
  Sb  Sb12  1  0.157608  0.338717  0.494982  1
  Os  Os13  1  0.000000  0.000000  0.500000  1
  Os  Os14  1  0.000000  0.500000  0.000000  1
  Ru  Ru15  1  0.500000  0.000000  0.000000  1
  Ru  Ru16  1  0.500000  0.500000  0.500000  1
