# generated using pymatgen
data_Cs3SmGe2O7
_symmetry_space_group_name_H-M   'P 1'
_cell_length_a   6.27875200
_cell_length_b   6.27875223
_cell_length_c   14.76184000
_cell_angle_alpha   90.00000000
_cell_angle_beta   90.00000000
_cell_angle_gamma   119.99999880
_symmetry_Int_Tables_number   1
_chemical_formula_structural   Cs3SmGe2O7
_chemical_formula_sum   'Cs6 Sm2 Ge4 O14'
_cell_volume   503.98522602
_cell_formula_units_Z   2
loop_
 _symmetry_equiv_pos_site_id
 _symmetry_equiv_pos_as_xyz
  1  'x, y, z'
loop_
 _atom_site_type_symbol
 _atom_site_label
 _atom_site_symmetry_multiplicity
 _atom_site_fract_x
 _atom_site_fract_y
 _atom_site_fract_z
 _atom_site_occupancy
  Cs  Cs0  1  0.333334  0.666667  0.106827  1
  Cs  Cs1  1  0.000000  0.000000  0.250000  1
  Cs  Cs2  1  0.333334  0.666667  0.393174  1
  Cs  Cs3  1  0.666666  0.333334  0.606827  1
  Cs  Cs4  1  0.000000  0.000000  0.750000  1
  Cs  Cs5  1  0.666666  0.333334  0.893174  1
  Sm  Sm6  1  0.000000  0.000000  0.000000  1
  Sm  Sm7  1  0.000000  0.000000  0.500000  1
  Ge  Ge8  1  0.666666  0.333334  0.126971  1
  Ge  Ge9  1  0.666666  0.333334  0.373029  1
  Ge  Ge10  1  0.333334  0.666667  0.626971  1
  Ge  Ge11  1  0.333334  0.666667  0.873029  1
  O  O12  1  0.356029  0.178014  0.090335  1
  O  O13  1  0.821985  0.178014  0.090335  1
  O  O14  1  0.821985  0.643970  0.090335  1
  O  O15  1  0.666666  0.333334  0.250000  1
  O  O16  1  0.356029  0.178014  0.409665  1
  O  O17  1  0.821985  0.178014  0.409665  1
  O  O18  1  0.821985  0.643970  0.409665  1
  O  O19  1  0.178014  0.356028  0.590335  1
  O  O20  1  0.178015  0.821986  0.590335  1
  O  O21  1  0.643971  0.821986  0.590335  1
  O  O22  1  0.333334  0.666667  0.750000  1
  O  O23  1  0.178014  0.356028  0.909666  1
  O  O24  1  0.178015  0.821986  0.909666  1
  O  O25  1  0.643971  0.821986  0.909666  1
