# generated using pymatgen
data_K3Li2TiP3
_symmetry_space_group_name_H-M   'P 1'
_cell_length_a   9.94323401
_cell_length_b   9.94323283
_cell_length_c   14.60929500
_cell_angle_alpha   90.00000000
_cell_angle_beta   90.00000000
_cell_angle_gamma   143.10241916
_symmetry_Int_Tables_number   1
_chemical_formula_structural   K3Li2TiP3
_chemical_formula_sum   'K12 Li8 Ti4 P12'
_cell_volume   867.19230957
_cell_formula_units_Z   4
loop_
 _symmetry_equiv_pos_site_id
 _symmetry_equiv_pos_as_xyz
  1  'x, y, z'
loop_
 _atom_site_type_symbol
 _atom_site_label
 _atom_site_symmetry_multiplicity
 _atom_site_fract_x
 _atom_site_fract_y
 _atom_site_fract_z
 _atom_site_occupancy
  K  K0  1  0.105725  0.447342  0.672163  1
  K  K1  1  0.719304  0.719304  0.679497  1
  K  K2  1  0.219304  0.219304  0.820503  1
  K  K3  1  0.780696  0.780696  0.179497  1
  K  K4  1  0.947342  0.605725  0.827837  1
  K  K5  1  0.552658  0.894275  0.327837  1
  K  K6  1  0.394275  0.052658  0.172163  1
  K  K7  1  0.052658  0.394275  0.172163  1
  K  K8  1  0.894275  0.552658  0.327837  1
  K  K9  1  0.447342  0.105725  0.672163  1
  K  K10  1  0.605725  0.947343  0.827837  1
  K  K11  1  0.280696  0.280696  0.320503  1
  Li  Li12  1  0.918260  0.081740  0.000000  1
  Li  Li13  1  0.581740  0.418260  0.500000  1
  Li  Li14  1  0.081740  0.918260  0.000000  1
  Li  Li15  1  0.418260  0.581740  0.500000  1
  Li  Li16  1  0.750265  0.249735  0.000000  1
  Li  Li17  1  0.749735  0.250265  0.500000  1
  Li  Li18  1  0.249735  0.750265  0.000000  1
  Li  Li19  1  0.250265  0.749735  0.500000  1
  Ti  Ti20  1  0.086734  0.913266  0.500000  1
  Ti  Ti21  1  0.413266  0.586734  0.000000  1
  Ti  Ti22  1  0.913266  0.086734  0.500000  1
  Ti  Ti23  1  0.586734  0.413266  0.000000  1
  P  P24  1  0.886515  0.566990  0.089144  1
  P  P25  1  0.433010  0.113485  0.910856  1
  P  P26  1  0.613485  0.933010  0.589144  1
  P  P27  1  0.933010  0.613485  0.589144  1
  P  P28  1  0.113485  0.433010  0.910856  1
  P  P29  1  0.566990  0.886515  0.089144  1
  P  P30  1  0.386515  0.066990  0.410856  1
  P  P31  1  0.217362  0.217362  0.583680  1
  P  P32  1  0.717362  0.717362  0.916320  1
  P  P33  1  0.282638  0.282638  0.083680  1
  P  P34  1  0.066990  0.386515  0.410856  1
  P  P35  1  0.782638  0.782638  0.416320  1
