# generated using pymatgen
data_Lu2Mn5P7Ir6Rh
_symmetry_space_group_name_H-M   'P 1'
_cell_length_a   9.38222718
_cell_length_b   9.38185783
_cell_length_c   3.83263000
_cell_angle_alpha   90.00000000
_cell_angle_beta   90.00000000
_cell_angle_gamma   119.84271675
_symmetry_Int_Tables_number   1
_chemical_formula_structural   Lu2Mn5P7Ir6Rh
_chemical_formula_sum   'Lu2 Mn5 P7 Ir6 Rh1'
_cell_volume   292.62299323
_cell_formula_units_Z   1
loop_
 _symmetry_equiv_pos_site_id
 _symmetry_equiv_pos_as_xyz
  1  'x, y, z'
loop_
 _atom_site_type_symbol
 _atom_site_label
 _atom_site_symmetry_multiplicity
 _atom_site_fract_x
 _atom_site_fract_y
 _atom_site_fract_z
 _atom_site_occupancy
  Lu  Lu0  1  0.666922  0.333486  0.000000  1
  Lu  Lu1  1  0.001113  0.000570  0.500000  1
  Mn  Mn2  1  0.492037  0.937131  0.000000  1
  Mn  Mn3  1  0.062550  0.556089  0.000000  1
  Mn  Mn4  1  0.445820  0.508498  0.000000  1
  Mn  Mn5  1  0.233899  0.788456  0.500000  1
  Mn  Mn6  1  0.209962  0.445190  0.500000  1
  P  P7  1  0.452656  0.063044  0.500000  1
  P  P8  1  0.939946  0.390873  0.500000  1
  P  P9  1  0.608766  0.543768  0.500000  1
  P  P10  1  0.745838  0.969660  0.000000  1
  P  P11  1  0.033830  0.778060  0.000000  1
  P  P12  1  0.223994  0.258411  0.000000  1
  P  P13  1  0.331189  0.664289  0.000000  1
  Ir  Ir14  1  0.763080  0.734851  0.000000  1
  Ir  Ir15  1  0.265282  0.028460  0.000000  1
  Ir  Ir16  1  0.972542  0.238080  0.000000  1
  Ir  Ir17  1  0.721930  0.114448  0.500000  1
  Ir  Ir18  1  0.885879  0.608118  0.500000  1
  Ir  Ir19  1  0.391312  0.278687  0.500000  1
  Rh  Rh20  1  0.551449  0.759831  0.500000  1
