# generated using pymatgen
data_Tb4Nd4Tc(B8Os)3
_symmetry_space_group_name_H-M   'P 1'
_cell_length_a   3.72881100
_cell_length_b   9.27094384
_cell_length_c   11.69593201
_cell_angle_alpha   89.93887510
_cell_angle_beta   90.00000000
_cell_angle_gamma   90.00000000
_symmetry_Int_Tables_number   1
_chemical_formula_structural   Tb4Nd4Tc(B8Os)3
_chemical_formula_sum   'Tb4 Nd4 Tc1 B24 Os3'
_cell_volume   404.32343039
_cell_formula_units_Z   1
loop_
 _symmetry_equiv_pos_site_id
 _symmetry_equiv_pos_as_xyz
  1  'x, y, z'
loop_
 _atom_site_type_symbol
 _atom_site_label
 _atom_site_symmetry_multiplicity
 _atom_site_fract_x
 _atom_site_fract_y
 _atom_site_fract_z
 _atom_site_occupancy
  Tb  Tb0  1  0.000000  0.942826  0.372016  1
  Tb  Tb1  1  0.000000  0.056728  0.628217  1
  Tb  Tb2  1  0.000000  0.444845  0.128794  1
  Tb  Tb3  1  0.000000  0.556497  0.871332  1
  Nd  Nd4  1  0.000000  0.324365  0.413029  1
  Nd  Nd5  1  0.000000  0.676399  0.584181  1
  Nd  Nd6  1  0.000000  0.821713  0.087705  1
  Nd  Nd7  1  0.000000  0.176598  0.914613  1
  Tc  Tc8  1  0.000000  0.638809  0.320221  1
  B  B9  1  0.500000  0.554910  0.430561  1
  B  B10  1  0.500000  0.444463  0.569560  1
  B  B11  1  0.500000  0.055712  0.069602  1
  B  B12  1  0.500000  0.944248  0.930711  1
  B  B13  1  0.500000  0.748183  0.417294  1
  B  B14  1  0.500000  0.251718  0.582620  1
  B  B15  1  0.500000  0.248517  0.082442  1
  B  B16  1  0.500000  0.751547  0.917470  1
  B  B17  1  0.500000  0.790107  0.267414  1
  B  B18  1  0.500000  0.210177  0.732695  1
  B  B19  1  0.500000  0.289906  0.232154  1
  B  B20  1  0.500000  0.710663  0.767252  1
  B  B21  1  0.500000  0.631335  0.186709  1
  B  B22  1  0.500000  0.368542  0.813818  1
  B  B23  1  0.500000  0.131280  0.313240  1
  B  B24  1  0.500000  0.869006  0.686308  1
  B  B25  1  0.500000  0.985935  0.213633  1
  B  B26  1  0.500000  0.013906  0.786849  1
  B  B27  1  0.500000  0.485631  0.286450  1
  B  B28  1  0.500000  0.513590  0.713492  1
  B  B29  1  0.500000  0.604631  0.028311  1
  B  B30  1  0.500000  0.395278  0.970822  1
  B  B31  1  0.500000  0.105072  0.471297  1
  B  B32  1  0.500000  0.895903  0.529311  1
  Os  Os33  1  0.000000  0.360858  0.680317  1
  Os  Os34  1  0.000000  0.138759  0.179361  1
  Os  Os35  1  0.000000  0.861342  0.820197  1
