# generated using pymatgen
data_Zr2Sc6Al12Mo2Os7
_symmetry_space_group_name_H-M   'P 1'
_cell_length_a   8.90119562
_cell_length_b   8.89700580
_cell_length_c   8.89700764
_cell_angle_alpha   59.96926047
_cell_angle_beta   59.98442566
_cell_angle_gamma   59.98443046
_symmetry_Int_Tables_number   1
_chemical_formula_structural   Zr2Sc6Al12Mo2Os7
_chemical_formula_sum   'Zr2 Sc6 Al12 Mo2 Os7'
_cell_volume   497.98696838
_cell_formula_units_Z   1
loop_
 _symmetry_equiv_pos_site_id
 _symmetry_equiv_pos_as_xyz
  1  'x, y, z'
loop_
 _atom_site_type_symbol
 _atom_site_label
 _atom_site_symmetry_multiplicity
 _atom_site_fract_x
 _atom_site_fract_y
 _atom_site_fract_z
 _atom_site_occupancy
  Zr  Zr0  1  0.357808  0.879637  0.879637  1
  Zr  Zr1  1  0.882915  0.879637  0.879637  1
  Sc  Sc2  1  0.710923  0.709571  0.291944  1
  Sc  Sc3  1  0.287561  0.709571  0.291944  1
  Sc  Sc4  1  0.712577  0.287423  0.287423  1
  Sc  Sc5  1  0.287561  0.291944  0.709571  1
  Sc  Sc6  1  0.710923  0.291944  0.709571  1
  Sc  Sc7  1  0.293888  0.706112  0.706112  1
  Al  Al8  1  0.121060  0.122510  0.635369  1
  Al  Al9  1  0.121060  0.635369  0.122510  1
  Al  Al10  1  0.633192  0.122038  0.122038  1
  Al  Al11  1  0.122733  0.122038  0.122038  1
  Al  Al12  1  0.662894  0.661106  0.013108  1
  Al  Al13  1  0.662894  0.013108  0.661106  1
  Al  Al14  1  0.012794  0.661556  0.661556  1
  Al  Al15  1  0.664094  0.661556  0.661556  1
  Al  Al16  1  0.334762  0.335119  0.995357  1
  Al  Al17  1  0.334762  0.995357  0.335119  1
  Al  Al18  1  0.994089  0.335257  0.335257  1
  Al  Al19  1  0.335397  0.335257  0.335257  1
  Mo  Mo20  1  0.879295  0.877453  0.363955  1
  Mo  Mo21  1  0.879295  0.363955  0.877453  1
  Os  Os22  1  0.987327  0.012673  0.012673  1
  Os  Os23  1  0.998325  0.998370  0.495231  1
  Os  Os24  1  0.508073  0.998370  0.495231  1
  Os  Os25  1  0.997232  0.502768  0.502768  1
  Os  Os26  1  0.508073  0.495231  0.998370  1
  Os  Os27  1  0.998325  0.495231  0.998370  1
  Os  Os28  1  0.500166  0.999834  0.999834  1
