# generated using pymatgen
data_Th3(ZnPt2)2
_symmetry_space_group_name_H-M   'P 1'
_cell_length_a   7.41844417
_cell_length_b   7.77237064
_cell_length_c   3.92620900
_cell_angle_alpha   90.00000000
_cell_angle_beta   90.00000000
_cell_angle_gamma   121.59117234
_symmetry_Int_Tables_number   1
_chemical_formula_structural   Th3(ZnPt2)2
_chemical_formula_sum   'Th3 Zn2 Pt4'
_cell_volume   192.83296912
_cell_formula_units_Z   1
loop_
 _symmetry_equiv_pos_site_id
 _symmetry_equiv_pos_as_xyz
  1  'x, y, z'
loop_
 _atom_site_type_symbol
 _atom_site_label
 _atom_site_symmetry_multiplicity
 _atom_site_fract_x
 _atom_site_fract_y
 _atom_site_fract_z
 _atom_site_occupancy
  Th  Th0  1  0.375993  0.392127  0.500000  1
  Th  Th1  1  0.624007  0.016135  0.500000  1
  Th  Th2  1  0.000000  0.588791  0.500000  1
  Zn  Zn3  1  0.747483  0.746572  0.000000  1
  Zn  Zn4  1  0.252517  0.999088  0.000000  1
  Pt  Pt5  1  0.000000  0.255771  0.000000  1
  Pt  Pt6  1  0.648728  0.342199  0.000000  1
  Pt  Pt7  1  0.351272  0.693471  0.000000  1
  Pt  Pt8  1  0.000000  0.965846  0.500000  1
