# generated using pymatgen
data_Sc4Ga2FeB4Ru9
_symmetry_space_group_name_H-M   'P 1'
_cell_length_a   9.31428780
_cell_length_b   9.31428780
_cell_length_c   3.04298800
_cell_angle_alpha   90.00000000
_cell_angle_beta   90.00000000
_cell_angle_gamma   88.86385730
_symmetry_Int_Tables_number   1
_chemical_formula_structural   Sc4Ga2FeB4Ru9
_chemical_formula_sum   'Sc4 Ga2 Fe1 B4 Ru9'
_cell_volume   263.94543579
_cell_formula_units_Z   1
loop_
 _symmetry_equiv_pos_site_id
 _symmetry_equiv_pos_as_xyz
  1  'x, y, z'
loop_
 _atom_site_type_symbol
 _atom_site_label
 _atom_site_symmetry_multiplicity
 _atom_site_fract_x
 _atom_site_fract_y
 _atom_site_fract_z
 _atom_site_occupancy
  Sc  Sc0  1  0.678158  0.178158  0.000000  1
  Sc  Sc1  1  0.321842  0.821842  0.000000  1
  Sc  Sc2  1  0.177900  0.322100  0.000000  1
  Sc  Sc3  1  0.822100  0.677900  0.000000  1
  Ga  Ga4  1  0.000000  0.000000  0.000000  1
  Ga  Ga5  1  0.500000  0.500000  0.000000  1
  Fe  Fe6  1  0.500000  0.000000  0.500000  1
  B  B7  1  0.123681  0.623681  0.000000  1
  B  B8  1  0.876319  0.376319  0.000000  1
  B  B9  1  0.618987  0.881013  0.000000  1
  B  B10  1  0.381013  0.118987  0.000000  1
  Ru  Ru11  1  0.222941  0.064468  0.500000  1
  Ru  Ru12  1  0.777059  0.935532  0.500000  1
  Ru  Ru13  1  0.067547  0.785352  0.500000  1
  Ru  Ru14  1  0.714648  0.432453  0.500000  1
  Ru  Ru15  1  0.932453  0.214648  0.500000  1
  Ru  Ru16  1  0.285352  0.567547  0.500000  1
  Ru  Ru17  1  0.564468  0.722941  0.500000  1
  Ru  Ru18  1  0.435532  0.277059  0.500000  1
  Ru  Ru19  1  0.000000  0.500000  0.500000  1
