# generated using pymatgen
data_Rb4Hf3Zr5Se16
_symmetry_space_group_name_H-M   'P 1'
_cell_length_a   6.59560003
_cell_length_b   7.60490313
_cell_length_c   17.05149638
_cell_angle_alpha   89.97844505
_cell_angle_beta   89.98912102
_cell_angle_gamma   89.99981302
_symmetry_Int_Tables_number   1
_chemical_formula_structural   Rb4Hf3Zr5Se16
_chemical_formula_sum   'Rb4 Hf3 Zr5 Se16'
_cell_volume   855.28421451
_cell_formula_units_Z   1
loop_
 _symmetry_equiv_pos_site_id
 _symmetry_equiv_pos_as_xyz
  1  'x, y, z'
loop_
 _atom_site_type_symbol
 _atom_site_label
 _atom_site_symmetry_multiplicity
 _atom_site_fract_x
 _atom_site_fract_y
 _atom_site_fract_z
 _atom_site_occupancy
  Rb  Rb0  1  0.347827  0.000031  0.999829  1
  Rb  Rb1  1  0.652173  0.499969  0.500171  1
  Rb  Rb2  1  0.031525  0.999971  0.500132  1
  Rb  Rb3  1  0.968475  0.500029  0.999868  1
  Hf  Hf4  1  0.500000  0.250000  0.250000  1
  Hf  Hf5  1  0.500000  0.750000  0.750000  1
  Hf  Hf6  1  0.500000  0.750000  0.250000  1
  Zr  Zr7  1  0.000966  0.000013  0.248992  1
  Zr  Zr8  1  0.000916  0.001436  0.751013  1
  Zr  Zr9  1  0.999034  0.499987  0.251008  1
  Zr  Zr10  1  0.999084  0.498564  0.748987  1
  Zr  Zr11  1  0.500000  0.250000  0.750000  1
  Se  Se12  1  0.829667  0.248310  0.345106  1
  Se  Se13  1  0.829407  0.751684  0.655083  1
  Se  Se14  1  0.170326  0.748319  0.154900  1
  Se  Se15  1  0.165811  0.251744  0.846137  1
  Se  Se16  1  0.170333  0.251690  0.154894  1
  Se  Se17  1  0.170593  0.748316  0.844917  1
  Se  Se18  1  0.829674  0.751681  0.345100  1
  Se  Se19  1  0.834189  0.248256  0.653863  1
  Se  Se20  1  0.665525  0.000013  0.156595  1
  Se  Se21  1  0.667642  0.996744  0.844304  1
  Se  Se22  1  0.334475  0.499987  0.343405  1
  Se  Se23  1  0.332358  0.503256  0.655696  1
  Se  Se24  1  0.340503  0.999991  0.342206  1
  Se  Se25  1  0.338620  0.996672  0.656885  1
  Se  Se26  1  0.659497  0.500009  0.157794  1
  Se  Se27  1  0.661380  0.503328  0.843115  1
