# generated using pymatgen
data_TiFe10Sn(BO5)4
_symmetry_space_group_name_H-M   'P 1'
_cell_length_a   6.39896704
_cell_length_b   10.15282153
_cell_length_c   12.91492898
_cell_angle_alpha   85.41168947
_cell_angle_beta   75.75818432
_cell_angle_gamma   71.64978195
_symmetry_Int_Tables_number   1
_chemical_formula_structural   TiFe10Sn(BO5)4
_chemical_formula_sum   'Ti2 Fe20 Sn2 B8 O40'
_cell_volume   771.90668642
_cell_formula_units_Z   2
loop_
 _symmetry_equiv_pos_site_id
 _symmetry_equiv_pos_as_xyz
  1  'x, y, z'
loop_
 _atom_site_type_symbol
 _atom_site_label
 _atom_site_symmetry_multiplicity
 _atom_site_fract_x
 _atom_site_fract_y
 _atom_site_fract_z
 _atom_site_occupancy
  Ti  Ti0  1  0.432419  0.747011  0.388830  1
  Ti  Ti1  1  0.567581  0.252989  0.611170  1
  Fe  Fe2  1  0.887225  0.000563  0.721474  1
  Fe  Fe3  1  0.112775  0.999437  0.278526  1
  Fe  Fe4  1  0.755637  0.992897  0.496518  1
  Fe  Fe5  1  0.244363  0.007103  0.503482  1
  Fe  Fe6  1  0.756804  0.000076  0.999985  1
  Fe  Fe7  1  0.243196  0.999924  0.000015  1
  Fe  Fe8  1  0.746966  0.499987  0.500013  1
  Fe  Fe9  1  0.253034  0.500013  0.499987  1
  Fe  Fe10  1  0.607100  0.495817  0.775636  1
  Fe  Fe11  1  0.392900  0.504183  0.224364  1
  Fe  Fe12  1  0.758506  0.484136  0.998801  1
  Fe  Fe13  1  0.241494  0.515864  0.001199  1
  Fe  Fe14  1  0.391186  0.000527  0.721281  1
  Fe  Fe15  1  0.608814  0.999473  0.278719  1
  Fe  Fe16  1  0.883719  0.504646  0.224354  1
  Fe  Fe17  1  0.116281  0.495354  0.775646  1
  Fe  Fe18  1  0.177477  0.758545  0.881899  1
  Fe  Fe19  1  0.822523  0.241455  0.118101  1
  Fe  Fe20  1  0.939565  0.739839  0.381821  1
  Fe  Fe21  1  0.060435  0.260161  0.618179  1
  Sn  Sn22  1  0.678139  0.754891  0.884270  1
  Sn  Sn23  1  0.321861  0.245109  0.115730  1
  B  B24  1  0.450073  0.238282  0.861386  1
  B  B25  1  0.549927  0.761718  0.138614  1
  B  B26  1  0.818667  0.725900  0.633489  1
  B  B27  1  0.181333  0.274100  0.366511  1
  B  B28  1  0.958069  0.223957  0.859842  1
  B  B29  1  0.041931  0.776043  0.140158  1
  B  B30  1  0.310884  0.735182  0.639275  1
  B  B31  1  0.689116  0.264818  0.360725  1
  O  O32  1  0.499474  0.610489  0.916118  1
  O  O33  1  0.500526  0.389511  0.083882  1
  O  O34  1  0.956198  0.850075  0.236063  1
  O  O35  1  0.043802  0.149925  0.763937  1
  O  O36  1  0.238777  0.879413  0.642173  1
  O  O37  1  0.761223  0.120587  0.357827  1
  O  O38  1  0.945364  0.153293  0.957241  1
  O  O39  1  0.054636  0.846707  0.042759  1
  O  O40  1  0.859728  0.894134  0.858516  1
  O  O41  1  0.140272  0.105866  0.141484  1
  O  O42  1  0.395899  0.665808  0.540778  1
  O  O43  1  0.604101  0.334192  0.459222  1
  O  O44  1  0.574562  0.884048  0.418458  1
  O  O45  1  0.425438  0.115952  0.581542  1
  O  O46  1  0.465474  0.831617  0.236086  1
  O  O47  1  0.534526  0.168383  0.763914  1
  O  O48  1  0.300575  0.657938  0.732488  1
  O  O49  1  0.699425  0.342062  0.267512  1
  O  O50  1  0.747171  0.868806  0.636109  1
  O  O51  1  0.252829  0.131194  0.363891  1
  O  O52  1  0.375735  0.381161  0.863548  1
  O  O53  1  0.624265  0.618839  0.136452  1
  O  O54  1  0.736796  0.612987  0.360338  1
  O  O55  1  0.263204  0.387013  0.639662  1
  O  O56  1  0.708792  0.387530  0.639732  1
  O  O57  1  0.291208  0.612470  0.360268  1
  O  O58  1  0.877488  0.116120  0.581830  1
  O  O59  1  0.122512  0.883880  0.418170  1
  O  O60  1  0.904885  0.649886  0.539273  1
  O  O61  1  0.095115  0.350114  0.460727  1
  O  O62  1  0.443670  0.159114  0.955495  1
  O  O63  1  0.556330  0.840886  0.044505  1
  O  O64  1  0.383469  0.894202  0.858516  1
  O  O65  1  0.616531  0.105798  0.141484  1
  O  O66  1  0.886272  0.367929  0.856442  1
  O  O67  1  0.113728  0.632071  0.143558  1
  O  O68  1  0.969401  0.610461  0.916066  1
  O  O69  1  0.030599  0.389539  0.083934  1
  O  O70  1  0.804829  0.652100  0.730615  1
  O  O71  1  0.195171  0.347900  0.269385  1
