# generated using pymatgen
data_Zr3Sc2Sb3
_symmetry_space_group_name_H-M   'P 1'
_cell_length_a   8.52691118
_cell_length_b   8.52691027
_cell_length_c   5.82780800
_cell_angle_alpha   90.00000000
_cell_angle_beta   90.00000000
_cell_angle_gamma   119.91815126
_symmetry_Int_Tables_number   1
_chemical_formula_structural   Zr3Sc2Sb3
_chemical_formula_sum   'Zr6 Sc4 Sb6'
_cell_volume   367.26276368
_cell_formula_units_Z   2
loop_
 _symmetry_equiv_pos_site_id
 _symmetry_equiv_pos_as_xyz
  1  'x, y, z'
loop_
 _atom_site_type_symbol
 _atom_site_label
 _atom_site_symmetry_multiplicity
 _atom_site_fract_x
 _atom_site_fract_y
 _atom_site_fract_z
 _atom_site_occupancy
  Zr  Zr0  1  0.741785  0.999439  0.250000  1
  Zr  Zr1  1  0.999439  0.741785  0.250000  1
  Zr  Zr2  1  0.668358  0.334095  0.000315  1
  Zr  Zr3  1  0.334095  0.668358  0.000315  1
  Zr  Zr4  1  0.334095  0.668358  0.499685  1
  Zr  Zr5  1  0.668358  0.334095  0.499685  1
  Sc  Sc6  1  0.746005  0.746005  0.750000  1
  Sc  Sc7  1  0.254253  0.999693  0.750000  1
  Sc  Sc8  1  0.999693  0.254253  0.750000  1
  Sc  Sc9  1  0.254235  0.254235  0.250000  1
  Sb  Sb10  1  0.382913  0.382913  0.750000  1
  Sb  Sb11  1  0.616241  0.000134  0.750000  1
  Sb  Sb12  1  0.000134  0.616241  0.750000  1
  Sb  Sb13  1  0.613386  0.613386  0.250000  1
  Sb  Sb14  1  0.384839  0.002174  0.250000  1
  Sb  Sb15  1  0.002174  0.384839  0.250000  1
