# generated using pymatgen
data_Y20(Ir3Rh)3
_symmetry_space_group_name_H-M   'P 1'
_cell_length_a   10.93220400
_cell_length_b   10.93220400
_cell_length_c   6.40251400
_cell_angle_alpha   90.00000000
_cell_angle_beta   90.00000000
_cell_angle_gamma   90.00000000
_symmetry_Int_Tables_number   1
_chemical_formula_structural   Y20(Ir3Rh)3
_chemical_formula_sum   'Y20 Ir9 Rh3'
_cell_volume   765.18419540
_cell_formula_units_Z   1
loop_
 _symmetry_equiv_pos_site_id
 _symmetry_equiv_pos_as_xyz
  1  'x, y, z'
loop_
 _atom_site_type_symbol
 _atom_site_label
 _atom_site_symmetry_multiplicity
 _atom_site_fract_x
 _atom_site_fract_y
 _atom_site_fract_z
 _atom_site_occupancy
  Y  Y0  1  0.290635  0.088514  0.378531  1
  Y  Y1  1  0.290605  0.911366  0.878525  1
  Y  Y2  1  0.709395  0.088634  0.878525  1
  Y  Y3  1  0.709365  0.911486  0.378531  1
  Y  Y4  1  0.588634  0.790605  0.878525  1
  Y  Y5  1  0.588514  0.209365  0.378531  1
  Y  Y6  1  0.411486  0.790635  0.378531  1
  Y  Y7  1  0.411366  0.209395  0.878525  1
  Y  Y8  1  0.208789  0.411622  0.620859  1
  Y  Y9  1  0.208951  0.588508  0.122391  1
  Y  Y10  1  0.791049  0.411492  0.122391  1
  Y  Y11  1  0.791211  0.588378  0.620859  1
  Y  Y12  1  0.911492  0.708951  0.122391  1
  Y  Y13  1  0.911622  0.291211  0.620859  1
  Y  Y14  1  0.088378  0.708789  0.620859  1
  Y  Y15  1  0.088508  0.291049  0.122391  1
  Y  Y16  1  0.000000  0.000000  0.500101  1
  Y  Y17  1  0.000000  0.000000  0.000017  1
  Y  Y18  1  0.500000  0.500000  0.000017  1
  Y  Y19  1  0.500000  0.500000  0.500101  1
  Ir  Ir20  1  0.845952  0.153471  0.249761  1
  Ir  Ir21  1  0.846026  0.846428  0.749914  1
  Ir  Ir22  1  0.153974  0.153572  0.749914  1
  Ir  Ir23  1  0.154048  0.846529  0.249761  1
  Ir  Ir24  1  0.653572  0.346026  0.749914  1
  Ir  Ir25  1  0.653471  0.654048  0.249761  1
  Ir  Ir26  1  0.346529  0.345952  0.249761  1
  Ir  Ir27  1  0.346428  0.653974  0.749914  1
  Ir  Ir28  1  0.000000  0.500000  0.376185  1
  Rh  Rh29  1  0.500000  0.000000  0.123620  1
  Rh  Rh30  1  0.500000  0.000000  0.623619  1
  Rh  Rh31  1  0.000000  0.500000  0.876414  1
