# generated using pymatgen
data_Sr6ErTm13Sn16
_symmetry_space_group_name_H-M   'P 1'
_cell_length_a   7.98397607
_cell_length_b   8.40990799
_cell_length_c   15.85528300
_cell_angle_alpha   89.97162431
_cell_angle_beta   90.19036012
_cell_angle_gamma   89.26245317
_symmetry_Int_Tables_number   1
_chemical_formula_structural   Sr6ErTm13Sn16
_chemical_formula_sum   'Sr6 Er1 Tm13 Sn16'
_cell_volume   1064.50088191
_cell_formula_units_Z   1
loop_
 _symmetry_equiv_pos_site_id
 _symmetry_equiv_pos_as_xyz
  1  'x, y, z'
loop_
 _atom_site_type_symbol
 _atom_site_label
 _atom_site_symmetry_multiplicity
 _atom_site_fract_x
 _atom_site_fract_y
 _atom_site_fract_z
 _atom_site_occupancy
  Sr  Sr0  1  0.997819  0.823918  0.902487  1
  Sr  Sr1  1  0.501614  0.324038  0.092085  1
  Sr  Sr2  1  0.999322  0.176463  0.411756  1
  Sr  Sr3  1  0.499980  0.323229  0.411379  1
  Sr  Sr4  1  0.000855  0.175920  0.092333  1
  Sr  Sr5  1  0.496730  0.675320  0.903551  1
  Er  Er6  1  0.998441  0.814930  0.598148  1
  Tm  Tm7  1  0.671376  0.160394  0.625977  1
  Tm  Tm8  1  0.172626  0.338171  0.870446  1
  Tm  Tm9  1  0.329943  0.838374  0.124497  1
  Tm  Tm10  1  0.833112  0.662605  0.377417  1
  Tm  Tm11  1  0.331971  0.837382  0.376780  1
  Tm  Tm12  1  0.830908  0.663185  0.124567  1
  Tm  Tm13  1  0.671744  0.161743  0.870030  1
  Tm  Tm14  1  0.170357  0.339524  0.624927  1
  Tm  Tm15  1  0.498798  0.685850  0.598694  1
  Tm  Tm16  1  0.833534  0.504307  0.747645  1
  Tm  Tm17  1  0.334023  0.995745  0.747444  1
  Tm  Tm18  1  0.168516  0.496818  0.250771  1
  Tm  Tm19  1  0.667202  0.002283  0.250608  1
  Sn  Sn20  1  0.670058  0.947415  0.464112  1
  Sn  Sn21  1  0.165282  0.542534  0.042078  1
  Sn  Sn22  1  0.335441  0.041793  0.954962  1
  Sn  Sn23  1  0.821530  0.471976  0.547766  1
  Sn  Sn24  1  0.324954  0.027460  0.547462  1
  Sn  Sn25  1  0.835746  0.457682  0.954991  1
  Sn  Sn26  1  0.665295  0.958135  0.041818  1
  Sn  Sn27  1  0.172031  0.552932  0.464038  1
  Sn  Sn28  1  0.474440  0.372434  0.746336  1
  Sn  Sn29  1  0.975705  0.130547  0.746669  1
  Sn  Sn30  1  0.530795  0.629855  0.250351  1
  Sn  Sn31  1  0.028983  0.864888  0.250920  1
  Sn  Sn32  1  0.695372  0.852974  0.742068  1
  Sn  Sn33  1  0.197154  0.644926  0.741311  1
  Sn  Sn34  1  0.300175  0.137692  0.251513  1
  Sn  Sn35  1  0.798170  0.366557  0.252065  1
