# generated using pymatgen
data_Lu9Al(Ni2Pd)2
_symmetry_space_group_name_H-M   'P 1'
_cell_length_a   8.39063796
_cell_length_b   8.39063719
_cell_length_c   8.39063800
_cell_angle_alpha   129.39161920
_cell_angle_beta   129.39161489
_cell_angle_gamma   74.38125735
_symmetry_Int_Tables_number   1
_chemical_formula_structural   Lu9Al(Ni2Pd)2
_chemical_formula_sum   'Lu9 Al1 Ni4 Pd2'
_cell_volume   343.88933810
_cell_formula_units_Z   1
loop_
 _symmetry_equiv_pos_site_id
 _symmetry_equiv_pos_as_xyz
  1  'x, y, z'
loop_
 _atom_site_type_symbol
 _atom_site_label
 _atom_site_symmetry_multiplicity
 _atom_site_fract_x
 _atom_site_fract_y
 _atom_site_fract_z
 _atom_site_occupancy
  Lu  Lu0  1  0.500000  0.500000  0.000000  1
  Lu  Lu1  1  0.822385  0.291464  0.844557  1
  Lu  Lu2  1  0.177615  0.708536  0.155443  1
  Lu  Lu3  1  0.446909  0.977828  0.155443  1
  Lu  Lu4  1  0.291464  0.446909  0.469078  1
  Lu  Lu5  1  0.022172  0.177615  0.469078  1
  Lu  Lu6  1  0.553091  0.022172  0.844557  1
  Lu  Lu7  1  0.708536  0.553091  0.530922  1
  Lu  Lu8  1  0.977828  0.822385  0.530922  1
  Al  Al9  1  0.000000  0.000000  0.000000  1
  Ni  Ni10  1  0.124939  0.628895  0.753835  1
  Ni  Ni11  1  0.875061  0.371105  0.246165  1
  Ni  Ni12  1  0.628895  0.875061  0.503956  1
  Ni  Ni13  1  0.371105  0.124939  0.496044  1
  Pd  Pd14  1  0.261752  0.261752  0.000000  1
  Pd  Pd15  1  0.738248  0.738248  0.000000  1
