# generated using pymatgen
data_Dy15Er5(Ir5Au)2
_symmetry_space_group_name_H-M   'P 1'
_cell_length_a   11.03766554
_cell_length_b   10.98494403
_cell_length_c   6.33297758
_cell_angle_alpha   89.99555506
_cell_angle_beta   89.86705843
_cell_angle_gamma   89.99255771
_symmetry_Int_Tables_number   1
_chemical_formula_structural   Dy15Er5(Ir5Au)2
_chemical_formula_sum   'Dy15 Er5 Ir10 Au2'
_cell_volume   767.85966498
_cell_formula_units_Z   1
loop_
 _symmetry_equiv_pos_site_id
 _symmetry_equiv_pos_as_xyz
  1  'x, y, z'
loop_
 _atom_site_type_symbol
 _atom_site_label
 _atom_site_symmetry_multiplicity
 _atom_site_fract_x
 _atom_site_fract_y
 _atom_site_fract_z
 _atom_site_occupancy
  Dy  Dy0  1  0.291591  0.088474  0.372362  1
  Dy  Dy1  1  0.291813  0.911890  0.872467  1
  Dy  Dy2  1  0.699102  0.091580  0.866169  1
  Dy  Dy3  1  0.699103  0.908308  0.366177  1
  Dy  Dy4  1  0.578601  0.789002  0.877441  1
  Dy  Dy5  1  0.578619  0.210999  0.377394  1
  Dy  Dy6  1  0.409233  0.790345  0.376948  1
  Dy  Dy7  1  0.409081  0.209727  0.877014  1
  Dy  Dy8  1  0.209894  0.411312  0.621436  1
  Dy  Dy9  1  0.209874  0.588159  0.121659  1
  Dy  Dy10  1  0.789128  0.419240  0.122773  1
  Dy  Dy11  1  0.788992  0.580635  0.622744  1
  Dy  Dy12  1  0.916921  0.705433  0.137892  1
  Dy  Dy13  1  0.917099  0.294399  0.637858  1
  Dy  Dy14  1  0.095405  0.703924  0.623893  1
  Er  Er15  1  0.095506  0.296593  0.123396  1
  Er  Er16  1  0.009036  0.998489  0.499929  1
  Er  Er17  1  0.009120  0.001966  0.000088  1
  Er  Er18  1  0.499725  0.499043  0.000620  1
  Er  Er19  1  0.499728  0.500921  0.500611  1
  Ir  Ir20  1  0.152644  0.153411  0.751198  1
  Ir  Ir21  1  0.152860  0.846953  0.250243  1
  Ir  Ir22  1  0.654734  0.346554  0.748679  1
  Ir  Ir23  1  0.654794  0.653379  0.248781  1
  Ir  Ir24  1  0.347190  0.346693  0.251161  1
  Ir  Ir25  1  0.347734  0.653143  0.751512  1
  Ir  Ir26  1  0.500158  0.999683  0.121489  1
  Ir  Ir27  1  0.500162  0.000315  0.621501  1
  Ir  Ir28  1  0.999906  0.500391  0.878705  1
  Ir  Ir29  1  0.999865  0.498820  0.377970  1
  Au  Au30  1  0.846255  0.154160  0.249933  1
  Au  Au31  1  0.846124  0.846057  0.749957  1
