# generated using pymatgen
data_Ce4UP3S2
_symmetry_space_group_name_H-M   'P 1'
_cell_length_a   10.72090671
_cell_length_b   10.72090570
_cell_length_c   6.99837163
_cell_angle_alpha   83.67045759
_cell_angle_beta   83.67045315
_cell_angle_gamma   141.79705740
_symmetry_Int_Tables_number   1
_chemical_formula_structural   Ce4UP3S2
_chemical_formula_sum   'Ce8 U2 P6 S4'
_cell_volume   468.38525970
_cell_formula_units_Z   2
loop_
 _symmetry_equiv_pos_site_id
 _symmetry_equiv_pos_as_xyz
  1  'x, y, z'
loop_
 _atom_site_type_symbol
 _atom_site_label
 _atom_site_symmetry_multiplicity
 _atom_site_fract_x
 _atom_site_fract_y
 _atom_site_fract_z
 _atom_site_occupancy
  Ce  Ce0  1  0.599925  0.901301  0.999488  1
  Ce  Ce1  1  0.197188  0.300532  0.000013  1
  Ce  Ce2  1  0.098699  0.400075  0.500512  1
  Ce  Ce3  1  0.802812  0.699468  0.999987  1
  Ce  Ce4  1  0.699468  0.802812  0.499987  1
  Ce  Ce5  1  0.400075  0.098699  0.000512  1
  Ce  Ce6  1  0.300532  0.197188  0.500013  1
  Ce  Ce7  1  0.901301  0.599925  0.499488  1
  U  U8  1  0.000000  0.500000  0.000000  1
  U  U9  1  0.500000  0.000000  0.500000  1
  P  P10  1  0.346356  0.653644  0.750000  1
  P  P11  1  0.950114  0.049886  0.750000  1
  P  P12  1  0.846428  0.153572  0.250000  1
  P  P13  1  0.153572  0.846428  0.750000  1
  P  P14  1  0.049886  0.950114  0.250000  1
  P  P15  1  0.653644  0.346356  0.250000  1
  S  S16  1  0.750199  0.249801  0.750000  1
  S  S17  1  0.550042  0.449958  0.750000  1
  S  S18  1  0.449958  0.550042  0.250000  1
  S  S19  1  0.249801  0.750199  0.250000  1
