# generated using pymatgen
data_Ca6PrNd(Si3Ag)4
_symmetry_space_group_name_H-M   'P 1'
_cell_length_a   8.39839500
_cell_length_b   8.39839612
_cell_length_c   8.46691300
_cell_angle_alpha   90.00000000
_cell_angle_beta   90.00000000
_cell_angle_gamma   119.99999166
_symmetry_Int_Tables_number   1
_chemical_formula_structural   Ca6PrNd(Si3Ag)4
_chemical_formula_sum   'Ca6 Pr1 Nd1 Si12 Ag4'
_cell_volume   517.18797303
_cell_formula_units_Z   1
loop_
 _symmetry_equiv_pos_site_id
 _symmetry_equiv_pos_as_xyz
  1  'x, y, z'
loop_
 _atom_site_type_symbol
 _atom_site_label
 _atom_site_symmetry_multiplicity
 _atom_site_fract_x
 _atom_site_fract_y
 _atom_site_fract_z
 _atom_site_occupancy
  Ca  Ca0  1  0.498887  0.501113  0.750000  1
  Ca  Ca1  1  0.500857  0.499143  0.250000  1
  Ca  Ca2  1  0.002229  0.501113  0.750000  1
  Ca  Ca3  1  0.998285  0.499143  0.250000  1
  Ca  Ca4  1  0.498887  0.997771  0.750000  1
  Ca  Ca5  1  0.500857  0.001715  0.250000  1
  Pr  Pr6  1  0.000000  0.000000  0.750000  1
  Nd  Nd7  1  0.000000  0.000000  0.250000  1
  Si  Si8  1  0.838209  0.161791  0.000754  1
  Si  Si9  1  0.161823  0.838177  0.000851  1
  Si  Si10  1  0.323583  0.161791  0.000754  1
  Si  Si11  1  0.161823  0.838177  0.499149  1
  Si  Si12  1  0.676353  0.838177  0.000851  1
  Si  Si13  1  0.838209  0.161791  0.499246  1
  Si  Si14  1  0.838209  0.676417  0.000754  1
  Si  Si15  1  0.676353  0.838177  0.499149  1
  Si  Si16  1  0.161823  0.323647  0.000851  1
  Si  Si17  1  0.323583  0.161791  0.499246  1
  Si  Si18  1  0.161823  0.323647  0.499149  1
  Si  Si19  1  0.838209  0.676417  0.499246  1
  Ag  Ag20  1  0.666667  0.333333  0.997144  1
  Ag  Ag21  1  0.333333  0.666667  0.002714  1
  Ag  Ag22  1  0.333333  0.666667  0.497286  1
  Ag  Ag23  1  0.666667  0.333333  0.502856  1
