# generated using pymatgen
data_Yb12Ho7ErSn16
_symmetry_space_group_name_H-M   'P 1'
_cell_length_a   7.82280702
_cell_length_b   8.40665201
_cell_length_c   16.01057503
_cell_angle_alpha   89.99522773
_cell_angle_beta   90.00574105
_cell_angle_gamma   89.99561558
_symmetry_Int_Tables_number   1
_chemical_formula_structural   Yb12Ho7ErSn16
_chemical_formula_sum   'Yb12 Ho7 Er1 Sn16'
_cell_volume   1052.91330202
_cell_formula_units_Z   1
loop_
 _symmetry_equiv_pos_site_id
 _symmetry_equiv_pos_as_xyz
  1  'x, y, z'
loop_
 _atom_site_type_symbol
 _atom_site_label
 _atom_site_symmetry_multiplicity
 _atom_site_fract_x
 _atom_site_fract_y
 _atom_site_fract_z
 _atom_site_occupancy
  Yb  Yb0  1  0.499465  0.686945  0.593317  1
  Yb  Yb1  1  0.999517  0.813011  0.906685  1
  Yb  Yb2  1  0.500500  0.313039  0.093304  1
  Yb  Yb3  1  0.000511  0.187016  0.406718  1
  Yb  Yb4  1  0.500487  0.313033  0.406695  1
  Yb  Yb5  1  0.000484  0.186995  0.093309  1
  Yb  Yb6  1  0.499488  0.686961  0.906690  1
  Yb  Yb7  1  0.999532  0.812989  0.593309  1
  Yb  Yb8  1  0.828017  0.511162  0.749983  1
  Yb  Yb9  1  0.327963  0.988863  0.749974  1
  Yb  Yb10  1  0.172010  0.488814  0.250003  1
  Yb  Yb11  1  0.672013  0.011190  0.249996  1
  Ho  Ho12  1  0.667045  0.167378  0.622086  1
  Ho  Ho13  1  0.167044  0.332671  0.877909  1
  Ho  Ho14  1  0.332950  0.832680  0.122076  1
  Ho  Ho15  1  0.832963  0.667317  0.377943  1
  Ho  Ho16  1  0.332949  0.832686  0.377949  1
  Ho  Ho17  1  0.832939  0.667317  0.122070  1
  Ho  Ho18  1  0.667069  0.167349  0.877904  1
  Er  Er19  1  0.167010  0.332677  0.622093  1
  Sn  Sn20  1  0.673656  0.964465  0.460051  1
  Sn  Sn21  1  0.173660  0.535555  0.039955  1
  Sn  Sn22  1  0.326336  0.035548  0.960038  1
  Sn  Sn23  1  0.826557  0.464358  0.540008  1
  Sn  Sn24  1  0.326146  0.035697  0.540010  1
  Sn  Sn25  1  0.826321  0.464432  0.960043  1
  Sn  Sn26  1  0.673671  0.964450  0.039956  1
  Sn  Sn27  1  0.173691  0.535399  0.460186  1
  Sn  Sn28  1  0.463700  0.374085  0.749899  1
  Sn  Sn29  1  0.963973  0.126014  0.749937  1
  Sn  Sn30  1  0.536179  0.625872  0.250003  1
  Sn  Sn31  1  0.036176  0.874117  0.250002  1
  Sn  Sn32  1  0.708973  0.874004  0.749982  1
  Sn  Sn33  1  0.208890  0.625921  0.749921  1
  Sn  Sn34  1  0.291055  0.126001  0.249999  1
  Sn  Sn35  1  0.791059  0.373988  0.249995  1
