# generated using pymatgen
data_Dy2Y3In3S
_symmetry_space_group_name_H-M   'P 1'
_cell_length_a   9.01637500
_cell_length_b   9.01637406
_cell_length_c   6.56015400
_cell_angle_alpha   90.00000000
_cell_angle_beta   90.00000000
_cell_angle_gamma   119.99999979
_symmetry_Int_Tables_number   1
_chemical_formula_structural   Dy2Y3In3S
_chemical_formula_sum   'Dy4 Y6 In6 S2'
_cell_volume   461.85808880
_cell_formula_units_Z   2
loop_
 _symmetry_equiv_pos_site_id
 _symmetry_equiv_pos_as_xyz
  1  'x, y, z'
loop_
 _atom_site_type_symbol
 _atom_site_label
 _atom_site_symmetry_multiplicity
 _atom_site_fract_x
 _atom_site_fract_y
 _atom_site_fract_z
 _atom_site_occupancy
  Dy  Dy0  1  0.333333  0.666667  0.500000  1
  Dy  Dy1  1  0.666667  0.333333  0.500000  1
  Dy  Dy2  1  0.333333  0.666667  0.000000  1
  Dy  Dy3  1  0.666667  0.333333  0.000000  1
  Y  Y4  1  0.756481  0.756481  0.250000  1
  Y  Y5  1  0.000000  0.756481  0.750000  1
  Y  Y6  1  0.756481  0.000000  0.750000  1
  Y  Y7  1  0.243519  0.243519  0.750000  1
  Y  Y8  1  0.000000  0.243519  0.250000  1
  Y  Y9  1  0.243519  0.000000  0.250000  1
  In  In10  1  0.400298  0.000000  0.750000  1
  In  In11  1  0.000000  0.599702  0.250000  1
  In  In12  1  0.599702  0.000000  0.250000  1
  In  In13  1  0.000000  0.400298  0.750000  1
  In  In14  1  0.400298  0.400298  0.250000  1
  In  In15  1  0.599702  0.599702  0.750000  1
  S  S16  1  0.000000  0.000000  0.500000  1
  S  S17  1  0.000000  0.000000  0.000000  1
