# generated using pymatgen
data_Tm9Mg(SiB4)4
_symmetry_space_group_name_H-M   'P 1'
_cell_length_a   7.12442800
_cell_length_b   7.12442800
_cell_length_c   7.87301200
_cell_angle_alpha   90.00000000
_cell_angle_beta   90.00000000
_cell_angle_gamma   90.00000000
_symmetry_Int_Tables_number   1
_chemical_formula_structural   Tm9Mg(SiB4)4
_chemical_formula_sum   'Tm9 Mg1 Si4 B16'
_cell_volume   399.61420447
_cell_formula_units_Z   1
loop_
 _symmetry_equiv_pos_site_id
 _symmetry_equiv_pos_as_xyz
  1  'x, y, z'
loop_
 _atom_site_type_symbol
 _atom_site_label
 _atom_site_symmetry_multiplicity
 _atom_site_fract_x
 _atom_site_fract_y
 _atom_site_fract_z
 _atom_site_occupancy
  Tm  Tm0  1  0.681608  0.179955  0.227509  1
  Tm  Tm1  1  0.318392  0.820045  0.772491  1
  Tm  Tm2  1  0.318392  0.820045  0.227509  1
  Tm  Tm3  1  0.820045  0.681608  0.227509  1
  Tm  Tm4  1  0.820045  0.681608  0.772491  1
  Tm  Tm5  1  0.681608  0.179955  0.772491  1
  Tm  Tm6  1  0.179955  0.318392  0.772491  1
  Tm  Tm7  1  0.179955  0.318392  0.227509  1
  Tm  Tm8  1  0.500000  0.500000  0.500000  1
  Mg  Mg9  1  0.000000  0.000000  0.500000  1
  Si  Si10  1  0.116590  0.616816  0.500000  1
  Si  Si11  1  0.883410  0.383184  0.500000  1
  Si  Si12  1  0.383184  0.116590  0.500000  1
  Si  Si13  1  0.616816  0.883410  0.500000  1
  B  B14  1  0.174580  0.038430  0.000000  1
  B  B15  1  0.825420  0.961570  0.000000  1
  B  B16  1  0.961570  0.174580  0.000000  1
  B  B17  1  0.326805  0.539443  0.000000  1
  B  B18  1  0.038430  0.825420  0.000000  1
  B  B19  1  0.673195  0.460557  0.000000  1
  B  B20  1  0.539443  0.673195  0.000000  1
  B  B21  1  0.460557  0.326805  0.000000  1
  B  B22  1  0.088723  0.588001  0.000000  1
  B  B23  1  0.911277  0.411999  0.000000  1
  B  B24  1  0.411999  0.088723  0.000000  1
  B  B25  1  0.588001  0.911277  0.000000  1
  B  B26  1  0.000000  0.000000  0.162732  1
  B  B27  1  0.000000  0.000000  0.837268  1
  B  B28  1  0.500000  0.500000  0.833526  1
  B  B29  1  0.500000  0.500000  0.166474  1
