# generated using pymatgen
data_Er3Tm7In8AgPt3
_symmetry_space_group_name_H-M   'P 1'
_cell_length_a   3.63050800
_cell_length_b   8.09881071
_cell_length_c   18.15308709
_cell_angle_alpha   89.93263014
_cell_angle_beta   90.00000000
_cell_angle_gamma   90.00000000
_symmetry_Int_Tables_number   1
_chemical_formula_structural   Er3Tm7In8AgPt3
_chemical_formula_sum   'Er3 Tm7 In8 Ag1 Pt3'
_cell_volume   533.75116658
_cell_formula_units_Z   1
loop_
 _symmetry_equiv_pos_site_id
 _symmetry_equiv_pos_as_xyz
  1  'x, y, z'
loop_
 _atom_site_type_symbol
 _atom_site_label
 _atom_site_symmetry_multiplicity
 _atom_site_fract_x
 _atom_site_fract_y
 _atom_site_fract_z
 _atom_site_occupancy
  Er  Er0  1  0.000000  0.721326  0.280122  1
  Er  Er1  1  0.000000  0.999206  0.998951  1
  Er  Er2  1  0.000000  0.501666  0.500786  1
  Tm  Tm3  1  0.000000  0.120559  0.422521  1
  Tm  Tm4  1  0.000000  0.885131  0.586322  1
  Tm  Tm5  1  0.000000  0.384743  0.914202  1
  Tm  Tm6  1  0.000000  0.617514  0.083481  1
  Tm  Tm7  1  0.000000  0.256493  0.214731  1
  Tm  Tm8  1  0.000000  0.757433  0.778342  1
  Tm  Tm9  1  0.000000  0.256457  0.722199  1
  In  In10  1  0.500000  0.413003  0.352306  1
  In  In11  1  0.500000  0.577547  0.648651  1
  In  In12  1  0.500000  0.077623  0.851635  1
  In  In13  1  0.500000  0.922277  0.148638  1
  In  In14  1  0.500000  0.293063  0.063727  1
  In  In15  1  0.500000  0.708016  0.932196  1
  In  In16  1  0.500000  0.210363  0.569431  1
  In  In17  1  0.500000  0.794818  0.434303  1
  Ag  Ag18  1  0.500000  0.026049  0.302447  1
  Pt  Pt19  1  0.500000  0.976060  0.696618  1
  Pt  Pt20  1  0.500000  0.475900  0.803786  1
  Pt  Pt21  1  0.500000  0.524757  0.194604  1
