# generated using pymatgen
data_Yb2DyAg(Pt2O7)2
_symmetry_space_group_name_H-M   'P 1'
_cell_length_a   7.29743247
_cell_length_b   7.29753032
_cell_length_c   7.19188372
_cell_angle_alpha   59.28168595
_cell_angle_beta   59.51333262
_cell_angle_gamma   60.00045158
_symmetry_Int_Tables_number   1
_chemical_formula_structural   Yb2DyAg(Pt2O7)2
_chemical_formula_sum   'Yb2 Dy1 Ag1 Pt4 O14'
_cell_volume   268.32180835
_cell_formula_units_Z   1
loop_
 _symmetry_equiv_pos_site_id
 _symmetry_equiv_pos_as_xyz
  1  'x, y, z'
loop_
 _atom_site_type_symbol
 _atom_site_label
 _atom_site_symmetry_multiplicity
 _atom_site_fract_x
 _atom_site_fract_y
 _atom_site_fract_z
 _atom_site_occupancy
  Yb  Yb0  1  0.625000  0.125000  0.125000  1
  Yb  Yb1  1  0.125000  0.125000  0.125000  1
  Dy  Dy2  1  0.125000  0.625000  0.125000  1
  Ag  Ag3  1  0.125000  0.125000  0.625000  1
  Pt  Pt4  1  0.625000  0.625000  0.625000  1
  Pt  Pt5  1  0.125000  0.625000  0.625000  1
  Pt  Pt6  1  0.625000  0.125000  0.625000  1
  Pt  Pt7  1  0.625000  0.625000  0.125000  1
  O  O8  1  0.293222  0.698100  0.715458  1
  O  O9  1  0.539485  0.958615  0.962416  1
  O  O10  1  0.703760  0.294925  0.707559  1
  O  O11  1  0.293757  0.294925  0.707559  1
  O  O12  1  0.717691  0.708513  0.285282  1
  O  O13  1  0.010590  0.001661  0.977159  1
  O  O14  1  0.288514  0.708513  0.285282  1
  O  O15  1  0.961486  0.541487  0.964718  1
  O  O16  1  0.956243  0.955075  0.542441  1
  O  O17  1  0.532309  0.541487  0.964718  1
  O  O18  1  0.239410  0.248339  0.272841  1
  O  O19  1  0.546240  0.955075  0.542441  1
  O  O20  1  0.710515  0.291385  0.287584  1
  O  O21  1  0.956778  0.551900  0.534542  1
