# generated using pymatgen
data_CaPrRh3O8
_symmetry_space_group_name_H-M   'P 1'
_cell_length_a   6.38756469
_cell_length_b   6.38756437
_cell_length_c   5.33295486
_cell_angle_alpha   71.95784801
_cell_angle_beta   71.95784708
_cell_angle_gamma   59.27247087
_symmetry_Int_Tables_number   1
_chemical_formula_structural   CaPrRh3O8
_chemical_formula_sum   'Ca1 Pr1 Rh3 O8'
_cell_volume   174.76422361
_cell_formula_units_Z   1
loop_
 _symmetry_equiv_pos_site_id
 _symmetry_equiv_pos_as_xyz
  1  'x, y, z'
loop_
 _atom_site_type_symbol
 _atom_site_label
 _atom_site_symmetry_multiplicity
 _atom_site_fract_x
 _atom_site_fract_y
 _atom_site_fract_z
 _atom_site_occupancy
  Ca  Ca0  1  0.277029  0.277029  0.668737  1
  Pr  Pr1  1  0.719356  0.719356  0.340860  1
  Rh  Rh2  1  0.999372  0.999372  0.498289  1
  Rh  Rh3  1  0.744275  0.253446  0.999584  1
  Rh  Rh4  1  0.253446  0.744275  0.999584  1
  O  O5  1  0.400612  0.400612  0.940115  1
  O  O6  1  0.604848  0.604848  0.048426  1
  O  O7  1  0.899925  0.899925  0.912404  1
  O  O8  1  0.097160  0.097160  0.087906  1
  O  O9  1  0.327113  0.890572  0.605020  1
  O  O10  1  0.890572  0.327113  0.605020  1
  O  O11  1  0.116737  0.669555  0.397026  1
  O  O12  1  0.669555  0.116737  0.397026  1
