# generated using pymatgen
data_CsPaAgTe3
_symmetry_space_group_name_H-M   'P 1'
_cell_length_a   8.93511894
_cell_length_b   8.93511886
_cell_length_c   11.63621200
_cell_angle_alpha   90.00000000
_cell_angle_beta   90.00000000
_cell_angle_gamma   150.65610128
_symmetry_Int_Tables_number   1
_chemical_formula_structural   CsPaAgTe3
_chemical_formula_sum   'Cs2 Pa2 Ag2 Te6'
_cell_volume   455.25330227
_cell_formula_units_Z   2
loop_
 _symmetry_equiv_pos_site_id
 _symmetry_equiv_pos_as_xyz
  1  'x, y, z'
loop_
 _atom_site_type_symbol
 _atom_site_label
 _atom_site_symmetry_multiplicity
 _atom_site_fract_x
 _atom_site_fract_y
 _atom_site_fract_z
 _atom_site_occupancy
  Cs  Cs0  1  0.747831  0.252170  0.250000  1
  Cs  Cs1  1  0.252170  0.747831  0.750000  1
  Pa  Pa2  1  0.500000  0.500000  0.000000  1
  Pa  Pa3  1  0.500000  0.500000  0.500000  1
  Ag  Ag4  1  0.035256  0.964745  0.250000  1
  Ag  Ag5  1  0.964745  0.035256  0.750000  1
  Te  Te6  1  0.120097  0.879904  0.044671  1
  Te  Te7  1  0.435531  0.564470  0.250000  1
  Te  Te8  1  0.120097  0.879904  0.455329  1
  Te  Te9  1  0.879904  0.120097  0.544671  1
  Te  Te10  1  0.564470  0.435531  0.750000  1
  Te  Te11  1  0.879904  0.120097  0.955330  1
