# generated using pymatgen
data_La7Sm(SiBr6)2
_symmetry_space_group_name_H-M   'P 1'
_cell_length_a   4.30478600
_cell_length_b   13.92374027
_cell_length_c   14.76774130
_cell_angle_alpha   89.63881725
_cell_angle_beta   90.00000000
_cell_angle_gamma   90.00000000
_symmetry_Int_Tables_number   1
_chemical_formula_structural   La7Sm(SiBr6)2
_chemical_formula_sum   'La7 Sm1 Si2 Br12'
_cell_volume   885.14195548
_cell_formula_units_Z   1
loop_
 _symmetry_equiv_pos_site_id
 _symmetry_equiv_pos_as_xyz
  1  'x, y, z'
loop_
 _atom_site_type_symbol
 _atom_site_label
 _atom_site_symmetry_multiplicity
 _atom_site_fract_x
 _atom_site_fract_y
 _atom_site_fract_z
 _atom_site_occupancy
  La  La0  1  0.500000  0.121391  0.337415  1
  La  La1  1  0.500000  0.879997  0.661000  1
  La  La2  1  0.500000  0.617830  0.161431  1
  La  La3  1  0.500000  0.378935  0.840634  1
  La  La4  1  0.000000  0.120907  0.579681  1
  La  La5  1  0.000000  0.879402  0.419839  1
  La  La6  1  0.000000  0.619116  0.920977  1
  Sm  Sm7  1  0.000000  0.382805  0.077701  1
  Si  Si8  1  0.500000  0.000490  0.499275  1
  Si  Si9  1  0.500000  0.497952  0.001303  1
  Br  Br10  1  0.500000  0.250456  0.160222  1
  Br  Br11  1  0.500000  0.755620  0.837524  1
  Br  Br12  1  0.500000  0.743179  0.336774  1
  Br  Br13  1  0.500000  0.256412  0.663587  1
  Br  Br14  1  0.000000  0.254475  0.410734  1
  Br  Br15  1  0.000000  0.745794  0.589000  1
  Br  Br16  1  0.000000  0.753096  0.088844  1
  Br  Br17  1  0.000000  0.247329  0.916923  1
  Br  Br18  1  0.000000  0.002911  0.244148  1
  Br  Br19  1  0.000000  0.997660  0.755451  1
  Br  Br20  1  0.000000  0.496791  0.252177  1
  Br  Br21  1  0.000000  0.497451  0.745358  1
