# generated using pymatgen
data_PrNdSi2(Ru2C)2
_symmetry_space_group_name_H-M   'P 1'
_cell_length_a   5.90788957
_cell_length_b   5.90789035
_cell_length_c   7.21784300
_cell_angle_alpha   90.00000000
_cell_angle_beta   90.00000000
_cell_angle_gamma   140.86428650
_symmetry_Int_Tables_number   1
_chemical_formula_structural   PrNdSi2(Ru2C)2
_chemical_formula_sum   'Pr1 Nd1 Si2 Ru4 C2'
_cell_volume   159.00518504
_cell_formula_units_Z   1
loop_
 _symmetry_equiv_pos_site_id
 _symmetry_equiv_pos_as_xyz
  1  'x, y, z'
loop_
 _atom_site_type_symbol
 _atom_site_label
 _atom_site_symmetry_multiplicity
 _atom_site_fract_x
 _atom_site_fract_y
 _atom_site_fract_z
 _atom_site_occupancy
  Pr  Pr0  1  0.449455  0.550545  0.750000  1
  Nd  Nd1  1  0.550451  0.449549  0.250000  1
  Si  Si2  1  0.271607  0.728393  0.250000  1
  Si  Si3  1  0.728225  0.271775  0.750000  1
  Ru  Ru4  1  0.834839  0.165161  0.058828  1
  Ru  Ru5  1  0.165179  0.834821  0.942017  1
  Ru  Ru6  1  0.165179  0.834821  0.557983  1
  Ru  Ru7  1  0.834839  0.165161  0.441172  1
  C  C8  1  0.000114  0.999886  0.001106  1
  C  C9  1  0.000114  0.999886  0.498894  1
