# generated using pymatgen
data_Al7Co4SiRu4
_symmetry_space_group_name_H-M   'P 1'
_cell_length_a   5.87279700
_cell_length_b   4.13045700
_cell_length_c   8.26047600
_cell_angle_alpha   90.00000000
_cell_angle_beta   90.00102341
_cell_angle_gamma   90.00000000
_symmetry_Int_Tables_number   1
_chemical_formula_structural   Al7Co4SiRu4
_chemical_formula_sum   'Al7 Co4 Si1 Ru4'
_cell_volume   200.37713753
_cell_formula_units_Z   1
loop_
 _symmetry_equiv_pos_site_id
 _symmetry_equiv_pos_as_xyz
  1  'x, y, z'
loop_
 _atom_site_type_symbol
 _atom_site_label
 _atom_site_symmetry_multiplicity
 _atom_site_fract_x
 _atom_site_fract_y
 _atom_site_fract_z
 _atom_site_occupancy
  Al  Al0  1  0.002065  0.749999  0.124999  1
  Al  Al1  1  0.500058  0.249999  0.379951  1
  Al  Al2  1  0.999927  0.249999  0.372789  1
  Al  Al3  1  0.997984  0.749999  0.625002  1
  Al  Al4  1  0.500898  0.749999  0.625005  1
  Al  Al5  1  0.999942  0.249999  0.877209  1
  Al  Al6  1  0.500051  0.249999  0.870049  1
  Co  Co7  1  0.742511  0.249999  0.125000  1
  Co  Co8  1  0.253352  0.749999  0.369206  1
  Co  Co9  1  0.751368  0.249999  0.625000  1
  Co  Co10  1  0.253358  0.749999  0.880791  1
  Si  Si11  1  0.498575  0.749999  0.124996  1
  Ru  Ru12  1  0.261465  0.249999  0.125004  1
  Ru  Ru13  1  0.745520  0.749999  0.368459  1
  Ru  Ru14  1  0.247401  0.249999  0.625000  1
  Ru  Ru15  1  0.745524  0.749999  0.881540  1
