# generated using pymatgen
data_MgP3PbN5O2
_symmetry_space_group_name_H-M   'P 1'
_cell_length_a   6.75210300
_cell_length_b   7.08288845
_cell_length_c   14.16770795
_cell_angle_alpha   60.52299389
_cell_angle_beta   90.00000000
_cell_angle_gamma   90.00000000
_symmetry_Int_Tables_number   1
_chemical_formula_structural   MgP3PbN5O2
_chemical_formula_sum   'Mg4 P12 Pb4 N20 O8'
_cell_volume   589.85381811
_cell_formula_units_Z   4
loop_
 _symmetry_equiv_pos_site_id
 _symmetry_equiv_pos_as_xyz
  1  'x, y, z'
loop_
 _atom_site_type_symbol
 _atom_site_label
 _atom_site_symmetry_multiplicity
 _atom_site_fract_x
 _atom_site_fract_y
 _atom_site_fract_z
 _atom_site_occupancy
  Mg  Mg0  1  0.510127  0.974941  0.888244  1
  Mg  Mg1  1  0.010127  0.025059  0.611756  1
  Mg  Mg2  1  0.489873  0.025059  0.111756  1
  Mg  Mg3  1  0.989873  0.974941  0.388244  1
  P  P4  1  0.015752  0.937015  0.881044  1
  P  P5  1  0.515752  0.062985  0.618956  1
  P  P6  1  0.984248  0.062985  0.118956  1
  P  P7  1  0.484248  0.937015  0.381044  1
  P  P8  1  0.279418  0.740879  0.592328  1
  P  P9  1  0.779418  0.259121  0.907672  1
  P  P10  1  0.720582  0.259121  0.407672  1
  P  P11  1  0.220582  0.740879  0.092328  1
  P  P12  1  0.758028  0.730746  0.790364  1
  P  P13  1  0.258028  0.269254  0.709636  1
  P  P14  1  0.241972  0.269254  0.209636  1
  P  P15  1  0.741972  0.730746  0.290364  1
  Pb  Pb16  1  0.732796  0.501295  0.619018  1
  Pb  Pb17  1  0.232796  0.498705  0.880982  1
  Pb  Pb18  1  0.267204  0.498705  0.380982  1
  Pb  Pb19  1  0.767204  0.501295  0.119018  1
  N  N20  1  0.314460  0.930278  0.624877  1
  N  N21  1  0.814460  0.069722  0.875123  1
  N  N22  1  0.685540  0.069722  0.375123  1
  N  N23  1  0.185540  0.930278  0.124877  1
  N  N24  1  0.712021  0.907514  0.662265  1
  N  N25  1  0.212021  0.092486  0.837735  1
  N  N26  1  0.287979  0.092486  0.337735  1
  N  N27  1  0.787979  0.907514  0.162265  1
  N  N28  1  0.976085  0.812227  0.810261  1
  N  N29  1  0.476085  0.187773  0.689739  1
  N  N30  1  0.023915  0.187773  0.189739  1
  N  N31  1  0.523915  0.812227  0.310261  1
  N  N32  1  0.794165  0.495336  0.796894  1
  N  N33  1  0.294165  0.504664  0.703106  1
  N  N34  1  0.205835  0.504664  0.203106  1
  N  N35  1  0.705835  0.495336  0.296894  1
  N  N36  1  0.566803  0.260073  0.495768  1
  N  N37  1  0.066803  0.739927  0.004232  1
  N  N38  1  0.433197  0.739927  0.504232  1
  N  N39  1  0.933197  0.260073  0.995768  1
  O  O40  1  0.060265  0.786660  0.550089  1
  O  O41  1  0.560265  0.213340  0.949911  1
  O  O42  1  0.939735  0.213340  0.449911  1
  O  O43  1  0.439735  0.786660  0.050089  1
  O  O44  1  0.592371  0.720311  0.868490  1
  O  O45  1  0.092371  0.279689  0.631510  1
  O  O46  1  0.407629  0.279689  0.131510  1
  O  O47  1  0.907629  0.720311  0.368490  1
