# generated using pymatgen
data_ErTm11In2Fe2Ir
_symmetry_space_group_name_H-M   'P 1'
_cell_length_a   8.25876820
_cell_length_b   8.27615294
_cell_length_c   8.28001634
_cell_angle_alpha   108.70441638
_cell_angle_beta   108.73237693
_cell_angle_gamma   111.04297963
_symmetry_Int_Tables_number   1
_chemical_formula_structural   ErTm11In2Fe2Ir
_chemical_formula_sum   'Er1 Tm11 In2 Fe2 Ir1'
_cell_volume   435.12934392
_cell_formula_units_Z   1
loop_
 _symmetry_equiv_pos_site_id
 _symmetry_equiv_pos_as_xyz
  1  'x, y, z'
loop_
 _atom_site_type_symbol
 _atom_site_label
 _atom_site_symmetry_multiplicity
 _atom_site_fract_x
 _atom_site_fract_y
 _atom_site_fract_z
 _atom_site_occupancy
  Er  Er0  1  0.193801  0.432820  0.239083  1
  Tm  Tm1  1  0.806257  0.568123  0.761847  1
  Tm  Tm2  1  0.193212  0.954481  0.761241  1
  Tm  Tm3  1  0.955190  0.193296  0.761647  1
  Tm  Tm4  1  0.806246  0.044291  0.238035  1
  Tm  Tm5  1  0.044920  0.806852  0.238100  1
  Tm  Tm6  1  0.431589  0.193316  0.238013  1
  Tm  Tm7  1  0.568699  0.806898  0.761846  1
  Tm  Tm8  1  0.308315  0.308162  0.616781  1
  Tm  Tm9  1  0.692378  0.691749  0.383523  1
  Tm  Tm10  1  0.691448  0.308160  0.999898  1
  Tm  Tm11  1  0.308290  0.691718  0.999415  1
  In  In12  1  0.998578  0.499250  0.500182  1
  In  In13  1  0.500445  0.000937  0.500756  1
  Fe  Fe14  1  0.386489  0.385965  0.000031  1
  Fe  Fe15  1  0.614227  0.614349  0.000142  1
  Ir  Ir16  1  0.999916  0.999633  0.999461  1
