# generated using pymatgen
data_Zr4ZnCr(B2Ru5)2
_symmetry_space_group_name_H-M   'P 1'
_cell_length_a   9.36448400
_cell_length_b   9.36448400
_cell_length_c   3.08029200
_cell_angle_alpha   90.00000000
_cell_angle_beta   90.00000000
_cell_angle_gamma   90.00000000
_symmetry_Int_Tables_number   1
_chemical_formula_structural   Zr4ZnCr(B2Ru5)2
_chemical_formula_sum   'Zr4 Zn1 Cr1 B4 Ru10'
_cell_volume   270.12177313
_cell_formula_units_Z   1
loop_
 _symmetry_equiv_pos_site_id
 _symmetry_equiv_pos_as_xyz
  1  'x, y, z'
loop_
 _atom_site_type_symbol
 _atom_site_label
 _atom_site_symmetry_multiplicity
 _atom_site_fract_x
 _atom_site_fract_y
 _atom_site_fract_z
 _atom_site_occupancy
  Zr  Zr0  1  0.677130  0.175181  0.000000  1
  Zr  Zr1  1  0.322870  0.824819  0.000000  1
  Zr  Zr2  1  0.175181  0.322870  0.000000  1
  Zr  Zr3  1  0.824819  0.677130  0.000000  1
  Zn  Zn4  1  0.000000  0.000000  0.000000  1
  Cr  Cr5  1  0.500000  0.500000  0.000000  1
  B  B6  1  0.121040  0.626181  0.000000  1
  B  B7  1  0.878960  0.373819  0.000000  1
  B  B8  1  0.626181  0.878960  0.000000  1
  B  B9  1  0.373819  0.121040  0.000000  1
  Ru  Ru10  1  0.216613  0.074286  0.500000  1
  Ru  Ru11  1  0.783387  0.925714  0.500000  1
  Ru  Ru12  1  0.074286  0.783387  0.500000  1
  Ru  Ru13  1  0.711413  0.432120  0.500000  1
  Ru  Ru14  1  0.925714  0.216613  0.500000  1
  Ru  Ru15  1  0.288587  0.567880  0.500000  1
  Ru  Ru16  1  0.567880  0.711413  0.500000  1
  Ru  Ru17  1  0.432120  0.288587  0.500000  1
  Ru  Ru18  1  0.500000  0.000000  0.500000  1
  Ru  Ru19  1  0.000000  0.500000  0.500000  1
