# generated using pymatgen
data_Ta4V7Fe
_symmetry_space_group_name_H-M   'P 1'
_cell_length_a   5.03107763
_cell_length_b   5.05477067
_cell_length_c   8.12278500
_cell_angle_alpha   90.00000000
_cell_angle_beta   90.00000000
_cell_angle_gamma   120.15591402
_symmetry_Int_Tables_number   1
_chemical_formula_structural   Ta4V7Fe
_chemical_formula_sum   'Ta4 V7 Fe1'
_cell_volume   178.61322070
_cell_formula_units_Z   1
loop_
 _symmetry_equiv_pos_site_id
 _symmetry_equiv_pos_as_xyz
  1  'x, y, z'
loop_
 _atom_site_type_symbol
 _atom_site_label
 _atom_site_symmetry_multiplicity
 _atom_site_fract_x
 _atom_site_fract_y
 _atom_site_fract_z
 _atom_site_occupancy
  Ta  Ta0  1  0.333739  0.666870  0.436870  1
  Ta  Ta1  1  0.666954  0.333476  0.560181  1
  Ta  Ta2  1  0.666954  0.333476  0.939819  1
  Ta  Ta3  1  0.333739  0.666870  0.063130  1
  V  V4  1  0.008141  0.004071  0.494125  1
  V  V5  1  0.008141  0.004071  0.005875  1
  V  V6  1  0.168244  0.831185  0.750000  1
  V  V7  1  0.168244  0.337058  0.750000  1
  V  V8  1  0.663238  0.831619  0.750000  1
  V  V9  1  0.823322  0.168857  0.250000  1
  V  V10  1  0.823322  0.654466  0.250000  1
  Fe  Fe11  1  0.335961  0.167981  0.250000  1
