# generated using pymatgen
data_Tm14Lu6Ir5Pt7
_symmetry_space_group_name_H-M   'P 1'
_cell_length_a   10.86012044
_cell_length_b   10.86097980
_cell_length_c   6.27679043
_cell_angle_alpha   90.02832706
_cell_angle_beta   90.01634031
_cell_angle_gamma   90.21686879
_symmetry_Int_Tables_number   1
_chemical_formula_structural   Tm14Lu6Ir5Pt7
_chemical_formula_sum   'Tm14 Lu6 Ir5 Pt7'
_cell_volume   740.35172687
_cell_formula_units_Z   1
loop_
 _symmetry_equiv_pos_site_id
 _symmetry_equiv_pos_as_xyz
  1  'x, y, z'
loop_
 _atom_site_type_symbol
 _atom_site_label
 _atom_site_symmetry_multiplicity
 _atom_site_fract_x
 _atom_site_fract_y
 _atom_site_fract_z
 _atom_site_occupancy
  Tm  Tm0  1  0.704856  0.085965  0.875013  1
  Tm  Tm1  1  0.704899  0.913553  0.374888  1
  Tm  Tm2  1  0.582815  0.793318  0.873862  1
  Tm  Tm3  1  0.585920  0.205345  0.375998  1
  Tm  Tm4  1  0.411574  0.792975  0.379170  1
  Tm  Tm5  1  0.412958  0.204388  0.875517  1
  Tm  Tm6  1  0.206791  0.416725  0.626235  1
  Tm  Tm7  1  0.207284  0.587945  0.120879  1
  Tm  Tm8  1  0.794528  0.413480  0.124286  1
  Tm  Tm9  1  0.795390  0.586649  0.624576  1
  Tm  Tm10  1  0.914126  0.705265  0.125375  1
  Tm  Tm11  1  0.913872  0.294873  0.625260  1
  Tm  Tm12  1  0.090342  0.705227  0.624830  1
  Tm  Tm13  1  0.086967  0.294632  0.125159  1
  Lu  Lu14  1  0.295342  0.085416  0.375334  1
  Lu  Lu15  1  0.295630  0.910600  0.875460  1
  Lu  Lu16  1  0.000386  0.999924  0.499834  1
  Lu  Lu17  1  0.000598  0.000057  0.999352  1
  Lu  Lu18  1  0.497908  0.501149  0.999046  1
  Lu  Lu19  1  0.498558  0.501956  0.500731  1
  Ir  Ir20  1  0.347496  0.653162  0.750532  1
  Ir  Ir21  1  0.499362  0.000430  0.122510  1
  Ir  Ir22  1  0.499158  0.000364  0.621364  1
  Ir  Ir23  1  0.999655  0.499993  0.878786  1
  Ir  Ir24  1  0.999688  0.499679  0.377646  1
  Pt  Pt25  1  0.847221  0.152650  0.249980  1
  Pt  Pt26  1  0.846906  0.847410  0.750368  1
  Pt  Pt27  1  0.153569  0.152283  0.748627  1
  Pt  Pt28  1  0.153102  0.848686  0.249040  1
  Pt  Pt29  1  0.652599  0.347366  0.749901  1
  Pt  Pt30  1  0.653647  0.653105  0.249761  1
  Pt  Pt31  1  0.346855  0.345432  0.250680  1
