# generated using pymatgen
data_Hf2Ga2IrPt
_symmetry_space_group_name_H-M   'P 1'
_cell_length_a   7.24988300
_cell_length_b   7.24988251
_cell_length_c   6.85896500
_cell_angle_alpha   90.00000000
_cell_angle_beta   90.00000000
_cell_angle_gamma   120.00000679
_symmetry_Int_Tables_number   1
_chemical_formula_structural   Hf2Ga2IrPt
_chemical_formula_sum   'Hf6 Ga6 Ir3 Pt3'
_cell_volume   312.21312431
_cell_formula_units_Z   3
loop_
 _symmetry_equiv_pos_site_id
 _symmetry_equiv_pos_as_xyz
  1  'x, y, z'
loop_
 _atom_site_type_symbol
 _atom_site_label
 _atom_site_symmetry_multiplicity
 _atom_site_fract_x
 _atom_site_fract_y
 _atom_site_fract_z
 _atom_site_occupancy
  Hf  Hf0  1  0.402861  0.389320  0.246845  1
  Hf  Hf1  1  0.602156  0.996234  0.753047  1
  Hf  Hf2  1  0.394078  0.397844  0.753047  1
  Hf  Hf3  1  0.003766  0.605922  0.753047  1
  Hf  Hf4  1  0.986459  0.597139  0.246845  1
  Hf  Hf5  1  0.610680  0.013541  0.246845  1
  Ga  Ga6  1  0.271486  0.997466  0.000280  1
  Ga  Ga7  1  0.270757  0.000717  0.500295  1
  Ga  Ga8  1  0.999283  0.270040  0.500295  1
  Ga  Ga9  1  0.002534  0.274020  0.000280  1
  Ga  Ga10  1  0.725980  0.728514  0.000280  1
  Ga  Ga11  1  0.729960  0.729243  0.500295  1
  Ir  Ir12  1  0.666667  0.333333  0.512277  1
  Ir  Ir13  1  0.666667  0.333333  0.988339  1
  Ir  Ir14  1  0.333333  0.666667  0.010348  1
  Pt  Pt15  1  0.000000  0.000000  0.751611  1
  Pt  Pt16  1  0.333333  0.666667  0.487100  1
  Pt  Pt17  1  0.000000  0.000000  0.248924  1
