# generated using pymatgen
data_Ho5P12Pd4Ru15
_symmetry_space_group_name_H-M   'P 1'
_cell_length_a   12.70333364
_cell_length_b   12.62041112
_cell_length_c   3.95646100
_cell_angle_alpha   90.00000000
_cell_angle_beta   90.00000000
_cell_angle_gamma   120.43048836
_symmetry_Int_Tables_number   1
_chemical_formula_structural   Ho5P12Pd4Ru15
_chemical_formula_sum   'Ho5 P12 Pd4 Ru15'
_cell_volume   546.92580639
_cell_formula_units_Z   1
loop_
 _symmetry_equiv_pos_site_id
 _symmetry_equiv_pos_as_xyz
  1  'x, y, z'
loop_
 _atom_site_type_symbol
 _atom_site_label
 _atom_site_symmetry_multiplicity
 _atom_site_fract_x
 _atom_site_fract_y
 _atom_site_fract_z
 _atom_site_occupancy
  Ho  Ho0  1  0.003925  0.179361  0.500000  1
  Ho  Ho1  1  0.818190  0.814938  0.500000  1
  Ho  Ho2  1  0.181846  0.999171  0.500000  1
  Ho  Ho3  1  0.663291  0.333446  0.000000  1
  Ho  Ho4  1  0.334825  0.668043  0.000000  1
  P  P5  1  0.001804  0.814850  0.000000  1
  P  P6  1  0.186101  0.185371  0.000000  1
  P  P7  1  0.815612  0.993038  0.000000  1
  P  P8  1  0.686761  0.174301  0.500000  1
  P  P9  1  0.819994  0.518319  0.500000  1
  P  P10  1  0.479297  0.302885  0.500000  1
  P  P11  1  0.179442  0.698432  0.500000  1
  P  P12  1  0.520122  0.822079  0.500000  1
  P  P13  1  0.301734  0.482120  0.500000  1
  P  P14  1  0.009601  0.375012  0.000000  1
  P  P15  1  0.634340  0.634640  0.000000  1
  P  P16  1  0.365002  0.000131  0.000000  1
  Pd  Pd17  1  0.995743  0.550987  0.000000  1
  Pd  Pd18  1  0.446700  0.446899  0.000000  1
  Pd  Pd19  1  0.554647  0.005175  0.000000  1
  Pd  Pd20  1  0.814569  0.187397  0.000000  1
  Ru  Ru21  1  0.000450  0.713042  0.500000  1
  Ru  Ru22  1  0.286866  0.287790  0.500000  1
  Ru  Ru23  1  0.716685  0.003825  0.500000  1
  Ru  Ru24  1  0.815061  0.621633  0.000000  1
  Ru  Ru25  1  0.376709  0.192980  0.000000  1
  Ru  Ru26  1  0.185855  0.805949  0.000000  1
  Ru  Ru27  1  0.621992  0.816629  0.000000  1
  Ru  Ru28  1  0.195185  0.379444  0.000000  1
  Ru  Ru29  1  0.869307  0.362359  0.500000  1
  Ru  Ru30  1  0.632032  0.508345  0.500000  1
  Ru  Ru31  1  0.487246  0.123436  0.500000  1
  Ru  Ru32  1  0.369670  0.874758  0.500000  1
  Ru  Ru33  1  0.507244  0.632344  0.500000  1
  Ru  Ru34  1  0.121509  0.491075  0.500000  1
  Ru  Ru35  1  0.000643  0.999796  0.000000  1
