# generated using pymatgen
data_NpCrB6W
_symmetry_space_group_name_H-M   'P 1'
_cell_length_a   3.33971600
_cell_length_b   8.89105100
_cell_length_c   11.23961300
_cell_angle_alpha   90.00000000
_cell_angle_beta   90.00000000
_cell_angle_gamma   90.00000000
_symmetry_Int_Tables_number   1
_chemical_formula_structural   NpCrB6W
_chemical_formula_sum   'Np4 Cr4 B24 W4'
_cell_volume   333.74440715
_cell_formula_units_Z   4
loop_
 _symmetry_equiv_pos_site_id
 _symmetry_equiv_pos_as_xyz
  1  'x, y, z'
loop_
 _atom_site_type_symbol
 _atom_site_label
 _atom_site_symmetry_multiplicity
 _atom_site_fract_x
 _atom_site_fract_y
 _atom_site_fract_z
 _atom_site_occupancy
  Np  Np0  1  0.000000  0.821115  0.086451  1
  Np  Np1  1  0.000000  0.178885  0.913549  1
  Np  Np2  1  0.000000  0.321115  0.413549  1
  Np  Np3  1  0.000000  0.678885  0.586451  1
  Cr  Cr4  1  0.000000  0.143513  0.183835  1
  Cr  Cr5  1  0.000000  0.856487  0.816165  1
  Cr  Cr6  1  0.000000  0.643513  0.316165  1
  Cr  Cr7  1  0.000000  0.356487  0.683835  1
  B  B8  1  0.500000  0.053661  0.066700  1
  B  B9  1  0.500000  0.946339  0.933300  1
  B  B10  1  0.500000  0.553661  0.433300  1
  B  B11  1  0.500000  0.446339  0.566700  1
  B  B12  1  0.500000  0.253956  0.081082  1
  B  B13  1  0.500000  0.746044  0.918918  1
  B  B14  1  0.500000  0.753956  0.418918  1
  B  B15  1  0.500000  0.246044  0.581082  1
  B  B16  1  0.500000  0.297477  0.235856  1
  B  B17  1  0.500000  0.702523  0.764144  1
  B  B18  1  0.500000  0.797477  0.264144  1
  B  B19  1  0.500000  0.202523  0.735856  1
  B  B20  1  0.500000  0.129553  0.318613  1
  B  B21  1  0.500000  0.870447  0.681387  1
  B  B22  1  0.500000  0.629553  0.181387  1
  B  B23  1  0.500000  0.370447  0.818613  1
  B  B24  1  0.500000  0.480836  0.286480  1
  B  B25  1  0.500000  0.519164  0.713520  1
  B  B26  1  0.500000  0.980836  0.213520  1
  B  B27  1  0.500000  0.019164  0.786480  1
  B  B28  1  0.500000  0.099783  0.473894  1
  B  B29  1  0.500000  0.900217  0.526106  1
  B  B30  1  0.500000  0.599783  0.026106  1
  B  B31  1  0.500000  0.400217  0.973894  1
  W  W32  1  0.000000  0.444259  0.127932  1
  W  W33  1  0.000000  0.555741  0.872068  1
  W  W34  1  0.000000  0.944259  0.372068  1
  W  W35  1  0.000000  0.055741  0.627932  1
