# generated using pymatgen
data_V9Tc3Ge4
_symmetry_space_group_name_H-M   'P 1'
_cell_length_a   4.74519800
_cell_length_b   4.77377097
_cell_length_c   9.61576023
_cell_angle_alpha   89.92342637
_cell_angle_beta   90.00000000
_cell_angle_gamma   90.00000000
_symmetry_Int_Tables_number   1
_chemical_formula_structural   V9Tc3Ge4
_chemical_formula_sum   'V9 Tc3 Ge4'
_cell_volume   217.82070322
_cell_formula_units_Z   1
loop_
 _symmetry_equiv_pos_site_id
 _symmetry_equiv_pos_as_xyz
  1  'x, y, z'
loop_
 _atom_site_type_symbol
 _atom_site_label
 _atom_site_symmetry_multiplicity
 _atom_site_fract_x
 _atom_site_fract_y
 _atom_site_fract_z
 _atom_site_occupancy
  V  V0  1  0.500000  0.749143  0.498888  1
  V  V1  1  0.749882  0.999977  0.251263  1
  V  V2  1  0.749007  0.999090  0.750073  1
  V  V3  1  0.000000  0.502329  0.123986  1
  V  V4  1  0.000000  0.498092  0.625263  1
  V  V5  1  0.500000  0.252867  0.999514  1
  V  V6  1  0.500000  0.247534  0.499569  1
  V  V7  1  0.250118  0.999977  0.251263  1
  V  V8  1  0.250993  0.999090  0.750073  1
  Tc  Tc9  1  0.000000  0.499144  0.374719  1
  Tc  Tc10  1  0.000000  0.500780  0.874799  1
  Tc  Tc11  1  0.500000  0.753992  0.999643  1
  Ge  Ge12  1  0.500000  0.496411  0.248985  1
  Ge  Ge13  1  0.500000  0.496492  0.743607  1
  Ge  Ge14  1  0.000000  0.005850  0.004393  1
  Ge  Ge15  1  0.000000  0.999230  0.503957  1
