# generated using pymatgen
data_PrEr19Sn16
_symmetry_space_group_name_H-M   'P 1'
_cell_length_a   8.00579224
_cell_length_b   8.13020213
_cell_length_c   15.37985853
_cell_angle_alpha   89.91000526
_cell_angle_beta   89.48452059
_cell_angle_gamma   89.86592928
_symmetry_Int_Tables_number   1
_chemical_formula_structural   PrEr19Sn16
_chemical_formula_sum   'Pr1 Er19 Sn16'
_cell_volume   1001.01068111
_cell_formula_units_Z   1
loop_
 _symmetry_equiv_pos_site_id
 _symmetry_equiv_pos_as_xyz
  1  'x, y, z'
loop_
 _atom_site_type_symbol
 _atom_site_label
 _atom_site_symmetry_multiplicity
 _atom_site_fract_x
 _atom_site_fract_y
 _atom_site_fract_z
 _atom_site_occupancy
  Pr  Pr0  1  0.016427  0.179554  0.904754  1
  Er  Er1  1  0.365782  0.837075  0.876383  1
  Er  Er2  1  0.868240  0.662747  0.621008  1
  Er  Er3  1  0.630909  0.162222  0.377427  1
  Er  Er4  1  0.134600  0.338445  0.123271  1
  Er  Er5  1  0.634482  0.163205  0.123720  1
  Er  Er6  1  0.131242  0.337730  0.377675  1
  Er  Er7  1  0.369657  0.837323  0.621883  1
  Er  Er8  1  0.866908  0.662151  0.877209  1
  Er  Er9  1  0.521019  0.322678  0.902843  1
  Er  Er10  1  0.023852  0.179229  0.598164  1
  Er  Er11  1  0.477224  0.678419  0.402259  1
  Er  Er12  1  0.980283  0.819131  0.097514  1
  Er  Er13  1  0.479275  0.679340  0.097738  1
  Er  Er14  1  0.977387  0.821315  0.402305  1
  Er  Er15  1  0.522382  0.321855  0.596188  1
  Er  Er16  1  0.199130  0.503366  0.748966  1
  Er  Er17  1  0.698413  0.996146  0.748778  1
  Er  Er18  1  0.801283  0.496767  0.250393  1
  Er  Er19  1  0.301730  0.003268  0.250777  1
  Sn  Sn20  1  0.299031  0.034076  0.044211  1
  Sn  Sn21  1  0.791456  0.462943  0.457861  1
  Sn  Sn22  1  0.709361  0.965681  0.541622  1
  Sn  Sn23  1  0.208941  0.541007  0.959616  1
  Sn  Sn24  1  0.698445  0.956929  0.960222  1
  Sn  Sn25  1  0.208645  0.536459  0.541168  1
  Sn  Sn26  1  0.290972  0.036197  0.458333  1
  Sn  Sn27  1  0.792589  0.463337  0.041907  1
  Sn  Sn28  1  0.564598  0.619741  0.749553  1
  Sn  Sn29  1  0.064763  0.877638  0.748858  1
  Sn  Sn30  1  0.435524  0.381974  0.250528  1
  Sn  Sn31  1  0.936047  0.118972  0.250178  1
  Sn  Sn32  1  0.333473  0.149154  0.749150  1
  Sn  Sn33  1  0.827474  0.353744  0.747266  1
  Sn  Sn34  1  0.669270  0.851169  0.250189  1
  Sn  Sn35  1  0.169188  0.649012  0.250084  1
