# generated using pymatgen
data_Ba14TmSb11
_symmetry_space_group_name_H-M   'P 1'
_cell_length_a   17.95679926
_cell_length_b   17.95679972
_cell_length_c   17.95680000
_cell_angle_alpha   117.88730670
_cell_angle_beta   117.88730748
_cell_angle_gamma   93.69997918
_symmetry_Int_Tables_number   1
_chemical_formula_structural   Ba14TmSb11
_chemical_formula_sum   'Ba56 Tm4 Sb44'
_cell_volume   4215.46026347
_cell_formula_units_Z   4
loop_
 _symmetry_equiv_pos_site_id
 _symmetry_equiv_pos_as_xyz
  1  'x, y, z'
loop_
 _atom_site_type_symbol
 _atom_site_label
 _atom_site_symmetry_multiplicity
 _atom_site_fract_x
 _atom_site_fract_y
 _atom_site_fract_z
 _atom_site_occupancy
  Ba  Ba0  1  0.626659  0.286388  0.976423  1
  Ba  Ba1  1  0.900235  0.059967  0.523578  1
  Ba  Ba2  1  0.130755  0.498161  0.723002  1
  Ba  Ba3  1  0.657752  0.525157  0.777000  1
  Ba  Ba4  1  0.400233  0.876657  0.840268  1
  Ba  Ba5  1  0.809965  0.786388  0.659729  1
  Ba  Ba6  1  0.036389  0.559967  0.159732  1
  Ba  Ba7  1  0.126658  0.150232  0.340268  1
  Ba  Ba8  1  0.893545  0.742423  0.893765  1
  Ba  Ba9  1  0.157752  0.380750  0.132591  1
  Ba  Ba10  1  0.249779  0.598654  0.606232  1
  Ba  Ba11  1  0.275158  0.998161  0.367406  1
  Ba  Ba12  1  0.757579  0.606454  0.106234  1
  Ba  Ba13  1  0.309964  0.650232  0.023574  1
  Ba  Ba14  1  0.901342  0.250222  0.393768  1
  Ba  Ba15  1  0.248157  0.025157  0.867405  1
  Ba  Ba16  1  0.981500  0.875000  0.606500  1
  Ba  Ba17  1  0.536389  0.376657  0.476424  1
  Ba  Ba18  1  0.630753  0.907753  0.632596  1
  Ba  Ba19  1  0.624999  0.018499  0.893499  1
  Ba  Ba20  1  0.492422  0.098654  0.348874  1
  Ba  Ba21  1  0.393545  0.499778  0.151120  1
  Ba  Ba22  1  0.625000  0.518499  0.393500  1
  Ba  Ba23  1  0.481499  0.875000  0.106499  1
  Ba  Ba24  1  0.749780  0.143546  0.651125  1
  Ba  Ba25  1  0.001841  0.369250  0.277002  1
  Ba  Ba26  1  0.775157  0.407753  0.277000  1
  Ba  Ba27  1  0.348658  0.242423  0.848879  1
  Ba  Ba28  1  0.401342  0.007577  0.651121  1
  Ba  Ba29  1  0.974843  0.842247  0.223000  1
  Ba  Ba30  1  0.748159  0.880750  0.222998  1
  Ba  Ba31  1  0.000220  0.106454  0.848875  1
  Ba  Ba32  1  0.268501  0.375000  0.393501  1
  Ba  Ba33  1  0.125000  0.731501  0.106500  1
  Ba  Ba34  1  0.356455  0.750222  0.348880  1
  Ba  Ba35  1  0.257578  0.151346  0.151126  1
  Ba  Ba36  1  0.125001  0.231501  0.606501  1
  Ba  Ba37  1  0.119247  0.342247  0.867404  1
  Ba  Ba38  1  0.213611  0.873343  0.023576  1
  Ba  Ba39  1  0.768500  0.375000  0.893500  1
  Ba  Ba40  1  0.501843  0.224843  0.632595  1
  Ba  Ba41  1  0.848658  0.999778  0.106232  1
  Ba  Ba42  1  0.440036  0.599768  0.476426  1
  Ba  Ba43  1  0.992421  0.643546  0.393766  1
  Ba  Ba44  1  0.474842  0.251839  0.132594  1
  Ba  Ba45  1  0.500221  0.651346  0.893768  1
  Ba  Ba46  1  0.592248  0.869250  0.367409  1
  Ba  Ba47  1  0.856455  0.507577  0.606235  1
  Ba  Ba48  1  0.623342  0.099768  0.159732  1
  Ba  Ba49  1  0.713611  0.690033  0.340268  1
  Ba  Ba50  1  0.940035  0.463612  0.840271  1
  Ba  Ba51  1  0.349767  0.373343  0.659732  1
  Ba  Ba52  1  0.092248  0.724843  0.723000  1
  Ba  Ba53  1  0.619245  0.751839  0.776998  1
  Ba  Ba54  1  0.849765  0.190033  0.976422  1
  Ba  Ba55  1  0.123341  0.963612  0.523577  1
  Tm  Tm56  1  0.250012  0.750007  0.500010  1
  Tm  Tm57  1  0.749997  0.250007  0.499995  1
  Tm  Tm58  1  0.499988  0.499993  0.999990  1
  Tm  Tm59  1  0.000003  0.999993  0.000005  1
  Sb  Sb60  1  0.853639  0.445714  0.142300  1
  Sb  Sb61  1  0.961336  0.053408  0.357701  1
  Sb  Sb62  1  0.195707  0.553408  0.092072  1
  Sb  Sb63  1  0.353639  0.211339  0.407925  1
  Sb  Sb64  1  0.189600  0.550272  0.366417  1
  Sb  Sb65  1  0.073189  0.933857  0.133589  1
  Sb  Sb66  1  0.300266  0.433857  0.860667  1
  Sb  Sb67  1  0.689599  0.323183  0.639327  1
  Sb  Sb68  1  0.573183  0.439599  0.139328  1
  Sb  Sb69  1  0.683856  0.050272  0.360672  1
  Sb  Sb70  1  0.370398  0.870397  0.240794  1
  Sb  Sb71  1  0.250000  0.250000  0.000000  1
  Sb  Sb72  1  0.120398  0.120398  0.740795  1
  Sb  Sb73  1  0.461338  0.103638  0.907926  1
  Sb  Sb74  1  0.803414  0.945714  0.592075  1
  Sb  Sb75  1  0.183856  0.823183  0.633583  1
  Sb  Sb76  1  0.800271  0.939599  0.866417  1
  Sb  Sb77  1  0.620396  0.879603  0.000001  1
  Sb  Sb78  1  0.870396  0.629602  0.500000  1
  Sb  Sb79  1  0.054287  0.646362  0.857700  1
  Sb  Sb80  1  0.446587  0.538661  0.642300  1
  Sb  Sb81  1  0.750000  0.750000  0.000000  1
  Sb  Sb82  1  0.000000  0.500000  0.500000  1
  Sb  Sb83  1  0.303413  0.711339  0.857700  1
  Sb  Sb84  1  0.695713  0.603638  0.642300  1
  Sb  Sb85  1  0.879604  0.620398  0.000000  1
  Sb  Sb86  1  0.129604  0.370397  0.499999  1
  Sb  Sb87  1  0.949729  0.310401  0.633583  1
  Sb  Sb88  1  0.566144  0.426817  0.866417  1
  Sb  Sb89  1  0.946586  0.304286  0.907925  1
  Sb  Sb90  1  0.288662  0.146362  0.592074  1
  Sb  Sb91  1  0.629602  0.129602  0.759205  1
  Sb  Sb92  1  0.500000  0.000000  0.500000  1
  Sb  Sb93  1  0.379602  0.379603  0.259206  1
  Sb  Sb94  1  0.066144  0.199728  0.139328  1
  Sb  Sb95  1  0.176817  0.810401  0.360672  1
  Sb  Sb96  1  0.060401  0.926817  0.860673  1
  Sb  Sb97  1  0.449734  0.816143  0.639333  1
  Sb  Sb98  1  0.676811  0.316143  0.366411  1
  Sb  Sb99  1  0.560400  0.699728  0.133583  1
  Sb  Sb100  1  0.396361  0.038661  0.092075  1
  Sb  Sb101  1  0.554293  0.696592  0.407928  1
  Sb  Sb102  1  0.788664  0.196592  0.142299  1
  Sb  Sb103  1  0.896361  0.804286  0.357700  1
