# generated using pymatgen
data_Yb5Sm2Dy(Cu2Sn5)2
_symmetry_space_group_name_H-M   'P 1'
_cell_length_a   4.46579100
_cell_length_b   8.80104700
_cell_length_c   14.14356300
_cell_angle_alpha   90.00000000
_cell_angle_beta   90.00000000
_cell_angle_gamma   90.00000000
_symmetry_Int_Tables_number   1
_chemical_formula_structural   Yb5Sm2Dy(Cu2Sn5)2
_chemical_formula_sum   'Yb5 Sm2 Dy1 Cu4 Sn10'
_cell_volume   555.89345873
_cell_formula_units_Z   1
loop_
 _symmetry_equiv_pos_site_id
 _symmetry_equiv_pos_as_xyz
  1  'x, y, z'
loop_
 _atom_site_type_symbol
 _atom_site_label
 _atom_site_symmetry_multiplicity
 _atom_site_fract_x
 _atom_site_fract_y
 _atom_site_fract_z
 _atom_site_occupancy
  Yb  Yb0  1  0.500000  0.791870  0.741896  1
  Yb  Yb1  1  0.000000  0.204706  0.753312  1
  Yb  Yb2  1  0.000000  0.204706  0.246688  1
  Yb  Yb3  1  0.000000  0.865968  0.500000  1
  Yb  Yb4  1  0.500000  0.791870  0.258104  1
  Sm  Sm5  1  0.500000  0.696147  0.000000  1
  Sm  Sm6  1  0.500000  0.140371  0.000000  1
  Dy  Dy7  1  0.000000  0.297678  0.500000  1
  Cu  Cu8  1  0.500000  0.378343  0.643581  1
  Cu  Cu9  1  0.000000  0.623577  0.852223  1
  Cu  Cu10  1  0.000000  0.623577  0.147777  1
  Cu  Cu11  1  0.500000  0.378343  0.356419  1
  Sn  Sn12  1  0.500000  0.084051  0.396223  1
  Sn  Sn13  1  0.000000  0.552989  0.662357  1
  Sn  Sn14  1  0.000000  0.411358  0.000000  1
  Sn  Sn15  1  0.500000  0.442485  0.165069  1
  Sn  Sn16  1  0.500000  0.594344  0.500000  1
  Sn  Sn17  1  0.500000  0.442485  0.834931  1
  Sn  Sn18  1  0.000000  0.919046  0.896122  1
  Sn  Sn19  1  0.000000  0.552989  0.337643  1
  Sn  Sn20  1  0.500000  0.084051  0.603777  1
  Sn  Sn21  1  0.000000  0.919046  0.103878  1
