# generated using pymatgen
data_Ti16Al3Si9Tc4
_symmetry_space_group_name_H-M   'P 1'
_cell_length_a   5.07014611
_cell_length_b   7.45518854
_cell_length_c   12.94724610
_cell_angle_alpha   90.05429603
_cell_angle_beta   90.06211015
_cell_angle_gamma   90.04349889
_symmetry_Int_Tables_number   1
_chemical_formula_structural   Ti16Al3Si9Tc4
_chemical_formula_sum   'Ti16 Al3 Si9 Tc4'
_cell_volume   489.39094972
_cell_formula_units_Z   1
loop_
 _symmetry_equiv_pos_site_id
 _symmetry_equiv_pos_as_xyz
  1  'x, y, z'
loop_
 _atom_site_type_symbol
 _atom_site_label
 _atom_site_symmetry_multiplicity
 _atom_site_fract_x
 _atom_site_fract_y
 _atom_site_fract_z
 _atom_site_occupancy
  Ti  Ti0  1  0.248264  0.495051  0.830451  1
  Ti  Ti1  1  0.248552  0.002309  0.329586  1
  Ti  Ti2  1  0.249137  0.004948  0.667744  1
  Ti  Ti3  1  0.248402  0.501950  0.170692  1
  Ti  Ti4  1  0.498254  0.261082  0.499476  1
  Ti  Ti5  1  0.495723  0.761314  0.002618  1
  Ti  Ti6  1  0.493135  0.616803  0.619944  1
  Ti  Ti7  1  0.490054  0.120761  0.125136  1
  Ti  Ti8  1  0.491055  0.123794  0.876174  1
  Ti  Ti9  1  0.491576  0.620704  0.375604  1
  Ti  Ti10  1  0.002732  0.741741  0.500340  1
  Ti  Ti11  1  0.004356  0.239929  0.000309  1
  Ti  Ti12  1  0.006256  0.876637  0.879642  1
  Ti  Ti13  1  0.007177  0.375839  0.376216  1
  Ti  Ti14  1  0.006089  0.374856  0.624020  1
  Ti  Ti15  1  0.006372  0.874765  0.124665  1
  Al  Al16  1  0.511564  0.400128  0.000999  1
  Al  Al17  1  0.510188  0.899436  0.499355  1
  Al  Al18  1  0.515059  0.799259  0.800226  1
  Si  Si19  1  0.515682  0.302483  0.302707  1
  Si  Si20  1  0.517582  0.302206  0.696815  1
  Si  Si21  1  0.515622  0.802328  0.198346  1
  Si  Si22  1  0.989440  0.599973  0.999743  1
  Si  Si23  1  0.990451  0.101441  0.498859  1
  Si  Si24  1  0.985537  0.700688  0.698418  1
  Si  Si25  1  0.984105  0.199058  0.195786  1
  Si  Si26  1  0.983589  0.194710  0.803760  1
  Si  Si27  1  0.984628  0.699290  0.304651  1
  Tc  Tc28  1  0.753641  0.005355  0.666073  1
  Tc  Tc29  1  0.751129  0.502500  0.170443  1
  Tc  Tc30  1  0.753215  0.495659  0.831140  1
  Tc  Tc31  1  0.751436  0.002990  0.330060  1
