# generated using pymatgen
data_SmHo2Si5PPd20
_symmetry_space_group_name_H-M   'P 1'
_cell_length_a   8.71042583
_cell_length_b   8.71149511
_cell_length_c   8.71149431
_cell_angle_alpha   59.97508082
_cell_angle_beta   60.00405190
_cell_angle_gamma   60.00405716
_symmetry_Int_Tables_number   1
_chemical_formula_structural   SmHo2Si5PPd20
_chemical_formula_sum   'Sm1 Ho2 Si5 P1 Pd20'
_cell_volume   467.36317537
_cell_formula_units_Z   1
loop_
 _symmetry_equiv_pos_site_id
 _symmetry_equiv_pos_as_xyz
  1  'x, y, z'
loop_
 _atom_site_type_symbol
 _atom_site_label
 _atom_site_symmetry_multiplicity
 _atom_site_fract_x
 _atom_site_fract_y
 _atom_site_fract_z
 _atom_site_occupancy
  Sm  Sm0  1  0.249258  0.250742  0.250742  1
  Ho  Ho1  1  0.749218  0.750782  0.750782  1
  Ho  Ho2  1  0.000695  0.999305  0.999305  1
  Si  Si3  1  0.267422  0.732578  0.732578  1
  Si  Si4  1  0.265427  0.734561  0.267432  1
  Si  Si5  1  0.732580  0.267432  0.734561  1
  Si  Si6  1  0.265427  0.267432  0.734561  1
  Si  Si7  1  0.732580  0.734561  0.267432  1
  P  P8  1  0.735164  0.264836  0.264836  1
  Pd  Pd9  1  0.387362  0.384721  0.384721  1
  Pd  Pd10  1  0.617210  0.616891  0.616891  1
  Pd  Pd11  1  0.385132  0.384724  0.845014  1
  Pd  Pd12  1  0.385132  0.845014  0.384724  1
  Pd  Pd13  1  0.617211  0.614909  0.150669  1
  Pd  Pd14  1  0.617211  0.150669  0.614909  1
  Pd  Pd15  1  0.843199  0.384721  0.384721  1
  Pd  Pd16  1  0.149007  0.616891  0.616891  1
  Pd  Pd17  1  0.347588  0.998406  0.998406  1
  Pd  Pd18  1  0.655600  0.998406  0.998406  1
  Pd  Pd19  1  0.000526  0.345440  0.653508  1
  Pd  Pd20  1  0.000526  0.653508  0.345440  1
  Pd  Pd21  1  0.997360  0.345777  0.001528  1
  Pd  Pd22  1  0.655335  0.001528  0.345777  1
  Pd  Pd23  1  0.999633  0.655166  0.999265  1
  Pd  Pd24  1  0.345936  0.999265  0.655166  1
  Pd  Pd25  1  0.997360  0.001528  0.345777  1
  Pd  Pd26  1  0.999633  0.999265  0.655166  1
  Pd  Pd27  1  0.655335  0.345777  0.001528  1
  Pd  Pd28  1  0.345936  0.655166  0.999265  1
