# generated using pymatgen
data_MnV4Co(NiP2)2
_symmetry_space_group_name_H-M   'P 1'
_cell_length_a   3.50947400
_cell_length_b   5.90738221
_cell_length_c   6.76432701
_cell_angle_alpha   90.51257349
_cell_angle_beta   90.00000000
_cell_angle_gamma   90.00000000
_symmetry_Int_Tables_number   1
_chemical_formula_structural   MnV4Co(NiP2)2
_chemical_formula_sum   'Mn1 V4 Co1 Ni2 P4'
_cell_volume   140.23109202
_cell_formula_units_Z   1
loop_
 _symmetry_equiv_pos_site_id
 _symmetry_equiv_pos_as_xyz
  1  'x, y, z'
loop_
 _atom_site_type_symbol
 _atom_site_label
 _atom_site_symmetry_multiplicity
 _atom_site_fract_x
 _atom_site_fract_y
 _atom_site_fract_z
 _atom_site_occupancy
  Mn  Mn0  1  0.250000  0.641754  0.943384  1
  V  V1  1  0.250000  0.031741  0.161692  1
  V  V2  1  0.250000  0.525035  0.322917  1
  V  V3  1  0.750000  0.966784  0.837223  1
  V  V4  1  0.750000  0.478922  0.675762  1
  Co  Co5  1  0.750000  0.353960  0.060219  1
  Ni  Ni6  1  0.250000  0.144940  0.563358  1
  Ni  Ni7  1  0.750000  0.856232  0.435422  1
  P  P8  1  0.250000  0.762893  0.628292  1
  P  P9  1  0.250000  0.269236  0.875048  1
  P  P10  1  0.750000  0.238227  0.371490  1
  P  P11  1  0.750000  0.730279  0.125194  1
