# generated using pymatgen
data_Th4Ga16Ir3
_symmetry_space_group_name_H-M   'P 1'
_cell_length_a   6.25910300
_cell_length_b   6.25910300
_cell_length_c   11.43586100
_cell_angle_alpha   90.00000000
_cell_angle_beta   90.00000000
_cell_angle_gamma   90.00000000
_symmetry_Int_Tables_number   1
_chemical_formula_structural   Th4Ga16Ir3
_chemical_formula_sum   'Th4 Ga16 Ir3'
_cell_volume   448.01552597
_cell_formula_units_Z   1
loop_
 _symmetry_equiv_pos_site_id
 _symmetry_equiv_pos_as_xyz
  1  'x, y, z'
loop_
 _atom_site_type_symbol
 _atom_site_label
 _atom_site_symmetry_multiplicity
 _atom_site_fract_x
 _atom_site_fract_y
 _atom_site_fract_z
 _atom_site_occupancy
  Th  Th0  1  0.500000  0.000000  0.805409  1
  Th  Th1  1  0.000000  0.500000  0.194591  1
  Th  Th2  1  0.000000  0.500000  0.805409  1
  Th  Th3  1  0.500000  0.000000  0.194591  1
  Ga  Ga4  1  0.000000  0.000000  0.771722  1
  Ga  Ga5  1  0.288599  0.288599  0.000000  1
  Ga  Ga6  1  0.500000  0.500000  0.800314  1
  Ga  Ga7  1  0.711401  0.288599  0.000000  1
  Ga  Ga8  1  0.500000  0.500000  0.199686  1
  Ga  Ga9  1  0.711401  0.711401  0.000000  1
  Ga  Ga10  1  0.000000  0.000000  0.228278  1
  Ga  Ga11  1  0.748946  0.748946  0.617234  1
  Ga  Ga12  1  0.748946  0.251054  0.382766  1
  Ga  Ga13  1  0.251054  0.251054  0.617234  1
  Ga  Ga14  1  0.251054  0.748946  0.382766  1
  Ga  Ga15  1  0.288599  0.711401  0.000000  1
  Ga  Ga16  1  0.748946  0.748946  0.382766  1
  Ga  Ga17  1  0.748946  0.251054  0.617234  1
  Ga  Ga18  1  0.251054  0.251054  0.382766  1
  Ga  Ga19  1  0.251054  0.748946  0.617234  1
  Ir  Ir20  1  0.000000  0.500000  0.500000  1
  Ir  Ir21  1  0.000000  0.000000  0.000000  1
  Ir  Ir22  1  0.500000  0.000000  0.500000  1
