# generated using pymatgen
data_Y13Ho2Th(CdPt)4
_symmetry_space_group_name_H-M   'P 1'
_cell_length_a   9.71950730
_cell_length_b   9.72688411
_cell_length_c   9.72688450
_cell_angle_alpha   60.20338191
_cell_angle_beta   60.17000747
_cell_angle_gamma   60.17000698
_symmetry_Int_Tables_number   1
_chemical_formula_structural   Y13Ho2Th(CdPt)4
_chemical_formula_sum   'Y13 Ho2 Th1 Cd4 Pt4'
_cell_volume   652.91175679
_cell_formula_units_Z   1
loop_
 _symmetry_equiv_pos_site_id
 _symmetry_equiv_pos_as_xyz
  1  'x, y, z'
loop_
 _atom_site_type_symbol
 _atom_site_label
 _atom_site_symmetry_multiplicity
 _atom_site_fract_x
 _atom_site_fract_y
 _atom_site_fract_z
 _atom_site_occupancy
  Y  Y0  1  0.937968  0.354281  0.354281  1
  Y  Y1  1  0.812731  0.188972  0.188972  1
  Y  Y2  1  0.191037  0.810285  0.810285  1
  Y  Y3  1  0.189430  0.812492  0.189258  1
  Y  Y4  1  0.810523  0.190648  0.810698  1
  Y  Y5  1  0.189430  0.189258  0.812492  1
  Y  Y6  1  0.810523  0.810698  0.190648  1
  Y  Y7  1  0.936118  0.565920  0.565920  1
  Y  Y8  1  0.563305  0.937221  0.937221  1
  Y  Y9  1  0.565367  0.936256  0.565707  1
  Y  Y10  1  0.937089  0.563915  0.936506  1
  Y  Y11  1  0.565367  0.565707  0.936256  1
  Y  Y12  1  0.937089  0.936506  0.563915  1
  Ho  Ho13  1  0.353454  0.353496  0.940473  1
  Ho  Ho14  1  0.353454  0.940473  0.353496  1
  Th  Th15  1  0.348998  0.349293  0.349293  1
  Cd  Cd16  1  0.581291  0.581955  0.581955  1
  Cd  Cd17  1  0.582308  0.583009  0.252620  1
  Cd  Cd18  1  0.582308  0.252620  0.583009  1
  Cd  Cd19  1  0.252823  0.582713  0.582713  1
  Pt  Pt20  1  0.146277  0.143863  0.143863  1
  Pt  Pt21  1  0.142458  0.140272  0.568924  1
  Pt  Pt22  1  0.142458  0.568924  0.140272  1
  Pt  Pt23  1  0.568192  0.141220  0.141220  1
