# generated using pymatgen
data_YEr3Cu3Sb8
_symmetry_space_group_name_H-M   'P 1'
_cell_length_a   10.59513759
_cell_length_b   10.59034467
_cell_length_c   10.59287810
_cell_angle_alpha   146.56662934
_cell_angle_beta   146.57441586
_cell_angle_gamma   47.99845020
_symmetry_Int_Tables_number   1
_chemical_formula_structural   YEr3Cu3Sb8
_chemical_formula_sum   'Y1 Er3 Cu3 Sb8'
_cell_volume   359.27089196
_cell_formula_units_Z   1
loop_
 _symmetry_equiv_pos_site_id
 _symmetry_equiv_pos_as_xyz
  1  'x, y, z'
loop_
 _atom_site_type_symbol
 _atom_site_label
 _atom_site_symmetry_multiplicity
 _atom_site_fract_x
 _atom_site_fract_y
 _atom_site_fract_z
 _atom_site_occupancy
  Y  Y0  1  0.366751  0.874343  0.000000  1
  Er  Er1  1  0.633746  0.633727  0.508053  1
  Er  Er2  1  0.125692  0.125673  0.491947  1
  Er  Er3  1  0.874319  0.366344  0.000000  1
  Cu  Cu4  1  0.999117  0.000269  0.000000  1
  Cu  Cu5  1  0.999393  0.499221  0.499050  1
  Cu  Cu6  1  0.500343  0.000172  0.500950  1
  Sb  Sb7  1  0.334520  0.334191  0.515550  1
  Sb  Sb8  1  0.818971  0.818641  0.484450  1
  Sb  Sb9  1  0.665079  0.181164  0.000000  1
  Sb  Sb10  1  0.181108  0.665240  0.000000  1
  Sb  Sb11  1  0.249867  0.250552  0.000000  1
  Sb  Sb12  1  0.750572  0.749907  0.000000  1
  Sb  Sb13  1  0.750602  0.250619  0.500682  1
  Sb  Sb14  1  0.249920  0.749937  0.499318  1
