# generated using pymatgen
data_LiTiCo3P7Ru9
_symmetry_space_group_name_H-M   'P 1'
_cell_length_a   9.27807500
_cell_length_b   9.27807592
_cell_length_c   3.74929600
_cell_angle_alpha   90.00000000
_cell_angle_beta   90.00000000
_cell_angle_gamma   119.99999315
_symmetry_Int_Tables_number   1
_chemical_formula_structural   LiTiCo3P7Ru9
_chemical_formula_sum   'Li1 Ti1 Co3 P7 Ru9'
_cell_volume   279.50925393
_cell_formula_units_Z   1
loop_
 _symmetry_equiv_pos_site_id
 _symmetry_equiv_pos_as_xyz
  1  'x, y, z'
loop_
 _atom_site_type_symbol
 _atom_site_label
 _atom_site_symmetry_multiplicity
 _atom_site_fract_x
 _atom_site_fract_y
 _atom_site_fract_z
 _atom_site_occupancy
  Li  Li0  1  0.000000  0.000000  0.000000  1
  Ti  Ti1  1  0.333333  0.666667  0.500000  1
  Co  Co2  1  0.823612  0.605024  0.000000  1
  Co  Co3  1  0.394976  0.218588  0.000000  1
  Co  Co4  1  0.781412  0.176388  0.000000  1
  P  P5  1  0.787637  0.735801  0.500000  1
  P  P6  1  0.264199  0.051836  0.500000  1
  P  P7  1  0.948164  0.212363  0.500000  1
  P  P8  1  0.666667  0.333333  0.000000  1
  P  P9  1  0.082229  0.640085  0.000000  1
  P  P10  1  0.359915  0.442144  0.000000  1
  P  P11  1  0.557856  0.917771  0.000000  1
  Ru  Ru12  1  0.094796  0.404995  0.000000  1
  Ru  Ru13  1  0.595005  0.689802  0.000000  1
  Ru  Ru14  1  0.310198  0.905204  0.000000  1
  Ru  Ru15  1  0.056124  0.773145  0.500000  1
  Ru  Ru16  1  0.226855  0.282981  0.500000  1
  Ru  Ru17  1  0.717019  0.943876  0.500000  1
  Ru  Ru18  1  0.869323  0.417298  0.500000  1
  Ru  Ru19  1  0.582702  0.452026  0.500000  1
  Ru  Ru20  1  0.547974  0.130677  0.500000  1
