# generated using pymatgen
data_Nd2ZnGaRh2
_symmetry_space_group_name_H-M   'P 1'
_cell_length_a   7.35755900
_cell_length_b   4.03964600
_cell_length_c   16.50716500
_cell_angle_alpha   90.00000000
_cell_angle_beta   90.00000000
_cell_angle_gamma   90.00000000
_symmetry_Int_Tables_number   1
_chemical_formula_structural   Nd2ZnGaRh2
_chemical_formula_sum   'Nd8 Zn4 Ga4 Rh8'
_cell_volume   490.62486509
_cell_formula_units_Z   4
loop_
 _symmetry_equiv_pos_site_id
 _symmetry_equiv_pos_as_xyz
  1  'x, y, z'
loop_
 _atom_site_type_symbol
 _atom_site_label
 _atom_site_symmetry_multiplicity
 _atom_site_fract_x
 _atom_site_fract_y
 _atom_site_fract_z
 _atom_site_occupancy
  Nd  Nd0  1  0.045021  0.249999  0.284150  1
  Nd  Nd1  1  0.454978  0.750000  0.784150  1
  Nd  Nd2  1  0.545022  0.249999  0.215850  1
  Nd  Nd3  1  0.954977  0.750000  0.715850  1
  Nd  Nd4  1  0.170885  0.249999  0.059536  1
  Nd  Nd5  1  0.329113  0.750000  0.559536  1
  Nd  Nd6  1  0.670886  0.249999  0.440463  1
  Nd  Nd7  1  0.829114  0.750000  0.940463  1
  Zn  Zn8  1  0.000975  0.249999  0.560278  1
  Zn  Zn9  1  0.499026  0.750000  0.060278  1
  Zn  Zn10  1  0.500974  0.249999  0.939721  1
  Zn  Zn11  1  0.999025  0.750000  0.439721  1
  Ga  Ga12  1  0.118662  0.249999  0.848718  1
  Ga  Ga13  1  0.381339  0.750000  0.348718  1
  Ga  Ga14  1  0.618660  0.249999  0.651282  1
  Ga  Ga15  1  0.881340  0.750000  0.151282  1
  Rh  Rh16  1  0.250063  0.249999  0.430786  1
  Rh  Rh17  1  0.249938  0.750000  0.930786  1
  Rh  Rh18  1  0.750064  0.249999  0.069214  1
  Rh  Rh19  1  0.749937  0.750000  0.569213  1
  Rh  Rh20  1  0.253508  0.249999  0.686714  1
  Rh  Rh21  1  0.246493  0.750000  0.186714  1
  Rh  Rh22  1  0.753507  0.249999  0.813286  1
  Rh  Rh23  1  0.746492  0.750000  0.313286  1
