# generated using pymatgen
data_Ho2InB2Ir5
_symmetry_space_group_name_H-M   'P 1'
_cell_length_a   3.19805600
_cell_length_b   9.75888900
_cell_length_c   9.75888900
_cell_angle_alpha   90.00000000
_cell_angle_beta   90.00000000
_cell_angle_gamma   90.00000000
_symmetry_Int_Tables_number   1
_chemical_formula_structural   Ho2InB2Ir5
_chemical_formula_sum   'Ho4 In2 B4 Ir10'
_cell_volume   304.56978783
_cell_formula_units_Z   2
loop_
 _symmetry_equiv_pos_site_id
 _symmetry_equiv_pos_as_xyz
  1  'x, y, z'
loop_
 _atom_site_type_symbol
 _atom_site_label
 _atom_site_symmetry_multiplicity
 _atom_site_fract_x
 _atom_site_fract_y
 _atom_site_fract_z
 _atom_site_occupancy
  Ho  Ho0  1  0.000000  0.177253  0.677253  1
  Ho  Ho1  1  0.000000  0.822747  0.322747  1
  Ho  Ho2  1  0.000000  0.322747  0.177253  1
  Ho  Ho3  1  0.000000  0.677253  0.822747  1
  In  In4  1  0.000000  0.000000  0.000000  1
  In  In5  1  0.000000  0.500000  0.500000  1
  B  B6  1  0.000000  0.620727  0.120727  1
  B  B7  1  0.000000  0.379273  0.879273  1
  B  B8  1  0.000000  0.879273  0.620727  1
  B  B9  1  0.000000  0.120727  0.379273  1
  Ir  Ir10  1  0.500000  0.069782  0.227407  1
  Ir  Ir11  1  0.500000  0.930218  0.772593  1
  Ir  Ir12  1  0.500000  0.772593  0.069782  1
  Ir  Ir13  1  0.500000  0.430218  0.727407  1
  Ir  Ir14  1  0.500000  0.227407  0.930218  1
  Ir  Ir15  1  0.500000  0.569782  0.272593  1
  Ir  Ir16  1  0.500000  0.727407  0.569782  1
  Ir  Ir17  1  0.500000  0.272593  0.430218  1
  Ir  Ir18  1  0.500000  0.000000  0.500000  1
  Ir  Ir19  1  0.500000  0.500000  0.000000  1
