# generated using pymatgen
data_KYbAsO4
_symmetry_space_group_name_H-M   'P 1'
_cell_length_a   5.76958731
_cell_length_b   5.87471400
_cell_length_c   7.28167205
_cell_angle_alpha   90.00000000
_cell_angle_beta   106.33191223
_cell_angle_gamma   90.00000000
_symmetry_Int_Tables_number   1
_chemical_formula_structural   KYbAsO4
_chemical_formula_sum   'K2 Yb2 As2 O8'
_cell_volume   236.85083869
_cell_formula_units_Z   2
loop_
 _symmetry_equiv_pos_site_id
 _symmetry_equiv_pos_as_xyz
  1  'x, y, z'
loop_
 _atom_site_type_symbol
 _atom_site_label
 _atom_site_symmetry_multiplicity
 _atom_site_fract_x
 _atom_site_fract_y
 _atom_site_fract_z
 _atom_site_occupancy
  K  K0  1  0.802116  0.250000  0.068874  1
  K  K1  1  0.197904  0.750001  0.931129  1
  Yb  Yb2  1  0.294599  0.750001  0.458850  1
  Yb  Yb3  1  0.705398  0.250000  0.541150  1
  As  As4  1  0.751786  0.750001  0.334502  1
  As  As5  1  0.248210  0.250000  0.665497  1
  O  O6  1  0.935792  0.750001  0.185828  1
  O  O7  1  0.553067  0.977640  0.306222  1
  O  O8  1  0.553067  0.522361  0.306222  1
  O  O9  1  0.057582  0.250000  0.436734  1
  O  O10  1  0.942413  0.750001  0.563266  1
  O  O11  1  0.446931  0.477642  0.693778  1
  O  O12  1  0.446931  0.022358  0.693778  1
  O  O13  1  0.064205  0.250000  0.814173  1
