# generated using pymatgen
data_Mn3CdP7N12
_symmetry_space_group_name_H-M   'P 1'
_cell_length_a   7.25163615
_cell_length_b   7.25163668
_cell_length_c   7.25163713
_cell_angle_alpha   109.34639022
_cell_angle_beta   109.34639653
_cell_angle_gamma   109.34639125
_symmetry_Int_Tables_number   1
_chemical_formula_structural   Mn3CdP7N12
_chemical_formula_sum   'Mn3 Cd1 P7 N12'
_cell_volume   294.90168329
_cell_formula_units_Z   1
loop_
 _symmetry_equiv_pos_site_id
 _symmetry_equiv_pos_as_xyz
  1  'x, y, z'
loop_
 _atom_site_type_symbol
 _atom_site_label
 _atom_site_symmetry_multiplicity
 _atom_site_fract_x
 _atom_site_fract_y
 _atom_site_fract_z
 _atom_site_occupancy
  Mn  Mn0  1  0.657304  0.000029  0.000029  1
  Mn  Mn1  1  0.000029  0.000029  0.657304  1
  Mn  Mn2  1  0.000029  0.657304  0.000029  1
  Cd  Cd3  1  0.295326  0.295326  0.295326  1
  P  P4  1  0.254799  0.754593  0.505180  1
  P  P5  1  0.754593  0.254799  0.505180  1
  P  P6  1  0.754593  0.505180  0.254799  1
  P  P7  1  0.254799  0.505180  0.754593  1
  P  P8  1  0.505180  0.754593  0.254799  1
  P  P9  1  0.505180  0.254799  0.754593  1
  P  P10  1  0.959275  0.959275  0.959275  1
  N  N11  1  0.723438  0.281229  0.281229  1
  N  N12  1  0.281229  0.723438  0.281229  1
  N  N13  1  0.288970  0.568190  0.568190  1
  N  N14  1  0.568190  0.568190  0.288970  1
  N  N15  1  0.440801  0.729157  0.003865  1
  N  N16  1  0.003865  0.729157  0.440801  1
  N  N17  1  0.568190  0.288970  0.568190  1
  N  N18  1  0.729157  0.003865  0.440801  1
  N  N19  1  0.440801  0.003865  0.729157  1
  N  N20  1  0.729157  0.440801  0.003865  1
  N  N21  1  0.281229  0.281229  0.723438  1
  N  N22  1  0.003865  0.440801  0.729157  1
