# generated using pymatgen
data_Cs2ErU(CuSe3)2
_symmetry_space_group_name_H-M   'P 1'
_cell_length_a   8.32733244
_cell_length_b   8.32733198
_cell_length_c   10.64891182
_cell_angle_alpha   90.08052764
_cell_angle_beta   90.08052767
_cell_angle_gamma   28.63538987
_symmetry_Int_Tables_number   1
_chemical_formula_structural   Cs2ErU(CuSe3)2
_chemical_formula_sum   'Cs2 Er1 U1 Cu2 Se6'
_cell_volume   353.88670029
_cell_formula_units_Z   1
loop_
 _symmetry_equiv_pos_site_id
 _symmetry_equiv_pos_as_xyz
  1  'x, y, z'
loop_
 _atom_site_type_symbol
 _atom_site_label
 _atom_site_symmetry_multiplicity
 _atom_site_fract_x
 _atom_site_fract_y
 _atom_site_fract_z
 _atom_site_occupancy
  Cs  Cs0  1  0.743238  0.743238  0.238719  1
  Cs  Cs1  1  0.256762  0.256762  0.761280  1
  Er  Er2  1  0.000000  0.000000  0.000000  1
  U  U3  1  0.000000  0.000000  0.500000  1
  Cu  Cu4  1  0.464710  0.464710  0.251032  1
  Cu  Cu5  1  0.535289  0.535289  0.748967  1
  Se  Se6  1  0.384959  0.384959  0.058538  1
  Se  Se7  1  0.614125  0.614125  0.553845  1
  Se  Se8  1  0.615041  0.615041  0.941462  1
  Se  Se9  1  0.385875  0.385875  0.446154  1
  Se  Se10  1  0.054493  0.054493  0.257779  1
  Se  Se11  1  0.945506  0.945506  0.742220  1
