# generated using pymatgen
data_Sr20Si4BiSb7
_symmetry_space_group_name_H-M   'P 1'
_cell_length_a   8.55841016
_cell_length_b   9.94840554
_cell_length_c   13.61615411
_cell_angle_alpha   89.99946030
_cell_angle_beta   90.04641688
_cell_angle_gamma   89.96241170
_symmetry_Int_Tables_number   1
_chemical_formula_structural   Sr20Si4BiSb7
_chemical_formula_sum   'Sr20 Si4 Bi1 Sb7'
_cell_volume   1159.31324900
_cell_formula_units_Z   1
loop_
 _symmetry_equiv_pos_site_id
 _symmetry_equiv_pos_as_xyz
  1  'x, y, z'
loop_
 _atom_site_type_symbol
 _atom_site_label
 _atom_site_symmetry_multiplicity
 _atom_site_fract_x
 _atom_site_fract_y
 _atom_site_fract_z
 _atom_site_occupancy
  Sr  Sr0  1  0.329769  0.972303  0.080074  1
  Sr  Sr1  1  0.827364  0.027714  0.420616  1
  Sr  Sr2  1  0.671965  0.472409  0.919535  1
  Sr  Sr3  1  0.172008  0.527508  0.580507  1
  Sr  Sr4  1  0.671857  0.027579  0.919253  1
  Sr  Sr5  1  0.172043  0.972467  0.580492  1
  Sr  Sr6  1  0.327944  0.527652  0.080436  1
  Sr  Sr7  1  0.828011  0.472397  0.419501  1
  Sr  Sr8  1  0.674753  0.748794  0.216333  1
  Sr  Sr9  1  0.176793  0.251193  0.284334  1
  Sr  Sr10  1  0.324203  0.249987  0.783816  1
  Sr  Sr11  1  0.824238  0.750027  0.716110  1
  Sr  Sr12  1  0.150562  0.748993  0.306044  1
  Sr  Sr13  1  0.648726  0.251073  0.194516  1
  Sr  Sr14  1  0.850200  0.250009  0.694390  1
  Sr  Sr15  1  0.350168  0.750009  0.805582  1
  Sr  Sr16  1  0.554407  0.750004  0.500427  1
  Sr  Sr17  1  0.054918  0.251114  0.998823  1
  Sr  Sr18  1  0.445602  0.249972  0.499664  1
  Sr  Sr19  1  0.945632  0.748716  0.999635  1
  Si  Si20  1  0.560114  0.749899  0.991556  1
  Si  Si21  1  0.060125  0.250075  0.508487  1
  Si  Si22  1  0.439956  0.250143  0.008330  1
  Si  Si23  1  0.939891  0.749898  0.491614  1
  Bi  Bi24  1  0.946906  0.005917  0.169551  1
  Sb  Sb25  1  0.448144  0.994220  0.330453  1
  Sb  Sb26  1  0.051903  0.505836  0.830407  1
  Sb  Sb27  1  0.551835  0.494196  0.669507  1
  Sb  Sb28  1  0.051869  0.994179  0.830471  1
  Sb  Sb29  1  0.551859  0.005808  0.669495  1
  Sb  Sb30  1  0.948088  0.494114  0.169522  1
  Sb  Sb31  1  0.448151  0.505797  0.330517  1
