# generated using pymatgen
data_Gd4Mg(SiB4)2
_symmetry_space_group_name_H-M   'P 1'
_cell_length_a   7.20800600
_cell_length_b   7.20800600
_cell_length_c   7.96413500
_cell_angle_alpha   90.00000000
_cell_angle_beta   90.00000000
_cell_angle_gamma   90.00000000
_symmetry_Int_Tables_number   1
_chemical_formula_structural   Gd4Mg(SiB4)2
_chemical_formula_sum   'Gd8 Mg2 Si4 B16'
_cell_volume   413.77942532
_cell_formula_units_Z   2
loop_
 _symmetry_equiv_pos_site_id
 _symmetry_equiv_pos_as_xyz
  1  'x, y, z'
loop_
 _atom_site_type_symbol
 _atom_site_label
 _atom_site_symmetry_multiplicity
 _atom_site_fract_x
 _atom_site_fract_y
 _atom_site_fract_z
 _atom_site_occupancy
  Gd  Gd0  1  0.683261  0.183261  0.234331  1
  Gd  Gd1  1  0.316739  0.816739  0.765669  1
  Gd  Gd2  1  0.316739  0.816739  0.234331  1
  Gd  Gd3  1  0.816739  0.683261  0.234331  1
  Gd  Gd4  1  0.816739  0.683261  0.765669  1
  Gd  Gd5  1  0.683261  0.183261  0.765669  1
  Gd  Gd6  1  0.183261  0.316739  0.765669  1
  Gd  Gd7  1  0.183261  0.316739  0.234331  1
  Mg  Mg8  1  0.000000  0.000000  0.500000  1
  Mg  Mg9  1  0.500000  0.500000  0.500000  1
  Si  Si10  1  0.114880  0.614880  0.500000  1
  Si  Si11  1  0.885120  0.385120  0.500000  1
  Si  Si12  1  0.385120  0.114880  0.500000  1
  Si  Si13  1  0.614880  0.885120  0.500000  1
  B  B14  1  0.173624  0.039913  0.000000  1
  B  B15  1  0.826376  0.960087  0.000000  1
  B  B16  1  0.960087  0.173624  0.000000  1
  B  B17  1  0.326376  0.539913  0.000000  1
  B  B18  1  0.039913  0.826376  0.000000  1
  B  B19  1  0.673624  0.460087  0.000000  1
  B  B20  1  0.539913  0.673624  0.000000  1
  B  B21  1  0.460087  0.326376  0.000000  1
  B  B22  1  0.089748  0.589748  0.000000  1
  B  B23  1  0.910252  0.410252  0.000000  1
  B  B24  1  0.410252  0.089748  0.000000  1
  B  B25  1  0.589748  0.910252  0.000000  1
  B  B26  1  0.000000  0.000000  0.159237  1
  B  B27  1  0.000000  0.000000  0.840763  1
  B  B28  1  0.500000  0.500000  0.840763  1
  B  B29  1  0.500000  0.500000  0.159237  1
