# generated using pymatgen
data_Gd8Fe(CuSi4)3
_symmetry_space_group_name_H-M   'P 1'
_cell_length_a   7.99924900
_cell_length_b   7.99924852
_cell_length_c   8.17040500
_cell_angle_alpha   90.00000000
_cell_angle_beta   90.00000000
_cell_angle_gamma   120.00000613
_symmetry_Int_Tables_number   1
_chemical_formula_structural   Gd8Fe(CuSi4)3
_chemical_formula_sum   'Gd8 Fe1 Cu3 Si12'
_cell_volume   452.76473671
_cell_formula_units_Z   1
loop_
 _symmetry_equiv_pos_site_id
 _symmetry_equiv_pos_as_xyz
  1  'x, y, z'
loop_
 _atom_site_type_symbol
 _atom_site_label
 _atom_site_symmetry_multiplicity
 _atom_site_fract_x
 _atom_site_fract_y
 _atom_site_fract_z
 _atom_site_occupancy
  Gd  Gd0  1  0.496651  0.993301  0.255154  1
  Gd  Gd1  1  0.496672  0.993346  0.744774  1
  Gd  Gd2  1  0.006699  0.503349  0.255154  1
  Gd  Gd3  1  0.006654  0.503328  0.744774  1
  Gd  Gd4  1  0.496651  0.503349  0.255154  1
  Gd  Gd5  1  0.496672  0.503328  0.744774  1
  Gd  Gd6  1  0.000000  0.000000  0.249631  1
  Gd  Gd7  1  0.000000  0.000000  0.750455  1
  Fe  Fe8  1  0.333333  0.666667  0.500702  1
  Cu  Cu9  1  0.333333  0.666667  0.000180  1
  Cu  Cu10  1  0.666667  0.333333  0.999813  1
  Cu  Cu11  1  0.666667  0.333333  0.499277  1
  Si  Si12  1  0.168481  0.336963  0.999769  1
  Si  Si13  1  0.831234  0.662467  0.000359  1
  Si  Si14  1  0.663037  0.831519  0.999769  1
  Si  Si15  1  0.833024  0.666046  0.500081  1
  Si  Si16  1  0.337533  0.168766  0.000359  1
  Si  Si17  1  0.172703  0.345405  0.499842  1
  Si  Si18  1  0.168481  0.831519  0.999769  1
  Si  Si19  1  0.333954  0.166976  0.500081  1
  Si  Si20  1  0.831234  0.168766  0.000359  1
  Si  Si21  1  0.654595  0.827297  0.499842  1
  Si  Si22  1  0.833024  0.166976  0.500081  1
  Si  Si23  1  0.172703  0.827297  0.499842  1
