# generated using pymatgen
data_SrHo(Al5Ru)4
_symmetry_space_group_name_H-M   'P 1'
_cell_length_a   6.88566701
_cell_length_b   6.88566768
_cell_length_c   9.19163800
_cell_angle_alpha   90.00000000
_cell_angle_beta   90.00000000
_cell_angle_gamma   96.76482619
_symmetry_Int_Tables_number   1
_chemical_formula_structural   SrHo(Al5Ru)4
_chemical_formula_sum   'Sr1 Ho1 Al20 Ru4'
_cell_volume   432.76373335
_cell_formula_units_Z   1
loop_
 _symmetry_equiv_pos_site_id
 _symmetry_equiv_pos_as_xyz
  1  'x, y, z'
loop_
 _atom_site_type_symbol
 _atom_site_label
 _atom_site_symmetry_multiplicity
 _atom_site_fract_x
 _atom_site_fract_y
 _atom_site_fract_z
 _atom_site_occupancy
  Sr  Sr0  1  0.877847  0.122153  0.750000  1
  Ho  Ho1  1  0.124656  0.875344  0.250000  1
  Al  Al2  1  0.622958  0.377042  0.544292  1
  Al  Al3  1  0.376625  0.623375  0.448147  1
  Al  Al4  1  0.376625  0.623375  0.051853  1
  Al  Al5  1  0.622958  0.377042  0.955708  1
  Al  Al6  1  0.226684  0.227893  0.497180  1
  Al  Al7  1  0.772107  0.773316  0.497180  1
  Al  Al8  1  0.772107  0.773316  0.002820  1
  Al  Al9  1  0.226684  0.227893  0.002820  1
  Al  Al10  1  0.844441  0.155559  0.101174  1
  Al  Al11  1  0.161808  0.838192  0.900794  1
  Al  Al12  1  0.161808  0.838192  0.599206  1
  Al  Al13  1  0.844441  0.155559  0.398826  1
  Al  Al14  1  0.860280  0.591062  0.750000  1
  Al  Al15  1  0.139775  0.415896  0.250000  1
  Al  Al16  1  0.408938  0.139720  0.750000  1
  Al  Al17  1  0.584104  0.860225  0.250000  1
  Al  Al18  1  0.222485  0.480751  0.750000  1
  Al  Al19  1  0.780550  0.520711  0.250000  1
  Al  Al20  1  0.519249  0.777515  0.750000  1
  Al  Al21  1  0.479289  0.219450  0.250000  1
  Ru  Ru22  1  0.999685  0.502893  0.497569  1
  Ru  Ru23  1  0.999685  0.502893  0.002431  1
  Ru  Ru24  1  0.497107  0.000315  0.002431  1
  Ru  Ru25  1  0.497107  0.000315  0.497569  1
