# generated using pymatgen
data_PuOsCl10
_symmetry_space_group_name_H-M   'P 1'
_cell_length_a   13.70599919
_cell_length_b   13.81293267
_cell_length_c   6.97452962
_cell_angle_alpha   85.53881537
_cell_angle_beta   86.44550809
_cell_angle_gamma   88.28559132
_symmetry_Int_Tables_number   1
_chemical_formula_structural   PuOsCl10
_chemical_formula_sum   'Pu3 Os3 Cl30'
_cell_volume   1313.46740350
_cell_formula_units_Z   3
loop_
 _symmetry_equiv_pos_site_id
 _symmetry_equiv_pos_as_xyz
  1  'x, y, z'
loop_
 _atom_site_type_symbol
 _atom_site_label
 _atom_site_symmetry_multiplicity
 _atom_site_fract_x
 _atom_site_fract_y
 _atom_site_fract_z
 _atom_site_occupancy
  Pu  Pu0  1  0.102018  0.897323  0.000508  1
  Pu  Pu1  1  0.434680  0.231488  0.566930  1
  Pu  Pu2  1  0.565431  0.768855  0.432668  1
  Os  Os3  1  0.896401  0.103497  0.999822  1
  Os  Os4  1  0.770929  0.562850  0.434113  1
  Os  Os5  1  0.229469  0.436750  0.565595  1
  Cl  Cl6  1  0.514125  0.310604  0.818455  1
  Cl  Cl7  1  0.257832  0.276595  0.735848  1
  Cl  Cl8  1  0.174001  0.972262  0.693873  1
  Cl  Cl9  1  0.611258  0.591030  0.602164  1
  Cl  Cl10  1  0.216760  0.581194  0.395107  1
  Cl  Cl11  1  0.742317  0.722777  0.263827  1
  Cl  Cl12  1  0.160804  0.358083  0.332438  1
  Cl  Cl13  1  0.060076  0.076997  0.120851  1
  Cl  Cl14  1  0.645682  0.846558  0.684637  1
  Cl  Cl15  1  0.592762  0.221412  0.379147  1
  Cl  Cl16  1  0.108642  0.736490  0.867482  1
  Cl  Cl17  1  0.028301  0.823850  0.307225  1
  Cl  Cl18  1  0.915686  0.550464  0.265019  1
  Cl  Cl19  1  0.834917  0.028587  0.284118  1
  Cl  Cl20  1  0.407804  0.778315  0.621484  1
  Cl  Cl21  1  0.784286  0.418296  0.604644  1
  Cl  Cl22  1  0.555560  0.926330  0.241329  1
  Cl  Cl23  1  0.970306  0.166683  0.715833  1
  Cl  Cl24  1  0.839449  0.641692  0.667149  1
  Cl  Cl25  1  0.886675  0.250262  0.120401  1
  Cl  Cl26  1  0.486169  0.689575  0.181542  1
  Cl  Cl27  1  0.354053  0.154028  0.315062  1
  Cl  Cl28  1  0.084848  0.449047  0.734730  1
  Cl  Cl29  1  0.748028  0.113845  0.877763  1
  Cl  Cl30  1  0.445914  0.074010  0.757951  1
  Cl  Cl31  1  0.389184  0.408803  0.396811  1
  Cl  Cl32  1  0.309907  0.502881  0.799564  1
  Cl  Cl33  1  0.264068  0.890790  0.136622  1
  Cl  Cl34  1  0.921080  0.941496  0.878881  1
  Cl  Cl35  1  0.690581  0.496277  0.200408  1
