# generated using pymatgen
data_Y5Tm15(Cd3Pt)2
_symmetry_space_group_name_H-M   'P 1'
_cell_length_a   9.64968905
_cell_length_b   9.64968684
_cell_length_c   9.60329600
_cell_angle_alpha   90.00000000
_cell_angle_beta   90.00000000
_cell_angle_gamma   120.01154147
_symmetry_Int_Tables_number   1
_chemical_formula_structural   Y5Tm15(Cd3Pt)2
_chemical_formula_sum   'Y5 Tm15 Cd6 Pt2'
_cell_volume   774.33156865
_cell_formula_units_Z   1
loop_
 _symmetry_equiv_pos_site_id
 _symmetry_equiv_pos_as_xyz
  1  'x, y, z'
loop_
 _atom_site_type_symbol
 _atom_site_label
 _atom_site_symmetry_multiplicity
 _atom_site_fract_x
 _atom_site_fract_y
 _atom_site_fract_z
 _atom_site_occupancy
  Y  Y0  1  0.541749  0.084301  0.750000  1
  Y  Y1  1  0.915699  0.458251  0.750000  1
  Y  Y2  1  0.458295  0.541705  0.250000  1
  Y  Y3  1  0.458217  0.916701  0.250000  1
  Y  Y4  1  0.083299  0.541783  0.250000  1
  Tm  Tm5  1  0.207710  0.792290  0.940277  1
  Tm  Tm6  1  0.208474  0.415326  0.940086  1
  Tm  Tm7  1  0.584674  0.791526  0.940086  1
  Tm  Tm8  1  0.792235  0.207765  0.059515  1
  Tm  Tm9  1  0.791674  0.584272  0.058965  1
  Tm  Tm10  1  0.415728  0.208326  0.058965  1
  Tm  Tm11  1  0.792235  0.207765  0.440485  1
  Tm  Tm12  1  0.791674  0.584272  0.441035  1
  Tm  Tm13  1  0.415728  0.208326  0.441035  1
  Tm  Tm14  1  0.207710  0.792290  0.559723  1
  Tm  Tm15  1  0.208474  0.415326  0.559914  1
  Tm  Tm16  1  0.584674  0.791526  0.559914  1
  Tm  Tm17  1  0.541575  0.458425  0.750000  1
  Tm  Tm18  1  0.999974  0.000026  0.000154  1
  Tm  Tm19  1  0.999974  0.000026  0.499846  1
  Cd  Cd20  1  0.885147  0.114853  0.750000  1
  Cd  Cd21  1  0.884134  0.769352  0.750000  1
  Cd  Cd22  1  0.230648  0.115866  0.750000  1
  Cd  Cd23  1  0.114762  0.885238  0.250000  1
  Cd  Cd24  1  0.114942  0.229628  0.250000  1
  Cd  Cd25  1  0.770372  0.885058  0.250000  1
  Pt  Pt26  1  0.333480  0.666520  0.750000  1
  Pt  Pt27  1  0.666742  0.333258  0.250000  1
