# generated using pymatgen
data_Pr6Ho10Cd4Ir3Os
_symmetry_space_group_name_H-M   'P 1'
_cell_length_a   9.78720704
_cell_length_b   9.78720693
_cell_length_c   9.78720664
_cell_angle_alpha   59.57429079
_cell_angle_beta   59.57429205
_cell_angle_gamma   59.57429590
_symmetry_Int_Tables_number   1
_chemical_formula_structural   Pr6Ho10Cd4Ir3Os
_chemical_formula_sum   'Pr6 Ho10 Cd4 Ir3 Os1'
_cell_volume   656.50497270
_cell_formula_units_Z   1
loop_
 _symmetry_equiv_pos_site_id
 _symmetry_equiv_pos_as_xyz
  1  'x, y, z'
loop_
 _atom_site_type_symbol
 _atom_site_label
 _atom_site_symmetry_multiplicity
 _atom_site_fract_x
 _atom_site_fract_y
 _atom_site_fract_z
 _atom_site_occupancy
  Pr  Pr0  1  0.939825  0.558901  0.558901  1
  Pr  Pr1  1  0.554339  0.942761  0.942761  1
  Pr  Pr2  1  0.558901  0.939825  0.558901  1
  Pr  Pr3  1  0.942761  0.554339  0.942761  1
  Pr  Pr4  1  0.558901  0.558901  0.939825  1
  Pr  Pr5  1  0.942761  0.942761  0.554339  1
  Ho  Ho6  1  0.346678  0.346678  0.346678  1
  Ho  Ho7  1  0.346680  0.346680  0.962068  1
  Ho  Ho8  1  0.346680  0.962068  0.346680  1
  Ho  Ho9  1  0.962068  0.346680  0.346680  1
  Ho  Ho10  1  0.813432  0.186637  0.186637  1
  Ho  Ho11  1  0.186436  0.812555  0.812555  1
  Ho  Ho12  1  0.186637  0.813432  0.186637  1
  Ho  Ho13  1  0.812555  0.186436  0.812555  1
  Ho  Ho14  1  0.186637  0.186637  0.813432  1
  Ho  Ho15  1  0.812555  0.812555  0.186436  1
  Cd  Cd16  1  0.578643  0.578643  0.578643  1
  Cd  Cd17  1  0.579051  0.579051  0.262272  1
  Cd  Cd18  1  0.579051  0.262272  0.579051  1
  Cd  Cd19  1  0.262272  0.579051  0.579051  1
  Ir  Ir20  1  0.142059  0.142059  0.578034  1
  Ir  Ir21  1  0.142059  0.578034  0.142059  1
  Ir  Ir22  1  0.578034  0.142059  0.142059  1
  Os  Os23  1  0.140985  0.140985  0.140985  1
