# generated using pymatgen
data_Er5Si12Ir4Rh15
_symmetry_space_group_name_H-M   'P 1'
_cell_length_a   12.79150500
_cell_length_b   12.79150501
_cell_length_c   3.96340400
_cell_angle_alpha   90.00000000
_cell_angle_beta   90.00000000
_cell_angle_gamma   120.00000257
_symmetry_Int_Tables_number   1
_chemical_formula_structural   Er5Si12Ir4Rh15
_chemical_formula_sum   'Er5 Si12 Ir4 Rh15'
_cell_volume   561.61959736
_cell_formula_units_Z   1
loop_
 _symmetry_equiv_pos_site_id
 _symmetry_equiv_pos_as_xyz
  1  'x, y, z'
loop_
 _atom_site_type_symbol
 _atom_site_label
 _atom_site_symmetry_multiplicity
 _atom_site_fract_x
 _atom_site_fract_y
 _atom_site_fract_z
 _atom_site_occupancy
  Er  Er0  1  0.666667  0.333333  0.000000  1
  Er  Er1  1  0.333333  0.666667  0.000000  1
  Er  Er2  1  0.814988  0.815075  0.500000  1
  Er  Er3  1  0.184925  0.999913  0.500000  1
  Er  Er4  1  0.000087  0.185012  0.500000  1
  Si  Si5  1  0.686414  0.165700  0.500000  1
  Si  Si6  1  0.834300  0.520712  0.500000  1
  Si  Si7  1  0.479288  0.313586  0.500000  1
  Si  Si8  1  0.165645  0.686299  0.500000  1
  Si  Si9  1  0.520654  0.834355  0.500000  1
  Si  Si10  1  0.313701  0.479346  0.500000  1
  Si  Si11  1  0.629209  0.629622  0.000000  1
  Si  Si12  1  0.370378  0.999587  0.000000  1
  Si  Si13  1  0.000413  0.370791  0.000000  1
  Si  Si14  1  0.183195  0.182667  0.000000  1
  Si  Si15  1  0.817333  0.000528  0.000000  1
  Si  Si16  1  0.999472  0.816805  0.000000  1
  Ir  Ir17  1  0.359257  0.873162  0.500000  1
  Ir  Ir18  1  0.513908  0.640743  0.500000  1
  Ir  Ir19  1  0.126838  0.486092  0.500000  1
  Ir  Ir20  1  0.000000  0.000000  0.000000  1
  Rh  Rh21  1  0.806998  0.183034  0.000000  1
  Rh  Rh22  1  0.816966  0.623964  0.000000  1
  Rh  Rh23  1  0.376036  0.193002  0.000000  1
  Rh  Rh24  1  0.182013  0.806878  0.000000  1
  Rh  Rh25  1  0.624865  0.817987  0.000000  1
  Rh  Rh26  1  0.193122  0.375135  0.000000  1
  Rh  Rh27  1  0.446170  0.445855  0.000000  1
  Rh  Rh28  1  0.554145  0.000314  0.000000  1
  Rh  Rh29  1  0.999686  0.553830  0.000000  1
  Rh  Rh30  1  0.280284  0.280335  0.500000  1
  Rh  Rh31  1  0.719665  0.999949  0.500000  1
  Rh  Rh32  1  0.000051  0.719716  0.500000  1
  Rh  Rh33  1  0.873070  0.359943  0.500000  1
  Rh  Rh34  1  0.640057  0.513129  0.500000  1
  Rh  Rh35  1  0.486871  0.126930  0.500000  1
