# generated using pymatgen
data_Sm6Ga5GeRh12
_symmetry_space_group_name_H-M   'P 1'
_cell_length_a   5.62873700
_cell_length_b   5.62873655
_cell_length_c   15.77675700
_cell_angle_alpha   90.00000000
_cell_angle_beta   90.00000000
_cell_angle_gamma   119.99999678
_symmetry_Int_Tables_number   1
_chemical_formula_structural   Sm6Ga5GeRh12
_chemical_formula_sum   'Sm6 Ga5 Ge1 Rh12'
_cell_volume   432.88273135
_cell_formula_units_Z   1
loop_
 _symmetry_equiv_pos_site_id
 _symmetry_equiv_pos_as_xyz
  1  'x, y, z'
loop_
 _atom_site_type_symbol
 _atom_site_label
 _atom_site_symmetry_multiplicity
 _atom_site_fract_x
 _atom_site_fract_y
 _atom_site_fract_z
 _atom_site_occupancy
  Sm  Sm0  1  0.666667  0.333333  0.958869  1
  Sm  Sm1  1  0.666667  0.333333  0.541131  1
  Sm  Sm2  1  0.333333  0.666667  0.039245  1
  Sm  Sm3  1  0.666667  0.333333  0.750000  1
  Sm  Sm4  1  0.333333  0.666667  0.460755  1
  Sm  Sm5  1  0.333333  0.666667  0.250000  1
  Ga  Ga6  1  0.666667  0.333333  0.250000  1
  Ga  Ga7  1  0.000000  0.000000  0.500567  1
  Ga  Ga8  1  0.000000  0.000000  0.250000  1
  Ga  Ga9  1  0.000000  0.000000  0.750000  1
  Ga  Ga10  1  0.000000  0.000000  0.999433  1
  Ge  Ge11  1  0.333333  0.666667  0.750000  1
  Rh  Rh12  1  0.168180  0.336360  0.871885  1
  Rh  Rh13  1  0.168180  0.336360  0.628115  1
  Rh  Rh14  1  0.663640  0.831820  0.871885  1
  Rh  Rh15  1  0.336959  0.168479  0.373837  1
  Rh  Rh16  1  0.831521  0.663041  0.373837  1
  Rh  Rh17  1  0.831521  0.168479  0.373837  1
  Rh  Rh18  1  0.831521  0.168479  0.126163  1
  Rh  Rh19  1  0.336959  0.168479  0.126163  1
  Rh  Rh20  1  0.663640  0.831820  0.628115  1
  Rh  Rh21  1  0.168180  0.831820  0.628115  1
  Rh  Rh22  1  0.831521  0.663041  0.126163  1
  Rh  Rh23  1  0.168180  0.831820  0.871885  1
