# generated using pymatgen
data_CsNa3(Ga2S3)2
_symmetry_space_group_name_H-M   'P 1'
_cell_length_a   6.84868301
_cell_length_b   6.84868295
_cell_length_c   8.67373335
_cell_angle_alpha   82.23167563
_cell_angle_beta   82.23167866
_cell_angle_gamma   120.07467536
_symmetry_Int_Tables_number   1
_chemical_formula_structural   CsNa3(Ga2S3)2
_chemical_formula_sum   'Cs1 Na3 Ga4 S6'
_cell_volume   338.92657675
_cell_formula_units_Z   1
loop_
 _symmetry_equiv_pos_site_id
 _symmetry_equiv_pos_as_xyz
  1  'x, y, z'
loop_
 _atom_site_type_symbol
 _atom_site_label
 _atom_site_symmetry_multiplicity
 _atom_site_fract_x
 _atom_site_fract_y
 _atom_site_fract_z
 _atom_site_occupancy
  Cs  Cs0  1  0.500000  0.500000  0.500000  1
  Na  Na1  1  0.656848  0.343152  0.000000  1
  Na  Na2  1  0.343152  0.656848  0.000000  1
  Na  Na3  1  0.000000  0.000000  0.000000  1
  Ga  Ga4  1  0.882622  0.216588  0.349905  1
  Ga  Ga5  1  0.783412  0.117378  0.650095  1
  Ga  Ga6  1  0.216588  0.882622  0.349905  1
  Ga  Ga7  1  0.117378  0.783412  0.650095  1
  S  S8  1  0.408110  0.025406  0.773646  1
  S  S9  1  0.025406  0.408110  0.773646  1
  S  S10  1  0.974594  0.591890  0.226354  1
  S  S11  1  0.788106  0.788106  0.775643  1
  S  S12  1  0.591890  0.974594  0.226354  1
  S  S13  1  0.211894  0.211894  0.224357  1
