# generated using pymatgen
data_Er3Tm5Re2(B12Rh)2
_symmetry_space_group_name_H-M   'P 1'
_cell_length_a   3.64487400
_cell_length_b   9.08556527
_cell_length_c   11.47294600
_cell_angle_alpha   90.41189910
_cell_angle_beta   90.00000000
_cell_angle_gamma   90.00000000
_symmetry_Int_Tables_number   1
_chemical_formula_structural   Er3Tm5Re2(B12Rh)2
_chemical_formula_sum   'Er3 Tm5 Re2 B24 Rh2'
_cell_volume   379.92528634
_cell_formula_units_Z   1
loop_
 _symmetry_equiv_pos_site_id
 _symmetry_equiv_pos_as_xyz
  1  'x, y, z'
loop_
 _atom_site_type_symbol
 _atom_site_label
 _atom_site_symmetry_multiplicity
 _atom_site_fract_x
 _atom_site_fract_y
 _atom_site_fract_z
 _atom_site_occupancy
  Er  Er0  1  0.500000  0.317905  0.410750  1
  Er  Er1  1  0.500000  0.682102  0.589225  1
  Er  Er2  1  0.500000  0.174034  0.917404  1
  Tm  Tm3  1  0.500000  0.825997  0.082509  1
  Tm  Tm4  1  0.500000  0.442732  0.126604  1
  Tm  Tm5  1  0.500000  0.557366  0.873455  1
  Tm  Tm6  1  0.500000  0.054488  0.627973  1
  Tm  Tm7  1  0.500000  0.945447  0.372009  1
  Re  Re8  1  0.500000  0.138982  0.179949  1
  Re  Re9  1  0.500000  0.860848  0.820096  1
  B  B10  1  0.000000  0.106702  0.471244  1
  B  B11  1  0.000000  0.893290  0.528747  1
  B  B12  1  0.000000  0.394585  0.970792  1
  B  B13  1  0.000000  0.605628  0.029270  1
  B  B14  1  0.000000  0.131778  0.315279  1
  B  B15  1  0.000000  0.868193  0.684710  1
  B  B16  1  0.000000  0.367596  0.816893  1
  B  B17  1  0.000000  0.632578  0.183022  1
  B  B18  1  0.000000  0.052911  0.067185  1
  B  B19  1  0.000000  0.946886  0.932916  1
  B  B20  1  0.000000  0.445649  0.565607  1
  B  B21  1  0.000000  0.554370  0.434374  1
  B  B22  1  0.000000  0.483269  0.287612  1
  B  B23  1  0.000000  0.516766  0.712394  1
  B  B24  1  0.000000  0.017499  0.786797  1
  B  B25  1  0.000000  0.982305  0.213149  1
  B  B26  1  0.000000  0.249053  0.080930  1
  B  B27  1  0.000000  0.750958  0.919253  1
  B  B28  1  0.000000  0.250458  0.578507  1
  B  B29  1  0.000000  0.749525  0.421473  1
  B  B30  1  0.000000  0.293529  0.234936  1
  B  B31  1  0.000000  0.706472  0.765086  1
  B  B32  1  0.000000  0.208289  0.734867  1
  B  B33  1  0.000000  0.791761  0.265011  1
  Rh  Rh34  1  0.500000  0.361805  0.678753  1
  Rh  Rh35  1  0.500000  0.638242  0.321222  1
