# generated using pymatgen
data_Y2Er8In8Pd3Ru
_symmetry_space_group_name_H-M   'P 1'
_cell_length_a   3.58132000
_cell_length_b   8.14704187
_cell_length_c   18.28728634
_cell_angle_alpha   90.03745338
_cell_angle_beta   90.00000000
_cell_angle_gamma   90.00000000
_symmetry_Int_Tables_number   1
_chemical_formula_structural   Y2Er8In8Pd3Ru
_chemical_formula_sum   'Y2 Er8 In8 Pd3 Ru1'
_cell_volume   533.57103834
_cell_formula_units_Z   1
loop_
 _symmetry_equiv_pos_site_id
 _symmetry_equiv_pos_as_xyz
  1  'x, y, z'
loop_
 _atom_site_type_symbol
 _atom_site_label
 _atom_site_symmetry_multiplicity
 _atom_site_fract_x
 _atom_site_fract_y
 _atom_site_fract_z
 _atom_site_occupancy
  Y  Y0  1  0.000000  0.499768  0.499661  1
  Y  Y1  1  0.000000  0.000427  0.000961  1
  Er  Er2  1  0.000000  0.728804  0.277326  1
  Er  Er3  1  0.000000  0.260310  0.720053  1
  Er  Er4  1  0.000000  0.760284  0.779716  1
  Er  Er5  1  0.000000  0.250815  0.220645  1
  Er  Er6  1  0.000000  0.615542  0.086719  1
  Er  Er7  1  0.000000  0.383316  0.916068  1
  Er  Er8  1  0.000000  0.884094  0.583469  1
  Er  Er9  1  0.000000  0.118054  0.414935  1
  In  In10  1  0.500000  0.708622  0.931831  1
  In  In11  1  0.500000  0.293951  0.069541  1
  In  In12  1  0.500000  0.792708  0.432148  1
  In  In13  1  0.500000  0.207658  0.567712  1
  In  In14  1  0.500000  0.580374  0.649972  1
  In  In15  1  0.500000  0.424904  0.349733  1
  In  In16  1  0.500000  0.919958  0.150616  1
  In  In17  1  0.500000  0.079467  0.850061  1
  Pd  Pd18  1  0.500000  0.477290  0.803871  1
  Pd  Pd19  1  0.500000  0.977165  0.695855  1
  Pd  Pd20  1  0.500000  0.018668  0.303703  1
  Ru  Ru21  1  0.500000  0.517821  0.195402  1
