# generated using pymatgen
data_Dy(FeSb3)4
_symmetry_space_group_name_H-M   'P 1'
_cell_length_a   7.94933625
_cell_length_b   7.94933771
_cell_length_c   7.94933600
_cell_angle_alpha   109.47121883
_cell_angle_beta   109.47122255
_cell_angle_gamma   109.47122221
_symmetry_Int_Tables_number   1
_chemical_formula_structural   Dy(FeSb3)4
_chemical_formula_sum   'Dy1 Fe4 Sb12'
_cell_volume   386.69696984
_cell_formula_units_Z   1
loop_
 _symmetry_equiv_pos_site_id
 _symmetry_equiv_pos_as_xyz
  1  'x, y, z'
loop_
 _atom_site_type_symbol
 _atom_site_label
 _atom_site_symmetry_multiplicity
 _atom_site_fract_x
 _atom_site_fract_y
 _atom_site_fract_z
 _atom_site_occupancy
  Dy  Dy0  1  0.000000  0.000000  0.000000  1
  Fe  Fe1  1  0.500000  0.000000  0.000000  1
  Fe  Fe2  1  0.000000  0.500000  0.000000  1
  Fe  Fe3  1  0.000000  0.000000  0.500000  1
  Fe  Fe4  1  0.500000  0.500000  0.500000  1
  Sb  Sb5  1  0.332858  0.494734  0.161877  1
  Sb  Sb6  1  0.667142  0.829019  0.161877  1
  Sb  Sb7  1  0.838123  0.332858  0.170981  1
  Sb  Sb8  1  0.494734  0.161877  0.332858  1
  Sb  Sb9  1  0.170981  0.838123  0.332858  1
  Sb  Sb10  1  0.161877  0.332858  0.494734  1
  Sb  Sb11  1  0.838123  0.667142  0.505266  1
  Sb  Sb12  1  0.505266  0.838123  0.667142  1
  Sb  Sb13  1  0.829019  0.161877  0.667142  1
  Sb  Sb14  1  0.161877  0.667142  0.829019  1
  Sb  Sb15  1  0.332858  0.170981  0.838123  1
  Sb  Sb16  1  0.667142  0.505266  0.838123  1
