# generated using pymatgen
data_Tb8CrTc3C8
_symmetry_space_group_name_H-M   'P 1'
_cell_length_a   5.12659100
_cell_length_b   6.56636193
_cell_length_c   9.91238540
_cell_angle_alpha   90.06089978
_cell_angle_beta   90.00000000
_cell_angle_gamma   90.00000000
_symmetry_Int_Tables_number   1
_chemical_formula_structural   Tb8CrTc3C8
_chemical_formula_sum   'Tb8 Cr1 Tc3 C8'
_cell_volume   333.68095626
_cell_formula_units_Z   1
loop_
 _symmetry_equiv_pos_site_id
 _symmetry_equiv_pos_as_xyz
  1  'x, y, z'
loop_
 _atom_site_type_symbol
 _atom_site_label
 _atom_site_symmetry_multiplicity
 _atom_site_fract_x
 _atom_site_fract_y
 _atom_site_fract_z
 _atom_site_occupancy
  Tb  Tb0  1  0.750000  0.823391  0.056069  1
  Tb  Tb1  1  0.250000  0.679854  0.554777  1
  Tb  Tb2  1  0.750000  0.316992  0.442159  1
  Tb  Tb3  1  0.250000  0.182889  0.946497  1
  Tb  Tb4  1  0.750000  0.467316  0.784694  1
  Tb  Tb5  1  0.250000  0.030436  0.283774  1
  Tb  Tb6  1  0.750000  0.966180  0.714402  1
  Tb  Tb7  1  0.250000  0.531120  0.218167  1
  Cr  Cr8  1  0.750000  0.276634  0.139175  1
  Tc  Tc9  1  0.250000  0.220529  0.635102  1
  Tc  Tc10  1  0.750000  0.776558  0.361782  1
  Tc  Tc11  1  0.250000  0.721647  0.863713  1
  C  C12  1  0.750000  0.190781  0.964053  1
  C  C13  1  0.250000  0.819155  0.045677  1
  C  C14  1  0.750000  0.680801  0.545045  1
  C  C15  1  0.250000  0.318827  0.452148  1
  C  C16  1  0.750000  0.049895  0.255709  1
  C  C17  1  0.250000  0.453239  0.758246  1
  C  C18  1  0.750000  0.538667  0.237247  1
  C  C19  1  0.250000  0.955088  0.741565  1
