# generated using pymatgen
data_PaH5
_symmetry_space_group_name_H-M   'P 1'
_cell_length_a   3.50837534
_cell_length_b   4.01700373
_cell_length_c   4.01279672
_cell_angle_alpha   115.84060577
_cell_angle_beta   64.14231730
_cell_angle_gamma   115.90170396
_symmetry_Int_Tables_number   1
_chemical_formula_structural   PaH5
_chemical_formula_sum   'Pa1 H5'
_cell_volume   43.62519914
_cell_formula_units_Z   1
loop_
 _symmetry_equiv_pos_site_id
 _symmetry_equiv_pos_as_xyz
  1  'x, y, z'
loop_
 _atom_site_type_symbol
 _atom_site_label
 _atom_site_symmetry_multiplicity
 _atom_site_fract_x
 _atom_site_fract_y
 _atom_site_fract_z
 _atom_site_occupancy
  Pa  Pa0  1  0.375171  0.655860  0.853778  1
  H  H1  1  0.040635  0.581529  0.448311  1
  H  H2  1  0.711216  0.250929  0.776921  1
  H  H3  1  0.038756  0.062081  0.932874  1
  H  H4  1  0.372097  0.152758  0.356371  1
  H  H5  1  0.710936  0.726982  0.255553  1
