# generated using pymatgen
data_PaCuNiTe2
_symmetry_space_group_name_H-M   'P 1'
_cell_length_a   4.28622200
_cell_length_b   4.28622151
_cell_length_c   15.58606500
_cell_angle_alpha   90.00000000
_cell_angle_beta   90.00000000
_cell_angle_gamma   120.00001918
_symmetry_Int_Tables_number   1
_chemical_formula_structural   PaCuNiTe2
_chemical_formula_sum   'Pa2 Cu2 Ni2 Te4'
_cell_volume   247.97979907
_cell_formula_units_Z   2
loop_
 _symmetry_equiv_pos_site_id
 _symmetry_equiv_pos_as_xyz
  1  'x, y, z'
loop_
 _atom_site_type_symbol
 _atom_site_label
 _atom_site_symmetry_multiplicity
 _atom_site_fract_x
 _atom_site_fract_y
 _atom_site_fract_z
 _atom_site_occupancy
  Pa  Pa0  1  0.333333  0.666667  0.257283  1
  Pa  Pa1  1  0.666667  0.333333  0.757283  1
  Cu  Cu2  1  0.000000  0.000000  0.164799  1
  Cu  Cu3  1  0.000000  0.000000  0.664799  1
  Ni  Ni4  1  0.000000  0.000000  0.826965  1
  Ni  Ni5  1  0.000000  0.000000  0.326965  1
  Te  Te6  1  0.333333  0.666667  0.609052  1
  Te  Te7  1  0.666667  0.333333  0.109052  1
  Te  Te8  1  0.666667  0.333333  0.391900  1
  Te  Te9  1  0.333333  0.666667  0.891900  1
