# generated using pymatgen
data_Ho4Tm5Lu3Co5Sn
_symmetry_space_group_name_H-M   'P 1'
_cell_length_a   8.15311592
_cell_length_b   8.15503462
_cell_length_c   8.15311526
_cell_angle_alpha   106.64645516
_cell_angle_beta   110.66610865
_cell_angle_gamma   111.12852266
_symmetry_Int_Tables_number   1
_chemical_formula_structural   Ho4Tm5Lu3Co5Sn
_chemical_formula_sum   'Ho4 Tm5 Lu3 Co5 Sn1'
_cell_volume   416.58871693
_cell_formula_units_Z   1
loop_
 _symmetry_equiv_pos_site_id
 _symmetry_equiv_pos_as_xyz
  1  'x, y, z'
loop_
 _atom_site_type_symbol
 _atom_site_label
 _atom_site_symmetry_multiplicity
 _atom_site_fract_x
 _atom_site_fract_y
 _atom_site_fract_z
 _atom_site_occupancy
  Ho  Ho0  1  0.194073  0.211873  0.406426  1
  Ho  Ho1  1  0.806500  0.788193  0.594278  1
  Ho  Ho2  1  0.193916  0.788193  0.981692  1
  Ho  Ho3  1  0.805446  0.211873  0.017800  1
  Tm  Tm4  1  0.474914  0.289083  0.185080  1
  Tm  Tm5  1  0.104003  0.289083  0.814169  1
  Tm  Tm6  1  0.895351  0.710787  0.185280  1
  Tm  Tm7  1  0.525507  0.710787  0.815436  1
  Tm  Tm8  1  0.306074  0.620227  0.314153  1
  Lu  Lu9  1  0.306680  0.992207  0.685526  1
  Lu  Lu10  1  0.693381  0.379000  0.685620  1
  Lu  Lu11  1  0.693373  0.008183  0.314812  1
  Co  Co12  1  0.500304  0.612848  0.112545  1
  Co  Co13  1  0.499791  0.386352  0.886561  1
  Co  Co14  1  0.376896  0.000879  0.376758  1
  Co  Co15  1  0.624120  0.000879  0.623983  1
  Co  Co16  1  0.000171  0.000342  0.000170  1
  Sn  Sn17  1  0.999500  0.499212  0.499712  1
