# generated using pymatgen
data_Er4Ta(ReN4)3
_symmetry_space_group_name_H-M   'P 1'
_cell_length_a   7.36025334
_cell_length_b   7.41240195
_cell_length_c   6.28755341
_cell_angle_alpha   72.30171608
_cell_angle_beta   73.08775161
_cell_angle_gamma   81.28954168
_symmetry_Int_Tables_number   1
_chemical_formula_structural   Er4Ta(ReN4)3
_chemical_formula_sum   'Er4 Ta1 Re3 N12'
_cell_volume   311.91426916
_cell_formula_units_Z   1
loop_
 _symmetry_equiv_pos_site_id
 _symmetry_equiv_pos_as_xyz
  1  'x, y, z'
loop_
 _atom_site_type_symbol
 _atom_site_label
 _atom_site_symmetry_multiplicity
 _atom_site_fract_x
 _atom_site_fract_y
 _atom_site_fract_z
 _atom_site_occupancy
  Er  Er0  1  0.908742  0.091400  0.751775  1
  Er  Er1  1  0.097434  0.908532  0.247186  1
  Er  Er2  1  0.706813  0.274793  0.254744  1
  Er  Er3  1  0.285208  0.712915  0.750679  1
  Ta  Ta4  1  0.624204  0.796177  0.280823  1
  Re  Re5  1  0.200043  0.378997  0.217794  1
  Re  Re6  1  0.377756  0.205004  0.719249  1
  Re  Re7  1  0.796146  0.618636  0.785950  1
  N  N8  1  0.664307  0.615193  0.084438  1
  N  N9  1  0.367896  0.877687  0.352121  1
  N  N10  1  0.359874  0.331859  0.417943  1
  N  N11  1  0.127291  0.630153  0.156618  1
  N  N12  1  0.002208  0.223128  0.334966  1
  N  N13  1  0.792223  0.002827  0.146554  1
  N  N14  1  0.225131  0.003970  0.837996  1
  N  N15  1  0.632278  0.137035  0.655288  1
  N  N16  1  0.331165  0.363749  0.916822  1
  N  N17  1  0.887597  0.379652  0.823489  1
  N  N18  1  0.625856  0.664019  0.603658  1
  N  N19  1  0.987825  0.784275  0.661908  1
