# generated using pymatgen
data_Tb6Zr2Ti5Si16Mo7
_symmetry_space_group_name_H-M   'P 1'
_cell_length_a   6.91062101
_cell_length_b   6.90201196
_cell_length_c   12.77932874
_cell_angle_alpha   90.06322891
_cell_angle_beta   90.11155994
_cell_angle_gamma   89.97217845
_symmetry_Int_Tables_number   1
_chemical_formula_structural   Tb6Zr2Ti5Si16Mo7
_chemical_formula_sum   'Tb6 Zr2 Ti5 Si16 Mo7'
_cell_volume   609.53645861
_cell_formula_units_Z   1
loop_
 _symmetry_equiv_pos_site_id
 _symmetry_equiv_pos_as_xyz
  1  'x, y, z'
loop_
 _atom_site_type_symbol
 _atom_site_label
 _atom_site_symmetry_multiplicity
 _atom_site_fract_x
 _atom_site_fract_y
 _atom_site_fract_z
 _atom_site_occupancy
  Tb  Tb0  1  0.502249  0.161122  0.218839  1
  Tb  Tb1  1  0.840497  0.496209  0.283184  1
  Tb  Tb2  1  0.161423  0.503741  0.780821  1
  Tb  Tb3  1  0.659913  0.997703  0.968341  1
  Tb  Tb4  1  0.004355  0.337966  0.532280  1
  Tb  Tb5  1  0.996733  0.661741  0.031068  1
  Zr  Zr6  1  0.345163  0.994750  0.466272  1
  Zr  Zr7  1  0.505255  0.847432  0.715953  1
  Ti  Ti8  1  0.330725  0.330988  0.998126  1
  Ti  Ti9  1  0.171192  0.829871  0.251156  1
  Ti  Ti10  1  0.826956  0.167768  0.749232  1
  Ti  Ti11  1  0.666129  0.670455  0.500412  1
  Ti  Ti12  1  0.993757  0.842920  0.625087  1
  Si  Si13  1  0.209203  0.123279  0.679875  1
  Si  Si14  1  0.371941  0.704261  0.930973  1
  Si  Si15  1  0.624244  0.293978  0.434559  1
  Si  Si16  1  0.700817  0.372763  0.065679  1
  Si  Si17  1  0.301086  0.635957  0.569580  1
  Si  Si18  1  0.800289  0.871778  0.185030  1
  Si  Si19  1  0.130930  0.198113  0.320263  1
  Si  Si20  1  0.868486  0.798035  0.814485  1
  Si  Si21  1  0.288922  0.959417  0.062593  1
  Si  Si22  1  0.540499  0.789936  0.314838  1
  Si  Si23  1  0.456793  0.206383  0.811857  1
  Si  Si24  1  0.784952  0.544217  0.686925  1
  Si  Si25  1  0.211384  0.457974  0.187403  1
  Si  Si26  1  0.705165  0.041873  0.564300  1
  Si  Si27  1  0.959121  0.289319  0.936619  1
  Si  Si28  1  0.046266  0.713751  0.438779  1
  Mo  Mo29  1  0.159696  0.005907  0.872923  1
  Mo  Mo30  1  0.491418  0.660023  0.124767  1
  Mo  Mo31  1  0.501778  0.339803  0.623082  1
  Mo  Mo32  1  0.652656  0.491736  0.874869  1
  Mo  Mo33  1  0.342638  0.506642  0.376845  1
  Mo  Mo34  1  0.839587  0.993430  0.375974  1
  Mo  Mo35  1  0.007780  0.158762  0.127009  1
