# generated using pymatgen
data_Eu5Cr2N7
_symmetry_space_group_name_H-M   'P 1'
_cell_length_a   6.20885273
_cell_length_b   8.72106259
_cell_length_c   8.87152007
_cell_angle_alpha   114.58023802
_cell_angle_beta   98.64768333
_cell_angle_gamma   90.25038425
_symmetry_Int_Tables_number   1
_chemical_formula_structural   Eu5Cr2N7
_chemical_formula_sum   'Eu10 Cr4 N14'
_cell_volume   430.67758067
_cell_formula_units_Z   2
loop_
 _symmetry_equiv_pos_site_id
 _symmetry_equiv_pos_as_xyz
  1  'x, y, z'
loop_
 _atom_site_type_symbol
 _atom_site_label
 _atom_site_symmetry_multiplicity
 _atom_site_fract_x
 _atom_site_fract_y
 _atom_site_fract_z
 _atom_site_occupancy
  Eu  Eu0  1  0.858422  0.588845  0.334432  1
  Eu  Eu1  1  0.269529  0.986576  0.575499  1
  Eu  Eu2  1  0.707635  0.413491  0.851927  1
  Eu  Eu3  1  0.292365  0.586509  0.148073  1
  Eu  Eu4  1  0.404795  0.788733  0.915029  1
  Eu  Eu5  1  0.595205  0.211267  0.084971  1
  Eu  Eu6  1  0.141578  0.411155  0.665568  1
  Eu  Eu7  1  0.881553  0.840708  0.764817  1
  Eu  Eu8  1  0.118447  0.159292  0.235183  1
  Eu  Eu9  1  0.730471  0.013424  0.424501  1
  Cr  Cr10  1  0.577274  0.363738  0.476870  1
  Cr  Cr11  1  0.422726  0.636262  0.523130  1
  Cr  Cr12  1  0.116790  0.217260  0.908714  1
  Cr  Cr13  1  0.883210  0.782740  0.091286  1
  N  N14  1  0.562985  0.561317  0.676265  1
  N  N15  1  0.437015  0.438683  0.323735  1
  N  N16  1  0.166561  0.698214  0.581104  1
  N  N17  1  0.833439  0.301786  0.418896  1
  N  N18  1  0.421149  0.197973  0.482232  1
  N  N19  1  0.578851  0.802027  0.517768  1
  N  N20  1  0.945578  0.144475  0.710120  1
  N  N21  1  0.054422  0.855525  0.289880  1
  N  N22  1  0.227461  0.048931  0.951759  1
  N  N23  1  0.772539  0.951069  0.048241  1
  N  N24  1  0.350968  0.329550  0.898432  1
  N  N25  1  0.973506  0.346523  0.072766  1
  N  N26  1  0.026494  0.653477  0.927234  1
  N  N27  1  0.649032  0.670450  0.101568  1
