# generated using pymatgen
data_PbO2F5
_symmetry_space_group_name_H-M   'P 1'
_cell_length_a   4.38764512
_cell_length_b   5.65272393
_cell_length_c   7.39690702
_cell_angle_alpha   123.62796340
_cell_angle_beta   91.24677640
_cell_angle_gamma   106.89610953
_symmetry_Int_Tables_number   1
_chemical_formula_structural   PbO2F5
_chemical_formula_sum   'Pb1 O2 F5'
_cell_volume   142.26783371
_cell_formula_units_Z   1
loop_
 _symmetry_equiv_pos_site_id
 _symmetry_equiv_pos_as_xyz
  1  'x, y, z'
loop_
 _atom_site_type_symbol
 _atom_site_label
 _atom_site_symmetry_multiplicity
 _atom_site_fract_x
 _atom_site_fract_y
 _atom_site_fract_z
 _atom_site_occupancy
  Pb  Pb0  1  0.195758  0.480945  0.779316  1
  O  O1  1  0.667680  0.694119  0.408543  1
  O  O2  1  0.659667  0.467657  0.240688  1
  F  F3  1  0.384868  0.896935  0.081644  1
  F  F4  1  0.097796  0.255805  0.924204  1
  F  F5  1  0.684237  0.452482  0.751607  1
  F  F6  1  0.025865  0.042323  0.456715  1
  F  F7  1  0.246777  0.640919  0.584575  1
