# generated using pymatgen
data_PAuBrF3
_symmetry_space_group_name_H-M   'P 1'
_cell_length_a   5.02267200
_cell_length_b   5.79314000
_cell_length_c   19.19223000
_cell_angle_alpha   90.00000000
_cell_angle_beta   90.00000000
_cell_angle_gamma   90.00000000
_symmetry_Int_Tables_number   1
_chemical_formula_structural   PAuBrF3
_chemical_formula_sum   'P4 Au4 Br4 F12'
_cell_volume   558.43712373
_cell_formula_units_Z   4
loop_
 _symmetry_equiv_pos_site_id
 _symmetry_equiv_pos_as_xyz
  1  'x, y, z'
loop_
 _atom_site_type_symbol
 _atom_site_label
 _atom_site_symmetry_multiplicity
 _atom_site_fract_x
 _atom_site_fract_y
 _atom_site_fract_z
 _atom_site_occupancy
  P  P0  1  0.524339  0.750000  0.646807  1
  P  P1  1  0.024339  0.250000  0.853193  1
  P  P2  1  0.975661  0.750000  0.146807  1
  P  P3  1  0.475661  0.250000  0.353193  1
  Au  Au4  1  0.152816  0.250000  0.963437  1
  Au  Au5  1  0.652816  0.750000  0.536563  1
  Au  Au6  1  0.847184  0.750000  0.036563  1
  Au  Au7  1  0.347184  0.250000  0.463437  1
  Br  Br8  1  0.151443  0.250000  0.579115  1
  Br  Br9  1  0.848557  0.750000  0.420885  1
  Br  Br10  1  0.348557  0.250000  0.079115  1
  Br  Br11  1  0.651443  0.750000  0.920885  1
  F  F12  1  0.127894  0.456643  0.807837  1
  F  F13  1  0.724830  0.250000  0.830565  1
  F  F14  1  0.372106  0.043357  0.307837  1
  F  F15  1  0.372106  0.456643  0.307837  1
  F  F16  1  0.627894  0.543357  0.692163  1
  F  F17  1  0.627894  0.956643  0.692163  1
  F  F18  1  0.775170  0.250000  0.330565  1
  F  F19  1  0.275170  0.750000  0.169435  1
  F  F20  1  0.872106  0.543357  0.192163  1
  F  F21  1  0.872106  0.956643  0.192163  1
  F  F22  1  0.224830  0.750000  0.669435  1
  F  F23  1  0.127894  0.043357  0.807837  1
