# generated using pymatgen
data_NdFe2(Re4Mo)2
_symmetry_space_group_name_H-M   'P 1'
_cell_length_a   5.04667048
_cell_length_b   6.88602980
_cell_length_c   6.88602944
_cell_angle_alpha   98.39982943
_cell_angle_beta   111.40406374
_cell_angle_gamma   68.59593902
_symmetry_Int_Tables_number   1
_chemical_formula_structural   NdFe2(Re4Mo)2
_chemical_formula_sum   'Nd1 Fe2 Re8 Mo2'
_cell_volume   207.40630015
_cell_formula_units_Z   1
loop_
 _symmetry_equiv_pos_site_id
 _symmetry_equiv_pos_as_xyz
  1  'x, y, z'
loop_
 _atom_site_type_symbol
 _atom_site_label
 _atom_site_symmetry_multiplicity
 _atom_site_fract_x
 _atom_site_fract_y
 _atom_site_fract_z
 _atom_site_occupancy
  Nd  Nd0  1  0.000000  0.000000  0.000000  1
  Fe  Fe1  1  0.500000  0.000000  0.500000  1
  Fe  Fe2  1  0.500000  0.500000  0.000000  1
  Re  Re3  1  0.711865  0.777583  0.222417  1
  Re  Re4  1  0.288135  0.222417  0.777583  1
  Re  Re5  1  0.500000  0.781518  0.781518  1
  Re  Re6  1  0.500000  0.218482  0.218482  1
  Re  Re7  1  0.000000  0.000000  0.500000  1
  Re  Re8  1  0.000000  0.500000  0.000000  1
  Re  Re9  1  0.635282  0.358776  0.641224  1
  Re  Re10  1  0.364718  0.641224  0.358776  1
  Mo  Mo11  1  0.000000  0.357584  0.357584  1
  Mo  Mo12  1  0.000000  0.642416  0.642416  1
