# generated using pymatgen
data_Tb9Y3NiPd3
_symmetry_space_group_name_H-M   'P 1'
_cell_length_a   6.46622060
_cell_length_b   7.02695741
_cell_length_c   9.71734600
_cell_angle_alpha   90.00000000
_cell_angle_beta   90.00000000
_cell_angle_gamma   89.97924984
_symmetry_Int_Tables_number   1
_chemical_formula_structural   Tb9Y3NiPd3
_chemical_formula_sum   'Tb9 Y3 Ni1 Pd3'
_cell_volume   441.53534615
_cell_formula_units_Z   1
loop_
 _symmetry_equiv_pos_site_id
 _symmetry_equiv_pos_as_xyz
  1  'x, y, z'
loop_
 _atom_site_type_symbol
 _atom_site_label
 _atom_site_symmetry_multiplicity
 _atom_site_fract_x
 _atom_site_fract_y
 _atom_site_fract_z
 _atom_site_occupancy
  Tb  Tb0  1  0.323755  0.680826  0.059182  1
  Tb  Tb1  1  0.173854  0.179512  0.442477  1
  Tb  Tb2  1  0.672470  0.327710  0.565280  1
  Tb  Tb3  1  0.819940  0.814204  0.935861  1
  Tb  Tb4  1  0.672470  0.327710  0.934720  1
  Tb  Tb5  1  0.819940  0.814204  0.564139  1
  Tb  Tb6  1  0.323755  0.680826  0.440818  1
  Tb  Tb7  1  0.173854  0.179512  0.057523  1
  Tb  Tb8  1  0.369690  0.962495  0.750000  1
  Y  Y9  1  0.865151  0.525609  0.250000  1
  Y  Y10  1  0.633755  0.024881  0.250000  1
  Y  Y11  1  0.145541  0.477209  0.750000  1
  Ni  Ni12  1  0.561067  0.613301  0.750000  1
  Pd  Pd13  1  0.061258  0.891847  0.250000  1
  Pd  Pd14  1  0.438373  0.390416  0.250000  1
  Pd  Pd15  1  0.945129  0.109738  0.750000  1
