# generated using pymatgen
data_Tb7YLu2(SiB4)4
_symmetry_space_group_name_H-M   'P 1'
_cell_length_a   7.22612902
_cell_length_b   7.22612902
_cell_length_c   8.07189801
_cell_angle_alpha   89.99605226
_cell_angle_beta   90.00394774
_cell_angle_gamma   90.00753259
_symmetry_Int_Tables_number   1
_chemical_formula_structural   Tb7YLu2(SiB4)4
_chemical_formula_sum   'Tb7 Y1 Lu2 Si4 B16'
_cell_volume   421.48981335
_cell_formula_units_Z   1
loop_
 _symmetry_equiv_pos_site_id
 _symmetry_equiv_pos_as_xyz
  1  'x, y, z'
loop_
 _atom_site_type_symbol
 _atom_site_label
 _atom_site_symmetry_multiplicity
 _atom_site_fract_x
 _atom_site_fract_y
 _atom_site_fract_z
 _atom_site_occupancy
  Tb  Tb0  1  0.680454  0.180428  0.225925  1
  Tb  Tb1  1  0.319585  0.819619  0.774082  1
  Tb  Tb2  1  0.319572  0.819546  0.225925  1
  Tb  Tb3  1  0.819582  0.680418  0.225933  1
  Tb  Tb4  1  0.819631  0.680369  0.774118  1
  Tb  Tb5  1  0.680381  0.180415  0.774082  1
  Tb  Tb6  1  0.180398  0.319602  0.774205  1
  Y  Y7  1  0.180339  0.319661  0.225351  1
  Lu  Lu8  1  0.000005  0.000059  0.499961  1
  Lu  Lu9  1  0.499941  0.499995  0.499961  1
  Si  Si10  1  0.115870  0.615724  0.499942  1
  Si  Si11  1  0.884276  0.384130  0.499942  1
  Si  Si12  1  0.384070  0.115930  0.499944  1
  Si  Si13  1  0.615792  0.884208  0.499947  1
  B  B14  1  0.172156  0.039082  0.000027  1
  B  B15  1  0.827923  0.960964  0.000079  1
  B  B16  1  0.960888  0.172068  0.000034  1
  B  B17  1  0.327932  0.539112  0.000034  1
  B  B18  1  0.039099  0.827950  0.000070  1
  B  B19  1  0.672050  0.460901  0.000070  1
  B  B20  1  0.539036  0.672077  0.000079  1
  B  B21  1  0.460918  0.327844  0.000027  1
  B  B22  1  0.090015  0.589976  0.000021  1
  B  B23  1  0.910024  0.409985  0.000021  1
  B  B24  1  0.410070  0.089930  0.999924  1
  B  B25  1  0.589986  0.910014  0.000030  1
  B  B26  1  0.000045  0.000065  0.162807  1
  B  B27  1  0.000048  0.000022  0.837326  1
  B  B28  1  0.499978  0.499952  0.837326  1
  B  B29  1  0.499935  0.499955  0.162807  1
