# generated using pymatgen
data_Ca6MgCo(SeO3)8
_symmetry_space_group_name_H-M   'P 1'
_cell_length_a   12.62415486
_cell_length_b   7.70777720
_cell_length_c   7.70862102
_cell_angle_alpha   89.99748310
_cell_angle_beta   107.78513606
_cell_angle_gamma   107.77354324
_symmetry_Int_Tables_number   1
_chemical_formula_structural   Ca6MgCo(SeO3)8
_chemical_formula_sum   'Ca6 Mg1 Co1 Se8 O24'
_cell_volume   676.54167966
_cell_formula_units_Z   1
loop_
 _symmetry_equiv_pos_site_id
 _symmetry_equiv_pos_as_xyz
  1  'x, y, z'
loop_
 _atom_site_type_symbol
 _atom_site_label
 _atom_site_symmetry_multiplicity
 _atom_site_fract_x
 _atom_site_fract_y
 _atom_site_fract_z
 _atom_site_occupancy
  Ca  Ca0  1  0.896638  0.448342  0.198398  1
  Ca  Ca1  1  0.250009  0.625038  0.374922  1
  Ca  Ca2  1  0.396862  0.198479  0.448468  1
  Ca  Ca3  1  0.603355  0.801617  0.551646  1
  Ca  Ca4  1  0.750011  0.374948  0.625056  1
  Ca  Ca5  1  0.103143  0.551547  0.801508  1
  Mg  Mg6  1  0.749948  0.875123  0.124980  1
  Co  Co7  1  0.250035  0.124966  0.874973  1
  Se  Se8  1  0.384344  0.513597  0.111808  1
  Se  Se9  1  0.115703  0.888204  0.129234  1
  Se  Se10  1  0.614389  0.129711  0.228041  1
  Se  Se11  1  0.115672  0.227565  0.486399  1
  Se  Se12  1  0.885531  0.771985  0.515249  1
  Se  Se13  1  0.384344  0.870649  0.772443  1
  Se  Se14  1  0.885530  0.113500  0.870389  1
  Se  Se15  1  0.614480  0.484788  0.886494  1
  O  O16  1  0.250660  0.545516  0.071728  1
  O  O17  1  0.851594  0.110029  0.074279  1
  O  O18  1  0.350457  0.274768  0.112692  1
  O  O19  1  0.059732  0.656926  0.134543  1
  O  O20  1  0.648306  0.925747  0.258289  1
  O  O21  1  0.851531  0.741719  0.277386  1
  O  O22  1  0.249392  0.928254  0.294808  1
  O  O23  1  0.748740  0.294806  0.320420  1
  O  O24  1  0.440266  0.574768  0.343072  1
  O  O25  1  0.560208  0.134678  0.405451  1
  O  O26  1  0.059710  0.402876  0.425233  1
  O  O27  1  0.249327  0.321154  0.454428  1
  O  O28  1  0.751236  0.679590  0.546106  1
  O  O29  1  0.939755  0.594559  0.574414  1
  O  O30  1  0.440308  0.865427  0.597159  1
  O  O31  1  0.560279  0.425578  0.654866  1
  O  O32  1  0.250641  0.705113  0.678769  1
  O  O33  1  0.751198  0.071532  0.705235  1
  O  O34  1  0.149614  0.262290  0.725229  1
  O  O35  1  0.350521  0.075673  0.737780  1
  O  O36  1  0.939763  0.345125  0.865325  1
  O  O37  1  0.648442  0.722639  0.890078  1
  O  O38  1  0.149533  0.887264  0.924276  1
  O  O39  1  0.748789  0.453906  0.928430  1
