# generated using pymatgen
data_Sr3AgAs2H
_symmetry_space_group_name_H-M   'P 1'
_cell_length_a   4.52037700
_cell_length_b   12.27180100
_cell_length_c   12.87456300
_cell_angle_alpha   90.00000000
_cell_angle_beta   90.00000000
_cell_angle_gamma   90.00000000
_symmetry_Int_Tables_number   1
_chemical_formula_structural   Sr3AgAs2H
_chemical_formula_sum   'Sr12 Ag4 As8 H4'
_cell_volume   714.19278321
_cell_formula_units_Z   4
loop_
 _symmetry_equiv_pos_site_id
 _symmetry_equiv_pos_as_xyz
  1  'x, y, z'
loop_
 _atom_site_type_symbol
 _atom_site_label
 _atom_site_symmetry_multiplicity
 _atom_site_fract_x
 _atom_site_fract_y
 _atom_site_fract_z
 _atom_site_occupancy
  Sr  Sr0  1  0.250000  0.067246  0.622637  1
  Sr  Sr1  1  0.250000  0.567246  0.877363  1
  Sr  Sr2  1  0.750000  0.932754  0.377363  1
  Sr  Sr3  1  0.750000  0.432754  0.122637  1
  Sr  Sr4  1  0.250000  0.368070  0.557251  1
  Sr  Sr5  1  0.250000  0.868070  0.942749  1
  Sr  Sr6  1  0.750000  0.631930  0.442749  1
  Sr  Sr7  1  0.750000  0.131930  0.057251  1
  Sr  Sr8  1  0.250000  0.208708  0.297616  1
  Sr  Sr9  1  0.250000  0.708708  0.202384  1
  Sr  Sr10  1  0.750000  0.791292  0.702384  1
  Sr  Sr11  1  0.750000  0.291292  0.797616  1
  Ag  Ag12  1  0.250000  0.124853  0.872018  1
  Ag  Ag13  1  0.250000  0.624853  0.627982  1
  Ag  Ag14  1  0.750000  0.875147  0.127982  1
  Ag  Ag15  1  0.750000  0.375147  0.372018  1
  As  As16  1  0.250000  0.480321  0.318139  1
  As  As17  1  0.250000  0.980321  0.181861  1
  As  As18  1  0.750000  0.519679  0.681861  1
  As  As19  1  0.750000  0.019679  0.818139  1
  As  As20  1  0.250000  0.314867  0.984926  1
  As  As21  1  0.250000  0.814867  0.515074  1
  As  As22  1  0.750000  0.685133  0.015074  1
  As  As23  1  0.750000  0.185133  0.484926  1
  H  H24  1  0.250000  0.249447  0.712794  1
  H  H25  1  0.250000  0.749447  0.787206  1
  H  H26  1  0.750000  0.750553  0.287206  1
  H  H27  1  0.750000  0.250553  0.212794  1
