# generated using pymatgen
data_Li2CaTmSi4
_symmetry_space_group_name_H-M   'P 1'
_cell_length_a   3.76651500
_cell_length_b   7.76638024
_cell_length_c   10.35171969
_cell_angle_alpha   89.28154892
_cell_angle_beta   90.00000000
_cell_angle_gamma   90.00000000
_symmetry_Int_Tables_number   1
_chemical_formula_structural   Li2CaTmSi4
_chemical_formula_sum   'Li4 Ca2 Tm2 Si8'
_cell_volume   302.78664102
_cell_formula_units_Z   2
loop_
 _symmetry_equiv_pos_site_id
 _symmetry_equiv_pos_as_xyz
  1  'x, y, z'
loop_
 _atom_site_type_symbol
 _atom_site_label
 _atom_site_symmetry_multiplicity
 _atom_site_fract_x
 _atom_site_fract_y
 _atom_site_fract_z
 _atom_site_occupancy
  Li  Li0  1  0.250000  0.999438  0.389469  1
  Li  Li1  1  0.750000  0.000562  0.610531  1
  Li  Li2  1  0.250000  0.490220  0.109664  1
  Li  Li3  1  0.750000  0.509780  0.890336  1
  Ca  Ca4  1  0.250000  0.637188  0.635048  1
  Ca  Ca5  1  0.750000  0.362812  0.364952  1
  Tm  Tm6  1  0.250000  0.129147  0.865037  1
  Tm  Tm7  1  0.750000  0.870853  0.134963  1
  Si  Si8  1  0.750000  0.260180  0.059813  1
  Si  Si9  1  0.250000  0.739820  0.940187  1
  Si  Si10  1  0.750000  0.773965  0.425709  1
  Si  Si11  1  0.250000  0.226035  0.574291  1
  Si  Si12  1  0.750000  0.845846  0.827653  1
  Si  Si13  1  0.250000  0.154154  0.172347  1
  Si  Si14  1  0.750000  0.331229  0.685455  1
  Si  Si15  1  0.250000  0.668771  0.314545  1
