# generated using pymatgen
data_Pr8Zn3Si12Ag
_symmetry_space_group_name_H-M   'P 1'
_cell_length_a   8.26320600
_cell_length_b   8.26320710
_cell_length_c   8.67401500
_cell_angle_alpha   90.00000000
_cell_angle_beta   90.00000000
_cell_angle_gamma   120.00000362
_symmetry_Int_Tables_number   1
_chemical_formula_structural   Pr8Zn3Si12Ag
_chemical_formula_sum   'Pr8 Zn3 Si12 Ag1'
_cell_volume   512.91807275
_cell_formula_units_Z   1
loop_
 _symmetry_equiv_pos_site_id
 _symmetry_equiv_pos_as_xyz
  1  'x, y, z'
loop_
 _atom_site_type_symbol
 _atom_site_label
 _atom_site_symmetry_multiplicity
 _atom_site_fract_x
 _atom_site_fract_y
 _atom_site_fract_z
 _atom_site_occupancy
  Pr  Pr0  1  0.498516  0.501484  0.751617  1
  Pr  Pr1  1  0.498983  0.501017  0.248322  1
  Pr  Pr2  1  0.002968  0.501484  0.751617  1
  Pr  Pr3  1  0.002033  0.501017  0.248322  1
  Pr  Pr4  1  0.498516  0.997032  0.751617  1
  Pr  Pr5  1  0.498983  0.997967  0.248322  1
  Pr  Pr6  1  0.000000  0.000000  0.749601  1
  Pr  Pr7  1  0.000000  0.000000  0.250673  1
  Zn  Zn8  1  0.666667  0.333333  0.997094  1
  Zn  Zn9  1  0.333333  0.666667  0.002099  1
  Zn  Zn10  1  0.333333  0.666667  0.499005  1
  Si  Si11  1  0.833906  0.166094  0.000730  1
  Si  Si12  1  0.166183  0.833817  0.999533  1
  Si  Si13  1  0.332187  0.166094  0.000730  1
  Si  Si14  1  0.165216  0.834784  0.499720  1
  Si  Si15  1  0.667633  0.833817  0.999533  1
  Si  Si16  1  0.836258  0.163742  0.500481  1
  Si  Si17  1  0.833906  0.667813  0.000730  1
  Si  Si18  1  0.669570  0.834784  0.499720  1
  Si  Si19  1  0.166183  0.332367  0.999533  1
  Si  Si20  1  0.327484  0.163742  0.500481  1
  Si  Si21  1  0.165216  0.330430  0.499720  1
  Si  Si22  1  0.836258  0.672516  0.500481  1
  Ag  Ag23  1  0.666667  0.333333  0.500319  1
