# generated using pymatgen
data_Tb12FeRhI17
_symmetry_space_group_name_H-M   'P 1'
_cell_length_a   9.83496748
_cell_length_b   11.80237759
_cell_length_c   11.80887429
_cell_angle_alpha   93.45410830
_cell_angle_beta   104.87471522
_cell_angle_gamma   114.08548298
_symmetry_Int_Tables_number   1
_chemical_formula_structural   Tb12FeRhI17
_chemical_formula_sum   'Tb12 Fe1 Rh1 I17'
_cell_volume   1188.11537393
_cell_formula_units_Z   1
loop_
 _symmetry_equiv_pos_site_id
 _symmetry_equiv_pos_as_xyz
  1  'x, y, z'
loop_
 _atom_site_type_symbol
 _atom_site_label
 _atom_site_symmetry_multiplicity
 _atom_site_fract_x
 _atom_site_fract_y
 _atom_site_fract_z
 _atom_site_occupancy
  Tb  Tb0  1  0.047979  0.499005  0.316834  1
  Tb  Tb1  1  0.988685  0.809709  0.583162  1
  Tb  Tb2  1  0.655966  0.241635  0.281407  1
  Tb  Tb3  1  0.009687  0.195108  0.409334  1
  Tb  Tb4  1  0.223475  0.670588  0.988395  1
  Tb  Tb5  1  0.257157  0.984041  0.890535  1
  Tb  Tb6  1  0.352994  0.759377  0.715732  1
  Tb  Tb7  1  0.944825  0.491507  0.678558  1
  Tb  Tb8  1  0.750144  0.026242  0.114033  1
  Tb  Tb9  1  0.140417  0.285392  0.152441  1
  Tb  Tb10  1  0.780598  0.325869  0.019147  1
  Tb  Tb11  1  0.850088  0.712716  0.849533  1
  Fe  Fe12  1  0.895930  0.262013  0.214168  1
  Rh  Rh13  1  0.104306  0.738129  0.785628  1
  I  I14  1  0.785265  0.527890  0.419361  1
  I  I15  1  0.645984  0.420529  0.762907  1
  I  I16  1  0.845690  0.898470  0.329862  1
  I  I17  1  0.326714  0.213768  0.366874  1
  I  I18  1  0.153148  0.101819  0.672792  1
  I  I19  1  0.585103  0.051636  0.845355  1
  I  I20  1  0.761755  0.190189  0.539953  1
  I  I21  1  0.553558  0.712288  0.954315  1
  I  I22  1  0.354163  0.579385  0.237286  1
  I  I23  1  0.214493  0.472565  0.581028  1
  I  I24  1  0.055368  0.369528  0.898044  1
  I  I25  1  0.447103  0.286741  0.044861  1
  I  I26  1  0.999487  0.999225  0.999235  1
  I  I27  1  0.238355  0.809865  0.460245  1
  I  I28  1  0.415330  0.947579  0.154420  1
  I  I29  1  0.670604  0.786519  0.632641  1
  I  I30  1  0.945632  0.630671  0.101916  1
