# generated using pymatgen
data_Tb16Dy4Si15Pd
_symmetry_space_group_name_H-M   'P 1'
_cell_length_a   7.42150300
_cell_length_b   7.78257055
_cell_length_c   14.65762700
_cell_angle_alpha   90.00000000
_cell_angle_beta   90.00000000
_cell_angle_gamma   90.06845248
_symmetry_Int_Tables_number   1
_chemical_formula_structural   Tb16Dy4Si15Pd
_chemical_formula_sum   'Tb16 Dy4 Si15 Pd1'
_cell_volume   846.60004988
_cell_formula_units_Z   1
loop_
 _symmetry_equiv_pos_site_id
 _symmetry_equiv_pos_as_xyz
  1  'x, y, z'
loop_
 _atom_site_type_symbol
 _atom_site_label
 _atom_site_symmetry_multiplicity
 _atom_site_fract_x
 _atom_site_fract_y
 _atom_site_fract_z
 _atom_site_occupancy
  Tb  Tb0  1  0.681509  0.177691  0.623076  1
  Tb  Tb1  1  0.187178  0.323827  0.876062  1
  Tb  Tb2  1  0.317860  0.819648  0.123263  1
  Tb  Tb3  1  0.817314  0.677963  0.376629  1
  Tb  Tb4  1  0.317860  0.819648  0.376737  1
  Tb  Tb5  1  0.817314  0.677963  0.123371  1
  Tb  Tb6  1  0.681509  0.177691  0.876924  1
  Tb  Tb7  1  0.187178  0.323827  0.623938  1
  Tb  Tb8  1  0.524867  0.682820  0.593063  1
  Tb  Tb9  1  0.026264  0.817486  0.904698  1
  Tb  Tb10  1  0.473176  0.314993  0.097203  1
  Tb  Tb11  1  0.973079  0.183303  0.402868  1
  Tb  Tb12  1  0.473176  0.314993  0.402797  1
  Tb  Tb13  1  0.973079  0.183303  0.097132  1
  Tb  Tb14  1  0.524867  0.682820  0.906937  1
  Tb  Tb15  1  0.026264  0.817486  0.595302  1
  Dy  Dy16  1  0.844811  0.513062  0.750000  1
  Dy  Dy17  1  0.354482  0.978233  0.750000  1
  Dy  Dy18  1  0.149054  0.484276  0.250000  1
  Dy  Dy19  1  0.648105  0.014452  0.250000  1
  Si  Si20  1  0.646556  0.971171  0.459575  1
  Si  Si21  1  0.147017  0.527978  0.039901  1
  Si  Si22  1  0.352583  0.027374  0.960302  1
  Si  Si23  1  0.852709  0.471444  0.540146  1
  Si  Si24  1  0.352583  0.027374  0.539698  1
  Si  Si25  1  0.852709  0.471444  0.959854  1
  Si  Si26  1  0.646556  0.971171  0.040425  1
  Si  Si27  1  0.147017  0.527978  0.460099  1
  Si  Si28  1  0.980829  0.101975  0.750000  1
  Si  Si29  1  0.521858  0.601224  0.250000  1
  Si  Si30  1  0.020548  0.896299  0.250000  1
  Si  Si31  1  0.740217  0.875929  0.750000  1
  Si  Si32  1  0.225353  0.631681  0.750000  1
  Si  Si33  1  0.265965  0.126690  0.250000  1
  Si  Si34  1  0.766638  0.372645  0.250000  1
  Pd  Pd35  1  0.481918  0.412141  0.750000  1
