# generated using pymatgen
data_Y3Er3Tm14(Cd3Ru)2
_symmetry_space_group_name_H-M   'P 1'
_cell_length_a   9.49973400
_cell_length_b   9.49973352
_cell_length_c   9.74382000
_cell_angle_alpha   90.00000000
_cell_angle_beta   90.00000000
_cell_angle_gamma   119.99999470
_symmetry_Int_Tables_number   1
_chemical_formula_structural   Y3Er3Tm14(Cd3Ru)2
_chemical_formula_sum   'Y3 Er3 Tm14 Cd6 Ru2'
_cell_volume   761.52256283
_cell_formula_units_Z   1
loop_
 _symmetry_equiv_pos_site_id
 _symmetry_equiv_pos_as_xyz
  1  'x, y, z'
loop_
 _atom_site_type_symbol
 _atom_site_label
 _atom_site_symmetry_multiplicity
 _atom_site_fract_x
 _atom_site_fract_y
 _atom_site_fract_z
 _atom_site_occupancy
  Y  Y0  1  0.459505  0.540495  0.750000  1
  Y  Y1  1  0.459505  0.919009  0.750000  1
  Y  Y2  1  0.080991  0.540495  0.750000  1
  Er  Er3  1  0.540678  0.459322  0.250000  1
  Er  Er4  1  0.540678  0.081357  0.250000  1
  Er  Er5  1  0.918643  0.459322  0.250000  1
  Tm  Tm6  1  0.000000  0.000000  0.500076  1
  Tm  Tm7  1  0.000000  0.000000  0.999924  1
  Tm  Tm8  1  0.209932  0.790068  0.440066  1
  Tm  Tm9  1  0.209932  0.419865  0.440066  1
  Tm  Tm10  1  0.580135  0.790068  0.440066  1
  Tm  Tm11  1  0.789974  0.210026  0.559336  1
  Tm  Tm12  1  0.789974  0.579947  0.559336  1
  Tm  Tm13  1  0.420053  0.210026  0.559336  1
  Tm  Tm14  1  0.789974  0.210026  0.940664  1
  Tm  Tm15  1  0.789974  0.579947  0.940664  1
  Tm  Tm16  1  0.420053  0.210026  0.940664  1
  Tm  Tm17  1  0.209932  0.790068  0.059934  1
  Tm  Tm18  1  0.209932  0.419865  0.059934  1
  Tm  Tm19  1  0.580135  0.790068  0.059934  1
  Cd  Cd20  1  0.885658  0.114342  0.250000  1
  Cd  Cd21  1  0.885658  0.771316  0.250000  1
  Cd  Cd22  1  0.228684  0.114342  0.250000  1
  Cd  Cd23  1  0.114019  0.885981  0.750000  1
  Cd  Cd24  1  0.114019  0.228037  0.750000  1
  Cd  Cd25  1  0.771963  0.885981  0.750000  1
  Ru  Ru26  1  0.333333  0.666667  0.250000  1
  Ru  Ru27  1  0.666667  0.333333  0.750000  1
