# generated using pymatgen
data_Tb2Dy3AlBi2
_symmetry_space_group_name_H-M   'P 1'
_cell_length_a   9.07575138
_cell_length_b   9.07161003
_cell_length_c   6.49071000
_cell_angle_alpha   90.00000000
_cell_angle_beta   90.00000000
_cell_angle_gamma   120.38467656
_symmetry_Int_Tables_number   1
_chemical_formula_structural   Tb2Dy3AlBi2
_chemical_formula_sum   'Tb4 Dy6 Al2 Bi4'
_cell_volume   460.99188341
_cell_formula_units_Z   2
loop_
 _symmetry_equiv_pos_site_id
 _symmetry_equiv_pos_as_xyz
  1  'x, y, z'
loop_
 _atom_site_type_symbol
 _atom_site_label
 _atom_site_symmetry_multiplicity
 _atom_site_fract_x
 _atom_site_fract_y
 _atom_site_fract_z
 _atom_site_occupancy
  Tb  Tb0  1  0.014236  0.243082  0.750000  1
  Tb  Tb1  1  0.243904  0.243786  0.250000  1
  Tb  Tb2  1  0.756317  0.985561  0.250000  1
  Tb  Tb3  1  0.985876  0.757182  0.250000  1
  Dy  Dy4  1  0.657008  0.343281  0.999938  1
  Dy  Dy5  1  0.343193  0.656682  0.999966  1
  Dy  Dy6  1  0.343193  0.656682  0.500034  1
  Dy  Dy7  1  0.657008  0.343281  0.500062  1
  Dy  Dy8  1  0.755578  0.755649  0.750000  1
  Dy  Dy9  1  0.243551  0.014578  0.750000  1
  Al  Al10  1  0.401220  0.401014  0.750000  1
  Al  Al11  1  0.598778  0.598789  0.250000  1
  Bi  Bi12  1  0.610438  0.006246  0.750000  1
  Bi  Bi13  1  0.006898  0.611603  0.750000  1
  Bi  Bi14  1  0.389447  0.993189  0.250000  1
  Bi  Bi15  1  0.993354  0.389397  0.250000  1
