# generated using pymatgen
data_Y6Er2Ti12Si15Pt
_symmetry_space_group_name_H-M   'P 1'
_cell_length_a   7.08647856
_cell_length_b   7.04251081
_cell_length_c   12.99450340
_cell_angle_alpha   89.86825110
_cell_angle_beta   89.89711539
_cell_angle_gamma   90.06372010
_symmetry_Int_Tables_number   1
_chemical_formula_structural   Y6Er2Ti12Si15Pt
_chemical_formula_sum   'Y6 Er2 Ti12 Si15 Pt1'
_cell_volume   648.50834265
_cell_formula_units_Z   1
loop_
 _symmetry_equiv_pos_site_id
 _symmetry_equiv_pos_as_xyz
  1  'x, y, z'
loop_
 _atom_site_type_symbol
 _atom_site_label
 _atom_site_symmetry_multiplicity
 _atom_site_fract_x
 _atom_site_fract_y
 _atom_site_fract_z
 _atom_site_occupancy
  Y  Y0  1  0.340117  0.001399  0.465499  1
  Y  Y1  1  0.501518  0.838471  0.717523  1
  Y  Y2  1  0.501009  0.160077  0.216426  1
  Y  Y3  1  0.841597  0.496550  0.283148  1
  Y  Y4  1  0.156915  0.503850  0.783507  1
  Y  Y5  1  0.660311  0.997688  0.967681  1
  Er  Er6  1  0.001041  0.339236  0.534559  1
  Er  Er7  1  0.999435  0.659821  0.033416  1
  Ti  Ti8  1  0.325711  0.326991  0.001076  1
  Ti  Ti9  1  0.173840  0.826075  0.249725  1
  Ti  Ti10  1  0.824145  0.173535  0.749767  1
  Ti  Ti11  1  0.673835  0.671706  0.499303  1
  Ti  Ti12  1  0.155006  0.012799  0.877308  1
  Ti  Ti13  1  0.491453  0.652485  0.126059  1
  Ti  Ti14  1  0.502050  0.343727  0.626409  1
  Ti  Ti15  1  0.655528  0.496072  0.875275  1
  Ti  Ti16  1  0.347771  0.506321  0.373279  1
  Ti  Ti17  1  0.847386  0.990823  0.375841  1
  Ti  Ti18  1  0.008609  0.151914  0.125051  1
  Ti  Ti19  1  0.986999  0.848215  0.618334  1
  Si  Si20  1  0.369361  0.702618  0.935502  1
  Si  Si21  1  0.631856  0.297255  0.434685  1
  Si  Si22  1  0.703795  0.371439  0.066321  1
  Si  Si23  1  0.300496  0.629553  0.563555  1
  Si  Si24  1  0.796906  0.869053  0.182944  1
  Si  Si25  1  0.129856  0.202620  0.315642  1
  Si  Si26  1  0.869526  0.799656  0.815655  1
  Si  Si27  1  0.290779  0.952659  0.065829  1
  Si  Si28  1  0.547672  0.789711  0.314536  1
  Si  Si29  1  0.456801  0.214691  0.817985  1
  Si  Si30  1  0.789323  0.546876  0.685358  1
  Si  Si31  1  0.208205  0.453749  0.184735  1
  Si  Si32  1  0.707157  0.047798  0.563146  1
  Si  Si33  1  0.952240  0.292636  0.937208  1
  Si  Si34  1  0.048330  0.707402  0.433430  1
  Pt  Pt35  1  0.203421  0.124527  0.684281  1
