# generated using pymatgen
data_Y2Sc5Co6Sn22Au
_symmetry_space_group_name_H-M   'P 1'
_cell_length_a   9.55353725
_cell_length_b   9.55353670
_cell_length_c   9.79325857
_cell_angle_alpha   90.07150475
_cell_angle_beta   89.92849560
_cell_angle_gamma   119.96646400
_symmetry_Int_Tables_number   1
_chemical_formula_structural   Y2Sc5Co6Sn22Au
_chemical_formula_sum   'Y2 Sc5 Co6 Sn22 Au1'
_cell_volume   774.34133311
_cell_formula_units_Z   1
loop_
 _symmetry_equiv_pos_site_id
 _symmetry_equiv_pos_as_xyz
  1  'x, y, z'
loop_
 _atom_site_type_symbol
 _atom_site_label
 _atom_site_symmetry_multiplicity
 _atom_site_fract_x
 _atom_site_fract_y
 _atom_site_fract_z
 _atom_site_occupancy
  Y  Y0  1  0.999232  0.000768  0.000842  1
  Y  Y1  1  0.519842  0.480158  0.690750  1
  Sc  Sc2  1  0.034546  0.516623  0.307452  1
  Sc  Sc3  1  0.483377  0.965454  0.307452  1
  Sc  Sc4  1  0.482842  0.517158  0.309989  1
  Sc  Sc5  1  0.964139  0.483441  0.691127  1
  Sc  Sc6  1  0.516559  0.035861  0.691127  1
  Co  Co7  1  0.170457  0.829543  0.801767  1
  Co  Co8  1  0.662072  0.832348  0.801605  1
  Co  Co9  1  0.167652  0.337928  0.801605  1
  Co  Co10  1  0.830373  0.169627  0.199237  1
  Co  Co11  1  0.338043  0.168674  0.198248  1
  Co  Co12  1  0.831326  0.661957  0.198248  1
  Sn  Sn13  1  0.117498  0.882502  0.279141  1
  Sn  Sn14  1  0.766427  0.883504  0.279765  1
  Sn  Sn15  1  0.116496  0.233573  0.279765  1
  Sn  Sn16  1  0.882046  0.117954  0.720922  1
  Sn  Sn17  1  0.229889  0.112766  0.720369  1
  Sn  Sn18  1  0.887234  0.770111  0.720369  1
  Sn  Sn19  1  0.347851  0.000091  0.999857  1
  Sn  Sn20  1  0.652118  0.652492  0.001178  1
  Sn  Sn21  1  0.000146  0.348541  0.000691  1
  Sn  Sn22  1  0.347508  0.347882  0.001178  1
  Sn  Sn23  1  0.999909  0.652149  0.999857  1
  Sn  Sn24  1  0.651459  0.999854  0.000691  1
  Sn  Sn25  1  0.784805  0.564327  0.452943  1
  Sn  Sn26  1  0.780662  0.219338  0.455762  1
  Sn  Sn27  1  0.435673  0.215195  0.452943  1
  Sn  Sn28  1  0.213517  0.437073  0.542429  1
  Sn  Sn29  1  0.218771  0.781229  0.543939  1
  Sn  Sn30  1  0.562927  0.786483  0.542429  1
  Sn  Sn31  1  0.666254  0.333746  0.180376  1
  Sn  Sn32  1  0.332576  0.667424  0.820475  1
  Sn  Sn33  1  0.672068  0.327932  0.867114  1
  Sn  Sn34  1  0.334005  0.665995  0.138932  1
  Au  Au35  1  0.999700  0.000300  0.499427  1
