# generated using pymatgen
data_Dy4SbPt(RhO7)2
_symmetry_space_group_name_H-M   'P 1'
_cell_length_a   7.25132418
_cell_length_b   7.23939511
_cell_length_c   7.32157073
_cell_angle_alpha   60.15720927
_cell_angle_beta   60.31687978
_cell_angle_gamma   59.94548258
_symmetry_Int_Tables_number   1
_chemical_formula_structural   Dy4SbPt(RhO7)2
_chemical_formula_sum   'Dy4 Sb1 Pt1 Rh2 O14'
_cell_volume   272.62987294
_cell_formula_units_Z   1
loop_
 _symmetry_equiv_pos_site_id
 _symmetry_equiv_pos_as_xyz
  1  'x, y, z'
loop_
 _atom_site_type_symbol
 _atom_site_label
 _atom_site_symmetry_multiplicity
 _atom_site_fract_x
 _atom_site_fract_y
 _atom_site_fract_z
 _atom_site_occupancy
  Dy  Dy0  1  0.125000  0.625000  0.125000  1
  Dy  Dy1  1  0.125000  0.125000  0.625000  1
  Dy  Dy2  1  0.625000  0.125000  0.125000  1
  Dy  Dy3  1  0.125000  0.125000  0.125000  1
  Sb  Sb4  1  0.625000  0.625000  0.125000  1
  Pt  Pt5  1  0.625000  0.125000  0.625000  1
  Rh  Rh6  1  0.625000  0.625000  0.625000  1
  Rh  Rh7  1  0.125000  0.625000  0.625000  1
  O  O8  1  0.286578  0.706320  0.720524  1
  O  O9  1  0.539055  0.961895  0.959994  1
  O  O10  1  0.713867  0.281972  0.721612  1
  O  O11  1  0.282550  0.281972  0.721612  1
  O  O12  1  0.710183  0.712313  0.285635  1
  O  O13  1  0.999220  0.000253  0.001308  1
  O  O14  1  0.291869  0.712313  0.285635  1
  O  O15  1  0.958131  0.537687  0.964365  1
  O  O16  1  0.967450  0.968028  0.528388  1
  O  O17  1  0.539817  0.537687  0.964365  1
  O  O18  1  0.250780  0.249747  0.248692  1
  O  O19  1  0.536133  0.968028  0.528388  1
  O  O20  1  0.710945  0.288105  0.290006  1
  O  O21  1  0.963422  0.543680  0.529476  1
