# generated using pymatgen
data_Ca2BeAs2
_symmetry_space_group_name_H-M   'P 1'
_cell_length_a   8.00904004
_cell_length_b   8.00904060
_cell_length_c   7.06349800
_cell_angle_alpha   90.00000000
_cell_angle_beta   90.00000000
_cell_angle_gamma   150.24788097
_symmetry_Int_Tables_number   1
_chemical_formula_structural   Ca2BeAs2
_chemical_formula_sum   'Ca4 Be2 As4'
_cell_volume   224.84337334
_cell_formula_units_Z   2
loop_
 _symmetry_equiv_pos_site_id
 _symmetry_equiv_pos_as_xyz
  1  'x, y, z'
loop_
 _atom_site_type_symbol
 _atom_site_label
 _atom_site_symmetry_multiplicity
 _atom_site_fract_x
 _atom_site_fract_y
 _atom_site_fract_z
 _atom_site_occupancy
  Ca  Ca0  1  0.207629  0.792369  0.097000  1
  Ca  Ca1  1  0.971348  0.028650  0.279894  1
  Ca  Ca2  1  0.792369  0.207629  0.597000  1
  Ca  Ca3  1  0.028650  0.971348  0.779894  1
  Be  Be4  1  0.590568  0.409430  0.419443  1
  Be  Be5  1  0.409430  0.590568  0.919443  1
  As  As6  1  0.839484  0.160514  0.996247  1
  As  As7  1  0.563101  0.436897  0.073068  1
  As  As8  1  0.160514  0.839484  0.496247  1
  As  As9  1  0.436897  0.563101  0.573068  1
