# generated using pymatgen
data_PrYCd3Sn2Hg
_symmetry_space_group_name_H-M   'P 1'
_cell_length_a   4.89711900
_cell_length_b   4.51305500
_cell_length_c   9.17964500
_cell_angle_alpha   90.00000000
_cell_angle_beta   90.00000000
_cell_angle_gamma   90.00000000
_symmetry_Int_Tables_number   1
_chemical_formula_structural   PrYCd3Sn2Hg
_chemical_formula_sum   'Pr1 Y1 Cd3 Sn2 Hg1'
_cell_volume   202.87903478
_cell_formula_units_Z   1
loop_
 _symmetry_equiv_pos_site_id
 _symmetry_equiv_pos_as_xyz
  1  'x, y, z'
loop_
 _atom_site_type_symbol
 _atom_site_label
 _atom_site_symmetry_multiplicity
 _atom_site_fract_x
 _atom_site_fract_y
 _atom_site_fract_z
 _atom_site_occupancy
  Pr  Pr0  1  0.000000  0.000000  0.000000  1
  Y  Y1  1  0.000000  0.000000  0.500000  1
  Cd  Cd2  1  0.500000  0.500000  0.500000  1
  Cd  Cd3  1  0.500000  0.000000  0.258199  1
  Cd  Cd4  1  0.500000  0.000000  0.741801  1
  Sn  Sn5  1  0.000000  0.500000  0.257892  1
  Sn  Sn6  1  0.000000  0.500000  0.742108  1
  Hg  Hg7  1  0.500000  0.500000  0.000000  1
