# generated using pymatgen
data_Yb3Lu(Al3Pt4)2
_symmetry_space_group_name_H-M   'P 1'
_cell_length_a   8.17091248
_cell_length_b   8.17091122
_cell_length_c   7.45387600
_cell_angle_alpha   90.37228548
_cell_angle_beta   89.62771457
_cell_angle_gamma   139.67065301
_symmetry_Int_Tables_number   1
_chemical_formula_structural   Yb3Lu(Al3Pt4)2
_chemical_formula_sum   'Yb3 Lu1 Al6 Pt8'
_cell_volume   322.06098892
_cell_formula_units_Z   1
loop_
 _symmetry_equiv_pos_site_id
 _symmetry_equiv_pos_as_xyz
  1  'x, y, z'
loop_
 _atom_site_type_symbol
 _atom_site_label
 _atom_site_symmetry_multiplicity
 _atom_site_fract_x
 _atom_site_fract_y
 _atom_site_fract_z
 _atom_site_occupancy
  Yb  Yb0  1  0.102822  0.897178  0.407820  1
  Yb  Yb1  1  0.897254  0.102746  0.591330  1
  Yb  Yb2  1  0.394091  0.605909  0.910670  1
  Lu  Lu3  1  0.605752  0.394248  0.088507  1
  Al  Al4  1  0.999788  0.000212  0.000517  1
  Al  Al5  1  0.501553  0.498447  0.498559  1
  Al  Al6  1  0.019094  0.479445  0.254109  1
  Al  Al7  1  0.480581  0.020582  0.746360  1
  Al  Al8  1  0.979418  0.519419  0.746360  1
  Al  Al9  1  0.520555  0.980906  0.254109  1
  Pt  Pt10  1  0.189014  0.313921  0.248157  1
  Pt  Pt11  1  0.315000  0.187593  0.752488  1
  Pt  Pt12  1  0.812407  0.685000  0.752488  1
  Pt  Pt13  1  0.686079  0.810986  0.248157  1
  Pt  Pt14  1  0.183803  0.816197  0.028933  1
  Pt  Pt15  1  0.814218  0.185782  0.974946  1
  Pt  Pt16  1  0.320925  0.679075  0.525552  1
  Pt  Pt17  1  0.677644  0.322356  0.470937  1
