# generated using pymatgen
data_Y11Ho5Cd4OsPd3
_symmetry_space_group_name_H-M   'P 1'
_cell_length_a   9.70903166
_cell_length_b   9.71867843
_cell_length_c   9.71867830
_cell_angle_alpha   59.51867582
_cell_angle_beta   59.54476028
_cell_angle_gamma   59.54475719
_symmetry_Int_Tables_number   1
_chemical_formula_structural   Y11Ho5Cd4OsPd3
_chemical_formula_sum   'Y11 Ho5 Cd4 Os1 Pd3'
_cell_volume   641.60781432
_cell_formula_units_Z   1
loop_
 _symmetry_equiv_pos_site_id
 _symmetry_equiv_pos_as_xyz
  1  'x, y, z'
loop_
 _atom_site_type_symbol
 _atom_site_label
 _atom_site_symmetry_multiplicity
 _atom_site_fract_x
 _atom_site_fract_y
 _atom_site_fract_z
 _atom_site_occupancy
  Y  Y0  1  0.188671  0.809988  0.809988  1
  Y  Y1  1  0.188455  0.816366  0.188594  1
  Y  Y2  1  0.810116  0.188594  0.810101  1
  Y  Y3  1  0.188455  0.188594  0.816366  1
  Y  Y4  1  0.810116  0.810101  0.188594  1
  Y  Y5  1  0.934881  0.565809  0.565809  1
  Y  Y6  1  0.558622  0.937311  0.937311  1
  Y  Y7  1  0.565963  0.935021  0.565634  1
  Y  Y8  1  0.937212  0.558292  0.937543  1
  Y  Y9  1  0.565963  0.565634  0.935021  1
  Y  Y10  1  0.937212  0.937543  0.558292  1
  Ho  Ho11  1  0.353423  0.353242  0.353242  1
  Ho  Ho12  1  0.350166  0.350044  0.945535  1
  Ho  Ho13  1  0.350166  0.945535  0.350044  1
  Ho  Ho14  1  0.945257  0.350142  0.350142  1
  Ho  Ho15  1  0.816702  0.188497  0.188497  1
  Cd  Cd16  1  0.580584  0.580534  0.580534  1
  Cd  Cd17  1  0.581155  0.581050  0.254180  1
  Cd  Cd18  1  0.581155  0.254180  0.581050  1
  Cd  Cd19  1  0.254122  0.581109  0.581109  1
  Os  Os20  1  0.143287  0.144844  0.144844  1
  Pd  Pd21  1  0.145380  0.145358  0.566735  1
  Pd  Pd22  1  0.145380  0.566735  0.145358  1
  Pd  Pd23  1  0.567557  0.145480  0.145480  1
