# generated using pymatgen
data_Hf6Mn5FeCo16Si
_symmetry_space_group_name_H-M   'P 1'
_cell_length_a   8.09297161
_cell_length_b   8.09297064
_cell_length_c   8.09984100
_cell_angle_alpha   59.97191775
_cell_angle_beta   59.97192174
_cell_angle_gamma   60.03496075
_symmetry_Int_Tables_number   1
_chemical_formula_structural   Hf6Mn5FeCo16Si
_chemical_formula_sum   'Hf6 Mn5 Fe1 Co16 Si1'
_cell_volume   375.06586187
_cell_formula_units_Z   1
loop_
 _symmetry_equiv_pos_site_id
 _symmetry_equiv_pos_as_xyz
  1  'x, y, z'
loop_
 _atom_site_type_symbol
 _atom_site_label
 _atom_site_symmetry_multiplicity
 _atom_site_fract_x
 _atom_site_fract_y
 _atom_site_fract_z
 _atom_site_occupancy
  Hf  Hf0  1  0.207919  0.792081  0.792557  1
  Hf  Hf1  1  0.792393  0.792393  0.207607  1
  Hf  Hf2  1  0.792081  0.207919  0.207443  1
  Hf  Hf3  1  0.207607  0.207607  0.792393  1
  Hf  Hf4  1  0.792081  0.207919  0.792557  1
  Hf  Hf5  1  0.207919  0.792081  0.207443  1
  Mn  Mn6  1  0.500000  0.000000  0.500000  1
  Mn  Mn7  1  0.500000  0.500000  0.000000  1
  Mn  Mn8  1  0.000000  0.500000  0.000000  1
  Mn  Mn9  1  0.000000  0.500000  0.500000  1
  Mn  Mn10  1  0.500000  0.000000  0.000000  1
  Fe  Fe11  1  0.000000  0.000000  0.500000  1
  Co  Co12  1  0.619840  0.619840  0.141458  1
  Co  Co13  1  0.173799  0.478758  0.173722  1
  Co  Co14  1  0.858983  0.380155  0.380430  1
  Co  Co15  1  0.521242  0.826201  0.826278  1
  Co  Co16  1  0.478758  0.173799  0.173722  1
  Co  Co17  1  0.826705  0.826705  0.520422  1
  Co  Co18  1  0.173295  0.173295  0.479578  1
  Co  Co19  1  0.141017  0.619845  0.619570  1
  Co  Co20  1  0.173295  0.173295  0.173832  1
  Co  Co21  1  0.380160  0.380160  0.858542  1
  Co  Co22  1  0.619840  0.619840  0.618863  1
  Co  Co23  1  0.380155  0.858983  0.380430  1
  Co  Co24  1  0.380160  0.380160  0.381137  1
  Co  Co25  1  0.826705  0.826705  0.826168  1
  Co  Co26  1  0.619845  0.141017  0.619570  1
  Co  Co27  1  0.826201  0.521242  0.826278  1
  Si  Si28  1  0.500000  0.500000  0.500000  1
