# generated using pymatgen
data_Y6LuFeO12
_symmetry_space_group_name_H-M   'P 1'
_cell_length_a   6.62563471
_cell_length_b   6.62563412
_cell_length_c   6.62563351
_cell_angle_alpha   93.07114335
_cell_angle_beta   93.07116288
_cell_angle_gamma   93.07114805
_symmetry_Int_Tables_number   1
_chemical_formula_structural   Y6LuFeO12
_chemical_formula_sum   'Y6 Lu1 Fe1 O12'
_cell_volume   289.55894008
_cell_formula_units_Z   1
loop_
 _symmetry_equiv_pos_site_id
 _symmetry_equiv_pos_as_xyz
  1  'x, y, z'
loop_
 _atom_site_type_symbol
 _atom_site_label
 _atom_site_symmetry_multiplicity
 _atom_site_fract_x
 _atom_site_fract_y
 _atom_site_fract_z
 _atom_site_occupancy
  Y  Y0  1  0.740975  0.925108  0.435723  1
  Y  Y1  1  0.925108  0.435723  0.740975  1
  Y  Y2  1  0.435723  0.740975  0.925108  1
  Y  Y3  1  0.259025  0.074892  0.564277  1
  Y  Y4  1  0.074892  0.564277  0.259025  1
  Y  Y5  1  0.564277  0.259025  0.074892  1
  Lu  Lu6  1  0.000000  0.000000  0.000000  1
  Fe  Fe7  1  0.500000  0.500000  0.500000  1
  O  O8  1  0.588135  0.461119  0.799836  1
  O  O9  1  0.461119  0.799836  0.588135  1
  O  O10  1  0.799836  0.588135  0.461119  1
  O  O11  1  0.411865  0.538881  0.200164  1
  O  O12  1  0.538881  0.200164  0.411865  1
  O  O13  1  0.200164  0.411865  0.538881  1
  O  O14  1  0.067914  0.911352  0.313668  1
  O  O15  1  0.911352  0.313668  0.067914  1
  O  O16  1  0.686332  0.932086  0.088648  1
  O  O17  1  0.088648  0.686332  0.932086  1
  O  O18  1  0.932086  0.088648  0.686332  1
  O  O19  1  0.313668  0.067914  0.911352  1
