# generated using pymatgen
data_Y2Er6Ti12Si15As
_symmetry_space_group_name_H-M   'P 1'
_cell_length_a   7.03371756
_cell_length_b   7.02672001
_cell_length_c   12.91647127
_cell_angle_alpha   89.96901221
_cell_angle_beta   89.81124807
_cell_angle_gamma   89.92724275
_symmetry_Int_Tables_number   1
_chemical_formula_structural   Y2Er6Ti12Si15As
_chemical_formula_sum   'Y2 Er6 Ti12 Si15 As1'
_cell_volume   638.37913938
_cell_formula_units_Z   1
loop_
 _symmetry_equiv_pos_site_id
 _symmetry_equiv_pos_as_xyz
  1  'x, y, z'
loop_
 _atom_site_type_symbol
 _atom_site_label
 _atom_site_symmetry_multiplicity
 _atom_site_fract_x
 _atom_site_fract_y
 _atom_site_fract_z
 _atom_site_occupancy
  Y  Y0  1  0.340951  0.001941  0.465959  1
  Y  Y1  1  0.497283  0.841991  0.717713  1
  Er  Er2  1  0.501821  0.158910  0.216378  1
  Er  Er3  1  0.840212  0.497304  0.283042  1
  Er  Er4  1  0.158828  0.500926  0.783382  1
  Er  Er5  1  0.661239  0.995559  0.967866  1
  Er  Er6  1  0.998694  0.343583  0.531816  1
  Er  Er7  1  0.998831  0.659174  0.033517  1
  Ti  Ti8  1  0.326600  0.326958  0.999866  1
  Ti  Ti9  1  0.172669  0.826998  0.249706  1
  Ti  Ti10  1  0.824445  0.173940  0.750276  1
  Ti  Ti11  1  0.672668  0.672341  0.499958  1
  Ti  Ti12  1  0.154035  0.009319  0.875320  1
  Ti  Ti13  1  0.492259  0.651207  0.125362  1
  Ti  Ti14  1  0.508763  0.347801  0.626993  1
  Ti  Ti15  1  0.654814  0.495057  0.875548  1
  Ti  Ti16  1  0.347139  0.507393  0.374088  1
  Ti  Ti17  1  0.847115  0.992691  0.375345  1
  Ti  Ti18  1  0.007688  0.151176  0.124382  1
  Ti  Ti19  1  0.989634  0.844297  0.623355  1
  Si  Si20  1  0.368529  0.703516  0.933333  1
  Si  Si21  1  0.630037  0.297843  0.433975  1
  Si  Si22  1  0.703858  0.369019  0.066942  1
  Si  Si23  1  0.296203  0.629606  0.566456  1
  Si  Si24  1  0.796521  0.868677  0.183808  1
  Si  Si25  1  0.130291  0.203619  0.316224  1
  Si  Si26  1  0.870957  0.797401  0.816198  1
  Si  Si27  1  0.291802  0.953082  0.064401  1
  Si  Si28  1  0.546959  0.790307  0.314016  1
  Si  Si29  1  0.462329  0.211680  0.819777  1
  Si  Si30  1  0.791553  0.546051  0.685435  1
  Si  Si31  1  0.208396  0.453096  0.185466  1
  Si  Si32  1  0.708981  0.046899  0.564108  1
  Si  Si33  1  0.954196  0.291371  0.935569  1
  Si  Si34  1  0.045865  0.708718  0.434729  1
  As  As35  1  0.197834  0.130549  0.679691  1
