# generated using pymatgen
data_Yb17Th(PaPt8)2
_symmetry_space_group_name_H-M   'P 1'
_cell_length_a   7.52012661
_cell_length_b   7.59885822
_cell_length_c   14.68578242
_cell_angle_alpha   89.98696826
_cell_angle_beta   90.00222449
_cell_angle_gamma   89.84558189
_symmetry_Int_Tables_number   1
_chemical_formula_structural   Yb17Th(PaPt8)2
_chemical_formula_sum   'Yb17 Th1 Pa2 Pt16'
_cell_volume   839.20680091
_cell_formula_units_Z   1
loop_
 _symmetry_equiv_pos_site_id
 _symmetry_equiv_pos_as_xyz
  1  'x, y, z'
loop_
 _atom_site_type_symbol
 _atom_site_label
 _atom_site_symmetry_multiplicity
 _atom_site_fract_x
 _atom_site_fract_y
 _atom_site_fract_z
 _atom_site_occupancy
  Yb  Yb0  1  0.855986  0.659428  0.375847  1
  Yb  Yb1  1  0.355464  0.834547  0.378401  1
  Yb  Yb2  1  0.856989  0.662883  0.120624  1
  Yb  Yb3  1  0.640268  0.165753  0.880410  1
  Yb  Yb4  1  0.144577  0.332124  0.621921  1
  Yb  Yb5  1  0.487144  0.673749  0.592281  1
  Yb  Yb6  1  0.985029  0.823807  0.906118  1
  Yb  Yb7  1  0.515177  0.325167  0.097482  1
  Yb  Yb8  1  0.012419  0.183180  0.405565  1
  Yb  Yb9  1  0.512933  0.322504  0.401804  1
  Yb  Yb10  1  0.003254  0.182947  0.099089  1
  Yb  Yb11  1  0.494351  0.684623  0.903629  1
  Yb  Yb12  1  0.993035  0.808974  0.590507  1
  Yb  Yb13  1  0.801750  0.510779  0.749444  1
  Yb  Yb14  1  0.303556  0.985319  0.750125  1
  Yb  Yb15  1  0.188265  0.490728  0.252764  1
  Yb  Yb16  1  0.701804  0.006173  0.252557  1
  Th  Th17  1  0.646704  0.157178  0.622115  1
  Pa  Pa18  1  0.146898  0.344311  0.877182  1
  Pa  Pa19  1  0.353401  0.844181  0.124290  1
  Pt  Pt20  1  0.697837  0.966761  0.459450  1
  Pt  Pt21  1  0.206196  0.548049  0.036423  1
  Pt  Pt22  1  0.291468  0.048549  0.963811  1
  Pt  Pt23  1  0.807336  0.455372  0.540938  1
  Pt  Pt24  1  0.318739  0.029286  0.544775  1
  Pt  Pt25  1  0.835091  0.460940  0.954770  1
  Pt  Pt26  1  0.661838  0.957701  0.044913  1
  Pt  Pt27  1  0.183304  0.530501  0.457846  1
  Pt  Pt28  1  0.436732  0.376263  0.750465  1
  Pt  Pt29  1  0.948157  0.126616  0.761751  1
  Pt  Pt30  1  0.549587  0.626774  0.239459  1
  Pt  Pt31  1  0.069002  0.877778  0.243354  1
  Pt  Pt32  1  0.681760  0.867635  0.746768  1
  Pt  Pt33  1  0.169274  0.629129  0.757651  1
  Pt  Pt34  1  0.333546  0.133993  0.244766  1
  Pt  Pt35  1  0.811129  0.366298  0.250705  1
