# generated using pymatgen
data_Ta2SbRu5
_symmetry_space_group_name_H-M   'P 1'
_cell_length_a   4.14806200
_cell_length_b   5.51775700
_cell_length_c   10.91139700
_cell_angle_alpha   90.00000000
_cell_angle_beta   90.00000000
_cell_angle_gamma   90.00000000
_symmetry_Int_Tables_number   1
_chemical_formula_structural   Ta2SbRu5
_chemical_formula_sum   'Ta4 Sb2 Ru10'
_cell_volume   249.74003421
_cell_formula_units_Z   2
loop_
 _symmetry_equiv_pos_site_id
 _symmetry_equiv_pos_as_xyz
  1  'x, y, z'
loop_
 _atom_site_type_symbol
 _atom_site_label
 _atom_site_symmetry_multiplicity
 _atom_site_fract_x
 _atom_site_fract_y
 _atom_site_fract_z
 _atom_site_occupancy
  Ta  Ta0  1  0.500000  0.829368  0.355789  1
  Ta  Ta1  1  0.500000  0.170632  0.644211  1
  Ta  Ta2  1  0.500000  0.329368  0.144211  1
  Ta  Ta3  1  0.500000  0.670632  0.855789  1
  Sb  Sb4  1  0.000000  0.500000  0.500000  1
  Sb  Sb5  1  0.000000  0.000000  0.000000  1
  Ru  Ru6  1  0.000000  0.500000  0.000000  1
  Ru  Ru7  1  0.000000  0.000000  0.500000  1
  Ru  Ru8  1  0.000000  0.566513  0.244144  1
  Ru  Ru9  1  0.000000  0.433487  0.755856  1
  Ru  Ru10  1  0.000000  0.066513  0.255856  1
  Ru  Ru11  1  0.000000  0.933487  0.744144  1
  Ru  Ru12  1  0.500000  0.806377  0.112298  1
  Ru  Ru13  1  0.500000  0.193623  0.887702  1
  Ru  Ru14  1  0.500000  0.306377  0.387702  1
  Ru  Ru15  1  0.500000  0.693623  0.612298  1
