# generated using pymatgen
data_Li4P4OsRh3
_symmetry_space_group_name_H-M   'P 1'
_cell_length_a   3.84223400
_cell_length_b   6.58007973
_cell_length_c   6.73364005
_cell_angle_alpha   90.21654188
_cell_angle_beta   90.00000000
_cell_angle_gamma   90.00000000
_symmetry_Int_Tables_number   1
_chemical_formula_structural   Li4P4OsRh3
_chemical_formula_sum   'Li4 P4 Os1 Rh3'
_cell_volume   170.24005924
_cell_formula_units_Z   1
loop_
 _symmetry_equiv_pos_site_id
 _symmetry_equiv_pos_as_xyz
  1  'x, y, z'
loop_
 _atom_site_type_symbol
 _atom_site_label
 _atom_site_symmetry_multiplicity
 _atom_site_fract_x
 _atom_site_fract_y
 _atom_site_fract_z
 _atom_site_occupancy
  Li  Li0  1  0.250000  0.020724  0.839733  1
  Li  Li1  1  0.250000  0.522678  0.662459  1
  Li  Li2  1  0.750000  0.977593  0.158943  1
  Li  Li3  1  0.750000  0.479553  0.336219  1
  P  P4  1  0.250000  0.790726  0.373047  1
  P  P5  1  0.250000  0.288018  0.133935  1
  P  P6  1  0.750000  0.214356  0.622014  1
  P  P7  1  0.750000  0.710763  0.872652  1
  Os  Os8  1  0.250000  0.142049  0.441113  1
  Rh  Rh9  1  0.250000  0.645225  0.057120  1
  Rh  Rh10  1  0.750000  0.853291  0.559138  1
  Rh  Rh11  1  0.750000  0.355023  0.943627  1
