# generated using pymatgen
data_DyTm7(Si4Mo3)4
_symmetry_space_group_name_H-M   'P 1'
_cell_length_a   6.73065524
_cell_length_b   6.92307216
_cell_length_c   12.88062402
_cell_angle_alpha   90.03235321
_cell_angle_beta   90.00769659
_cell_angle_gamma   90.02170811
_symmetry_Int_Tables_number   1
_chemical_formula_structural   DyTm7(Si4Mo3)4
_chemical_formula_sum   'Dy1 Tm7 Si16 Mo12'
_cell_volume   600.19586979
_cell_formula_units_Z   1
loop_
 _symmetry_equiv_pos_site_id
 _symmetry_equiv_pos_as_xyz
  1  'x, y, z'
loop_
 _atom_site_type_symbol
 _atom_site_label
 _atom_site_symmetry_multiplicity
 _atom_site_fract_x
 _atom_site_fract_y
 _atom_site_fract_z
 _atom_site_occupancy
  Dy  Dy0  1  0.997420  0.167219  0.093466  1
  Tm  Tm1  1  0.496780  0.332440  0.093813  1
  Tm  Tm2  1  0.996817  0.167767  0.406144  1
  Tm  Tm3  1  0.503182  0.667765  0.593867  1
  Tm  Tm4  1  0.003282  0.832197  0.905818  1
  Tm  Tm5  1  0.503261  0.667595  0.905948  1
  Tm  Tm6  1  0.003135  0.832206  0.593860  1
  Tm  Tm7  1  0.496887  0.332334  0.406440  1
  Si  Si8  1  0.660151  0.040645  0.547073  1
  Si  Si9  1  0.160343  0.459946  0.952586  1
  Si  Si10  1  0.341330  0.958454  0.046836  1
  Si  Si11  1  0.839868  0.540596  0.453053  1
  Si  Si12  1  0.339855  0.959357  0.453106  1
  Si  Si13  1  0.839343  0.541924  0.046815  1
  Si  Si14  1  0.659567  0.040541  0.952507  1
  Si  Si15  1  0.160126  0.459347  0.547058  1
  Si  Si16  1  0.534211  0.367819  0.749821  1
  Si  Si17  1  0.034275  0.132241  0.749943  1
  Si  Si18  1  0.465568  0.632134  0.250171  1
  Si  Si19  1  0.965478  0.866924  0.250442  1
  Si  Si20  1  0.802016  0.631619  0.749842  1
  Si  Si21  1  0.302200  0.868515  0.749936  1
  Si  Si22  1  0.198538  0.369362  0.250590  1
  Si  Si23  1  0.696978  0.131340  0.250492  1
  Mo  Mo24  1  0.829970  0.334939  0.624689  1
  Mo  Mo25  1  0.330186  0.165277  0.874949  1
  Mo  Mo26  1  0.170098  0.665049  0.124812  1
  Mo  Mo27  1  0.669972  0.834627  0.375520  1
  Mo  Mo28  1  0.170102  0.665183  0.375463  1
  Mo  Mo29  1  0.669380  0.834369  0.125122  1
  Mo  Mo30  1  0.829656  0.335306  0.874769  1
  Mo  Mo31  1  0.329872  0.165184  0.624768  1
  Mo  Mo32  1  0.666467  0.997401  0.749832  1
  Mo  Mo33  1  0.166458  0.502669  0.749887  1
  Mo  Mo34  1  0.333859  0.001956  0.250335  1
  Mo  Mo35  1  0.833369  0.497758  0.250223  1
