# generated using pymatgen
data_Nb8NiSnSe16
_symmetry_space_group_name_H-M   'P 1'
_cell_length_a   6.99334300
_cell_length_b   6.99334438
_cell_length_c   13.97132600
_cell_angle_alpha   90.00000000
_cell_angle_beta   90.00000000
_cell_angle_gamma   119.99999820
_symmetry_Int_Tables_number   1
_chemical_formula_structural   Nb8NiSnSe16
_chemical_formula_sum   'Nb8 Ni1 Sn1 Se16'
_cell_volume   591.74965109
_cell_formula_units_Z   1
loop_
 _symmetry_equiv_pos_site_id
 _symmetry_equiv_pos_as_xyz
  1  'x, y, z'
loop_
 _atom_site_type_symbol
 _atom_site_label
 _atom_site_symmetry_multiplicity
 _atom_site_fract_x
 _atom_site_fract_y
 _atom_site_fract_z
 _atom_site_occupancy
  Nb  Nb0  1  0.000000  0.000000  0.222538  1
  Nb  Nb1  1  0.000000  0.000000  0.777462  1
  Nb  Nb2  1  0.507316  0.014632  0.222426  1
  Nb  Nb3  1  0.985368  0.492684  0.222426  1
  Nb  Nb4  1  0.507316  0.492684  0.222426  1
  Nb  Nb5  1  0.492684  0.985368  0.777574  1
  Nb  Nb6  1  0.014632  0.507316  0.777574  1
  Nb  Nb7  1  0.492684  0.507316  0.777574  1
  Ni  Ni8  1  0.000000  0.000000  0.000000  1
  Sn  Sn9  1  0.000000  0.000000  0.500000  1
  Se  Se10  1  0.333333  0.666667  0.901106  1
  Se  Se11  1  0.666667  0.333333  0.098894  1
  Se  Se12  1  0.666667  0.333333  0.347955  1
  Se  Se13  1  0.333333  0.666667  0.652045  1
  Se  Se14  1  0.167688  0.832312  0.342088  1
  Se  Se15  1  0.167688  0.335376  0.342088  1
  Se  Se16  1  0.664624  0.832312  0.342088  1
  Se  Se17  1  0.832312  0.167688  0.657912  1
  Se  Se18  1  0.832312  0.664624  0.657912  1
  Se  Se19  1  0.335376  0.167688  0.657912  1
  Se  Se20  1  0.831544  0.168456  0.894954  1
  Se  Se21  1  0.831544  0.663090  0.894954  1
  Se  Se22  1  0.336910  0.168456  0.894954  1
  Se  Se23  1  0.168456  0.831544  0.105046  1
  Se  Se24  1  0.168456  0.336910  0.105046  1
  Se  Se25  1  0.663090  0.831544  0.105046  1
