# generated using pymatgen
data_Tb10Y7Er3Pb16
_symmetry_space_group_name_H-M   'P 1'
_cell_length_a   8.21490100
_cell_length_b   8.29928775
_cell_length_c   15.68844503
_cell_angle_alpha   90.00744247
_cell_angle_beta   90.00053174
_cell_angle_gamma   90.02248339
_symmetry_Int_Tables_number   1
_chemical_formula_structural   Tb10Y7Er3Pb16
_chemical_formula_sum   'Tb10 Y7 Er3 Pb16'
_cell_volume   1069.60400375
_cell_formula_units_Z   1
loop_
 _symmetry_equiv_pos_site_id
 _symmetry_equiv_pos_as_xyz
  1  'x, y, z'
loop_
 _atom_site_type_symbol
 _atom_site_label
 _atom_site_symmetry_multiplicity
 _atom_site_fract_x
 _atom_site_fract_y
 _atom_site_fract_z
 _atom_site_occupancy
  Tb  Tb0  1  0.377726  0.840763  0.620407  1
  Tb  Tb1  1  0.877196  0.659632  0.879619  1
  Tb  Tb2  1  0.534664  0.323074  0.899965  1
  Tb  Tb3  1  0.034354  0.176526  0.600038  1
  Tb  Tb4  1  0.465462  0.676730  0.399763  1
  Tb  Tb5  1  0.965475  0.823284  0.100157  1
  Tb  Tb6  1  0.465416  0.676678  0.100194  1
  Tb  Tb7  1  0.965433  0.823333  0.399884  1
  Tb  Tb8  1  0.534731  0.323173  0.600069  1
  Tb  Tb9  1  0.034419  0.176426  0.899928  1
  Y  Y10  1  0.377511  0.840910  0.879512  1
  Y  Y11  1  0.876983  0.659477  0.620459  1
  Y  Y12  1  0.622649  0.159173  0.379409  1
  Y  Y13  1  0.122623  0.340808  0.120698  1
  Y  Y14  1  0.622626  0.159248  0.120647  1
  Y  Y15  1  0.122597  0.340728  0.379248  1
  Y  Y16  1  0.208897  0.503631  0.750031  1
  Er  Er17  1  0.709094  0.996119  0.749965  1
  Er  Er18  1  0.790960  0.496081  0.250027  1
  Er  Er19  1  0.290962  0.003830  0.249983  1
  Pb  Pb20  1  0.280967  0.032720  0.043069  1
  Pb  Pb21  1  0.781001  0.467354  0.456920  1
  Pb  Pb22  1  0.719145  0.967386  0.542976  1
  Pb  Pb23  1  0.219205  0.532805  0.957415  1
  Pb  Pb24  1  0.718868  0.967442  0.956999  1
  Pb  Pb25  1  0.218936  0.532744  0.542614  1
  Pb  Pb26  1  0.280952  0.032819  0.456838  1
  Pb  Pb27  1  0.780989  0.467259  0.043169  1
  Pb  Pb28  1  0.573197  0.626458  0.749967  1
  Pb  Pb29  1  0.072175  0.874569  0.750031  1
  Pb  Pb30  1  0.427718  0.373744  0.249995  1
  Pb  Pb31  1  0.927702  0.126176  0.250006  1
  Pb  Pb32  1  0.346454  0.151741  0.750004  1
  Pb  Pb33  1  0.845575  0.346978  0.749993  1
  Pb  Pb34  1  0.653706  0.847201  0.249998  1
  Pb  Pb35  1  0.153629  0.652978  0.250003  1
