# generated using pymatgen
data_LiY2(PRh2)6
_symmetry_space_group_name_H-M   'P 1'
_cell_length_a   9.62769700
_cell_length_b   9.62769746
_cell_length_c   3.91801700
_cell_angle_alpha   90.00000000
_cell_angle_beta   90.00000000
_cell_angle_gamma   119.99999499
_symmetry_Int_Tables_number   1
_chemical_formula_structural   LiY2(PRh2)6
_chemical_formula_sum   'Li1 Y2 P6 Rh12'
_cell_volume   314.51532962
_cell_formula_units_Z   1
loop_
 _symmetry_equiv_pos_site_id
 _symmetry_equiv_pos_as_xyz
  1  'x, y, z'
loop_
 _atom_site_type_symbol
 _atom_site_label
 _atom_site_symmetry_multiplicity
 _atom_site_fract_x
 _atom_site_fract_y
 _atom_site_fract_z
 _atom_site_occupancy
  Li  Li0  1  0.000000  0.000000  0.500000  1
  Y  Y1  1  0.333333  0.666667  0.750712  1
  Y  Y2  1  0.666667  0.333333  0.249288  1
  P  P3  1  0.399124  0.282826  0.748424  1
  P  P4  1  0.717174  0.116298  0.748424  1
  P  P5  1  0.883702  0.600876  0.748424  1
  P  P6  1  0.600876  0.717174  0.251576  1
  P  P7  1  0.282826  0.883702  0.251576  1
  P  P8  1  0.116298  0.399124  0.251576  1
  Rh  Rh9  1  0.453109  0.065586  0.749496  1
  Rh  Rh10  1  0.934414  0.387523  0.749496  1
  Rh  Rh11  1  0.612477  0.546891  0.749496  1
  Rh  Rh12  1  0.546891  0.934414  0.250504  1
  Rh  Rh13  1  0.065586  0.612477  0.250504  1
  Rh  Rh14  1  0.387523  0.453109  0.250504  1
  Rh  Rh15  1  0.158222  0.286196  0.751314  1
  Rh  Rh16  1  0.713804  0.872026  0.751314  1
  Rh  Rh17  1  0.127974  0.841778  0.751314  1
  Rh  Rh18  1  0.841778  0.713804  0.248686  1
  Rh  Rh19  1  0.286196  0.127974  0.248686  1
  Rh  Rh20  1  0.872026  0.158222  0.248686  1
