# generated using pymatgen
data_Tb8Tm2Sn5Sb3
_symmetry_space_group_name_H-M   'P 1'
_cell_length_a   8.09539300
_cell_length_b   8.14047919
_cell_length_c   15.42621228
_cell_angle_alpha   90.23495369
_cell_angle_beta   90.00000000
_cell_angle_gamma   90.00000000
_symmetry_Int_Tables_number   1
_chemical_formula_structural   Tb8Tm2Sn5Sb3
_chemical_formula_sum   'Tb16 Tm4 Sn10 Sb6'
_cell_volume   1016.58467657
_cell_formula_units_Z   2
loop_
 _symmetry_equiv_pos_site_id
 _symmetry_equiv_pos_as_xyz
  1  'x, y, z'
loop_
 _atom_site_type_symbol
 _atom_site_label
 _atom_site_symmetry_multiplicity
 _atom_site_fract_x
 _atom_site_fract_y
 _atom_site_fract_z
 _atom_site_occupancy
  Tb  Tb0  1  0.372311  0.839836  0.878061  1
  Tb  Tb1  1  0.872311  0.660164  0.621939  1
  Tb  Tb2  1  0.626815  0.159828  0.377531  1
  Tb  Tb3  1  0.126815  0.340172  0.122469  1
  Tb  Tb4  1  0.628104  0.161296  0.121777  1
  Tb  Tb5  1  0.128104  0.338704  0.378223  1
  Tb  Tb6  1  0.371431  0.840084  0.622654  1
  Tb  Tb7  1  0.871431  0.659916  0.877346  1
  Tb  Tb8  1  0.535859  0.326864  0.897753  1
  Tb  Tb9  1  0.035859  0.173136  0.602247  1
  Tb  Tb10  1  0.465641  0.677347  0.397591  1
  Tb  Tb11  1  0.965641  0.822653  0.102409  1
  Tb  Tb12  1  0.469559  0.673456  0.101716  1
  Tb  Tb13  1  0.969559  0.826544  0.398284  1
  Tb  Tb14  1  0.530339  0.320471  0.601159  1
  Tb  Tb15  1  0.030339  0.179529  0.898841  1
  Tm  Tm16  1  0.201173  0.500109  0.749729  1
  Tm  Tm17  1  0.701173  0.999891  0.750271  1
  Tm  Tm18  1  0.799156  0.499347  0.248704  1
  Tm  Tm19  1  0.299156  0.000653  0.251296  1
  Sn  Sn20  1  0.284474  0.032152  0.456573  1
  Sn  Sn21  1  0.784474  0.467848  0.043427  1
  Sn  Sn22  1  0.565507  0.621302  0.749289  1
  Sn  Sn23  1  0.065507  0.878698  0.750711  1
  Sn  Sn24  1  0.433751  0.378450  0.250182  1
  Sn  Sn25  1  0.933751  0.121550  0.249818  1
  Sn  Sn26  1  0.337722  0.148729  0.750946  1
  Sn  Sn27  1  0.837722  0.351271  0.749054  1
  Sn  Sn28  1  0.663059  0.851837  0.249881  1
  Sn  Sn29  1  0.163059  0.648163  0.250119  1
  Sb  Sb30  1  0.280097  0.028659  0.045225  1
  Sb  Sb31  1  0.780097  0.471341  0.454775  1
  Sb  Sb32  1  0.717090  0.969828  0.544906  1
  Sb  Sb33  1  0.217090  0.530172  0.955094  1
  Sb  Sb34  1  0.717912  0.970766  0.954431  1
  Sb  Sb35  1  0.217912  0.529234  0.545569  1
