# generated using pymatgen
data_TbDy5BiO12
_symmetry_space_group_name_H-M   'P 1'
_cell_length_a   6.58090820
_cell_length_b   6.58013670
_cell_length_c   6.57941619
_cell_angle_alpha   99.06532232
_cell_angle_beta   99.07557367
_cell_angle_gamma   99.03637906
_symmetry_Int_Tables_number   1
_chemical_formula_structural   TbDy5BiO12
_chemical_formula_sum   'Tb1 Dy5 Bi1 O12'
_cell_volume   272.95213762
_cell_formula_units_Z   1
loop_
 _symmetry_equiv_pos_site_id
 _symmetry_equiv_pos_as_xyz
  1  'x, y, z'
loop_
 _atom_site_type_symbol
 _atom_site_label
 _atom_site_symmetry_multiplicity
 _atom_site_fract_x
 _atom_site_fract_y
 _atom_site_fract_z
 _atom_site_occupancy
  Tb  Tb0  1  0.609349  0.141241  0.306705  1
  Dy  Dy1  1  0.693137  0.390885  0.858520  1
  Dy  Dy2  1  0.859066  0.693194  0.390862  1
  Dy  Dy3  1  0.390529  0.858841  0.693278  1
  Dy  Dy4  1  0.306374  0.609192  0.140992  1
  Dy  Dy5  1  0.141321  0.306965  0.609588  1
  Bi  Bi6  1  0.999814  0.999763  0.999655  1
  O  O7  1  0.434031  0.178151  0.586247  1
  O  O8  1  0.585053  0.435582  0.177547  1
  O  O9  1  0.178302  0.584938  0.434352  1
  O  O10  1  0.565383  0.820780  0.415398  1
  O  O11  1  0.414944  0.565716  0.821787  1
  O  O12  1  0.822428  0.415884  0.566276  1
  O  O13  1  0.069910  0.316017  0.949549  1
  O  O14  1  0.683954  0.050582  0.929679  1
  O  O15  1  0.050359  0.930162  0.683703  1
  O  O16  1  0.930012  0.683853  0.050625  1
  O  O17  1  0.315464  0.948575  0.069013  1
  O  O18  1  0.950569  0.069678  0.316226  1
