# generated using pymatgen
data_La4Pr12Cd4TcPt3
_symmetry_space_group_name_H-M   'P 1'
_cell_length_a   10.16471849
_cell_length_b   10.16471840
_cell_length_c   10.16471814
_cell_angle_alpha   59.23326090
_cell_angle_beta   59.23326106
_cell_angle_gamma   59.23325792
_symmetry_Int_Tables_number   1
_chemical_formula_structural   La4Pr12Cd4TcPt3
_chemical_formula_sum   'La4 Pr12 Cd4 Tc1 Pt3'
_cell_volume   729.65704161
_cell_formula_units_Z   1
loop_
 _symmetry_equiv_pos_site_id
 _symmetry_equiv_pos_as_xyz
  1  'x, y, z'
loop_
 _atom_site_type_symbol
 _atom_site_label
 _atom_site_symmetry_multiplicity
 _atom_site_fract_x
 _atom_site_fract_y
 _atom_site_fract_z
 _atom_site_occupancy
  La  La0  1  0.351335  0.351335  0.351335  1
  La  La1  1  0.345337  0.345337  0.956726  1
  La  La2  1  0.345337  0.956726  0.345337  1
  La  La3  1  0.956726  0.345337  0.345337  1
  Pr  Pr4  1  0.816822  0.188451  0.188451  1
  Pr  Pr5  1  0.188600  0.807483  0.807483  1
  Pr  Pr6  1  0.188451  0.816822  0.188451  1
  Pr  Pr7  1  0.807483  0.188600  0.807483  1
  Pr  Pr8  1  0.188451  0.188451  0.816822  1
  Pr  Pr9  1  0.807483  0.807483  0.188600  1
  Pr  Pr10  1  0.935780  0.564272  0.564272  1
  Pr  Pr11  1  0.557320  0.937038  0.937038  1
  Pr  Pr12  1  0.564272  0.935780  0.564272  1
  Pr  Pr13  1  0.937038  0.557320  0.937038  1
  Pr  Pr14  1  0.564272  0.564272  0.935780  1
  Pr  Pr15  1  0.937038  0.937038  0.557320  1
  Cd  Cd16  1  0.579444  0.579444  0.579444  1
  Cd  Cd17  1  0.580782  0.580782  0.256570  1
  Cd  Cd18  1  0.580782  0.256570  0.580782  1
  Cd  Cd19  1  0.256570  0.580782  0.580782  1
  Tc  Tc20  1  0.144347  0.144347  0.144347  1
  Pt  Pt21  1  0.146070  0.146070  0.574187  1
  Pt  Pt22  1  0.146070  0.574187  0.146070  1
  Pt  Pt23  1  0.574187  0.146070  0.146070  1
