# generated using pymatgen
data_Rb8Y(WBr8)3
_symmetry_space_group_name_H-M   'P 1'
_cell_length_a   13.34498025
_cell_length_b   13.34497983
_cell_length_c   13.34498075
_cell_angle_alpha   131.84289011
_cell_angle_beta   131.84288792
_cell_angle_gamma   70.47727888
_symmetry_Int_Tables_number   1
_chemical_formula_structural   Rb8Y(WBr8)3
_chemical_formula_sum   'Rb8 Y1 W3 Br24'
_cell_volume   1292.41668767
_cell_formula_units_Z   1
loop_
 _symmetry_equiv_pos_site_id
 _symmetry_equiv_pos_as_xyz
  1  'x, y, z'
loop_
 _atom_site_type_symbol
 _atom_site_label
 _atom_site_symmetry_multiplicity
 _atom_site_fract_x
 _atom_site_fract_y
 _atom_site_fract_z
 _atom_site_occupancy
  Rb  Rb0  1  0.117832  0.639775  0.998605  1
  Rb  Rb1  1  0.360225  0.882168  0.001395  1
  Rb  Rb2  1  0.641170  0.639775  0.521942  1
  Rb  Rb3  1  0.360225  0.358830  0.478058  1
  Rb  Rb4  1  0.880773  0.358830  0.998605  1
  Rb  Rb5  1  0.880773  0.882168  0.521942  1
  Rb  Rb6  1  0.117832  0.119227  0.478058  1
  Rb  Rb7  1  0.641170  0.119227  0.001395  1
  Y  Y8  1  0.000000  0.000000  0.000000  1
  W  W9  1  0.750000  0.250000  0.500000  1
  W  W10  1  0.500000  0.500000  0.000000  1
  W  W11  1  0.250000  0.750000  0.500000  1
  Br  Br12  1  0.256422  0.999715  0.256706  1
  Br  Br13  1  0.000285  0.743578  0.743294  1
  Br  Br14  1  0.251836  0.985288  0.733452  1
  Br  Br15  1  0.748649  0.482226  0.733578  1
  Br  Br16  1  0.481616  0.748164  0.733452  1
  Br  Br17  1  0.128580  0.128580  0.000000  1
  Br  Br18  1  0.499608  0.732853  0.233246  1
  Br  Br19  1  0.866632  0.366632  0.500000  1
  Br  Br20  1  0.000285  0.256991  0.256706  1
  Br  Br21  1  0.383021  0.383021  0.000000  1
  Br  Br22  1  0.616979  0.616979  0.000000  1
  Br  Br23  1  0.499608  0.266362  0.766754  1
  Br  Br24  1  0.267147  0.500392  0.766754  1
  Br  Br25  1  0.517774  0.251351  0.266422  1
  Br  Br26  1  0.366297  0.866297  0.500000  1
  Br  Br27  1  0.633368  0.133368  0.500000  1
  Br  Br28  1  0.251836  0.518384  0.266548  1
  Br  Br29  1  0.133703  0.633703  0.500000  1
  Br  Br30  1  0.014712  0.748164  0.266548  1
  Br  Br31  1  0.984929  0.251351  0.733578  1
  Br  Br32  1  0.743009  0.999715  0.743294  1
  Br  Br33  1  0.733638  0.500392  0.233246  1
  Br  Br34  1  0.748649  0.015071  0.266422  1
  Br  Br35  1  0.871420  0.871420  0.000000  1
