# generated using pymatgen
data_TbDyCo6(SiB)2
_symmetry_space_group_name_H-M   'P 1'
_cell_length_a   5.14981400
_cell_length_b   5.15066554
_cell_length_c   6.45533800
_cell_angle_alpha   90.00000000
_cell_angle_beta   90.00000000
_cell_angle_gamma   119.99453118
_symmetry_Int_Tables_number   1
_chemical_formula_structural   TbDyCo6(SiB)2
_chemical_formula_sum   'Tb1 Dy1 Co6 Si2 B2'
_cell_volume   148.29566038
_cell_formula_units_Z   1
loop_
 _symmetry_equiv_pos_site_id
 _symmetry_equiv_pos_as_xyz
  1  'x, y, z'
loop_
 _atom_site_type_symbol
 _atom_site_label
 _atom_site_symmetry_multiplicity
 _atom_site_fract_x
 _atom_site_fract_y
 _atom_site_fract_z
 _atom_site_occupancy
  Tb  Tb0  1  0.999974  0.000000  0.000000  1
  Dy  Dy1  1  0.999993  0.000000  0.500000  1
  Co  Co2  1  0.499993  0.000000  0.283513  1
  Co  Co3  1  0.499990  0.500004  0.283546  1
  Co  Co4  1  0.999986  0.499996  0.283546  1
  Co  Co5  1  0.499993  0.000000  0.716487  1
  Co  Co6  1  0.499990  0.500004  0.716454  1
  Co  Co7  1  0.999986  0.499996  0.716454  1
  Si  Si8  1  0.333220  0.666498  0.000000  1
  Si  Si9  1  0.666723  0.333502  0.000000  1
  B  B10  1  0.333272  0.666593  0.500000  1
  B  B11  1  0.666679  0.333407  0.500000  1
