# generated using pymatgen
data_Na4NdU(Co3P2)6
_symmetry_space_group_name_H-M   'P 1'
_cell_length_a   3.70106000
_cell_length_b   10.50041495
_cell_length_c   12.12565040
_cell_angle_alpha   90.43610619
_cell_angle_beta   90.00000000
_cell_angle_gamma   90.00000000
_symmetry_Int_Tables_number   1
_chemical_formula_structural   Na4NdU(Co3P2)6
_chemical_formula_sum   'Na4 Nd1 U1 Co18 P12'
_cell_volume   471.22144820
_cell_formula_units_Z   1
loop_
 _symmetry_equiv_pos_site_id
 _symmetry_equiv_pos_as_xyz
  1  'x, y, z'
loop_
 _atom_site_type_symbol
 _atom_site_label
 _atom_site_symmetry_multiplicity
 _atom_site_fract_x
 _atom_site_fract_y
 _atom_site_fract_z
 _atom_site_occupancy
  Na  Na0  1  0.000000  0.499264  0.522872  1
  Na  Na1  1  0.500000  0.998954  0.476600  1
  Na  Na2  1  0.500000  0.182183  0.204172  1
  Na  Na3  1  0.000000  0.681228  0.795270  1
  Nd  Nd4  1  0.000000  0.324744  0.790732  1
  U  U5  1  0.500000  0.828557  0.213016  1
  Co  Co6  1  0.500000  0.501446  0.157294  1
  Co  Co7  1  0.000000  0.000957  0.843202  1
  Co  Co8  1  0.500000  0.497886  0.698791  1
  Co  Co9  1  0.000000  0.985120  0.295365  1
  Co  Co10  1  0.000000  0.504449  0.989850  1
  Co  Co11  1  0.500000  0.000826  0.013025  1
  Co  Co12  1  0.500000  0.336546  0.995115  1
  Co  Co13  1  0.500000  0.672256  0.998394  1
  Co  Co14  1  0.000000  0.170288  0.005728  1
  Co  Co15  1  0.000000  0.836364  0.004607  1
  Co  Co16  1  0.500000  0.295539  0.426794  1
  Co  Co17  1  0.500000  0.694633  0.435010  1
  Co  Co18  1  0.000000  0.195840  0.563127  1
  Co  Co19  1  0.000000  0.795977  0.573521  1
  Co  Co20  1  0.500000  0.879658  0.710632  1
  Co  Co21  1  0.500000  0.118217  0.706725  1
  Co  Co22  1  0.000000  0.620562  0.290363  1
  Co  Co23  1  0.000000  0.379772  0.290468  1
  P  P24  1  0.500000  0.507981  0.883499  1
  P  P25  1  0.000000  0.004787  0.114439  1
  P  P26  1  0.500000  0.496420  0.340347  1
  P  P27  1  0.000000  0.997316  0.659130  1
  P  P28  1  0.500000  0.302807  0.609320  1
  P  P29  1  0.500000  0.691489  0.622361  1
  P  P30  1  0.000000  0.189465  0.377197  1
  P  P31  1  0.000000  0.799957  0.391368  1
  P  P32  1  0.500000  0.846514  0.891653  1
  P  P33  1  0.500000  0.152849  0.893959  1
  P  P34  1  0.000000  0.660325  0.108482  1
  P  P35  1  0.000000  0.348829  0.107569  1
