# generated using pymatgen
data_V5Tc3
_symmetry_space_group_name_H-M   'P 1'
_cell_length_a   3.01218800
_cell_length_b   3.01218800
_cell_length_c   12.10439800
_cell_angle_alpha   90.00000000
_cell_angle_beta   90.00000000
_cell_angle_gamma   90.00000000
_symmetry_Int_Tables_number   1
_chemical_formula_structural   V5Tc3
_chemical_formula_sum   'V5 Tc3'
_cell_volume   109.82655049
_cell_formula_units_Z   1
loop_
 _symmetry_equiv_pos_site_id
 _symmetry_equiv_pos_as_xyz
  1  'x, y, z'
loop_
 _atom_site_type_symbol
 _atom_site_label
 _atom_site_symmetry_multiplicity
 _atom_site_fract_x
 _atom_site_fract_y
 _atom_site_fract_z
 _atom_site_occupancy
  V  V0  1  0.499999  0.499999  0.000000  1
  V  V1  1  0.499999  0.499999  0.249525  1
  V  V2  1  0.000000  0.000000  0.375922  1
  V  V3  1  0.000000  0.000000  0.624078  1
  V  V4  1  0.499999  0.499999  0.750475  1
  Tc  Tc5  1  0.000000  0.000000  0.126534  1
  Tc  Tc6  1  0.499999  0.499999  0.500000  1
  Tc  Tc7  1  0.000000  0.000000  0.873466  1
