# generated using pymatgen
data_Ho17Er3(IrPt5)2
_symmetry_space_group_name_H-M   'P 1'
_cell_length_a   10.98869400
_cell_length_b   10.98780900
_cell_length_c   6.38250600
_cell_angle_alpha   90.00000000
_cell_angle_beta   90.00000000
_cell_angle_gamma   90.00100114
_symmetry_Int_Tables_number   1
_chemical_formula_structural   Ho17Er3(IrPt5)2
_chemical_formula_sum   'Ho17 Er3 Ir2 Pt10'
_cell_volume   770.63443847
_cell_formula_units_Z   1
loop_
 _symmetry_equiv_pos_site_id
 _symmetry_equiv_pos_as_xyz
  1  'x, y, z'
loop_
 _atom_site_type_symbol
 _atom_site_label
 _atom_site_symmetry_multiplicity
 _atom_site_fract_x
 _atom_site_fract_y
 _atom_site_fract_z
 _atom_site_occupancy
  Ho  Ho0  1  0.292030  0.088003  0.376666  1
  Ho  Ho1  1  0.291970  0.912021  0.876729  1
  Ho  Ho2  1  0.708030  0.087979  0.876729  1
  Ho  Ho3  1  0.707970  0.911997  0.376666  1
  Ho  Ho4  1  0.587974  0.791935  0.876713  1
  Ho  Ho5  1  0.587970  0.208069  0.376739  1
  Ho  Ho6  1  0.412030  0.791931  0.376739  1
  Ho  Ho7  1  0.412026  0.208065  0.876713  1
  Ho  Ho8  1  0.205723  0.412757  0.623842  1
  Ho  Ho9  1  0.205723  0.587243  0.123862  1
  Ho  Ho10  1  0.794277  0.412757  0.123862  1
  Ho  Ho11  1  0.794277  0.587243  0.623842  1
  Ho  Ho12  1  0.912757  0.705663  0.123836  1
  Ho  Ho13  1  0.912731  0.294397  0.623909  1
  Ho  Ho14  1  0.087269  0.705603  0.623909  1
  Ho  Ho15  1  0.087243  0.294337  0.123836  1
  Ho  Ho16  1  0.000000  0.000000  0.500582  1
  Er  Er17  1  0.000000  0.000000  0.000598  1
  Er  Er18  1  0.500000  0.500000  0.000586  1
  Er  Er19  1  0.500000  0.500000  0.500567  1
  Ir  Ir20  1  0.000000  0.500000  0.880021  1
  Ir  Ir21  1  0.000000  0.500000  0.379980  1
  Pt  Pt22  1  0.845878  0.152960  0.249561  1
  Pt  Pt23  1  0.845897  0.847020  0.750060  1
  Pt  Pt24  1  0.154103  0.152980  0.750060  1
  Pt  Pt25  1  0.154122  0.847040  0.249561  1
  Pt  Pt26  1  0.652829  0.346031  0.749822  1
  Pt  Pt27  1  0.652827  0.653975  0.249799  1
  Pt  Pt28  1  0.347173  0.346025  0.249799  1
  Pt  Pt29  1  0.347171  0.653969  0.749822  1
  Pt  Pt30  1  0.500000  0.000000  0.117287  1
  Pt  Pt31  1  0.500000  0.000000  0.617294  1
