# generated using pymatgen
data_K2TiBeSe4
_symmetry_space_group_name_H-M   'P 1'
_cell_length_a   13.87155796
_cell_length_b   12.37294512
_cell_length_c   7.43637948
_cell_angle_alpha   85.02155516
_cell_angle_beta   62.69786169
_cell_angle_gamma   32.28057844
_symmetry_Int_Tables_number   1
_chemical_formula_structural   K2TiBeSe4
_chemical_formula_sum   'K4 Ti2 Be2 Se8'
_cell_volume   468.27427344
_cell_formula_units_Z   2
loop_
 _symmetry_equiv_pos_site_id
 _symmetry_equiv_pos_as_xyz
  1  'x, y, z'
loop_
 _atom_site_type_symbol
 _atom_site_label
 _atom_site_symmetry_multiplicity
 _atom_site_fract_x
 _atom_site_fract_y
 _atom_site_fract_z
 _atom_site_occupancy
  K  K0  1  0.678463  0.678463  0.321537  1
  K  K1  1  0.321537  0.321537  0.678463  1
  K  K2  1  0.571537  0.571537  0.928463  1
  K  K3  1  0.928463  0.928463  0.571537  1
  Ti  Ti4  1  0.000000  0.000000  0.000000  1
  Ti  Ti5  1  0.250000  0.250000  0.250000  1
  Be  Be6  1  0.500000  0.500000  0.500000  1
  Be  Be7  1  0.750000  0.750000  0.750000  1
  Se  Se8  1  0.365999  0.026665  0.940450  1
  Se  Se9  1  0.666886  0.940450  0.026665  1
  Se  Se10  1  0.940450  0.666886  0.365999  1
  Se  Se11  1  0.026665  0.365999  0.666886  1
  Se  Se12  1  0.884001  0.223335  0.309550  1
  Se  Se13  1  0.583114  0.309550  0.223335  1
  Se  Se14  1  0.309550  0.583114  0.884001  1
  Se  Se15  1  0.223335  0.884001  0.583114  1
