# generated using pymatgen
data_CaNd3Tm4(B6Os)4
_symmetry_space_group_name_H-M   'P 1'
_cell_length_a   3.67237500
_cell_length_b   9.18486683
_cell_length_c   11.62167953
_cell_angle_alpha   90.06230596
_cell_angle_beta   90.00000000
_cell_angle_gamma   90.00000000
_symmetry_Int_Tables_number   1
_chemical_formula_structural   CaNd3Tm4(B6Os)4
_chemical_formula_sum   'Ca1 Nd3 Tm4 B24 Os4'
_cell_volume   392.00221864
_cell_formula_units_Z   1
loop_
 _symmetry_equiv_pos_site_id
 _symmetry_equiv_pos_as_xyz
  1  'x, y, z'
loop_
 _atom_site_type_symbol
 _atom_site_label
 _atom_site_symmetry_multiplicity
 _atom_site_fract_x
 _atom_site_fract_y
 _atom_site_fract_z
 _atom_site_occupancy
  Ca  Ca0  1  0.000000  0.178227  0.914272  1
  Nd  Nd1  1  0.000000  0.321802  0.414667  1
  Nd  Nd2  1  0.000000  0.677532  0.586624  1
  Nd  Nd3  1  0.000000  0.823777  0.084560  1
  Tm  Tm4  1  0.000000  0.944712  0.371687  1
  Tm  Tm5  1  0.000000  0.056521  0.629660  1
  Tm  Tm6  1  0.000000  0.442352  0.126956  1
  Tm  Tm7  1  0.000000  0.555073  0.871796  1
  B  B8  1  0.500000  0.556221  0.429960  1
  B  B9  1  0.500000  0.443891  0.570053  1
  B  B10  1  0.500000  0.056484  0.068071  1
  B  B11  1  0.500000  0.945826  0.930511  1
  B  B12  1  0.500000  0.750503  0.416846  1
  B  B13  1  0.500000  0.249950  0.584034  1
  B  B14  1  0.500000  0.249547  0.081435  1
  B  B15  1  0.500000  0.750596  0.916593  1
  B  B16  1  0.500000  0.790895  0.266278  1
  B  B17  1  0.500000  0.208505  0.735134  1
  B  B18  1  0.500000  0.290534  0.232661  1
  B  B19  1  0.500000  0.708738  0.767015  1
  B  B20  1  0.500000  0.630006  0.184891  1
  B  B21  1  0.500000  0.368559  0.815485  1
  B  B22  1  0.500000  0.130189  0.314454  1
  B  B23  1  0.500000  0.870149  0.686489  1
  B  B24  1  0.500000  0.985526  0.213410  1
  B  B25  1  0.500000  0.016800  0.787132  1
  B  B26  1  0.500000  0.484810  0.285177  1
  B  B27  1  0.500000  0.514291  0.714432  1
  B  B28  1  0.500000  0.600506  0.027381  1
  B  B29  1  0.500000  0.397852  0.972000  1
  B  B30  1  0.500000  0.100804  0.472858  1
  B  B31  1  0.500000  0.899248  0.527784  1
  Os  Os32  1  0.000000  0.639223  0.318762  1
  Os  Os33  1  0.000000  0.360743  0.680855  1
  Os  Os34  1  0.000000  0.139540  0.180908  1
  Os  Os35  1  0.000000  0.860074  0.819172  1
