# generated using pymatgen
data_Ac5Nd(SbO7)2
_symmetry_space_group_name_H-M   'P 1'
_cell_length_a   6.96440800
_cell_length_b   6.94279761
_cell_length_c   8.01132400
_cell_angle_alpha   90.00000000
_cell_angle_beta   90.00000000
_cell_angle_gamma   111.22190754
_symmetry_Int_Tables_number   1
_chemical_formula_structural   Ac5Nd(SbO7)2
_chemical_formula_sum   'Ac5 Nd1 Sb2 O14'
_cell_volume   361.09820775
_cell_formula_units_Z   1
loop_
 _symmetry_equiv_pos_site_id
 _symmetry_equiv_pos_as_xyz
  1  'x, y, z'
loop_
 _atom_site_type_symbol
 _atom_site_label
 _atom_site_symmetry_multiplicity
 _atom_site_fract_x
 _atom_site_fract_y
 _atom_site_fract_z
 _atom_site_occupancy
  Ac  Ac0  1  0.999191  0.993989  0.497812  1
  Ac  Ac1  1  0.999191  0.993989  0.002188  1
  Ac  Ac2  1  0.524949  0.069954  0.250000  1
  Ac  Ac3  1  0.929982  0.476102  0.750000  1
  Ac  Ac4  1  0.477615  0.929983  0.750000  1
  Nd  Nd5  1  0.066536  0.514710  0.250000  1
  Sb  Sb6  1  0.498916  0.502175  0.497349  1
  Sb  Sb7  1  0.498916  0.502175  0.002651  1
  O  O8  1  0.432338  0.195674  0.531076  1
  O  O9  1  0.800289  0.547509  0.461588  1
  O  O10  1  0.432338  0.195674  0.968924  1
  O  O11  1  0.800289  0.547509  0.038412  1
  O  O12  1  0.574164  0.810842  0.468744  1
  O  O13  1  0.197788  0.459478  0.525375  1
  O  O14  1  0.574164  0.810842  0.031256  1
  O  O15  1  0.197788  0.459478  0.974625  1
  O  O16  1  0.155365  0.873458  0.250000  1
  O  O17  1  0.107253  0.845899  0.750000  1
  O  O18  1  0.850044  0.106830  0.750000  1
  O  O19  1  0.898231  0.158457  0.250000  1
  O  O20  1  0.414870  0.434116  0.250000  1
  O  O21  1  0.569778  0.571158  0.750000  1
