# generated using pymatgen
data_YbPa3(TlPt2)2
_symmetry_space_group_name_H-M   'P 1'
_cell_length_a   7.91336500
_cell_length_b   7.91336469
_cell_length_c   7.30208500
_cell_angle_alpha   90.00000000
_cell_angle_beta   90.00000000
_cell_angle_gamma   91.07919199
_symmetry_Int_Tables_number   1
_chemical_formula_structural   YbPa3(TlPt2)2
_chemical_formula_sum   'Yb2 Pa6 Tl4 Pt8'
_cell_volume   457.18525973
_cell_formula_units_Z   2
loop_
 _symmetry_equiv_pos_site_id
 _symmetry_equiv_pos_as_xyz
  1  'x, y, z'
loop_
 _atom_site_type_symbol
 _atom_site_label
 _atom_site_symmetry_multiplicity
 _atom_site_fract_x
 _atom_site_fract_y
 _atom_site_fract_z
 _atom_site_occupancy
  Yb  Yb0  1  0.841141  0.158859  0.000000  1
  Yb  Yb1  1  0.158859  0.841141  0.000000  1
  Pa  Pa2  1  0.679592  0.679592  0.000000  1
  Pa  Pa3  1  0.340042  0.340042  0.500000  1
  Pa  Pa4  1  0.822180  0.177820  0.500000  1
  Pa  Pa5  1  0.659958  0.659958  0.500000  1
  Pa  Pa6  1  0.320408  0.320408  0.000000  1
  Pa  Pa7  1  0.177820  0.822180  0.500000  1
  Tl  Tl8  1  0.500000  0.000000  0.756734  1
  Tl  Tl9  1  0.500000  0.000000  0.243266  1
  Tl  Tl10  1  0.000000  0.500000  0.756734  1
  Tl  Tl11  1  0.000000  0.500000  0.243266  1
  Pt  Pt12  1  0.867305  0.867305  0.723052  1
  Pt  Pt13  1  0.132695  0.132695  0.723052  1
  Pt  Pt14  1  0.627549  0.372451  0.763740  1
  Pt  Pt15  1  0.627549  0.372451  0.236260  1
  Pt  Pt16  1  0.372451  0.627549  0.236260  1
  Pt  Pt17  1  0.132695  0.132695  0.276948  1
  Pt  Pt18  1  0.867305  0.867305  0.276948  1
  Pt  Pt19  1  0.372451  0.627549  0.763740  1
