# generated using pymatgen
data_Tb3CdIn3CuNi
_symmetry_space_group_name_H-M   'P 1'
_cell_length_a   7.77725300
_cell_length_b   7.77725267
_cell_length_c   3.85984000
_cell_angle_alpha   90.00000000
_cell_angle_beta   90.00000000
_cell_angle_gamma   120.00000566
_symmetry_Int_Tables_number   1
_chemical_formula_structural   Tb3CdIn3CuNi
_chemical_formula_sum   'Tb3 Cd1 In3 Cu1 Ni1'
_cell_volume   202.18658885
_cell_formula_units_Z   1
loop_
 _symmetry_equiv_pos_site_id
 _symmetry_equiv_pos_as_xyz
  1  'x, y, z'
loop_
 _atom_site_type_symbol
 _atom_site_label
 _atom_site_symmetry_multiplicity
 _atom_site_fract_x
 _atom_site_fract_y
 _atom_site_fract_z
 _atom_site_occupancy
  Tb  Tb0  1  0.031894  0.609478  0.500000  1
  Tb  Tb1  1  0.390522  0.422415  0.500000  1
  Tb  Tb2  1  0.577585  0.968106  0.500000  1
  Cd  Cd3  1  0.666667  0.333333  0.000000  1
  In  In4  1  0.749596  0.748967  0.000000  1
  In  In5  1  0.999371  0.250404  0.000000  1
  In  In6  1  0.251033  0.000629  0.000000  1
  Cu  Cu7  1  0.000000  0.000000  0.500000  1
  Ni  Ni8  1  0.333333  0.666667  0.000000  1
