# generated using pymatgen
data_Ho2ErZr(Al3Rh)6
_symmetry_space_group_name_H-M   'P 1'
_cell_length_a   7.53130502
_cell_length_b   7.51974641
_cell_length_c   9.39242900
_cell_angle_alpha   90.00000000
_cell_angle_beta   90.00000000
_cell_angle_gamma   119.46528083
_symmetry_Int_Tables_number   1
_chemical_formula_structural   Ho2ErZr(Al3Rh)6
_chemical_formula_sum   'Ho2 Er1 Zr1 Al18 Rh6'
_cell_volume   463.12360328
_cell_formula_units_Z   1
loop_
 _symmetry_equiv_pos_site_id
 _symmetry_equiv_pos_as_xyz
  1  'x, y, z'
loop_
 _atom_site_type_symbol
 _atom_site_label
 _atom_site_symmetry_multiplicity
 _atom_site_fract_x
 _atom_site_fract_y
 _atom_site_fract_z
 _atom_site_occupancy
  Ho  Ho0  1  0.006344  0.326585  0.250000  1
  Ho  Ho1  1  0.327754  0.006737  0.250000  1
  Er  Er2  1  0.672328  0.995975  0.750000  1
  Zr  Zr3  1  0.997404  0.672540  0.750000  1
  Al  Al4  1  0.124225  0.121891  0.750000  1
  Al  Al5  1  0.870632  0.869355  0.250000  1
  Al  Al6  1  0.999763  0.338460  0.579925  1
  Al  Al7  1  0.999692  0.664549  0.428045  1
  Al  Al8  1  0.999692  0.664549  0.071955  1
  Al  Al9  1  0.332666  0.997520  0.920018  1
  Al  Al10  1  0.999763  0.338460  0.920075  1
  Al  Al11  1  0.663933  0.998467  0.075410  1
  Al  Al12  1  0.663933  0.998467  0.424590  1
  Al  Al13  1  0.332666  0.997520  0.579982  1
  Al  Al14  1  0.333656  0.333693  0.047251  1
  Al  Al15  1  0.669955  0.667909  0.943952  1
  Al  Al16  1  0.669955  0.667909  0.556048  1
  Al  Al17  1  0.333656  0.333693  0.452749  1
  Al  Al18  1  0.336603  0.552202  0.750000  1
  Al  Al19  1  0.660239  0.449976  0.250000  1
  Al  Al20  1  0.557239  0.344404  0.750000  1
  Al  Al21  1  0.448516  0.658410  0.250000  1
  Rh  Rh22  1  0.672859  0.328047  0.501078  1
  Rh  Rh23  1  0.327740  0.672863  0.501744  1
  Rh  Rh24  1  0.327740  0.672863  0.998256  1
  Rh  Rh25  1  0.672859  0.328047  0.998922  1
  Rh  Rh26  1  0.999093  0.999457  0.501106  1
  Rh  Rh27  1  0.999093  0.999457  0.998894  1
