# generated using pymatgen
data_Pr16Ag4OsPt3
_symmetry_space_group_name_H-M   'P 1'
_cell_length_a   10.03461751
_cell_length_b   10.03461658
_cell_length_c   10.03461709
_cell_angle_alpha   59.69938254
_cell_angle_beta   59.69938668
_cell_angle_gamma   59.69938351
_symmetry_Int_Tables_number   1
_chemical_formula_structural   Pr16Ag4OsPt3
_chemical_formula_sum   'Pr16 Ag4 Os1 Pt3'
_cell_volume   709.59683454
_cell_formula_units_Z   1
loop_
 _symmetry_equiv_pos_site_id
 _symmetry_equiv_pos_as_xyz
  1  'x, y, z'
loop_
 _atom_site_type_symbol
 _atom_site_label
 _atom_site_symmetry_multiplicity
 _atom_site_fract_x
 _atom_site_fract_y
 _atom_site_fract_z
 _atom_site_occupancy
  Pr  Pr0  1  0.354349  0.354349  0.354349  1
  Pr  Pr1  1  0.349537  0.349537  0.945541  1
  Pr  Pr2  1  0.349537  0.945541  0.349537  1
  Pr  Pr3  1  0.945541  0.349537  0.349537  1
  Pr  Pr4  1  0.816367  0.187901  0.187901  1
  Pr  Pr5  1  0.192682  0.806569  0.806569  1
  Pr  Pr6  1  0.187901  0.816367  0.187901  1
  Pr  Pr7  1  0.806569  0.192682  0.806569  1
  Pr  Pr8  1  0.187901  0.187901  0.816367  1
  Pr  Pr9  1  0.806569  0.806569  0.192682  1
  Pr  Pr10  1  0.936443  0.563208  0.563208  1
  Pr  Pr11  1  0.559355  0.936666  0.936666  1
  Pr  Pr12  1  0.563208  0.936443  0.563208  1
  Pr  Pr13  1  0.936666  0.559355  0.936666  1
  Pr  Pr14  1  0.563208  0.563208  0.936443  1
  Pr  Pr15  1  0.936666  0.936666  0.559355  1
  Ag  Ag16  1  0.582343  0.582343  0.582343  1
  Ag  Ag17  1  0.583186  0.583186  0.253824  1
  Ag  Ag18  1  0.583186  0.253824  0.583186  1
  Ag  Ag19  1  0.253824  0.583186  0.583186  1
  Os  Os20  1  0.142335  0.142335  0.142335  1
  Pt  Pt21  1  0.145960  0.145960  0.570711  1
  Pt  Pt22  1  0.145960  0.570711  0.145960  1
  Pt  Pt23  1  0.570711  0.145960  0.145960  1
