# generated using pymatgen
data_YbPa(Ni7B2)3
_symmetry_space_group_name_H-M   'P 1'
_cell_length_a   7.51375637
_cell_length_b   7.51375770
_cell_length_c   7.51375700
_cell_angle_alpha   60.00000749
_cell_angle_beta   60.00000162
_cell_angle_gamma   60.00000441
_symmetry_Int_Tables_number   1
_chemical_formula_structural   YbPa(Ni7B2)3
_chemical_formula_sum   'Yb1 Pa1 Ni21 B6'
_cell_volume   299.95526364
_cell_formula_units_Z   1
loop_
 _symmetry_equiv_pos_site_id
 _symmetry_equiv_pos_as_xyz
  1  'x, y, z'
loop_
 _atom_site_type_symbol
 _atom_site_label
 _atom_site_symmetry_multiplicity
 _atom_site_fract_x
 _atom_site_fract_y
 _atom_site_fract_z
 _atom_site_occupancy
  Yb  Yb0  1  0.250000  0.250000  0.250000  1
  Pa  Pa1  1  0.750000  0.750000  0.750000  1
  Ni  Ni2  1  0.000000  0.000000  0.000000  1
  Ni  Ni3  1  0.613064  0.613064  0.160806  1
  Ni  Ni4  1  0.613064  0.160806  0.613064  1
  Ni  Ni5  1  0.160806  0.613064  0.613064  1
  Ni  Ni6  1  0.613064  0.613064  0.613064  1
  Ni  Ni7  1  0.385997  0.385997  0.842010  1
  Ni  Ni8  1  0.385997  0.842010  0.385997  1
  Ni  Ni9  1  0.842010  0.385997  0.385997  1
  Ni  Ni10  1  0.385997  0.385997  0.385997  1
  Ni  Ni11  1  0.999580  0.999580  0.338546  1
  Ni  Ni12  1  0.662295  0.999580  0.338546  1
  Ni  Ni13  1  0.999580  0.662295  0.338546  1
  Ni  Ni14  1  0.662295  0.338546  0.999580  1
  Ni  Ni15  1  0.999580  0.338546  0.999580  1
  Ni  Ni16  1  0.999580  0.338546  0.662295  1
  Ni  Ni17  1  0.338546  0.662295  0.999580  1
  Ni  Ni18  1  0.338546  0.999580  0.662295  1
  Ni  Ni19  1  0.338546  0.999580  0.999580  1
  Ni  Ni20  1  0.999580  0.999580  0.662295  1
  Ni  Ni21  1  0.999580  0.662295  0.999580  1
  Ni  Ni22  1  0.662295  0.999580  0.999580  1
  B  B23  1  0.730885  0.730885  0.269115  1
  B  B24  1  0.269115  0.730885  0.269115  1
  B  B25  1  0.730885  0.269115  0.269115  1
  B  B26  1  0.269115  0.269115  0.730885  1
  B  B27  1  0.730885  0.269115  0.730885  1
  B  B28  1  0.269115  0.730885  0.730885  1
