# generated using pymatgen
data_Sr2FeNi2N3
_symmetry_space_group_name_H-M   'P 1'
_cell_length_a   6.56893830
_cell_length_b   6.47737209
_cell_length_c   6.27265049
_cell_angle_alpha   87.53278160
_cell_angle_beta   89.81345560
_cell_angle_gamma   117.55697282
_symmetry_Int_Tables_number   1
_chemical_formula_structural   Sr2FeNi2N3
_chemical_formula_sum   'Sr4 Fe2 Ni4 N6'
_cell_volume   236.31839771
_cell_formula_units_Z   2
loop_
 _symmetry_equiv_pos_site_id
 _symmetry_equiv_pos_as_xyz
  1  'x, y, z'
loop_
 _atom_site_type_symbol
 _atom_site_label
 _atom_site_symmetry_multiplicity
 _atom_site_fract_x
 _atom_site_fract_y
 _atom_site_fract_z
 _atom_site_occupancy
  Sr  Sr0  1  0.825648  0.674038  0.898829  1
  Sr  Sr1  1  0.323973  0.168850  0.605527  1
  Sr  Sr2  1  0.174352  0.325962  0.101171  1
  Sr  Sr3  1  0.676027  0.831150  0.394473  1
  Fe  Fe4  1  0.830302  0.433834  0.401551  1
  Fe  Fe5  1  0.169698  0.566166  0.598449  1
  Ni  Ni6  1  0.815437  0.194849  0.744032  1
  Ni  Ni7  1  0.184563  0.805151  0.255968  1
  Ni  Ni8  1  0.569098  0.164351  0.100194  1
  Ni  Ni9  1  0.430902  0.835649  0.899806  1
  N  N10  1  0.409843  0.585927  0.742388  1
  N  N11  1  0.590157  0.414073  0.257612  1
  N  N12  1  0.005606  0.722345  0.506520  1
  N  N13  1  0.739159  0.019119  0.992329  1
  N  N14  1  0.994394  0.277655  0.493480  1
  N  N15  1  0.260841  0.980881  0.007671  1
