# generated using pymatgen
data_Pr3Nd3(HoAu2)2
_symmetry_space_group_name_H-M   'P 1'
_cell_length_a   5.04641100
_cell_length_b   7.35268543
_cell_length_c   9.24949200
_cell_angle_alpha   89.96291660
_cell_angle_beta   90.00000000
_cell_angle_gamma   90.00000000
_symmetry_Int_Tables_number   1
_chemical_formula_structural   Pr3Nd3(HoAu2)2
_chemical_formula_sum   'Pr3 Nd3 Ho2 Au4'
_cell_volume   343.19930074
_cell_formula_units_Z   1
loop_
 _symmetry_equiv_pos_site_id
 _symmetry_equiv_pos_as_xyz
  1  'x, y, z'
loop_
 _atom_site_type_symbol
 _atom_site_label
 _atom_site_symmetry_multiplicity
 _atom_site_fract_x
 _atom_site_fract_y
 _atom_site_fract_z
 _atom_site_occupancy
  Pr  Pr0  1  0.250000  0.489301  0.175664  1
  Pr  Pr1  1  0.750000  0.510648  0.824222  1
  Pr  Pr2  1  0.250000  0.990702  0.323100  1
  Nd  Nd3  1  0.750000  0.009177  0.676840  1
  Nd  Nd4  1  0.750000  0.650804  0.412695  1
  Nd  Nd5  1  0.250000  0.349200  0.587397  1
  Ho  Ho6  1  0.750000  0.148796  0.078167  1
  Ho  Ho7  1  0.250000  0.851280  0.921473  1
  Au  Au8  1  0.250000  0.243685  0.909389  1
  Au  Au9  1  0.750000  0.756214  0.090493  1
  Au  Au10  1  0.250000  0.758265  0.608153  1
  Au  Au11  1  0.750000  0.241928  0.392405  1
