# generated using pymatgen
data_Rb6PrInBi4
_symmetry_space_group_name_H-M   'P 1'
_cell_length_a   10.46380986
_cell_length_b   10.46381026
_cell_length_c   10.46381144
_cell_angle_alpha   128.64891332
_cell_angle_beta   68.95750821
_cell_angle_gamma   137.26612978
_symmetry_Int_Tables_number   1
_chemical_formula_structural   Rb6PrInBi4
_chemical_formula_sum   'Rb6 Pr1 In1 Bi4'
_cell_volume   596.35265371
_cell_formula_units_Z   1
loop_
 _symmetry_equiv_pos_site_id
 _symmetry_equiv_pos_as_xyz
  1  'x, y, z'
loop_
 _atom_site_type_symbol
 _atom_site_label
 _atom_site_symmetry_multiplicity
 _atom_site_fract_x
 _atom_site_fract_y
 _atom_site_fract_z
 _atom_site_occupancy
  Rb  Rb0  1  0.250000  0.250000  0.000000  1
  Rb  Rb1  1  0.750000  0.750000  0.000000  1
  Rb  Rb2  1  0.828066  0.314683  0.124138  1
  Rb  Rb3  1  0.671933  0.796073  0.486616  1
  Rb  Rb4  1  0.309455  0.185317  0.513384  1
  Rb  Rb5  1  0.190544  0.703928  0.875862  1
  Pr  Pr6  1  0.750000  0.250000  0.500000  1
  In  In7  1  0.250000  0.750000  0.500000  1
  Bi  Bi8  1  0.384643  0.790345  0.199432  1
  Bi  Bi9  1  0.115357  0.314788  0.405702  1
  Bi  Bi10  1  0.909087  0.709655  0.594299  1
  Bi  Bi11  1  0.590913  0.185212  0.800568  1
