# generated using pymatgen
data_Sr5Ca2Nd(RhO6)2
_symmetry_space_group_name_H-M   'P 1'
_cell_length_a   6.79870542
_cell_length_b   6.79870612
_cell_length_c   6.85243939
_cell_angle_alpha   90.99458807
_cell_angle_beta   90.99459985
_cell_angle_gamma   91.80437418
_symmetry_Int_Tables_number   1
_chemical_formula_structural   Sr5Ca2Nd(RhO6)2
_chemical_formula_sum   'Sr5 Ca2 Nd1 Rh2 O12'
_cell_volume   316.48064194
_cell_formula_units_Z   1
loop_
 _symmetry_equiv_pos_site_id
 _symmetry_equiv_pos_as_xyz
  1  'x, y, z'
loop_
 _atom_site_type_symbol
 _atom_site_label
 _atom_site_symmetry_multiplicity
 _atom_site_fract_x
 _atom_site_fract_y
 _atom_site_fract_z
 _atom_site_occupancy
  Sr  Sr0  1  0.117098  0.382902  0.750000  1
  Sr  Sr1  1  0.249562  0.883988  0.617653  1
  Sr  Sr2  1  0.616012  0.250438  0.882347  1
  Sr  Sr3  1  0.383247  0.749305  0.114093  1
  Sr  Sr4  1  0.750695  0.116753  0.385907  1
  Ca  Ca5  1  0.749975  0.750025  0.750000  1
  Ca  Ca6  1  0.251320  0.248680  0.250000  1
  Nd  Nd7  1  0.886602  0.613398  0.250000  1
  Rh  Rh8  1  0.998430  0.000152  0.003346  1
  Rh  Rh9  1  0.499848  0.501570  0.496654  1
  O  O10  1  0.448240  0.582663  0.784657  1
  O  O11  1  0.591266  0.785989  0.443015  1
  O  O12  1  0.950112  0.299431  0.089810  1
  O  O13  1  0.558854  0.425149  0.208880  1
  O  O14  1  0.200569  0.549888  0.410190  1
  O  O15  1  0.041840  0.705866  0.931336  1
  O  O16  1  0.794134  0.458160  0.568664  1
  O  O17  1  0.714011  0.908734  0.056985  1
  O  O18  1  0.074851  0.941146  0.291120  1
  O  O19  1  0.917337  0.051760  0.715343  1
  O  O20  1  0.416998  0.211001  0.549025  1
  O  O21  1  0.288999  0.083002  0.950975  1
