# generated using pymatgen
data_Tb2ThAl7Pd2
_symmetry_space_group_name_H-M   'P 1'
_cell_length_a   9.31325907
_cell_length_b   9.31325816
_cell_length_c   9.31325859
_cell_angle_alpha   34.59545423
_cell_angle_beta   34.59546014
_cell_angle_gamma   34.59545926
_symmetry_Int_Tables_number   1
_chemical_formula_structural   Tb2ThAl7Pd2
_chemical_formula_sum   'Tb2 Th1 Al7 Pd2'
_cell_volume   232.35802054
_cell_formula_units_Z   1
loop_
 _symmetry_equiv_pos_site_id
 _symmetry_equiv_pos_as_xyz
  1  'x, y, z'
loop_
 _atom_site_type_symbol
 _atom_site_label
 _atom_site_symmetry_multiplicity
 _atom_site_fract_x
 _atom_site_fract_y
 _atom_site_fract_z
 _atom_site_occupancy
  Tb  Tb0  1  0.142803  0.142803  0.142803  1
  Tb  Tb1  1  0.857197  0.857197  0.857197  1
  Th  Th2  1  0.000000  0.000000  0.000000  1
  Al  Al3  1  0.583378  0.583378  0.074130  1
  Al  Al4  1  0.925870  0.416623  0.416622  1
  Al  Al5  1  0.416623  0.925870  0.416622  1
  Al  Al6  1  0.500000  0.500000  0.500000  1
  Al  Al7  1  0.583378  0.074130  0.583378  1
  Al  Al8  1  0.074130  0.583378  0.583378  1
  Al  Al9  1  0.416622  0.416622  0.925870  1
  Pd  Pd10  1  0.335658  0.335658  0.335658  1
  Pd  Pd11  1  0.664342  0.664342  0.664342  1
