# generated using pymatgen
data_SmScB6Rh
_symmetry_space_group_name_H-M   'P 1'
_cell_length_a   3.59486700
_cell_length_b   9.06804500
_cell_length_c   11.44237000
_cell_angle_alpha   90.00000000
_cell_angle_beta   90.00000000
_cell_angle_gamma   90.00000000
_symmetry_Int_Tables_number   1
_chemical_formula_structural   SmScB6Rh
_chemical_formula_sum   'Sm4 Sc4 B24 Rh4'
_cell_volume   373.00313414
_cell_formula_units_Z   4
loop_
 _symmetry_equiv_pos_site_id
 _symmetry_equiv_pos_as_xyz
  1  'x, y, z'
loop_
 _atom_site_type_symbol
 _atom_site_label
 _atom_site_symmetry_multiplicity
 _atom_site_fract_x
 _atom_site_fract_y
 _atom_site_fract_z
 _atom_site_occupancy
  Sm  Sm0  1  0.000000  0.820406  0.085450  1
  Sm  Sm1  1  0.000000  0.179594  0.914550  1
  Sm  Sm2  1  0.000000  0.320406  0.414550  1
  Sm  Sm3  1  0.000000  0.679594  0.585450  1
  Sc  Sc4  1  0.000000  0.444920  0.125948  1
  Sc  Sc5  1  0.000000  0.555080  0.874052  1
  Sc  Sc6  1  0.000000  0.944920  0.374052  1
  Sc  Sc7  1  0.000000  0.055080  0.625948  1
  B  B8  1  0.500000  0.056084  0.067195  1
  B  B9  1  0.500000  0.943916  0.932805  1
  B  B10  1  0.500000  0.556084  0.432805  1
  B  B11  1  0.500000  0.443916  0.567195  1
  B  B12  1  0.500000  0.255040  0.082346  1
  B  B13  1  0.500000  0.744960  0.917654  1
  B  B14  1  0.500000  0.755040  0.417654  1
  B  B15  1  0.500000  0.244960  0.582346  1
  B  B16  1  0.500000  0.295648  0.235435  1
  B  B17  1  0.500000  0.704352  0.764565  1
  B  B18  1  0.500000  0.795648  0.264565  1
  B  B19  1  0.500000  0.204352  0.735435  1
  B  B20  1  0.500000  0.128766  0.318447  1
  B  B21  1  0.500000  0.871234  0.681553  1
  B  B22  1  0.500000  0.628766  0.181553  1
  B  B23  1  0.500000  0.371234  0.818447  1
  B  B24  1  0.500000  0.482790  0.283902  1
  B  B25  1  0.500000  0.517210  0.716098  1
  B  B26  1  0.500000  0.982790  0.216098  1
  B  B27  1  0.500000  0.017210  0.783902  1
  B  B28  1  0.500000  0.098669  0.473876  1
  B  B29  1  0.500000  0.901331  0.526124  1
  B  B30  1  0.500000  0.598669  0.026124  1
  B  B31  1  0.500000  0.401331  0.973876  1
  Rh  Rh32  1  0.000000  0.142014  0.182324  1
  Rh  Rh33  1  0.000000  0.857986  0.817676  1
  Rh  Rh34  1  0.000000  0.642014  0.317676  1
  Rh  Rh35  1  0.000000  0.357986  0.682324  1
