# generated using pymatgen
data_Gd3Be(AsPd4)5
_symmetry_space_group_name_H-M   'P 1'
_cell_length_a   8.91589092
_cell_length_b   8.81896963
_cell_length_c   8.81896900
_cell_angle_alpha   60.72843983
_cell_angle_beta   59.63577011
_cell_angle_gamma   59.63577238
_symmetry_Int_Tables_number   1
_chemical_formula_structural   Gd3Be(AsPd4)5
_chemical_formula_sum   'Gd3 Be1 As5 Pd20'
_cell_volume   490.20671948
_cell_formula_units_Z   1
loop_
 _symmetry_equiv_pos_site_id
 _symmetry_equiv_pos_as_xyz
  1  'x, y, z'
loop_
 _atom_site_type_symbol
 _atom_site_label
 _atom_site_symmetry_multiplicity
 _atom_site_fract_x
 _atom_site_fract_y
 _atom_site_fract_z
 _atom_site_occupancy
  Gd  Gd0  1  0.248227  0.251773  0.251773  1
  Gd  Gd1  1  0.748227  0.751773  0.751773  1
  Gd  Gd2  1  0.996040  0.003960  0.003960  1
  Be  Be3  1  0.729577  0.270423  0.270423  1
  As  As4  1  0.264877  0.735123  0.735123  1
  As  As5  1  0.265838  0.734162  0.265489  1
  As  As6  1  0.734511  0.265489  0.734162  1
  As  As7  1  0.265838  0.265489  0.734162  1
  As  As8  1  0.734511  0.734162  0.265489  1
  Pd  Pd9  1  0.393801  0.377989  0.377989  1
  Pd  Pd10  1  0.618936  0.616808  0.616808  1
  Pd  Pd11  1  0.383192  0.381064  0.852553  1
  Pd  Pd12  1  0.383192  0.852553  0.381064  1
  Pd  Pd13  1  0.622011  0.606199  0.149779  1
  Pd  Pd14  1  0.622011  0.149779  0.606199  1
  Pd  Pd15  1  0.850221  0.377989  0.377989  1
  Pd  Pd16  1  0.147447  0.616808  0.616808  1
  Pd  Pd17  1  0.345627  0.002069  0.002069  1
  Pd  Pd18  1  0.650236  0.002069  0.002069  1
  Pd  Pd19  1  0.997931  0.349764  0.654373  1
  Pd  Pd20  1  0.997931  0.654373  0.349764  1
  Pd  Pd21  1  0.987774  0.341804  0.012226  1
  Pd  Pd22  1  0.658196  0.012226  0.341804  1
  Pd  Pd23  1  0.001792  0.647849  0.998208  1
  Pd  Pd24  1  0.352151  0.998208  0.647849  1
  Pd  Pd25  1  0.987774  0.012226  0.341804  1
  Pd  Pd26  1  0.001792  0.998208  0.647849  1
  Pd  Pd27  1  0.658196  0.341804  0.012226  1
  Pd  Pd28  1  0.352151  0.647849  0.998208  1
