# generated using pymatgen
data_PPtBr9
_symmetry_space_group_name_H-M   'P 1'
_cell_length_a   8.13631380
_cell_length_b   10.39494246
_cell_length_c   10.66915861
_cell_angle_alpha   105.99658507
_cell_angle_beta   87.89080962
_cell_angle_gamma   96.63367295
_symmetry_Int_Tables_number   1
_chemical_formula_structural   PPtBr9
_chemical_formula_sum   'P2 Pt2 Br18'
_cell_volume   861.60015945
_cell_formula_units_Z   2
loop_
 _symmetry_equiv_pos_site_id
 _symmetry_equiv_pos_as_xyz
  1  'x, y, z'
loop_
 _atom_site_type_symbol
 _atom_site_label
 _atom_site_symmetry_multiplicity
 _atom_site_fract_x
 _atom_site_fract_y
 _atom_site_fract_z
 _atom_site_occupancy
  P  P0  1  0.562920  0.789331  0.178398  1
  P  P1  1  0.437080  0.210668  0.821603  1
  Pt  Pt2  1  0.901095  0.360897  0.363152  1
  Pt  Pt3  1  0.098904  0.639103  0.636848  1
  Br  Br4  1  0.735905  0.770476  0.012304  1
  Br  Br5  1  0.325129  0.828580  0.116359  1
  Br  Br6  1  0.969415  0.497154  0.205676  1
  Br  Br7  1  0.003504  0.167617  0.199736  1
  Br  Br8  1  0.533341  0.599509  0.230458  1
  Br  Br9  1  0.614393  0.304506  0.279380  1
  Br  Br10  1  0.667073  0.962597  0.336870  1
  Br  Br11  1  0.186120  0.436514  0.464450  1
  Br  Br12  1  0.165696  0.786949  0.484057  1
  Br  Br13  1  0.834304  0.213050  0.515943  1
  Br  Br14  1  0.813881  0.563485  0.535550  1
  Br  Br15  1  0.332927  0.037404  0.663130  1
  Br  Br16  1  0.385607  0.695494  0.720621  1
  Br  Br17  1  0.466659  0.400490  0.769541  1
  Br  Br18  1  0.996496  0.832384  0.800264  1
  Br  Br19  1  0.030586  0.502847  0.794325  1
  Br  Br20  1  0.674871  0.171420  0.883641  1
  Br  Br21  1  0.264094  0.229524  0.987696  1
