# generated using pymatgen
data_La2Eu5Mo4PbO24
_symmetry_space_group_name_H-M   'P 1'
_cell_length_a   5.51760171
_cell_length_b   10.25890115
_cell_length_c   10.25890090
_cell_angle_alpha   68.49126533
_cell_angle_beta   74.85317337
_cell_angle_gamma   74.85317683
_symmetry_Int_Tables_number   1
_chemical_formula_structural   La2Eu5Mo4PbO24
_chemical_formula_sum   'La2 Eu5 Mo4 Pb1 O24'
_cell_volume   512.56097400
_cell_formula_units_Z   1
loop_
 _symmetry_equiv_pos_site_id
 _symmetry_equiv_pos_as_xyz
  1  'x, y, z'
loop_
 _atom_site_type_symbol
 _atom_site_label
 _atom_site_symmetry_multiplicity
 _atom_site_fract_x
 _atom_site_fract_y
 _atom_site_fract_z
 _atom_site_occupancy
  La  La0  1  0.250000  0.363130  0.636870  1
  La  La1  1  0.750000  0.638142  0.361858  1
  Eu  Eu2  1  0.750000  0.111441  0.888559  1
  Eu  Eu3  1  0.390413  0.945364  0.708918  1
  Eu  Eu4  1  0.620158  0.053752  0.286835  1
  Eu  Eu5  1  0.109587  0.291082  0.054636  1
  Eu  Eu6  1  0.879842  0.713165  0.946248  1
  Mo  Mo7  1  0.071871  0.799462  0.511659  1
  Mo  Mo8  1  0.941058  0.199182  0.491359  1
  Mo  Mo9  1  0.428129  0.488341  0.200538  1
  Mo  Mo10  1  0.558942  0.508641  0.800818  1
  Pb  Pb11  1  0.250000  0.901931  0.098069  1
  O  O12  1  0.080070  0.157805  0.690475  1
  O  O13  1  0.957892  0.841313  0.295674  1
  O  O14  1  0.419930  0.309525  0.842195  1
  O  O15  1  0.542108  0.704326  0.158687  1
  O  O16  1  0.383157  0.828265  0.397037  1
  O  O17  1  0.637398  0.166092  0.616271  1
  O  O18  1  0.116843  0.602963  0.171735  1
  O  O19  1  0.862602  0.383729  0.833908  1
  O  O20  1  0.126589  0.790013  0.682711  1
  O  O21  1  0.866110  0.211988  0.323849  1
  O  O22  1  0.373411  0.317289  0.209987  1
  O  O23  1  0.633890  0.676151  0.788012  1
  O  O24  1  0.239203  0.066979  0.476905  1
  O  O25  1  0.767546  0.927673  0.515620  1
  O  O26  1  0.260797  0.523095  0.933021  1
  O  O27  1  0.732454  0.484380  0.072327  1
  O  O28  1  0.020941  0.622321  0.541520  1
  O  O29  1  0.981224  0.380056  0.457072  1
  O  O30  1  0.479059  0.458480  0.377679  1
  O  O31  1  0.518776  0.542928  0.619944  1
  O  O32  1  0.573399  0.926704  0.892924  1
  O  O33  1  0.421822  0.066424  0.109211  1
  O  O34  1  0.926601  0.107076  0.073296  1
  O  O35  1  0.078178  0.890789  0.933576  1
