# generated using pymatgen
data_Tb6Tm10Cd3AgPt4
_symmetry_space_group_name_H-M   'P 1'
_cell_length_a   9.57037393
_cell_length_b   9.57037314
_cell_length_c   9.57037319
_cell_angle_alpha   60.14770109
_cell_angle_beta   60.14769269
_cell_angle_gamma   60.14770474
_symmetry_Int_Tables_number   1
_chemical_formula_structural   Tb6Tm10Cd3AgPt4
_chemical_formula_sum   'Tb6 Tm10 Cd3 Ag1 Pt4'
_cell_volume   621.90234862
_cell_formula_units_Z   1
loop_
 _symmetry_equiv_pos_site_id
 _symmetry_equiv_pos_as_xyz
  1  'x, y, z'
loop_
 _atom_site_type_symbol
 _atom_site_label
 _atom_site_symmetry_multiplicity
 _atom_site_fract_x
 _atom_site_fract_y
 _atom_site_fract_z
 _atom_site_occupancy
  Tb  Tb0  1  0.934421  0.563241  0.563241  1
  Tb  Tb1  1  0.561177  0.937295  0.937295  1
  Tb  Tb2  1  0.563241  0.934421  0.563241  1
  Tb  Tb3  1  0.937295  0.561177  0.937295  1
  Tb  Tb4  1  0.563241  0.563241  0.934421  1
  Tb  Tb5  1  0.937295  0.937295  0.561177  1
  Tm  Tm6  1  0.350084  0.350084  0.350084  1
  Tm  Tm7  1  0.354527  0.354527  0.939544  1
  Tm  Tm8  1  0.354527  0.939544  0.354527  1
  Tm  Tm9  1  0.939544  0.354527  0.354527  1
  Tm  Tm10  1  0.811650  0.189762  0.189762  1
  Tm  Tm11  1  0.188162  0.811355  0.811355  1
  Tm  Tm12  1  0.189762  0.811650  0.189762  1
  Tm  Tm13  1  0.811355  0.188162  0.811355  1
  Tm  Tm14  1  0.189762  0.189762  0.811650  1
  Tm  Tm15  1  0.811355  0.811355  0.188162  1
  Cd  Cd16  1  0.581181  0.581181  0.257037  1
  Cd  Cd17  1  0.581181  0.257037  0.581181  1
  Cd  Cd18  1  0.257037  0.581181  0.581181  1
  Ag  Ag19  1  0.583183  0.583183  0.583183  1
  Pt  Pt20  1  0.144374  0.144374  0.144374  1
  Pt  Pt21  1  0.142411  0.142411  0.570826  1
  Pt  Pt22  1  0.142411  0.570826  0.142411  1
  Pt  Pt23  1  0.570826  0.142411  0.142411  1
