# generated using pymatgen
data_SmAlZnSi
_symmetry_space_group_name_H-M   'P 1'
_cell_length_a   9.19529853
_cell_length_b   9.19529926
_cell_length_c   4.13012600
_cell_angle_alpha   90.00000000
_cell_angle_beta   90.00000000
_cell_angle_gamma   154.03757925
_symmetry_Int_Tables_number   1
_chemical_formula_structural   SmAlZnSi
_chemical_formula_sum   'Sm2 Al2 Zn2 Si2'
_cell_volume   152.88062764
_cell_formula_units_Z   2
loop_
 _symmetry_equiv_pos_site_id
 _symmetry_equiv_pos_as_xyz
  1  'x, y, z'
loop_
 _atom_site_type_symbol
 _atom_site_label
 _atom_site_symmetry_multiplicity
 _atom_site_fract_x
 _atom_site_fract_y
 _atom_site_fract_z
 _atom_site_occupancy
  Sm  Sm0  1  0.903538  0.096462  0.750000  1
  Sm  Sm1  1  0.096462  0.903538  0.250000  1
  Al  Al2  1  0.250905  0.749095  0.750000  1
  Al  Al3  1  0.749095  0.250905  0.250000  1
  Zn  Zn4  1  0.665046  0.334954  0.750000  1
  Zn  Zn5  1  0.334954  0.665046  0.250000  1
  Si  Si6  1  0.532716  0.467284  0.750000  1
  Si  Si7  1  0.467284  0.532716  0.250000  1
