# generated using pymatgen
data_Er4TcRu7
_symmetry_space_group_name_H-M   'P 1'
_cell_length_a   5.22055890
_cell_length_b   5.39765941
_cell_length_c   8.87191800
_cell_angle_alpha   90.00000000
_cell_angle_beta   90.00000000
_cell_angle_gamma   121.12868263
_symmetry_Int_Tables_number   1
_chemical_formula_structural   Er4TcRu7
_chemical_formula_sum   'Er4 Tc1 Ru7'
_cell_volume   214.00209352
_cell_formula_units_Z   1
loop_
 _symmetry_equiv_pos_site_id
 _symmetry_equiv_pos_as_xyz
  1  'x, y, z'
loop_
 _atom_site_type_symbol
 _atom_site_label
 _atom_site_symmetry_multiplicity
 _atom_site_fract_x
 _atom_site_fract_y
 _atom_site_fract_z
 _atom_site_occupancy
  Er  Er0  1  0.326615  0.663308  0.432063  1
  Er  Er1  1  0.654288  0.327143  0.565502  1
  Er  Er2  1  0.654288  0.327143  0.934498  1
  Er  Er3  1  0.326615  0.663308  0.067937  1
  Tc  Tc4  1  0.688495  0.844247  0.750000  1
  Ru  Ru5  1  0.974744  0.987372  0.500619  1
  Ru  Ru6  1  0.974744  0.987372  0.999381  1
  Ru  Ru7  1  0.836353  0.166289  0.250000  1
  Ru  Ru8  1  0.836353  0.670066  0.250000  1
  Ru  Ru9  1  0.361604  0.180802  0.250000  1
  Ru  Ru10  1  0.182951  0.824530  0.750000  1
  Ru  Ru11  1  0.182951  0.358420  0.750000  1
