# generated using pymatgen
data_Tb11ScPb10
_symmetry_space_group_name_H-M   'P 1'
_cell_length_a   11.76020332
_cell_length_b   11.76020297
_cell_length_c   11.76957606
_cell_angle_alpha   147.39880450
_cell_angle_beta   132.61592148
_cell_angle_gamma   58.61858077
_symmetry_Int_Tables_number   1
_chemical_formula_structural   Tb11ScPb10
_chemical_formula_sum   'Tb11 Sc1 Pb10'
_cell_volume   640.32196427
_cell_formula_units_Z   1
loop_
 _symmetry_equiv_pos_site_id
 _symmetry_equiv_pos_as_xyz
  1  'x, y, z'
loop_
 _atom_site_type_symbol
 _atom_site_label
 _atom_site_symmetry_multiplicity
 _atom_site_fract_x
 _atom_site_fract_y
 _atom_site_fract_z
 _atom_site_occupancy
  Tb  Tb0  1  0.696284  0.946284  0.250000  1
  Tb  Tb1  1  0.252158  0.639679  0.611204  1
  Tb  Tb2  1  0.675091  0.941033  0.733746  1
  Tb  Tb3  1  0.028474  0.140952  0.888796  1
  Tb  Tb4  1  0.970771  0.858182  0.111090  1
  Tb  Tb5  1  0.792907  0.559791  0.233690  1
  Tb  Tb6  1  0.207288  0.441344  0.766254  1
  Tb  Tb7  1  0.303607  0.053607  0.750000  1
  Tb  Tb8  1  0.326099  0.059217  0.266310  1
  Tb  Tb9  1  0.304015  0.554015  0.250000  1
  Tb  Tb10  1  0.747091  0.359681  0.388910  1
  Sc  Sc11  1  0.694646  0.444646  0.750000  1
  Pb  Pb12  1  0.479116  0.569667  0.894631  1
  Pb  Pb13  1  0.598225  0.786392  0.798877  1
  Pb  Pb14  1  0.675037  0.084486  0.605369  1
  Pb  Pb15  1  0.000304  0.750304  0.750000  1
  Pb  Pb16  1  0.987515  0.299348  0.701123  1
  Pb  Pb17  1  0.524470  0.424124  0.099179  1
  Pb  Pb18  1  0.005861  0.702150  0.296042  1
  Pb  Pb19  1  0.406108  0.209820  0.203958  1
  Pb  Pb20  1  0.324946  0.925292  0.400821  1
  Pb  Pb21  1  0.999986  0.249986  0.250000  1
