# generated using pymatgen
data_Sc4Al4Tc3Mo
_symmetry_space_group_name_H-M   'P 1'
_cell_length_a   5.37376543
_cell_length_b   5.35885020
_cell_length_c   8.50922800
_cell_angle_alpha   90.00000000
_cell_angle_beta   90.00000000
_cell_angle_gamma   120.34096599
_symmetry_Int_Tables_number   1
_chemical_formula_structural   Sc4Al4Tc3Mo
_chemical_formula_sum   'Sc4 Al4 Tc3 Mo1'
_cell_volume   211.47970167
_cell_formula_units_Z   1
loop_
 _symmetry_equiv_pos_site_id
 _symmetry_equiv_pos_as_xyz
  1  'x, y, z'
loop_
 _atom_site_type_symbol
 _atom_site_label
 _atom_site_symmetry_multiplicity
 _atom_site_fract_x
 _atom_site_fract_y
 _atom_site_fract_z
 _atom_site_occupancy
  Sc  Sc0  1  0.330240  0.665128  0.441728  1
  Sc  Sc1  1  0.664570  0.334115  0.560250  1
  Sc  Sc2  1  0.664570  0.334115  0.939750  1
  Sc  Sc3  1  0.330240  0.665128  0.058272  1
  Al  Al4  1  0.841010  0.651389  0.250000  1
  Al  Al5  1  0.337013  0.153838  0.250000  1
  Al  Al6  1  0.181541  0.844889  0.750000  1
  Al  Al7  1  0.190303  0.351752  0.750000  1
  Tc  Tc8  1  0.976167  0.999978  0.500703  1
  Tc  Tc9  1  0.976167  0.999978  0.999297  1
  Tc  Tc10  1  0.675393  0.847061  0.750000  1
  Mo  Mo11  1  0.832788  0.152627  0.250000  1
