# generated using pymatgen
data_Mg2BeCo(BIr2)2
_symmetry_space_group_name_H-M   'P 1'
_cell_length_a   9.11825000
_cell_length_b   9.11825000
_cell_length_c   2.88242500
_cell_angle_alpha   90.00000000
_cell_angle_beta   90.00000000
_cell_angle_gamma   90.00000000
_symmetry_Int_Tables_number   1
_chemical_formula_structural   Mg2BeCo(BIr2)2
_chemical_formula_sum   'Mg4 Be2 Co2 B4 Ir8'
_cell_volume   239.65197174
_cell_formula_units_Z   2
loop_
 _symmetry_equiv_pos_site_id
 _symmetry_equiv_pos_as_xyz
  1  'x, y, z'
loop_
 _atom_site_type_symbol
 _atom_site_label
 _atom_site_symmetry_multiplicity
 _atom_site_fract_x
 _atom_site_fract_y
 _atom_site_fract_z
 _atom_site_occupancy
  Mg  Mg0  1  0.324128  0.824127  0.000000  1
  Mg  Mg1  1  0.675873  0.175873  0.000000  1
  Mg  Mg2  1  0.824127  0.675873  0.000000  1
  Mg  Mg3  1  0.175873  0.324128  0.000000  1
  Be  Be4  1  0.000000  0.000000  0.000000  1
  Be  Be5  1  0.500000  0.500000  0.000000  1
  Co  Co6  1  0.000000  0.500000  0.499999  1
  Co  Co7  1  0.500000  0.000000  0.499999  1
  B  B8  1  0.119675  0.619674  0.000000  1
  B  B9  1  0.880326  0.380326  0.000000  1
  B  B10  1  0.619674  0.880326  0.000000  1
  B  B11  1  0.380326  0.119675  0.000000  1
  Ir  Ir12  1  0.212325  0.063645  0.499999  1
  Ir  Ir13  1  0.787675  0.936354  0.499999  1
  Ir  Ir14  1  0.712325  0.436353  0.499999  1
  Ir  Ir15  1  0.287674  0.563645  0.499999  1
  Ir  Ir16  1  0.436353  0.287674  0.499999  1
  Ir  Ir17  1  0.563645  0.712325  0.499999  1
  Ir  Ir18  1  0.063645  0.787675  0.499999  1
  Ir  Ir19  1  0.936354  0.212325  0.499999  1
