# generated using pymatgen
data_La7Nd6DyPt6
_symmetry_space_group_name_H-M   'P 1'
_cell_length_a   6.56464400
_cell_length_b   10.25100335
_cell_length_c   10.25123032
_cell_angle_alpha   119.99254095
_cell_angle_beta   89.99783063
_cell_angle_gamma   90.00220057
_symmetry_Int_Tables_number   1
_chemical_formula_structural   La7Nd6DyPt6
_chemical_formula_sum   'La7 Nd6 Dy1 Pt6'
_cell_volume   597.47097886
_cell_formula_units_Z   1
loop_
 _symmetry_equiv_pos_site_id
 _symmetry_equiv_pos_as_xyz
  1  'x, y, z'
loop_
 _atom_site_type_symbol
 _atom_site_label
 _atom_site_symmetry_multiplicity
 _atom_site_fract_x
 _atom_site_fract_y
 _atom_site_fract_z
 _atom_site_occupancy
  La  La0  1  0.959992  0.666686  0.333304  1
  La  La1  1  0.246576  0.130168  0.869851  1
  La  La2  1  0.246593  0.739551  0.869770  1
  La  La3  1  0.246616  0.130238  0.260446  1
  La  La4  1  0.743515  0.871451  0.128573  1
  La  La5  1  0.743557  0.257306  0.128675  1
  La  La6  1  0.743576  0.871326  0.742682  1
  Nd  Nd7  1  0.440060  0.537180  0.462818  1
  Nd  Nd8  1  0.440108  0.925708  0.462806  1
  Nd  Nd9  1  0.440104  0.537193  0.074285  1
  Nd  Nd10  1  0.942683  0.460603  0.539404  1
  Nd  Nd11  1  0.942749  0.078674  0.539395  1
  Nd  Nd12  1  0.942760  0.460601  0.921334  1
  Dy  Dy13  1  0.468382  0.333308  0.666683  1
  Pt  Pt14  1  0.191095  0.811498  0.188494  1
  Pt  Pt15  1  0.191156  0.377091  0.188453  1
  Pt  Pt16  1  0.191153  0.811548  0.622910  1
  Pt  Pt17  1  0.688347  0.190393  0.809602  1
  Pt  Pt18  1  0.688485  0.619138  0.809655  1
  Pt  Pt19  1  0.688492  0.190340  0.380858  1
