# generated using pymatgen
data_Nd3ThCdHgPd4
_symmetry_space_group_name_H-M   'P 1'
_cell_length_a   7.87367783
_cell_length_b   7.87897012
_cell_length_c   3.87879700
_cell_angle_alpha   90.00000000
_cell_angle_beta   90.00000000
_cell_angle_gamma   91.17865217
_symmetry_Int_Tables_number   1
_chemical_formula_structural   Nd3ThCdHgPd4
_chemical_formula_sum   'Nd3 Th1 Cd1 Hg1 Pd4'
_cell_volume   240.57597041
_cell_formula_units_Z   1
loop_
 _symmetry_equiv_pos_site_id
 _symmetry_equiv_pos_as_xyz
  1  'x, y, z'
loop_
 _atom_site_type_symbol
 _atom_site_label
 _atom_site_symmetry_multiplicity
 _atom_site_fract_x
 _atom_site_fract_y
 _atom_site_fract_z
 _atom_site_occupancy
  Nd  Nd0  1  0.321837  0.827361  0.500000  1
  Nd  Nd1  1  0.172124  0.324052  0.500000  1
  Nd  Nd2  1  0.829759  0.677214  0.500000  1
  Th  Th3  1  0.674353  0.169839  0.500000  1
  Cd  Cd4  1  0.498927  0.503402  0.000000  1
  Hg  Hg5  1  0.003753  0.998904  0.000000  1
  Pd  Pd6  1  0.124886  0.620509  0.000000  1
  Pd  Pd7  1  0.862888  0.367210  0.000000  1
  Pd  Pd8  1  0.628430  0.878476  0.000000  1
  Pd  Pd9  1  0.383044  0.133034  0.000000  1
