# generated using pymatgen
data_Y2HoAg(Pt2O7)2
_symmetry_space_group_name_H-M   'P 1'
_cell_length_a   7.20708769
_cell_length_b   7.33697853
_cell_length_c   7.33697835
_cell_angle_alpha   59.97659591
_cell_angle_beta   59.36929416
_cell_angle_gamma   59.36929165
_symmetry_Int_Tables_number   1
_chemical_formula_structural   Y2HoAg(Pt2O7)2
_chemical_formula_sum   'Y2 Ho1 Ag1 Pt4 O14'
_cell_volume   271.64221999
_cell_formula_units_Z   1
loop_
 _symmetry_equiv_pos_site_id
 _symmetry_equiv_pos_as_xyz
  1  'x, y, z'
loop_
 _atom_site_type_symbol
 _atom_site_label
 _atom_site_symmetry_multiplicity
 _atom_site_fract_x
 _atom_site_fract_y
 _atom_site_fract_z
 _atom_site_occupancy
  Y  Y0  1  0.125000  0.625000  0.125000  1
  Y  Y1  1  0.125000  0.125000  0.625000  1
  Ho  Ho2  1  0.125000  0.125000  0.125000  1
  Ag  Ag3  1  0.625000  0.125000  0.125000  1
  Pt  Pt4  1  0.625000  0.625000  0.625000  1
  Pt  Pt5  1  0.125000  0.625000  0.625000  1
  Pt  Pt6  1  0.625000  0.625000  0.125000  1
  Pt  Pt7  1  0.625000  0.125000  0.625000  1
  O  O8  1  0.279525  0.717658  0.717658  1
  O  O9  1  0.530288  0.957229  0.957229  1
  O  O10  1  0.718445  0.695087  0.293226  1
  O  O11  1  0.279236  0.284775  0.718793  1
  O  O12  1  0.986264  0.005414  0.005414  1
  O  O13  1  0.279236  0.718793  0.284775  1
  O  O14  1  0.718445  0.293226  0.695087  1
  O  O15  1  0.970764  0.531207  0.965225  1
  O  O16  1  0.531555  0.554913  0.956774  1
  O  O17  1  0.970764  0.965225  0.531207  1
  O  O18  1  0.263736  0.244586  0.244586  1
  O  O19  1  0.531555  0.956774  0.554913  1
  O  O20  1  0.719712  0.292771  0.292771  1
  O  O21  1  0.970475  0.532342  0.532342  1
