# generated using pymatgen
data_Na4HoPtO6
_symmetry_space_group_name_H-M   'P 1'
_cell_length_a   5.66918062
_cell_length_b   5.66916488
_cell_length_c   5.82193772
_cell_angle_alpha   99.34830319
_cell_angle_beta   99.34888551
_cell_angle_gamma   120.04177729
_symmetry_Int_Tables_number   1
_chemical_formula_structural   Na4HoPtO6
_chemical_formula_sum   'Na4 Ho1 Pt1 O6'
_cell_volume   153.17952317
_cell_formula_units_Z   1
loop_
 _symmetry_equiv_pos_site_id
 _symmetry_equiv_pos_as_xyz
  1  'x, y, z'
loop_
 _atom_site_type_symbol
 _atom_site_label
 _atom_site_symmetry_multiplicity
 _atom_site_fract_x
 _atom_site_fract_y
 _atom_site_fract_z
 _atom_site_occupancy
  Na  Na0  1  0.498741  0.501257  0.000000  1
  Na  Na1  1  0.012202  0.987797  0.499999  1
  Na  Na2  1  0.656529  0.343470  0.500000  1
  Na  Na3  1  0.337269  0.662722  0.500000  1
  Ho  Ho4  1  0.833306  0.166695  0.999999  1
  Pt  Pt5  1  0.166399  0.833604  0.000002  1
  O  O6  1  0.947344  0.598923  0.210696  1
  O  O7  1  0.542723  0.921827  0.216665  1
  O  O8  1  0.222115  0.195880  0.216373  1
  O  O9  1  0.804120  0.777885  0.783629  1
  O  O10  1  0.078174  0.457280  0.783334  1
  O  O11  1  0.401076  0.052658  0.789304  1
