# generated using pymatgen
data_Tm2Mn2FeCo7P6
_symmetry_space_group_name_H-M   'P 1'
_cell_length_a   3.63670600
_cell_length_b   10.26208500
_cell_length_c   11.77070600
_cell_angle_alpha   90.00000000
_cell_angle_beta   90.00000000
_cell_angle_gamma   90.00000000
_symmetry_Int_Tables_number   1
_chemical_formula_structural   Tm2Mn2FeCo7P6
_chemical_formula_sum   'Tm4 Mn4 Fe2 Co14 P12'
_cell_volume   439.28493835
_cell_formula_units_Z   2
loop_
 _symmetry_equiv_pos_site_id
 _symmetry_equiv_pos_as_xyz
  1  'x, y, z'
loop_
 _atom_site_type_symbol
 _atom_site_label
 _atom_site_symmetry_multiplicity
 _atom_site_fract_x
 _atom_site_fract_y
 _atom_site_fract_z
 _atom_site_occupancy
  Tm  Tm0  1  0.250000  0.581703  0.704843  1
  Tm  Tm1  1  0.250000  0.918297  0.204843  1
  Tm  Tm2  1  0.750000  0.419490  0.294780  1
  Tm  Tm3  1  0.750000  0.080510  0.794780  1
  Mn  Mn4  1  0.250000  0.710421  0.991210  1
  Mn  Mn5  1  0.250000  0.789579  0.491210  1
  Mn  Mn6  1  0.750000  0.288504  0.010015  1
  Mn  Mn7  1  0.750000  0.211496  0.510015  1
  Fe  Fe8  1  0.750000  0.534874  0.066972  1
  Fe  Fe9  1  0.750000  0.965126  0.566972  1
  Co  Co10  1  0.250000  0.407621  0.487498  1
  Co  Co11  1  0.250000  0.092379  0.987498  1
  Co  Co12  1  0.750000  0.594141  0.513061  1
  Co  Co13  1  0.750000  0.905859  0.013061  1
  Co  Co14  1  0.250000  0.222300  0.175583  1
  Co  Co15  1  0.250000  0.277700  0.675583  1
  Co  Co16  1  0.750000  0.777766  0.824651  1
  Co  Co17  1  0.750000  0.722234  0.324651  1
  Co  Co18  1  0.250000  0.881732  0.700613  1
  Co  Co19  1  0.250000  0.618268  0.200613  1
  Co  Co20  1  0.750000  0.117565  0.300046  1
  Co  Co21  1  0.750000  0.382435  0.800046  1
  Co  Co22  1  0.250000  0.464947  0.930271  1
  Co  Co23  1  0.250000  0.035053  0.430271  1
  P  P24  1  0.250000  0.421839  0.112392  1
  P  P25  1  0.250000  0.078161  0.612392  1
  P  P26  1  0.750000  0.579573  0.887488  1
  P  P27  1  0.750000  0.920427  0.387488  1
  P  P28  1  0.250000  0.267657  0.866639  1
  P  P29  1  0.250000  0.232343  0.366639  1
  P  P30  1  0.750000  0.730723  0.133413  1
  P  P31  1  0.750000  0.769277  0.633413  1
  P  P32  1  0.250000  0.600528  0.391187  1
  P  P33  1  0.250000  0.899472  0.891187  1
  P  P34  1  0.750000  0.401046  0.609337  1
  P  P35  1  0.750000  0.098954  0.109337  1
