# generated using pymatgen
data_YbPr9Si5Bi
_symmetry_space_group_name_H-M   'P 1'
_cell_length_a   9.31828421
_cell_length_b   9.31865679
_cell_length_c   9.31772300
_cell_angle_alpha   131.12633273
_cell_angle_beta   131.12673313
_cell_angle_gamma   71.61374978
_symmetry_Int_Tables_number   1
_chemical_formula_structural   YbPr9Si5Bi
_chemical_formula_sum   'Yb1 Pr9 Si5 Bi1'
_cell_volume   449.18243901
_cell_formula_units_Z   1
loop_
 _symmetry_equiv_pos_site_id
 _symmetry_equiv_pos_as_xyz
  1  'x, y, z'
loop_
 _atom_site_type_symbol
 _atom_site_label
 _atom_site_symmetry_multiplicity
 _atom_site_fract_x
 _atom_site_fract_y
 _atom_site_fract_z
 _atom_site_occupancy
  Yb  Yb0  1  0.485683  0.485671  0.000000  1
  Pr  Pr1  1  0.548084  0.025362  0.853046  1
  Pr  Pr2  1  0.172310  0.695058  0.146976  1
  Pr  Pr3  1  0.025328  0.172245  0.477213  1
  Pr  Pr4  1  0.695029  0.548140  0.522792  1
  Pr  Pr5  1  0.475586  0.949065  0.145552  1
  Pr  Pr6  1  0.803508  0.330016  0.854416  1
  Pr  Pr7  1  0.949034  0.803522  0.473516  1
  Pr  Pr8  1  0.330033  0.475527  0.526515  1
  Pr  Pr9  1  0.017342  0.017339  0.999994  1
  Si  Si10  1  0.752677  0.752682  0.000007  1
  Si  Si11  1  0.883921  0.383147  0.269365  1
  Si  Si12  1  0.113773  0.614519  0.730627  1
  Si  Si13  1  0.383147  0.113756  0.499238  1
  Si  Si14  1  0.614517  0.883917  0.500751  1
  Bi  Bi15  1  0.250027  0.250034  0.999995  1
