# generated using pymatgen
data_SmTlP6Pd20Au
_symmetry_space_group_name_H-M   'P 1'
_cell_length_a   8.66036653
_cell_length_b   8.66036733
_cell_length_c   8.66036700
_cell_angle_alpha   59.99999743
_cell_angle_beta   59.99999440
_cell_angle_gamma   59.99999488
_symmetry_Int_Tables_number   1
_chemical_formula_structural   SmTlP6Pd20Au
_chemical_formula_sum   'Sm1 Tl1 P6 Pd20 Au1'
_cell_volume   459.29724554
_cell_formula_units_Z   1
loop_
 _symmetry_equiv_pos_site_id
 _symmetry_equiv_pos_as_xyz
  1  'x, y, z'
loop_
 _atom_site_type_symbol
 _atom_site_label
 _atom_site_symmetry_multiplicity
 _atom_site_fract_x
 _atom_site_fract_y
 _atom_site_fract_z
 _atom_site_occupancy
  Sm  Sm0  1  0.750000  0.750000  0.750000  1
  Tl  Tl1  1  0.250000  0.250000  0.250000  1
  P  P2  1  0.735015  0.264985  0.264985  1
  P  P3  1  0.264985  0.735015  0.735015  1
  P  P4  1  0.264985  0.735015  0.264985  1
  P  P5  1  0.735015  0.264985  0.735015  1
  P  P6  1  0.264985  0.264985  0.735015  1
  P  P7  1  0.735015  0.735015  0.264985  1
  Pd  Pd8  1  0.383358  0.383358  0.383358  1
  Pd  Pd9  1  0.613355  0.613355  0.613355  1
  Pd  Pd10  1  0.383358  0.383358  0.849925  1
  Pd  Pd11  1  0.383358  0.849925  0.383358  1
  Pd  Pd12  1  0.613355  0.613355  0.159934  1
  Pd  Pd13  1  0.613355  0.159934  0.613355  1
  Pd  Pd14  1  0.849925  0.383358  0.383358  1
  Pd  Pd15  1  0.159934  0.613355  0.613355  1
  Pd  Pd16  1  0.344830  0.998083  0.998083  1
  Pd  Pd17  1  0.659005  0.998083  0.998083  1
  Pd  Pd18  1  0.998083  0.344830  0.659005  1
  Pd  Pd19  1  0.998083  0.659005  0.344830  1
  Pd  Pd20  1  0.998083  0.344830  0.998083  1
  Pd  Pd21  1  0.659005  0.998083  0.344830  1
  Pd  Pd22  1  0.998083  0.659005  0.998083  1
  Pd  Pd23  1  0.344830  0.998083  0.659005  1
  Pd  Pd24  1  0.998083  0.998083  0.344830  1
  Pd  Pd25  1  0.998083  0.998083  0.659005  1
  Pd  Pd26  1  0.659005  0.344830  0.998083  1
  Pd  Pd27  1  0.344830  0.659005  0.998083  1
  Au  Au28  1  0.000000  0.000000  0.000000  1
