# generated using pymatgen
data_NaMnFe2Sb12Ir
_symmetry_space_group_name_H-M   'P 1'
_cell_length_a   8.10107606
_cell_length_b   8.09385711
_cell_length_c   8.06946324
_cell_angle_alpha   109.49182422
_cell_angle_beta   109.49604840
_cell_angle_gamma   109.84981466
_symmetry_Int_Tables_number   1
_chemical_formula_structural   NaMnFe2Sb12Ir
_chemical_formula_sum   'Na1 Mn1 Fe2 Sb12 Ir1'
_cell_volume   405.15680997
_cell_formula_units_Z   1
loop_
 _symmetry_equiv_pos_site_id
 _symmetry_equiv_pos_as_xyz
  1  'x, y, z'
loop_
 _atom_site_type_symbol
 _atom_site_label
 _atom_site_symmetry_multiplicity
 _atom_site_fract_x
 _atom_site_fract_y
 _atom_site_fract_z
 _atom_site_occupancy
  Na  Na0  1  0.000000  0.000000  0.000000  1
  Mn  Mn1  1  0.500000  0.500000  0.500000  1
  Fe  Fe2  1  0.000000  0.500000  0.000000  1
  Fe  Fe3  1  0.500000  0.000000  0.000000  1
  Sb  Sb4  1  0.656080  0.821587  0.150202  1
  Sb  Sb5  1  0.838408  0.330433  0.168194  1
  Sb  Sb6  1  0.502806  0.850185  0.670041  1
  Sb  Sb7  1  0.846146  0.655253  0.500957  1
  Sb  Sb8  1  0.497194  0.149815  0.329959  1
  Sb  Sb9  1  0.161592  0.669567  0.831806  1
  Sb  Sb10  1  0.821596  0.165405  0.670105  1
  Sb  Sb11  1  0.178404  0.834595  0.329895  1
  Sb  Sb12  1  0.153854  0.344747  0.499043  1
  Sb  Sb13  1  0.670389  0.503517  0.850559  1
  Sb  Sb14  1  0.329611  0.496483  0.149441  1
  Sb  Sb15  1  0.343920  0.178413  0.849798  1
  Ir  Ir16  1  0.000000  0.000000  0.500000  1
