# generated using pymatgen
data_EuPa(CuAs2)2
_symmetry_space_group_name_H-M   'P 1'
_cell_length_a   4.01263500
_cell_length_b   4.01263500
_cell_length_c   9.85888400
_cell_angle_alpha   90.00000000
_cell_angle_beta   90.00000000
_cell_angle_gamma   90.00000000
_symmetry_Int_Tables_number   1
_chemical_formula_structural   EuPa(CuAs2)2
_chemical_formula_sum   'Eu1 Pa1 Cu2 As4'
_cell_volume   158.74025390
_cell_formula_units_Z   1
loop_
 _symmetry_equiv_pos_site_id
 _symmetry_equiv_pos_as_xyz
  1  'x, y, z'
loop_
 _atom_site_type_symbol
 _atom_site_label
 _atom_site_symmetry_multiplicity
 _atom_site_fract_x
 _atom_site_fract_y
 _atom_site_fract_z
 _atom_site_occupancy
  Eu  Eu0  1  0.500000  0.000000  0.232476  1
  Pa  Pa1  1  0.000000  0.500000  0.756723  1
  Cu  Cu2  1  0.500000  0.500000  0.505785  1
  Cu  Cu3  1  0.000000  0.000000  0.505785  1
  As  As4  1  0.500000  0.000000  0.671312  1
  As  As5  1  0.000000  0.500000  0.360473  1
  As  As6  1  0.000000  0.000000  0.983722  1
  As  As7  1  0.500000  0.500000  0.983722  1
