# generated using pymatgen
data_CeSmNi2(AsH)2
_symmetry_space_group_name_H-M   'P 1'
_cell_length_a   4.05061900
_cell_length_b   8.26132012
_cell_length_c   7.10165202
_cell_angle_alpha   89.80560716
_cell_angle_beta   90.00000000
_cell_angle_gamma   90.00000000
_symmetry_Int_Tables_number   1
_chemical_formula_structural   CeSmNi2(AsH)2
_chemical_formula_sum   'Ce2 Sm2 Ni4 As4 H4'
_cell_volume   237.64448226
_cell_formula_units_Z   2
loop_
 _symmetry_equiv_pos_site_id
 _symmetry_equiv_pos_as_xyz
  1  'x, y, z'
loop_
 _atom_site_type_symbol
 _atom_site_label
 _atom_site_symmetry_multiplicity
 _atom_site_fract_x
 _atom_site_fract_y
 _atom_site_fract_z
 _atom_site_occupancy
  Ce  Ce0  1  0.250000  0.994441  0.253109  1
  Ce  Ce1  1  0.750000  0.005559  0.746891  1
  Sm  Sm2  1  0.750000  0.506006  0.755418  1
  Sm  Sm3  1  0.250000  0.493994  0.244582  1
  Ni  Ni4  1  0.750000  0.231254  0.412942  1
  Ni  Ni5  1  0.250000  0.768746  0.587058  1
  Ni  Ni6  1  0.250000  0.263155  0.912469  1
  Ni  Ni7  1  0.750000  0.736845  0.087531  1
  As  As8  1  0.750000  0.225956  0.079049  1
  As  As9  1  0.250000  0.774044  0.920951  1
  As  As10  1  0.250000  0.264188  0.579602  1
  As  As11  1  0.750000  0.735812  0.420398  1
  H  H12  1  0.250000  0.961722  0.581572  1
  H  H13  1  0.750000  0.038278  0.418428  1
  H  H14  1  0.750000  0.544608  0.081462  1
  H  H15  1  0.250000  0.455392  0.918538  1
