# generated using pymatgen
data_Y3Lu(ZrPt)4
_symmetry_space_group_name_H-M   'P 1'
_cell_length_a   4.67790100
_cell_length_b   7.14852779
_cell_length_c   8.23836441
_cell_angle_alpha   89.91743500
_cell_angle_beta   90.00000000
_cell_angle_gamma   90.00000000
_symmetry_Int_Tables_number   1
_chemical_formula_structural   Y3Lu(ZrPt)4
_chemical_formula_sum   'Y3 Lu1 Zr4 Pt4'
_cell_volume   275.49148750
_cell_formula_units_Z   1
loop_
 _symmetry_equiv_pos_site_id
 _symmetry_equiv_pos_as_xyz
  1  'x, y, z'
loop_
 _atom_site_type_symbol
 _atom_site_label
 _atom_site_symmetry_multiplicity
 _atom_site_fract_x
 _atom_site_fract_y
 _atom_site_fract_z
 _atom_site_occupancy
  Y  Y0  1  0.250000  0.516839  0.179195  1
  Y  Y1  1  0.750000  0.483662  0.822406  1
  Y  Y2  1  0.750000  0.983506  0.677355  1
  Lu  Lu3  1  0.250000  0.018818  0.321989  1
  Zr  Zr4  1  0.250000  0.649031  0.577543  1
  Zr  Zr5  1  0.750000  0.351060  0.420751  1
  Zr  Zr6  1  0.750000  0.852161  0.080939  1
  Zr  Zr7  1  0.250000  0.147492  0.922150  1
  Pt  Pt8  1  0.250000  0.772080  0.904011  1
  Pt  Pt9  1  0.750000  0.225761  0.097964  1
  Pt  Pt10  1  0.750000  0.729633  0.404079  1
  Pt  Pt11  1  0.250000  0.269958  0.591618  1
