# generated using pymatgen
data_Y12InFe4Pd
_symmetry_space_group_name_H-M   'P 1'
_cell_length_a   8.38717741
_cell_length_b   8.38719385
_cell_length_c   8.38719500
_cell_angle_alpha   110.69058675
_cell_angle_beta   110.74681649
_cell_angle_gamma   107.00411939
_symmetry_Int_Tables_number   1
_chemical_formula_structural   Y12InFe4Pd
_chemical_formula_sum   'Y12 In1 Fe4 Pd1'
_cell_volume   453.55081507
_cell_formula_units_Z   1
loop_
 _symmetry_equiv_pos_site_id
 _symmetry_equiv_pos_as_xyz
  1  'x, y, z'
loop_
 _atom_site_type_symbol
 _atom_site_label
 _atom_site_symmetry_multiplicity
 _atom_site_fract_x
 _atom_site_fract_y
 _atom_site_fract_z
 _atom_site_occupancy
  Y  Y0  1  0.415132  0.215240  0.199891  1
  Y  Y1  1  0.584868  0.784760  0.800109  1
  Y  Y2  1  0.015346  0.215238  0.800108  1
  Y  Y3  1  0.984654  0.784762  0.199892  1
  Y  Y4  1  0.188270  0.291978  0.480248  1
  Y  Y5  1  0.811730  0.708022  0.519752  1
  Y  Y6  1  0.188269  0.708024  0.896293  1
  Y  Y7  1  0.811731  0.291976  0.103707  1
  Y  Y8  1  0.312299  0.612329  0.300025  1
  Y  Y9  1  0.687701  0.387671  0.699975  1
  Y  Y10  1  0.312299  0.012274  0.699970  1
  Y  Y11  1  0.687701  0.987726  0.300030  1
  In  In12  1  0.500000  0.500000  0.000000  1
  Fe  Fe13  1  0.386717  0.999996  0.386722  1
  Fe  Fe14  1  0.613283  0.000004  0.613278  1
  Fe  Fe15  1  0.107409  0.607439  0.499970  1
  Fe  Fe16  1  0.892591  0.392561  0.500030  1
  Pd  Pd17  1  0.000000  0.000000  0.000000  1
