# generated using pymatgen
data_Zr7Sc(Nb3Ge4)4
_symmetry_space_group_name_H-M   'P 1'
_cell_length_a   6.85839397
_cell_length_b   6.99909187
_cell_length_c   13.37627622
_cell_angle_alpha   90.00900788
_cell_angle_beta   89.97482600
_cell_angle_gamma   90.00549790
_symmetry_Int_Tables_number   1
_chemical_formula_structural   Zr7Sc(Nb3Ge4)4
_chemical_formula_sum   'Zr7 Sc1 Nb12 Ge16'
_cell_volume   642.09502076
_cell_formula_units_Z   1
loop_
 _symmetry_equiv_pos_site_id
 _symmetry_equiv_pos_as_xyz
  1  'x, y, z'
loop_
 _atom_site_type_symbol
 _atom_site_label
 _atom_site_symmetry_multiplicity
 _atom_site_fract_x
 _atom_site_fract_y
 _atom_site_fract_z
 _atom_site_occupancy
  Zr  Zr0  1  0.492565  0.325662  0.091862  1
  Zr  Zr1  1  0.990441  0.175944  0.408086  1
  Zr  Zr2  1  0.508942  0.675110  0.591314  1
  Zr  Zr3  1  0.009378  0.822926  0.907585  1
  Zr  Zr4  1  0.508819  0.676712  0.908632  1
  Zr  Zr5  1  0.009696  0.825254  0.591277  1
  Zr  Zr6  1  0.491168  0.324090  0.407986  1
  Sc  Sc7  1  0.991140  0.174680  0.091383  1
  Nb  Nb8  1  0.663112  0.009134  0.750004  1
  Nb  Nb9  1  0.162933  0.492147  0.750203  1
  Nb  Nb10  1  0.337832  0.991311  0.250437  1
  Nb  Nb11  1  0.836675  0.509234  0.251472  1
  Nb  Nb12  1  0.839619  0.334968  0.624721  1
  Nb  Nb13  1  0.340028  0.165262  0.875439  1
  Nb  Nb14  1  0.161185  0.665218  0.125124  1
  Nb  Nb15  1  0.660251  0.834196  0.375188  1
  Nb  Nb16  1  0.160086  0.665767  0.375618  1
  Nb  Nb17  1  0.658292  0.832385  0.124914  1
  Nb  Nb18  1  0.838171  0.335551  0.875299  1
  Nb  Nb19  1  0.340121  0.165179  0.624768  1
  Ge  Ge20  1  0.804691  0.649428  0.749844  1
  Ge  Ge21  1  0.305533  0.850958  0.749978  1
  Ge  Ge22  1  0.193350  0.349299  0.248436  1
  Ge  Ge23  1  0.696230  0.149304  0.248806  1
  Ge  Ge24  1  0.537049  0.387317  0.750145  1
  Ge  Ge25  1  0.037152  0.113925  0.750610  1
  Ge  Ge26  1  0.461825  0.612308  0.250571  1
  Ge  Ge27  1  0.962913  0.887148  0.249274  1
  Ge  Ge28  1  0.681836  0.040231  0.539723  1
  Ge  Ge29  1  0.181533  0.459980  0.960052  1
  Ge  Ge30  1  0.317165  0.961574  0.040429  1
  Ge  Ge31  1  0.818498  0.539690  0.460459  1
  Ge  Ge32  1  0.318157  0.960624  0.459835  1
  Ge  Ge33  1  0.819944  0.538577  0.040431  1
  Ge  Ge34  1  0.682061  0.039666  0.960396  1
  Ge  Ge35  1  0.181605  0.459240  0.539699  1
