# generated using pymatgen
data_Y2Pa2SnPd4Pb
_symmetry_space_group_name_H-M   'P 1'
_cell_length_a   7.83432604
_cell_length_b   7.78790604
_cell_length_c   3.70915300
_cell_angle_alpha   90.00000000
_cell_angle_beta   90.00000000
_cell_angle_gamma   89.98874790
_symmetry_Int_Tables_number   1
_chemical_formula_structural   Y2Pa2SnPd4Pb
_chemical_formula_sum   'Y2 Pa2 Sn1 Pd4 Pb1'
_cell_volume   226.30652926
_cell_formula_units_Z   1
loop_
 _symmetry_equiv_pos_site_id
 _symmetry_equiv_pos_as_xyz
  1  'x, y, z'
loop_
 _atom_site_type_symbol
 _atom_site_label
 _atom_site_symmetry_multiplicity
 _atom_site_fract_x
 _atom_site_fract_y
 _atom_site_fract_z
 _atom_site_occupancy
  Y  Y0  1  0.828550  0.676868  0.500000  1
  Y  Y1  1  0.321082  0.829157  0.500000  1
  Pa  Pa2  1  0.675089  0.168993  0.500000  1
  Pa  Pa3  1  0.169294  0.324510  0.500000  1
  Sn  Sn4  1  0.001815  0.990836  0.000000  1
  Pd  Pd5  1  0.875307  0.357275  0.000000  1
  Pd  Pd6  1  0.369844  0.137023  0.000000  1
  Pd  Pd7  1  0.631273  0.891413  0.000000  1
  Pd  Pd8  1  0.125395  0.613737  0.000000  1
  Pb  Pb9  1  0.502351  0.510188  0.000000  1
