# generated using pymatgen
data_ErThZr3Si4
_symmetry_space_group_name_H-M   'P 1'
_cell_length_a   7.39144339
_cell_length_b   7.17745832
_cell_length_c   7.36602374
_cell_angle_alpha   71.69731789
_cell_angle_beta   89.79005754
_cell_angle_gamma   90.33781737
_symmetry_Int_Tables_number   1
_chemical_formula_structural   ErThZr3Si4
_chemical_formula_sum   'Er2 Th2 Zr6 Si8'
_cell_volume   370.99864876
_cell_formula_units_Z   2
loop_
 _symmetry_equiv_pos_site_id
 _symmetry_equiv_pos_as_xyz
  1  'x, y, z'
loop_
 _atom_site_type_symbol
 _atom_site_label
 _atom_site_symmetry_multiplicity
 _atom_site_fract_x
 _atom_site_fract_y
 _atom_site_fract_z
 _atom_site_occupancy
  Er  Er0  1  0.673489  0.928675  0.693900  1
  Er  Er1  1  0.326511  0.071325  0.306100  1
  Th  Th2  1  0.171104  0.571310  0.310989  1
  Th  Th3  1  0.828896  0.428690  0.689011  1
  Zr  Zr4  1  0.675480  0.749515  0.250581  1
  Zr  Zr5  1  0.324520  0.250485  0.749419  1
  Zr  Zr6  1  0.179438  0.750875  0.753730  1
  Zr  Zr7  1  0.820562  0.249125  0.246270  1
  Zr  Zr8  1  0.000000  0.000000  0.000000  1
  Zr  Zr9  1  0.500000  0.500000  0.000000  1
  Si  Si10  1  0.965280  0.874314  0.417957  1
  Si  Si11  1  0.034720  0.125686  0.582043  1
  Si  Si12  1  0.467348  0.634774  0.583950  1
  Si  Si13  1  0.532652  0.365226  0.416050  1
  Si  Si14  1  0.874031  0.630512  0.993628  1
  Si  Si15  1  0.125969  0.369488  0.006372  1
  Si  Si16  1  0.378853  0.874712  0.005995  1
  Si  Si17  1  0.621147  0.125288  0.994005  1
