# generated using pymatgen
data_Y3Er5(Ga3Pt)4
_symmetry_space_group_name_H-M   'P 1'
_cell_length_a   8.83071200
_cell_length_b   8.85724522
_cell_length_c   6.97680700
_cell_angle_alpha   90.00000000
_cell_angle_beta   90.00000000
_cell_angle_gamma   119.89917059
_symmetry_Int_Tables_number   1
_chemical_formula_structural   Y3Er5(Ga3Pt)4
_chemical_formula_sum   'Y3 Er5 Ga12 Pt4'
_cell_volume   473.06638405
_cell_formula_units_Z   1
loop_
 _symmetry_equiv_pos_site_id
 _symmetry_equiv_pos_as_xyz
  1  'x, y, z'
loop_
 _atom_site_type_symbol
 _atom_site_label
 _atom_site_symmetry_multiplicity
 _atom_site_fract_x
 _atom_site_fract_y
 _atom_site_fract_z
 _atom_site_occupancy
  Y  Y0  1  0.000317  0.000367  0.250000  1
  Y  Y1  1  0.999756  0.999752  0.750000  1
  Y  Y2  1  0.519646  0.039387  0.250000  1
  Er  Er3  1  0.520110  0.480247  0.250000  1
  Er  Er4  1  0.959941  0.480185  0.250000  1
  Er  Er5  1  0.479517  0.958964  0.750000  1
  Er  Er6  1  0.480141  0.519754  0.750000  1
  Er  Er7  1  0.039810  0.519824  0.750000  1
  Ga  Ga8  1  0.167138  0.334343  0.046341  1
  Ga  Ga9  1  0.166808  0.831947  0.454759  1
  Ga  Ga10  1  0.665319  0.832077  0.454735  1
  Ga  Ga11  1  0.665319  0.832077  0.045265  1
  Ga  Ga12  1  0.166808  0.831947  0.045241  1
  Ga  Ga13  1  0.832987  0.665916  0.953606  1
  Ga  Ga14  1  0.832474  0.167893  0.952973  1
  Ga  Ga15  1  0.335245  0.167770  0.952952  1
  Ga  Ga16  1  0.167138  0.334343  0.453659  1
  Ga  Ga17  1  0.335245  0.167770  0.547048  1
  Ga  Ga18  1  0.832987  0.665916  0.546394  1
  Ga  Ga19  1  0.832474  0.167893  0.547027  1
  Pt  Pt20  1  0.332808  0.665451  0.028710  1
  Pt  Pt21  1  0.332808  0.665451  0.471290  1
  Pt  Pt22  1  0.667601  0.335361  0.969095  1
  Pt  Pt23  1  0.667601  0.335361  0.530905  1
