# generated using pymatgen
data_Dy4MgNi2Au
_symmetry_space_group_name_H-M   'P 1'
_cell_length_a   8.45614462
_cell_length_b   8.45614460
_cell_length_c   8.45614349
_cell_angle_alpha   128.63436958
_cell_angle_beta   128.63436378
_cell_angle_gamma   75.59960545
_symmetry_Int_Tables_number   1
_chemical_formula_structural   Dy4MgNi2Au
_chemical_formula_sum   'Dy8 Mg2 Ni4 Au2'
_cell_volume   358.95996826
_cell_formula_units_Z   2
loop_
 _symmetry_equiv_pos_site_id
 _symmetry_equiv_pos_as_xyz
  1  'x, y, z'
loop_
 _atom_site_type_symbol
 _atom_site_label
 _atom_site_symmetry_multiplicity
 _atom_site_fract_x
 _atom_site_fract_y
 _atom_site_fract_z
 _atom_site_occupancy
  Dy  Dy0  1  0.803011  0.303011  0.841936  1
  Dy  Dy1  1  0.196989  0.696989  0.158064  1
  Dy  Dy2  1  0.461075  0.961075  0.158064  1
  Dy  Dy3  1  0.303011  0.461075  0.500000  1
  Dy  Dy4  1  0.038925  0.196989  0.500000  1
  Dy  Dy5  1  0.538925  0.038925  0.841936  1
  Dy  Dy6  1  0.696989  0.538925  0.500000  1
  Dy  Dy7  1  0.961075  0.803011  0.500000  1
  Mg  Mg8  1  0.000000  0.000000  0.000000  1
  Mg  Mg9  1  0.500000  0.500000  0.000000  1
  Ni  Ni10  1  0.125631  0.625631  0.751261  1
  Ni  Ni11  1  0.874369  0.374369  0.248739  1
  Ni  Ni12  1  0.625631  0.874369  0.500000  1
  Ni  Ni13  1  0.374369  0.125631  0.500000  1
  Au  Au14  1  0.250000  0.250000  0.000000  1
  Au  Au15  1  0.750000  0.750000  0.000000  1
