# generated using pymatgen
data_Zr18Ta7RuO6
_symmetry_space_group_name_H-M   'P 1'
_cell_length_a   8.80187300
_cell_length_b   8.73985827
_cell_length_c   8.68554100
_cell_angle_alpha   90.00000000
_cell_angle_beta   90.00000000
_cell_angle_gamma   120.23500398
_symmetry_Int_Tables_number   1
_chemical_formula_structural   Zr18Ta7RuO6
_chemical_formula_sum   'Zr18 Ta7 Ru1 O6'
_cell_volume   577.26294705
_cell_formula_units_Z   1
loop_
 _symmetry_equiv_pos_site_id
 _symmetry_equiv_pos_as_xyz
  1  'x, y, z'
loop_
 _atom_site_type_symbol
 _atom_site_label
 _atom_site_symmetry_multiplicity
 _atom_site_fract_x
 _atom_site_fract_y
 _atom_site_fract_z
 _atom_site_occupancy
  Zr  Zr0  1  0.453383  0.906766  0.250000  1
  Zr  Zr1  1  0.546507  0.093012  0.750000  1
  Zr  Zr2  1  0.092989  0.545665  0.250000  1
  Zr  Zr3  1  0.907745  0.454093  0.750000  1
  Zr  Zr4  1  0.452676  0.545665  0.250000  1
  Zr  Zr5  1  0.546349  0.454093  0.750000  1
  Zr  Zr6  1  0.206455  0.412912  0.562975  1
  Zr  Zr7  1  0.793240  0.586479  0.437269  1
  Zr  Zr8  1  0.586875  0.792605  0.561488  1
  Zr  Zr9  1  0.793240  0.586479  0.062731  1
  Zr  Zr10  1  0.412189  0.205439  0.438553  1
  Zr  Zr11  1  0.206455  0.412912  0.937025  1
  Zr  Zr12  1  0.205729  0.792605  0.561488  1
  Zr  Zr13  1  0.412189  0.205439  0.061447  1
  Zr  Zr14  1  0.793251  0.205439  0.438553  1
  Zr  Zr15  1  0.586875  0.792605  0.938512  1
  Zr  Zr16  1  0.793251  0.205439  0.061447  1
  Zr  Zr17  1  0.205729  0.792605  0.938512  1
  Ta  Ta18  1  0.889302  0.778606  0.750000  1
  Ta  Ta19  1  0.778043  0.891884  0.250000  1
  Ta  Ta20  1  0.222757  0.111189  0.750000  1
  Ta  Ta21  1  0.113841  0.891884  0.250000  1
  Ta  Ta22  1  0.888431  0.111189  0.750000  1
  Ta  Ta23  1  0.002631  0.005261  0.003596  1
  Ta  Ta24  1  0.002631  0.005261  0.496404  1
  Ru  Ru25  1  0.111764  0.223527  0.250000  1
  O  O26  1  0.500472  0.000943  0.000430  1
  O  O27  1  0.001194  0.497265  0.001529  1
  O  O28  1  0.500472  0.000943  0.499570  1
  O  O29  1  0.496071  0.497265  0.001529  1
  O  O30  1  0.001194  0.497265  0.498471  1
  O  O31  1  0.496071  0.497265  0.498471  1
