# generated using pymatgen
data_HoEr(AgO2)4
_symmetry_space_group_name_H-M   'P 1'
_cell_length_a   6.58679612
_cell_length_b   6.58679607
_cell_length_c   6.58679597
_cell_angle_alpha   126.12295469
_cell_angle_beta   126.12293448
_cell_angle_gamma   79.68616154
_symmetry_Int_Tables_number   1
_chemical_formula_structural   HoEr(AgO2)4
_chemical_formula_sum   'Ho1 Er1 Ag4 O8'
_cell_volume   180.13330632
_cell_formula_units_Z   1
loop_
 _symmetry_equiv_pos_site_id
 _symmetry_equiv_pos_as_xyz
  1  'x, y, z'
loop_
 _atom_site_type_symbol
 _atom_site_label
 _atom_site_symmetry_multiplicity
 _atom_site_fract_x
 _atom_site_fract_y
 _atom_site_fract_z
 _atom_site_occupancy
  Ho  Ho0  1  0.000000  0.000000  0.000000  1
  Er  Er1  1  0.750000  0.250000  0.500000  1
  Ag  Ag2  1  0.373052  0.125558  0.748029  1
  Ag  Ag3  1  0.377530  0.625023  0.251971  1
  Ag  Ag4  1  0.874442  0.622470  0.247494  1
  Ag  Ag5  1  0.374977  0.626948  0.752506  1
  O  O6  1  0.030390  0.011710  0.656637  1
  O  O7  1  0.626248  0.969610  0.981322  1
  O  O8  1  0.988290  0.644927  0.018678  1
  O  O9  1  0.398859  0.879406  0.163600  1
  O  O10  1  0.764740  0.601141  0.480547  1
  O  O11  1  0.120594  0.284194  0.519453  1
  O  O12  1  0.355073  0.373752  0.343363  1
  O  O13  1  0.715806  0.235260  0.836400  1
