# generated using pymatgen
data_Tb15Dy(InPt)4
_symmetry_space_group_name_H-M   'P 1'
_cell_length_a   9.78086848
_cell_length_b   9.78115681
_cell_length_c   9.78115600
_cell_angle_alpha   59.99999598
_cell_angle_beta   59.99902083
_cell_angle_gamma   59.99902435
_symmetry_Int_Tables_number   1
_chemical_formula_structural   Tb15Dy(InPt)4
_chemical_formula_sum   'Tb15 Dy1 In4 Pt4'
_cell_volume   661.66231369
_cell_formula_units_Z   1
loop_
 _symmetry_equiv_pos_site_id
 _symmetry_equiv_pos_as_xyz
  1  'x, y, z'
loop_
 _atom_site_type_symbol
 _atom_site_label
 _atom_site_symmetry_multiplicity
 _atom_site_fract_x
 _atom_site_fract_y
 _atom_site_fract_z
 _atom_site_occupancy
  Tb  Tb0  1  0.690091  0.309860  0.309860  1
  Tb  Tb1  1  0.690091  0.690189  0.309860  1
  Tb  Tb2  1  0.309862  0.690105  0.309928  1
  Tb  Tb3  1  0.937810  0.937812  0.562189  1
  Tb  Tb4  1  0.149306  0.149284  0.552126  1
  Tb  Tb5  1  0.562223  0.937826  0.562126  1
  Tb  Tb6  1  0.149306  0.149284  0.149284  1
  Tb  Tb7  1  0.309862  0.309928  0.690105  1
  Tb  Tb8  1  0.937810  0.562189  0.562189  1
  Tb  Tb9  1  0.562223  0.562126  0.937826  1
  Tb  Tb10  1  0.562223  0.937826  0.937826  1
  Tb  Tb11  1  0.937810  0.562189  0.937812  1
  Tb  Tb12  1  0.149306  0.552126  0.149284  1
  Tb  Tb13  1  0.309862  0.690105  0.690105  1
  Tb  Tb14  1  0.690091  0.309860  0.690189  1
  Dy  Dy15  1  0.551796  0.149401  0.149401  1
  In  In16  1  0.917019  0.917165  0.248651  1
  In  In17  1  0.248646  0.917118  0.917118  1
  In  In18  1  0.917019  0.248651  0.917165  1
  In  In19  1  0.917019  0.917165  0.917165  1
  Pt  Pt20  1  0.357247  0.356830  0.356830  1
  Pt  Pt21  1  0.928886  0.357038  0.357038  1
  Pt  Pt22  1  0.357247  0.356830  0.929093  1
  Pt  Pt23  1  0.357247  0.929093  0.356830  1
