# generated using pymatgen
data_Hf6Al16Pd3PtRh3
_symmetry_space_group_name_H-M   'P 1'
_cell_length_a   8.73987351
_cell_length_b   8.74032149
_cell_length_c   8.75198312
_cell_angle_alpha   59.95267900
_cell_angle_beta   59.96695992
_cell_angle_gamma   60.09012484
_symmetry_Int_Tables_number   1
_chemical_formula_structural   Hf6Al16Pd3PtRh3
_chemical_formula_sum   'Hf6 Al16 Pd3 Pt1 Rh3'
_cell_volume   472.77506236
_cell_formula_units_Z   1
loop_
 _symmetry_equiv_pos_site_id
 _symmetry_equiv_pos_as_xyz
  1  'x, y, z'
loop_
 _atom_site_type_symbol
 _atom_site_label
 _atom_site_symmetry_multiplicity
 _atom_site_fract_x
 _atom_site_fract_y
 _atom_site_fract_z
 _atom_site_occupancy
  Hf  Hf0  1  0.684157  0.315001  0.315840  1
  Hf  Hf1  1  0.315844  0.684998  0.684155  1
  Hf  Hf2  1  0.318404  0.681598  0.318400  1
  Hf  Hf3  1  0.318776  0.317964  0.681221  1
  Hf  Hf4  1  0.681597  0.318402  0.681597  1
  Hf  Hf5  1  0.681223  0.682037  0.318777  1
  Al  Al6  1  0.333483  0.338258  0.336710  1
  Al  Al7  1  0.337081  0.333964  0.991762  1
  Al  Al8  1  0.991761  0.337193  0.337080  1
  Al  Al9  1  0.336711  0.991547  0.333483  1
  Al  Al10  1  0.666516  0.661743  0.663288  1
  Al  Al11  1  0.662919  0.666036  0.008236  1
  Al  Al12  1  0.663288  0.008453  0.666516  1
  Al  Al13  1  0.008237  0.662809  0.662919  1
  Al  Al14  1  0.123759  0.116844  0.116977  1
  Al  Al15  1  0.117423  0.123625  0.642183  1
  Al  Al16  1  0.642184  0.116769  0.117423  1
  Al  Al17  1  0.116978  0.642419  0.123758  1
  Al  Al18  1  0.876240  0.883156  0.883021  1
  Al  Al19  1  0.882575  0.876376  0.357817  1
  Al  Al20  1  0.883021  0.357583  0.876239  1
  Al  Al21  1  0.357818  0.883232  0.882575  1
  Pd  Pd22  1  0.999997  0.499999  0.000004  1
  Pd  Pd23  1  0.000000  0.000001  0.499998  1
  Pd  Pd24  1  0.499999  0.500002  0.999998  1
  Pt  Pt25  1  0.500000  0.000000  0.499999  1
  Rh  Rh26  1  0.000007  0.999990  0.000015  1
  Rh  Rh27  1  0.500001  0.999999  0.000002  1
  Rh  Rh28  1  0.999998  0.499998  0.500002  1
