# generated using pymatgen
data_TbNd19(SnBi)8
_symmetry_space_group_name_H-M   'P 1'
_cell_length_a   8.41068601
_cell_length_b   8.47015502
_cell_length_c   16.16100800
_cell_angle_alpha   90.00000000
_cell_angle_beta   90.00000000
_cell_angle_gamma   89.94377959
_symmetry_Int_Tables_number   1
_chemical_formula_structural   TbNd19(SnBi)8
_chemical_formula_sum   'Tb1 Nd19 Sn8 Bi8'
_cell_volume   1151.30665527
_cell_formula_units_Z   1
loop_
 _symmetry_equiv_pos_site_id
 _symmetry_equiv_pos_as_xyz
  1  'x, y, z'
loop_
 _atom_site_type_symbol
 _atom_site_label
 _atom_site_symmetry_multiplicity
 _atom_site_fract_x
 _atom_site_fract_y
 _atom_site_fract_z
 _atom_site_occupancy
  Tb  Tb0  1  0.282089  0.996505  0.250000  1
  Nd  Nd1  1  0.389530  0.836750  0.879419  1
  Nd  Nd2  1  0.889610  0.663388  0.621282  1
  Nd  Nd3  1  0.611052  0.162671  0.378709  1
  Nd  Nd4  1  0.111023  0.337107  0.121565  1
  Nd  Nd5  1  0.611052  0.162671  0.121291  1
  Nd  Nd6  1  0.111023  0.337107  0.378435  1
  Nd  Nd7  1  0.389530  0.836750  0.620581  1
  Nd  Nd8  1  0.889610  0.663388  0.878718  1
  Nd  Nd9  1  0.549954  0.326678  0.890424  1
  Nd  Nd10  1  0.049654  0.173870  0.609179  1
  Nd  Nd11  1  0.449666  0.672981  0.390255  1
  Nd  Nd12  1  0.949886  0.826967  0.109618  1
  Nd  Nd13  1  0.449666  0.672981  0.109745  1
  Nd  Nd14  1  0.949886  0.826967  0.390382  1
  Nd  Nd15  1  0.549954  0.326678  0.609576  1
  Nd  Nd16  1  0.049654  0.173870  0.890821  1
  Nd  Nd17  1  0.217026  0.496501  0.750000  1
  Nd  Nd18  1  0.716954  0.003692  0.750000  1
  Nd  Nd19  1  0.782836  0.503974  0.250000  1
  Sn  Sn20  1  0.588489  0.623296  0.750000  1
  Sn  Sn21  1  0.089301  0.877219  0.750000  1
  Sn  Sn22  1  0.410771  0.374072  0.250000  1
  Sn  Sn23  1  0.913837  0.121942  0.250000  1
  Sn  Sn24  1  0.350826  0.138415  0.750000  1
  Sn  Sn25  1  0.851131  0.361117  0.750000  1
  Sn  Sn26  1  0.645197  0.861874  0.250000  1
  Sn  Sn27  1  0.149527  0.642726  0.250000  1
  Bi  Bi28  1  0.270029  0.019349  0.047592  1
  Bi  Bi29  1  0.769324  0.479515  0.454780  1
  Bi  Bi30  1  0.730845  0.979856  0.545228  1
  Bi  Bi31  1  0.230436  0.520202  0.954936  1
  Bi  Bi32  1  0.730845  0.979856  0.954772  1
  Bi  Bi33  1  0.230436  0.520202  0.545064  1
  Bi  Bi34  1  0.270029  0.019349  0.452408  1
  Bi  Bi35  1  0.769324  0.479515  0.045220  1
