# generated using pymatgen
data_TbPrGa3Cu7
_symmetry_space_group_name_H-M   'P 1'
_cell_length_a   4.19514300
_cell_length_b   5.12913561
_cell_length_c   8.94775301
_cell_angle_alpha   89.39124101
_cell_angle_beta   90.00000000
_cell_angle_gamma   90.00000000
_symmetry_Int_Tables_number   1
_chemical_formula_structural   TbPrGa3Cu7
_chemical_formula_sum   'Tb1 Pr1 Ga3 Cu7'
_cell_volume   192.52202665
_cell_formula_units_Z   1
loop_
 _symmetry_equiv_pos_site_id
 _symmetry_equiv_pos_as_xyz
  1  'x, y, z'
loop_
 _atom_site_type_symbol
 _atom_site_label
 _atom_site_symmetry_multiplicity
 _atom_site_fract_x
 _atom_site_fract_y
 _atom_site_fract_z
 _atom_site_occupancy
  Tb  Tb0  1  0.000000  0.248098  0.751792  1
  Pr  Pr1  1  0.000000  0.752859  0.249262  1
  Ga  Ga2  1  0.500000  0.733406  0.744107  1
  Ga  Ga3  1  0.500000  0.263875  0.255057  1
  Ga  Ga4  1  0.500000  0.003469  0.997228  1
  Cu  Cu5  1  0.000000  0.256787  0.077532  1
  Cu  Cu6  1  0.000000  0.749201  0.585613  1
  Cu  Cu7  1  0.000000  0.745378  0.910466  1
  Cu  Cu8  1  0.000000  0.250130  0.425026  1
  Cu  Cu9  1  0.500000  0.495562  0.503276  1
  Cu  Cu10  1  0.500000  0.498785  0.996235  1
  Cu  Cu11  1  0.500000  0.002451  0.504406  1
