# generated using pymatgen
data_LaTm2ThSb10
_symmetry_space_group_name_H-M   'P 1'
_cell_length_a   4.24291100
_cell_length_b   13.22995472
_cell_length_c   14.61706300
_cell_angle_alpha   78.23558424
_cell_angle_beta   90.00000000
_cell_angle_gamma   90.00000000
_symmetry_Int_Tables_number   1
_chemical_formula_structural   LaTm2ThSb10
_chemical_formula_sum   'La2 Tm4 Th2 Sb20'
_cell_volume   803.27179793
_cell_formula_units_Z   2
loop_
 _symmetry_equiv_pos_site_id
 _symmetry_equiv_pos_as_xyz
  1  'x, y, z'
loop_
 _atom_site_type_symbol
 _atom_site_label
 _atom_site_symmetry_multiplicity
 _atom_site_fract_x
 _atom_site_fract_y
 _atom_site_fract_z
 _atom_site_occupancy
  La  La0  1  0.250000  0.951246  0.354925  1
  La  La1  1  0.750000  0.048754  0.645075  1
  Tm  Tm2  1  0.250000  0.394216  0.774785  1
  Tm  Tm3  1  0.750000  0.605784  0.225215  1
  Tm  Tm4  1  0.250000  0.659187  0.860057  1
  Tm  Tm5  1  0.750000  0.340813  0.139943  1
  Th  Th6  1  0.250000  0.669490  0.573846  1
  Th  Th7  1  0.750000  0.330510  0.426154  1
  Sb  Sb8  1  0.250000  0.148827  0.783289  1
  Sb  Sb9  1  0.750000  0.851173  0.216711  1
  Sb  Sb10  1  0.250000  0.144868  0.477682  1
  Sb  Sb11  1  0.750000  0.855132  0.522318  1
  Sb  Sb12  1  0.250000  0.156508  0.158829  1
  Sb  Sb13  1  0.750000  0.843492  0.841171  1
  Sb  Sb14  1  0.250000  0.420997  0.977481  1
  Sb  Sb15  1  0.750000  0.579003  0.022519  1
  Sb  Sb16  1  0.750000  0.033212  0.910296  1
  Sb  Sb17  1  0.250000  0.966788  0.089704  1
  Sb  Sb18  1  0.750000  0.145664  0.306525  1
  Sb  Sb19  1  0.250000  0.854336  0.693475  1
  Sb  Sb20  1  0.750000  0.280073  0.937441  1
  Sb  Sb21  1  0.250000  0.719927  0.062559  1
  Sb  Sb22  1  0.750000  0.290506  0.660012  1
  Sb  Sb23  1  0.250000  0.709494  0.339988  1
  Sb  Sb24  1  0.750000  0.575079  0.738266  1
  Sb  Sb25  1  0.250000  0.424921  0.261734  1
  Sb  Sb26  1  0.750000  0.571459  0.444062  1
  Sb  Sb27  1  0.250000  0.428541  0.555938  1
