# generated using pymatgen
data_Nd4HoRu2
_symmetry_space_group_name_H-M   'P 1'
_cell_length_a   6.57186863
_cell_length_b   7.32558119
_cell_length_c   8.79516967
_cell_angle_alpha   96.06747637
_cell_angle_beta   111.93823349
_cell_angle_gamma   90.00000000
_symmetry_Int_Tables_number   1
_chemical_formula_structural   Nd4HoRu2
_chemical_formula_sum   'Nd8 Ho2 Ru4'
_cell_volume   390.20408554
_cell_formula_units_Z   2
loop_
 _symmetry_equiv_pos_site_id
 _symmetry_equiv_pos_as_xyz
  1  'x, y, z'
loop_
 _atom_site_type_symbol
 _atom_site_label
 _atom_site_symmetry_multiplicity
 _atom_site_fract_x
 _atom_site_fract_y
 _atom_site_fract_z
 _atom_site_occupancy
  Nd  Nd0  1  0.977011  0.916038  0.182917  1
  Nd  Nd1  1  0.794094  0.583962  0.817083  1
  Nd  Nd2  1  0.022989  0.083962  0.817083  1
  Nd  Nd3  1  0.205906  0.416038  0.182917  1
  Nd  Nd4  1  0.638828  0.813568  0.430516  1
  Nd  Nd5  1  0.208312  0.686432  0.569484  1
  Nd  Nd6  1  0.361172  0.186432  0.569484  1
  Nd  Nd7  1  0.791688  0.313568  0.430516  1
  Ho  Ho8  1  0.427810  0.750000  0.000000  1
  Ho  Ho9  1  0.572190  0.250000  0.000000  1
  Ru  Ru10  1  0.815421  0.573085  0.215105  1
  Ru  Ru11  1  0.600316  0.926915  0.784895  1
  Ru  Ru12  1  0.184579  0.426915  0.784895  1
  Ru  Ru13  1  0.399684  0.073085  0.215105  1
