# generated using pymatgen
data_Mn2SiW3C
_symmetry_space_group_name_H-M   'P 1'
_cell_length_a   7.86802876
_cell_length_b   7.86802802
_cell_length_c   7.86802800
_cell_angle_alpha   60.00000008
_cell_angle_beta   60.00000318
_cell_angle_gamma   60.00000145
_symmetry_Int_Tables_number   1
_chemical_formula_structural   Mn2SiW3C
_chemical_formula_sum   'Mn8 Si4 W12 C4'
_cell_volume   344.41554978
_cell_formula_units_Z   4
loop_
 _symmetry_equiv_pos_site_id
 _symmetry_equiv_pos_as_xyz
  1  'x, y, z'
loop_
 _atom_site_type_symbol
 _atom_site_label
 _atom_site_symmetry_multiplicity
 _atom_site_fract_x
 _atom_site_fract_y
 _atom_site_fract_z
 _atom_site_occupancy
  Mn  Mn0  1  0.241107  0.919631  0.919631  1
  Mn  Mn1  1  0.919631  0.241107  0.919631  1
  Mn  Mn2  1  0.330369  0.330369  0.330369  1
  Mn  Mn3  1  0.330369  0.008893  0.330369  1
  Mn  Mn4  1  0.330369  0.330369  0.008893  1
  Mn  Mn5  1  0.008893  0.330369  0.330369  1
  Mn  Mn6  1  0.919631  0.919631  0.919631  1
  Mn  Mn7  1  0.919631  0.919631  0.241107  1
  Si  Si8  1  0.125000  0.125000  0.625000  1
  Si  Si9  1  0.125000  0.625000  0.125000  1
  Si  Si10  1  0.625000  0.125000  0.125000  1
  Si  Si11  1  0.125000  0.125000  0.125000  1
  W  W12  1  0.549429  0.549429  0.950571  1
  W  W13  1  0.950571  0.950571  0.549429  1
  W  W14  1  0.700571  0.700571  0.299429  1
  W  W15  1  0.299429  0.700571  0.700571  1
  W  W16  1  0.700571  0.299429  0.299429  1
  W  W17  1  0.299429  0.299429  0.700571  1
  W  W18  1  0.549429  0.950571  0.549429  1
  W  W19  1  0.299429  0.700571  0.299429  1
  W  W20  1  0.950571  0.549429  0.950571  1
  W  W21  1  0.950571  0.549429  0.549429  1
  W  W22  1  0.700571  0.299429  0.700571  1
  W  W23  1  0.549429  0.950571  0.950571  1
  C  C24  1  0.625000  0.625000  0.125000  1
  C  C25  1  0.125000  0.625000  0.625000  1
  C  C26  1  0.625000  0.125000  0.625000  1
  C  C27  1  0.625000  0.625000  0.625000  1
