# generated using pymatgen
data_Na2AlInSe4
_symmetry_space_group_name_H-M   'P 1'
_cell_length_a   7.10755239
_cell_length_b   7.10755339
_cell_length_c   7.10755259
_cell_angle_alpha   124.10811340
_cell_angle_beta   124.10811771
_cell_angle_gamma   83.02059570
_symmetry_Int_Tables_number   1
_chemical_formula_structural   Na2AlInSe4
_chemical_formula_sum   'Na2 Al1 In1 Se4'
_cell_volume   236.20164202
_cell_formula_units_Z   1
loop_
 _symmetry_equiv_pos_site_id
 _symmetry_equiv_pos_as_xyz
  1  'x, y, z'
loop_
 _atom_site_type_symbol
 _atom_site_label
 _atom_site_symmetry_multiplicity
 _atom_site_fract_x
 _atom_site_fract_y
 _atom_site_fract_z
 _atom_site_occupancy
  Na  Na0  1  0.750000  0.250000  0.500000  1
  Na  Na1  1  0.500000  0.500000  0.000000  1
  Al  Al2  1  0.250000  0.750000  0.500000  1
  In  In3  1  0.000000  0.000000  0.000000  1
  Se  Se4  1  0.131652  0.068827  0.466424  1
  Se  Se5  1  0.602402  0.665228  0.533576  1
  Se  Se6  1  0.334772  0.868348  0.937175  1
  Se  Se7  1  0.931173  0.397598  0.062825  1
