# generated using pymatgen
data_Ho2Er14Cd4TcPd3
_symmetry_space_group_name_H-M   'P 1'
_cell_length_a   9.64543277
_cell_length_b   9.64543226
_cell_length_c   9.64635472
_cell_angle_alpha   59.36693670
_cell_angle_beta   59.36693629
_cell_angle_gamma   59.37455126
_symmetry_Int_Tables_number   1
_chemical_formula_structural   Ho2Er14Cd4TcPd3
_chemical_formula_sum   'Ho2 Er14 Cd4 Tc1 Pd3'
_cell_volume   625.48062696
_cell_formula_units_Z   1
loop_
 _symmetry_equiv_pos_site_id
 _symmetry_equiv_pos_as_xyz
  1  'x, y, z'
loop_
 _atom_site_type_symbol
 _atom_site_label
 _atom_site_symmetry_multiplicity
 _atom_site_fract_x
 _atom_site_fract_y
 _atom_site_fract_z
 _atom_site_occupancy
  Ho  Ho0  1  0.353132  0.353132  0.353211  1
  Ho  Ho1  1  0.351802  0.351802  0.942826  1
  Er  Er2  1  0.351816  0.942980  0.351793  1
  Er  Er3  1  0.942980  0.351816  0.351793  1
  Er  Er4  1  0.817331  0.187201  0.187172  1
  Er  Er5  1  0.188442  0.810840  0.810872  1
  Er  Er6  1  0.187201  0.817331  0.187172  1
  Er  Er7  1  0.810840  0.188442  0.810872  1
  Er  Er8  1  0.187107  0.187107  0.817313  1
  Er  Er9  1  0.810820  0.810820  0.188496  1
  Er  Er10  1  0.934483  0.566253  0.566224  1
  Er  Er11  1  0.557182  0.937373  0.937444  1
  Er  Er12  1  0.566253  0.934483  0.566224  1
  Er  Er13  1  0.937373  0.557182  0.937444  1
  Er  Er14  1  0.566289  0.566289  0.934403  1
  Er  Er15  1  0.937490  0.937490  0.557014  1
  Cd  Cd16  1  0.580752  0.580752  0.580584  1
  Cd  Cd17  1  0.581423  0.581423  0.253776  1
  Cd  Cd18  1  0.581498  0.253766  0.581300  1
  Cd  Cd19  1  0.253766  0.581498  0.581300  1
  Tc  Tc20  1  0.144928  0.144928  0.145292  1
  Pd  Pd21  1  0.144429  0.144429  0.568166  1
  Pd  Pd22  1  0.144193  0.568464  0.144652  1
  Pd  Pd23  1  0.568464  0.144193  0.144652  1
