# generated using pymatgen
data_Er2Fe3Co5(P3Ru)2
_symmetry_space_group_name_H-M   'P 1'
_cell_length_a   3.70327700
_cell_length_b   10.27557500
_cell_length_c   11.82345900
_cell_angle_alpha   90.00000000
_cell_angle_beta   90.00000000
_cell_angle_gamma   90.00000000
_symmetry_Int_Tables_number   1
_chemical_formula_structural   Er2Fe3Co5(P3Ru)2
_chemical_formula_sum   'Er4 Fe6 Co10 P12 Ru4'
_cell_volume   449.92163898
_cell_formula_units_Z   2
loop_
 _symmetry_equiv_pos_site_id
 _symmetry_equiv_pos_as_xyz
  1  'x, y, z'
loop_
 _atom_site_type_symbol
 _atom_site_label
 _atom_site_symmetry_multiplicity
 _atom_site_fract_x
 _atom_site_fract_y
 _atom_site_fract_z
 _atom_site_occupancy
  Er  Er0  1  0.250000  0.580255  0.705171  1
  Er  Er1  1  0.250000  0.919745  0.205171  1
  Er  Er2  1  0.750000  0.415847  0.294984  1
  Er  Er3  1  0.750000  0.084153  0.794984  1
  Fe  Fe4  1  0.750000  0.117510  0.296835  1
  Fe  Fe5  1  0.750000  0.382490  0.796835  1
  Fe  Fe6  1  0.250000  0.464389  0.934537  1
  Fe  Fe7  1  0.250000  0.035611  0.434537  1
  Fe  Fe8  1  0.750000  0.538596  0.068450  1
  Fe  Fe9  1  0.750000  0.961404  0.568450  1
  Co  Co10  1  0.250000  0.405615  0.485588  1
  Co  Co11  1  0.250000  0.094386  0.985588  1
  Co  Co12  1  0.750000  0.590994  0.511479  1
  Co  Co13  1  0.750000  0.909006  0.011479  1
  Co  Co14  1  0.250000  0.224290  0.171690  1
  Co  Co15  1  0.250000  0.275710  0.671690  1
  Co  Co16  1  0.750000  0.776249  0.826177  1
  Co  Co17  1  0.750000  0.723751  0.326177  1
  Co  Co18  1  0.250000  0.882297  0.704437  1
  Co  Co19  1  0.250000  0.617703  0.204437  1
  P  P20  1  0.250000  0.425485  0.113771  1
  P  P21  1  0.250000  0.074515  0.613771  1
  P  P22  1  0.750000  0.574064  0.886565  1
  P  P23  1  0.750000  0.925936  0.386565  1
  P  P24  1  0.250000  0.272819  0.860297  1
  P  P25  1  0.250000  0.227181  0.360297  1
  P  P26  1  0.750000  0.732707  0.137072  1
  P  P27  1  0.750000  0.767293  0.637072  1
  P  P28  1  0.250000  0.596244  0.390924  1
  P  P29  1  0.250000  0.903756  0.890924  1
  P  P30  1  0.750000  0.401947  0.610033  1
  P  P31  1  0.750000  0.098053  0.110033  1
  Ru  Ru32  1  0.250000  0.713221  0.992085  1
  Ru  Ru33  1  0.250000  0.786779  0.492085  1
  Ru  Ru34  1  0.750000  0.289944  0.009906  1
  Ru  Ru35  1  0.750000  0.210056  0.509906  1
