# generated using pymatgen
data_Ho16CdCo(NiAg)3
_symmetry_space_group_name_H-M   'P 1'
_cell_length_a   9.41789496
_cell_length_b   9.43644833
_cell_length_c   9.43644929
_cell_angle_alpha   59.90457176
_cell_angle_beta   59.85280673
_cell_angle_gamma   59.85280729
_symmetry_Int_Tables_number   1
_chemical_formula_structural   Ho16CdCo(NiAg)3
_chemical_formula_sum   'Ho16 Cd1 Co1 Ni3 Ag3'
_cell_volume   591.25307067
_cell_formula_units_Z   1
loop_
 _symmetry_equiv_pos_site_id
 _symmetry_equiv_pos_as_xyz
  1  'x, y, z'
loop_
 _atom_site_type_symbol
 _atom_site_label
 _atom_site_symmetry_multiplicity
 _atom_site_fract_x
 _atom_site_fract_y
 _atom_site_fract_z
 _atom_site_occupancy
  Ho  Ho0  1  0.349622  0.349777  0.349777  1
  Ho  Ho1  1  0.347382  0.347218  0.954712  1
  Ho  Ho2  1  0.347382  0.954712  0.347218  1
  Ho  Ho3  1  0.951757  0.348417  0.348417  1
  Ho  Ho4  1  0.814711  0.188112  0.188112  1
  Ho  Ho5  1  0.189299  0.810714  0.810714  1
  Ho  Ho6  1  0.188378  0.814715  0.187985  1
  Ho  Ho7  1  0.810983  0.189082  0.810533  1
  Ho  Ho8  1  0.188378  0.187985  0.814715  1
  Ho  Ho9  1  0.810983  0.810533  0.189082  1
  Ho  Ho10  1  0.933488  0.564298  0.564298  1
  Ho  Ho11  1  0.561655  0.936871  0.936871  1
  Ho  Ho12  1  0.563051  0.936621  0.563686  1
  Ho  Ho13  1  0.933781  0.562621  0.938554  1
  Ho  Ho14  1  0.563051  0.563686  0.936621  1
  Ho  Ho15  1  0.933781  0.938554  0.562621  1
  Cd  Cd16  1  0.262644  0.579120  0.579120  1
  Co  Co17  1  0.142438  0.142548  0.142548  1
  Ni  Ni18  1  0.142482  0.143079  0.571911  1
  Ni  Ni19  1  0.142482  0.571911  0.143079  1
  Ni  Ni20  1  0.571974  0.142979  0.142979  1
  Ag  Ag21  1  0.583437  0.582236  0.582236  1
  Ag  Ag22  1  0.583433  0.582527  0.251679  1
  Ag  Ag23  1  0.583433  0.251679  0.582527  1
