# generated using pymatgen
data_CaCe2Pr7Sn6
_symmetry_space_group_name_H-M   'P 1'
_cell_length_a   9.48476670
_cell_length_b   9.48477918
_cell_length_c   9.52194200
_cell_angle_alpha   96.53470229
_cell_angle_beta   96.20128398
_cell_angle_gamma   141.01380475
_symmetry_Int_Tables_number   1
_chemical_formula_structural   CaCe2Pr7Sn6
_chemical_formula_sum   'Ca1 Ce2 Pr7 Sn6'
_cell_volume   508.27439389
_cell_formula_units_Z   1
loop_
 _symmetry_equiv_pos_site_id
 _symmetry_equiv_pos_as_xyz
  1  'x, y, z'
loop_
 _atom_site_type_symbol
 _atom_site_label
 _atom_site_symmetry_multiplicity
 _atom_site_fract_x
 _atom_site_fract_y
 _atom_site_fract_z
 _atom_site_occupancy
  Ca  Ca0  1  0.286830  0.418417  0.705227  1
  Ce  Ce1  1  0.249274  0.749356  0.499777  1
  Ce  Ce2  1  0.750369  0.250470  0.499806  1
  Pr  Pr3  1  0.083704  0.219163  0.302802  1
  Pr  Pr4  1  0.913477  0.782206  0.695585  1
  Pr  Pr5  1  0.780700  0.081864  0.862616  1
  Pr  Pr6  1  0.417872  0.718973  0.136880  1
  Pr  Pr7  1  0.218291  0.917462  0.135724  1
  Pr  Pr8  1  0.584534  0.283017  0.867528  1
  Pr  Pr9  1  0.717283  0.580235  0.297411  1
  Sn  Sn10  1  0.157799  0.661578  0.819339  1
  Sn  Sn11  1  0.841370  0.338603  0.180005  1
  Sn  Sn12  1  0.340809  0.159264  0.500190  1
  Sn  Sn13  1  0.657874  0.837755  0.495690  1
  Sn  Sn14  1  0.246289  0.247199  0.000711  1
  Sn  Sn15  1  0.753523  0.754436  0.000709  1
