# generated using pymatgen
data_Sc2Fe3P7Ru8Pt
_symmetry_space_group_name_H-M   'P 1'
_cell_length_a   9.18576913
_cell_length_b   9.29287823
_cell_length_c   3.81131000
_cell_angle_alpha   90.00000000
_cell_angle_beta   90.00000000
_cell_angle_gamma   119.21660854
_symmetry_Int_Tables_number   1
_chemical_formula_structural   Sc2Fe3P7Ru8Pt
_chemical_formula_sum   'Sc2 Fe3 P7 Ru8 Pt1'
_cell_volume   283.95213767
_cell_formula_units_Z   1
loop_
 _symmetry_equiv_pos_site_id
 _symmetry_equiv_pos_as_xyz
  1  'x, y, z'
loop_
 _atom_site_type_symbol
 _atom_site_label
 _atom_site_symmetry_multiplicity
 _atom_site_fract_x
 _atom_site_fract_y
 _atom_site_fract_z
 _atom_site_occupancy
  Sc  Sc0  1  0.671394  0.337420  0.500000  1
  Sc  Sc1  1  0.326472  0.656385  0.000000  1
  Fe  Fe2  1  0.726999  0.892585  0.000000  1
  Fe  Fe3  1  0.113637  0.843287  0.000000  1
  Fe  Fe4  1  0.159680  0.268576  0.000000  1
  P  P5  1  0.598862  0.708313  0.500000  1
  P  P6  1  0.998870  0.001626  0.000000  1
  P  P7  1  0.269785  0.878138  0.500000  1
  P  P8  1  0.119782  0.400033  0.500000  1
  P  P9  1  0.891603  0.588371  0.000000  1
  P  P10  1  0.419913  0.305068  0.000000  1
  P  P11  1  0.706337  0.121916  0.000000  1
  Ru  Ru12  1  0.386176  0.436535  0.500000  1
  Ru  Ru13  1  0.910291  0.122964  0.500000  1
  Ru  Ru14  1  0.205888  0.087946  0.500000  1
  Ru  Ru15  1  0.881856  0.797601  0.500000  1
  Ru  Ru16  1  0.430387  0.065219  0.000000  1
  Ru  Ru17  1  0.940280  0.366201  0.000000  1
  Ru  Ru18  1  0.640084  0.577468  0.000000  1
  Ru  Ru19  1  0.055684  0.613863  0.500000  1
  Pt  Pt20  1  0.546021  0.930487  0.500000  1
