# generated using pymatgen
data_Tb10Sn5BiN2
_symmetry_space_group_name_H-M   'P 1'
_cell_length_a   8.97624391
_cell_length_b   8.97624471
_cell_length_c   6.47928300
_cell_angle_alpha   90.00000000
_cell_angle_beta   90.00000000
_cell_angle_gamma   119.92520084
_symmetry_Int_Tables_number   1
_chemical_formula_structural   Tb10Sn5BiN2
_chemical_formula_sum   'Tb10 Sn5 Bi1 N2'
_cell_volume   452.45329560
_cell_formula_units_Z   1
loop_
 _symmetry_equiv_pos_site_id
 _symmetry_equiv_pos_as_xyz
  1  'x, y, z'
loop_
 _atom_site_type_symbol
 _atom_site_label
 _atom_site_symmetry_multiplicity
 _atom_site_fract_x
 _atom_site_fract_y
 _atom_site_fract_z
 _atom_site_occupancy
  Tb  Tb0  1  0.669998  0.332434  0.002189  1
  Tb  Tb1  1  0.332434  0.669998  0.002189  1
  Tb  Tb2  1  0.332434  0.669998  0.497811  1
  Tb  Tb3  1  0.669998  0.332434  0.497811  1
  Tb  Tb4  1  0.787535  0.787535  0.750000  1
  Tb  Tb5  1  0.212604  0.995708  0.750000  1
  Tb  Tb6  1  0.995708  0.212604  0.750000  1
  Tb  Tb7  1  0.212266  0.212266  0.250000  1
  Tb  Tb8  1  0.784971  0.999787  0.250000  1
  Tb  Tb9  1  0.999787  0.784971  0.250000  1
  Sn  Sn10  1  0.596846  0.999814  0.750000  1
  Sn  Sn11  1  0.999814  0.596846  0.750000  1
  Sn  Sn12  1  0.597589  0.597589  0.250000  1
  Sn  Sn13  1  0.402809  0.000931  0.250000  1
  Sn  Sn14  1  0.000931  0.402809  0.250000  1
  Bi  Bi15  1  0.401927  0.401927  0.750000  1
  N  N16  1  0.001174  0.001174  0.999023  1
  N  N17  1  0.001174  0.001174  0.500977  1
