# generated using pymatgen
data_CaHo2U5(ReB6)4
_symmetry_space_group_name_H-M   'P 1'
_cell_length_a   3.63669300
_cell_length_b   9.29511062
_cell_length_c   11.40783600
_cell_angle_alpha   89.94814689
_cell_angle_beta   90.00000000
_cell_angle_gamma   90.00000000
_symmetry_Int_Tables_number   1
_chemical_formula_structural   CaHo2U5(ReB6)4
_chemical_formula_sum   'Ca1 Ho2 U5 Re4 B24'
_cell_volume   385.62421269
_cell_formula_units_Z   1
loop_
 _symmetry_equiv_pos_site_id
 _symmetry_equiv_pos_as_xyz
  1  'x, y, z'
loop_
 _atom_site_type_symbol
 _atom_site_label
 _atom_site_symmetry_multiplicity
 _atom_site_fract_x
 _atom_site_fract_y
 _atom_site_fract_z
 _atom_site_occupancy
  Ca  Ca0  1  0.000000  0.337488  0.407934  1
  Ho  Ho1  1  0.000000  0.662794  0.590965  1
  Ho  Ho2  1  0.000000  0.835367  0.093172  1
  U  U3  1  0.000000  0.163449  0.907323  1
  U  U4  1  0.000000  0.956428  0.396625  1
  U  U5  1  0.000000  0.043701  0.602894  1
  U  U6  1  0.000000  0.457760  0.104643  1
  U  U7  1  0.000000  0.543566  0.897091  1
  Re  Re8  1  0.000000  0.648100  0.318369  1
  Re  Re9  1  0.000000  0.352321  0.685302  1
  Re  Re10  1  0.000000  0.144844  0.176523  1
  Re  Re11  1  0.000000  0.856993  0.819634  1
  B  B12  1  0.500000  0.552070  0.431263  1
  B  B13  1  0.500000  0.447778  0.570012  1
  B  B14  1  0.500000  0.052051  0.067307  1
  B  B15  1  0.500000  0.949926  0.930217  1
  B  B16  1  0.500000  0.742946  0.423481  1
  B  B17  1  0.500000  0.257072  0.577385  1
  B  B18  1  0.500000  0.242367  0.075710  1
  B  B19  1  0.500000  0.756591  0.922779  1
  B  B20  1  0.500000  0.802668  0.275307  1
  B  B21  1  0.500000  0.196879  0.726567  1
  B  B22  1  0.500000  0.301585  0.224470  1
  B  B23  1  0.500000  0.698000  0.774825  1
  B  B24  1  0.500000  0.644265  0.188977  1
  B  B25  1  0.500000  0.355044  0.812375  1
  B  B26  1  0.500000  0.143532  0.310264  1
  B  B27  1  0.500000  0.855132  0.688318  1
  B  B28  1  0.500000  0.989217  0.219081  1
  B  B29  1  0.500000  0.012880  0.780909  1
  B  B30  1  0.500000  0.489668  0.280915  1
  B  B31  1  0.500000  0.511445  0.719653  1
  B  B32  1  0.500000  0.640833  0.038953  1
  B  B33  1  0.500000  0.357240  0.960652  1
  B  B34  1  0.500000  0.138078  0.461076  1
  B  B35  1  0.500000  0.859922  0.539033  1
