# generated using pymatgen
data_Y9ScCd3Pt
_symmetry_space_group_name_H-M   'P 1'
_cell_length_a   9.67417200
_cell_length_b   9.67417225
_cell_length_c   9.70399600
_cell_angle_alpha   90.00000000
_cell_angle_beta   90.00000000
_cell_angle_gamma   119.99999915
_symmetry_Int_Tables_number   1
_chemical_formula_structural   Y9ScCd3Pt
_chemical_formula_sum   'Y18 Sc2 Cd6 Pt2'
_cell_volume   786.51835928
_cell_formula_units_Z   2
loop_
 _symmetry_equiv_pos_site_id
 _symmetry_equiv_pos_as_xyz
  1  'x, y, z'
loop_
 _atom_site_type_symbol
 _atom_site_label
 _atom_site_symmetry_multiplicity
 _atom_site_fract_x
 _atom_site_fract_y
 _atom_site_fract_z
 _atom_site_occupancy
  Y  Y0  1  0.205918  0.794082  0.441683  1
  Y  Y1  1  0.205918  0.411837  0.441683  1
  Y  Y2  1  0.588163  0.794082  0.441683  1
  Y  Y3  1  0.794082  0.205918  0.558317  1
  Y  Y4  1  0.794082  0.588163  0.558317  1
  Y  Y5  1  0.411837  0.205918  0.558317  1
  Y  Y6  1  0.794082  0.205918  0.941683  1
  Y  Y7  1  0.794082  0.588163  0.941683  1
  Y  Y8  1  0.411837  0.205918  0.941683  1
  Y  Y9  1  0.205918  0.794082  0.058317  1
  Y  Y10  1  0.205918  0.411837  0.058317  1
  Y  Y11  1  0.588163  0.794082  0.058317  1
  Y  Y12  1  0.542240  0.457760  0.250000  1
  Y  Y13  1  0.542240  0.084481  0.250000  1
  Y  Y14  1  0.915519  0.457760  0.250000  1
  Y  Y15  1  0.457760  0.542240  0.750000  1
  Y  Y16  1  0.457760  0.915519  0.750000  1
  Y  Y17  1  0.084481  0.542240  0.750000  1
  Sc  Sc18  1  0.000000  0.000000  0.500000  1
  Sc  Sc19  1  0.000000  0.000000  0.000000  1
  Cd  Cd20  1  0.889106  0.110894  0.250000  1
  Cd  Cd21  1  0.889106  0.778213  0.250000  1
  Cd  Cd22  1  0.221787  0.110894  0.250000  1
  Cd  Cd23  1  0.110894  0.889106  0.750000  1
  Cd  Cd24  1  0.110894  0.221787  0.750000  1
  Cd  Cd25  1  0.778213  0.889106  0.750000  1
  Pt  Pt26  1  0.333333  0.666667  0.250000  1
  Pt  Pt27  1  0.666667  0.333333  0.750000  1
