# generated using pymatgen
data_CaTb3(W2O7)2
_symmetry_space_group_name_H-M   'P 1'
_cell_length_a   7.46266588
_cell_length_b   7.46266672
_cell_length_c   7.46266667
_cell_angle_alpha   59.24134672
_cell_angle_beta   59.24134382
_cell_angle_gamma   59.24134107
_symmetry_Int_Tables_number   1
_chemical_formula_structural   CaTb3(W2O7)2
_chemical_formula_sum   'Ca1 Tb3 W4 O14'
_cell_volume   288.79959035
_cell_formula_units_Z   1
loop_
 _symmetry_equiv_pos_site_id
 _symmetry_equiv_pos_as_xyz
  1  'x, y, z'
loop_
 _atom_site_type_symbol
 _atom_site_label
 _atom_site_symmetry_multiplicity
 _atom_site_fract_x
 _atom_site_fract_y
 _atom_site_fract_z
 _atom_site_occupancy
  Ca  Ca0  1  0.125000  0.125000  0.125000  1
  Tb  Tb1  1  0.625000  0.125000  0.125000  1
  Tb  Tb2  1  0.125000  0.125000  0.625000  1
  Tb  Tb3  1  0.125000  0.625000  0.125000  1
  W  W4  1  0.625000  0.625000  0.625000  1
  W  W5  1  0.125000  0.625000  0.625000  1
  W  W6  1  0.625000  0.625000  0.125000  1
  W  W7  1  0.625000  0.125000  0.625000  1
  O  O8  1  0.997311  0.997311  0.997311  1
  O  O9  1  0.252689  0.252689  0.252689  1
  O  O10  1  0.288913  0.288913  0.696144  1
  O  O11  1  0.541068  0.541068  0.952338  1
  O  O12  1  0.708932  0.297662  0.708932  1
  O  O13  1  0.696144  0.288913  0.288913  1
  O  O14  1  0.297662  0.708932  0.708932  1
  O  O15  1  0.288913  0.696144  0.288913  1
  O  O16  1  0.708932  0.708932  0.297662  1
  O  O17  1  0.952338  0.541068  0.541068  1
  O  O18  1  0.553856  0.961087  0.961087  1
  O  O19  1  0.961087  0.961087  0.553856  1
  O  O20  1  0.961087  0.553856  0.961087  1
  O  O21  1  0.541068  0.952338  0.541068  1
