# generated using pymatgen
data_Tm2Lu3Co19P12
_symmetry_space_group_name_H-M   'P 1'
_cell_length_a   11.92864000
_cell_length_b   11.92863976
_cell_length_c   3.64238400
_cell_angle_alpha   90.00000000
_cell_angle_beta   90.00000000
_cell_angle_gamma   120.00000065
_symmetry_Int_Tables_number   1
_chemical_formula_structural   Tm2Lu3Co19P12
_chemical_formula_sum   'Tm2 Lu3 Co19 P12'
_cell_volume   448.84688323
_cell_formula_units_Z   1
loop_
 _symmetry_equiv_pos_site_id
 _symmetry_equiv_pos_as_xyz
  1  'x, y, z'
loop_
 _atom_site_type_symbol
 _atom_site_label
 _atom_site_symmetry_multiplicity
 _atom_site_fract_x
 _atom_site_fract_y
 _atom_site_fract_z
 _atom_site_occupancy
  Tm  Tm0  1  0.333333  0.666667  0.500000  1
  Tm  Tm1  1  0.666667  0.333333  0.500000  1
  Lu  Lu2  1  0.185839  0.000000  0.000000  1
  Lu  Lu3  1  0.000000  0.185839  0.000000  1
  Lu  Lu4  1  0.814161  0.814161  0.000000  1
  Co  Co5  1  0.198428  0.376367  0.500000  1
  Co  Co6  1  0.623633  0.822060  0.500000  1
  Co  Co7  1  0.177940  0.801572  0.500000  1
  Co  Co8  1  0.822060  0.623633  0.500000  1
  Co  Co9  1  0.801572  0.177940  0.500000  1
  Co  Co10  1  0.376367  0.198428  0.500000  1
  Co  Co11  1  0.551742  0.000000  0.500000  1
  Co  Co12  1  0.000000  0.551742  0.500000  1
  Co  Co13  1  0.448258  0.448258  0.500000  1
  Co  Co14  1  0.125782  0.483326  0.000000  1
  Co  Co15  1  0.516674  0.642457  0.000000  1
  Co  Co16  1  0.357543  0.874218  0.000000  1
  Co  Co17  1  0.642457  0.516674  0.000000  1
  Co  Co18  1  0.874218  0.357543  0.000000  1
  Co  Co19  1  0.483326  0.125782  0.000000  1
  Co  Co20  1  0.715792  0.000000  0.000000  1
  Co  Co21  1  0.000000  0.715792  0.000000  1
  Co  Co22  1  0.284208  0.284208  0.000000  1
  Co  Co23  1  0.000000  0.000000  0.500000  1
  P  P24  1  0.365990  0.000000  0.500000  1
  P  P25  1  0.000000  0.365990  0.500000  1
  P  P26  1  0.634010  0.634010  0.500000  1
  P  P27  1  0.314981  0.480599  0.000000  1
  P  P28  1  0.519401  0.834383  0.000000  1
  P  P29  1  0.165617  0.685019  0.000000  1
  P  P30  1  0.834383  0.519401  0.000000  1
  P  P31  1  0.685019  0.165617  0.000000  1
  P  P32  1  0.480599  0.314981  0.000000  1
  P  P33  1  0.820749  0.000000  0.500000  1
  P  P34  1  0.000000  0.820749  0.500000  1
  P  P35  1  0.179251  0.179251  0.500000  1
