# generated using pymatgen
data_Hf5Sc3Co7Si14Os
_symmetry_space_group_name_H-M   'P 1'
_cell_length_a   9.49969783
_cell_length_b   9.50716572
_cell_length_c   9.53815357
_cell_angle_alpha   94.12881595
_cell_angle_beta   94.07937646
_cell_angle_gamma   148.86383798
_symmetry_Int_Tables_number   1
_chemical_formula_structural   Hf5Sc3Co7Si14Os
_chemical_formula_sum   'Hf5 Sc3 Co7 Si14 Os1'
_cell_volume   429.29859348
_cell_formula_units_Z   1
loop_
 _symmetry_equiv_pos_site_id
 _symmetry_equiv_pos_as_xyz
  1  'x, y, z'
loop_
 _atom_site_type_symbol
 _atom_site_label
 _atom_site_symmetry_multiplicity
 _atom_site_fract_x
 _atom_site_fract_y
 _atom_site_fract_z
 _atom_site_occupancy
  Hf  Hf0  1  0.862206  0.138775  0.999405  1
  Hf  Hf1  1  0.303611  0.498316  0.802252  1
  Hf  Hf2  1  0.696427  0.499936  0.197246  1
  Hf  Hf3  1  0.500339  0.696855  0.196910  1
  Hf  Hf4  1  0.497721  0.303225  0.801857  1
  Sc  Sc5  1  0.138814  0.138743  0.277290  1
  Sc  Sc6  1  0.861462  0.861170  0.721950  1
  Sc  Sc7  1  0.136714  0.859807  0.999541  1
  Co  Co8  1  0.397312  0.896897  0.793209  1
  Co  Co9  1  0.896313  0.100415  0.500928  1
  Co  Co10  1  0.605206  0.400983  0.501054  1
  Co  Co11  1  0.601188  0.100257  0.202098  1
  Co  Co12  1  0.897938  0.397287  0.795941  1
  Co  Co13  1  0.103812  0.899708  0.501381  1
  Co  Co14  1  0.397843  0.602535  0.501326  1
  Si  Si15  1  0.290097  0.290000  0.578862  1
  Si  Si16  1  0.710303  0.710195  0.420529  1
  Si  Si17  1  0.297696  0.715907  0.994029  1
  Si  Si18  1  0.696298  0.278642  0.994251  1
  Si  Si19  1  0.090306  0.497471  0.592674  1
  Si  Si20  1  0.901109  0.493639  0.413806  1
  Si  Si21  1  0.512495  0.920117  0.413654  1
  Si  Si22  1  0.502184  0.095231  0.592379  1
  Si  Si23  1  0.251256  0.253049  0.999895  1
  Si  Si24  1  0.747254  0.747582  0.999877  1
  Si  Si25  1  0.305778  0.011835  0.301255  1
  Si  Si26  1  0.700681  0.000144  0.700139  1
  Si  Si27  1  0.000165  0.699999  0.700153  1
  Si  Si28  1  0.995563  0.289488  0.301422  1
  Os  Os29  1  0.101905  0.601792  0.204690  1
