# generated using pymatgen
data_Dy8Cd2IrRh
_symmetry_space_group_name_H-M   'P 1'
_cell_length_a   9.63306443
_cell_length_b   9.63306399
_cell_length_c   9.66523500
_cell_angle_alpha   59.88946725
_cell_angle_beta   59.88946877
_cell_angle_gamma   59.78690186
_symmetry_Int_Tables_number   1
_chemical_formula_structural   Dy8Cd2IrRh
_chemical_formula_sum   'Dy16 Cd4 Ir2 Rh2'
_cell_volume   632.11596809
_cell_formula_units_Z   2
loop_
 _symmetry_equiv_pos_site_id
 _symmetry_equiv_pos_as_xyz
  1  'x, y, z'
loop_
 _atom_site_type_symbol
 _atom_site_label
 _atom_site_symmetry_multiplicity
 _atom_site_fract_x
 _atom_site_fract_y
 _atom_site_fract_z
 _atom_site_occupancy
  Dy  Dy0  1  0.562018  0.562018  0.937982  1
  Dy  Dy1  1  0.150319  0.548416  0.150633  1
  Dy  Dy2  1  0.689307  0.311511  0.309865  1
  Dy  Dy3  1  0.937923  0.562529  0.563195  1
  Dy  Dy4  1  0.937923  0.562529  0.936353  1
  Dy  Dy5  1  0.689145  0.689145  0.310855  1
  Dy  Dy6  1  0.562529  0.937923  0.936353  1
  Dy  Dy7  1  0.150665  0.150665  0.150875  1
  Dy  Dy8  1  0.311511  0.689307  0.309865  1
  Dy  Dy9  1  0.548416  0.150319  0.150633  1
  Dy  Dy10  1  0.310592  0.310592  0.689408  1
  Dy  Dy11  1  0.311511  0.689307  0.689317  1
  Dy  Dy12  1  0.150665  0.150665  0.547796  1
  Dy  Dy13  1  0.689307  0.311511  0.689317  1
  Dy  Dy14  1  0.936102  0.936102  0.563898  1
  Dy  Dy15  1  0.562529  0.937923  0.563195  1
  Cd  Cd16  1  0.919084  0.919084  0.918580  1
  Cd  Cd17  1  0.243977  0.918896  0.918563  1
  Cd  Cd18  1  0.919084  0.919084  0.243250  1
  Cd  Cd19  1  0.918896  0.243977  0.918563  1
  Ir  Ir20  1  0.357536  0.357536  0.926021  1
  Ir  Ir21  1  0.357536  0.357536  0.358906  1
  Rh  Rh22  1  0.926244  0.357182  0.358287  1
  Rh  Rh23  1  0.357182  0.926244  0.358287  1
