# generated using pymatgen
data_Dy6HoP12Rh17
_symmetry_space_group_name_H-M   'P 1'
_cell_length_a   3.97647700
_cell_length_b   11.24816400
_cell_length_c   12.90209100
_cell_angle_alpha   90.00000000
_cell_angle_beta   90.00000000
_cell_angle_gamma   90.00000000
_symmetry_Int_Tables_number   1
_chemical_formula_structural   Dy6HoP12Rh17
_chemical_formula_sum   'Dy6 Ho1 P12 Rh17'
_cell_volume   577.08557054
_cell_formula_units_Z   1
loop_
 _symmetry_equiv_pos_site_id
 _symmetry_equiv_pos_as_xyz
  1  'x, y, z'
loop_
 _atom_site_type_symbol
 _atom_site_label
 _atom_site_symmetry_multiplicity
 _atom_site_fract_x
 _atom_site_fract_y
 _atom_site_fract_z
 _atom_site_occupancy
  Dy  Dy0  1  0.000000  0.500000  0.523445  1
  Dy  Dy1  1  0.500000  0.000000  0.477566  1
  Dy  Dy2  1  0.500000  0.818644  0.207183  1
  Dy  Dy3  1  0.500000  0.181356  0.207183  1
  Dy  Dy4  1  0.000000  0.683206  0.796014  1
  Dy  Dy5  1  0.000000  0.316794  0.796014  1
  Ho  Ho6  1  0.500000  0.500000  0.156791  1
  P  P7  1  0.500000  0.500000  0.877326  1
  P  P8  1  0.000000  0.000000  0.121241  1
  P  P9  1  0.500000  0.500000  0.366368  1
  P  P10  1  0.000000  0.000000  0.646817  1
  P  P11  1  0.500000  0.313964  0.620173  1
  P  P12  1  0.500000  0.686036  0.620173  1
  P  P13  1  0.000000  0.185070  0.385196  1
  P  P14  1  0.000000  0.814930  0.385196  1
  P  P15  1  0.500000  0.852405  0.887763  1
  P  P16  1  0.500000  0.147595  0.887763  1
  P  P17  1  0.000000  0.665358  0.104353  1
  P  P18  1  0.000000  0.334642  0.104353  1
  Rh  Rh19  1  0.000000  0.000000  0.826594  1
  Rh  Rh20  1  0.500000  0.500000  0.700943  1
  Rh  Rh21  1  0.000000  0.000000  0.298840  1
  Rh  Rh22  1  0.000000  0.500000  0.980606  1
  Rh  Rh23  1  0.500000  0.000000  0.022438  1
  Rh  Rh24  1  0.500000  0.327012  0.984598  1
  Rh  Rh25  1  0.500000  0.672988  0.984598  1
  Rh  Rh26  1  0.000000  0.161810  0.002841  1
  Rh  Rh27  1  0.000000  0.838190  0.002841  1
  Rh  Rh28  1  0.500000  0.286886  0.436317  1
  Rh  Rh29  1  0.500000  0.713114  0.436317  1
  Rh  Rh30  1  0.000000  0.202029  0.572153  1
  Rh  Rh31  1  0.000000  0.797971  0.572153  1
  Rh  Rh32  1  0.500000  0.875192  0.708808  1
  Rh  Rh33  1  0.500000  0.124808  0.708808  1
  Rh  Rh34  1  0.000000  0.629243  0.295111  1
  Rh  Rh35  1  0.000000  0.370757  0.295111  1
