# generated using pymatgen
data_Rb2Tb3Tm3Se10
_symmetry_space_group_name_H-M   'P 1'
_cell_length_a   4.10967100
_cell_length_b   12.24280636
_cell_length_c   21.99850800
_cell_angle_alpha   90.16916189
_cell_angle_beta   90.00000000
_cell_angle_gamma   90.00000000
_symmetry_Int_Tables_number   1
_chemical_formula_structural   Rb2Tb3Tm3Se10
_chemical_formula_sum   'Rb4 Tb6 Tm6 Se20'
_cell_volume   1106.82604519
_cell_formula_units_Z   2
loop_
 _symmetry_equiv_pos_site_id
 _symmetry_equiv_pos_as_xyz
  1  'x, y, z'
loop_
 _atom_site_type_symbol
 _atom_site_label
 _atom_site_symmetry_multiplicity
 _atom_site_fract_x
 _atom_site_fract_y
 _atom_site_fract_z
 _atom_site_occupancy
  Rb  Rb0  1  0.250000  0.846913  0.094923  1
  Rb  Rb1  1  0.750000  0.153087  0.905077  1
  Rb  Rb2  1  0.750000  0.347657  0.405180  1
  Rb  Rb3  1  0.250000  0.652343  0.594820  1
  Tb  Tb4  1  0.750000  0.800620  0.828553  1
  Tb  Tb5  1  0.250000  0.199380  0.171447  1
  Tb  Tb6  1  0.250000  0.303589  0.672000  1
  Tb  Tb7  1  0.750000  0.696411  0.328000  1
  Tb  Tb8  1  0.250000  0.958650  0.698580  1
  Tb  Tb9  1  0.750000  0.041350  0.301420  1
  Tm  Tm10  1  0.750000  0.457416  0.802439  1
  Tm  Tm11  1  0.250000  0.542584  0.197561  1
  Tm  Tm12  1  0.750000  0.391149  0.052575  1
  Tm  Tm13  1  0.250000  0.608851  0.947425  1
  Tm  Tm14  1  0.250000  0.890220  0.447120  1
  Tm  Tm15  1  0.750000  0.109780  0.552880  1
  Se  Se16  1  0.250000  0.948758  0.568794  1
  Se  Se17  1  0.750000  0.051242  0.431206  1
  Se  Se18  1  0.750000  0.448158  0.930659  1
  Se  Se19  1  0.250000  0.551842  0.069341  1
  Se  Se20  1  0.750000  0.765882  0.957133  1
  Se  Se21  1  0.250000  0.234118  0.042867  1
  Se  Se22  1  0.250000  0.266990  0.543302  1
  Se  Se23  1  0.750000  0.733010  0.456698  1
  Se  Se24  1  0.250000  0.958665  0.828469  1
  Se  Se25  1  0.750000  0.041335  0.171531  1
  Se  Se26  1  0.750000  0.460965  0.674283  1
  Se  Se27  1  0.250000  0.539035  0.325717  1
  Se  Se28  1  0.750000  0.130028  0.683132  1
  Se  Se29  1  0.250000  0.869972  0.316868  1
  Se  Se30  1  0.250000  0.626146  0.816964  1
  Se  Se31  1  0.750000  0.373854  0.183036  1
  Se  Se32  1  0.750000  0.694496  0.197882  1
  Se  Se33  1  0.250000  0.305504  0.802118  1
  Se  Se34  1  0.250000  0.197350  0.301623  1
  Se  Se35  1  0.750000  0.802650  0.698377  1
