# generated using pymatgen
data_Tb4NbOs6W
_symmetry_space_group_name_H-M   'P 1'
_cell_length_a   5.28240166
_cell_length_b   5.28240310
_cell_length_c   9.06507600
_cell_angle_alpha   90.00000000
_cell_angle_beta   90.00000000
_cell_angle_gamma   115.81400520
_symmetry_Int_Tables_number   1
_chemical_formula_structural   Tb4NbOs6W
_chemical_formula_sum   'Tb4 Nb1 Os6 W1'
_cell_volume   227.70857230
_cell_formula_units_Z   1
loop_
 _symmetry_equiv_pos_site_id
 _symmetry_equiv_pos_as_xyz
  1  'x, y, z'
loop_
 _atom_site_type_symbol
 _atom_site_label
 _atom_site_symmetry_multiplicity
 _atom_site_fract_x
 _atom_site_fract_y
 _atom_site_fract_z
 _atom_site_occupancy
  Tb  Tb0  1  0.330938  0.669062  0.433604  1
  Tb  Tb1  1  0.670312  0.329688  0.562857  1
  Tb  Tb2  1  0.670312  0.329688  0.937143  1
  Tb  Tb3  1  0.330938  0.669062  0.066396  1
  Nb  Nb4  1  0.158385  0.841615  0.750000  1
  Os  Os5  1  0.996576  0.003424  0.496564  1
  Os  Os6  1  0.996576  0.003424  0.003436  1
  Os  Os7  1  0.826850  0.646768  0.250000  1
  Os  Os8  1  0.353232  0.173150  0.250000  1
  Os  Os9  1  0.176859  0.350927  0.750000  1
  Os  Os10  1  0.649073  0.823141  0.750000  1
  W  W11  1  0.839952  0.160048  0.250000  1
