# generated using pymatgen
data_Sc5InB4Ir9Ru
_symmetry_space_group_name_H-M   'P 1'
_cell_length_a   3.07438800
_cell_length_b   9.62813735
_cell_length_c   9.63393931
_cell_angle_alpha   90.42432147
_cell_angle_beta   90.00000000
_cell_angle_gamma   90.00000000
_symmetry_Int_Tables_number   1
_chemical_formula_structural   Sc5InB4Ir9Ru
_chemical_formula_sum   'Sc5 In1 B4 Ir9 Ru1'
_cell_volume   285.16285206
_cell_formula_units_Z   1
loop_
 _symmetry_equiv_pos_site_id
 _symmetry_equiv_pos_as_xyz
  1  'x, y, z'
loop_
 _atom_site_type_symbol
 _atom_site_label
 _atom_site_symmetry_multiplicity
 _atom_site_fract_x
 _atom_site_fract_y
 _atom_site_fract_z
 _atom_site_occupancy
  Sc  Sc0  1  0.000000  0.173603  0.672236  1
  Sc  Sc1  1  0.000000  0.826397  0.327764  1
  Sc  Sc2  1  0.000000  0.323250  0.177757  1
  Sc  Sc3  1  0.000000  0.676750  0.822243  1
  Sc  Sc4  1  0.000000  0.500000  0.500000  1
  In  In5  1  0.000000  0.000000  0.000000  1
  B  B6  1  0.000000  0.623429  0.123222  1
  B  B7  1  0.000000  0.376571  0.876778  1
  B  B8  1  0.000000  0.880484  0.619602  1
  B  B9  1  0.000000  0.119516  0.380398  1
  Ir  Ir10  1  0.500000  0.071842  0.224128  1
  Ir  Ir11  1  0.500000  0.928158  0.775872  1
  Ir  Ir12  1  0.500000  0.775710  0.072052  1
  Ir  Ir13  1  0.500000  0.429020  0.722157  1
  Ir  Ir14  1  0.500000  0.224290  0.927948  1
  Ir  Ir15  1  0.500000  0.570980  0.277843  1
  Ir  Ir16  1  0.500000  0.722000  0.570857  1
  Ir  Ir17  1  0.500000  0.278000  0.429143  1
  Ir  Ir18  1  0.500000  0.500000  0.000000  1
  Ru  Ru19  1  0.500000  0.000000  0.500000  1
