# generated using pymatgen
data_SrCa(LaSi4)2
_symmetry_space_group_name_H-M   'P 1'
_cell_length_a   4.39499300
_cell_length_b   4.39499300
_cell_length_c   13.60687900
_cell_angle_alpha   90.00000000
_cell_angle_beta   90.00000000
_cell_angle_gamma   90.00000000
_symmetry_Int_Tables_number   1
_chemical_formula_structural   SrCa(LaSi4)2
_chemical_formula_sum   'Sr1 Ca1 La2 Si8'
_cell_volume   262.82997771
_cell_formula_units_Z   1
loop_
 _symmetry_equiv_pos_site_id
 _symmetry_equiv_pos_as_xyz
  1  'x, y, z'
loop_
 _atom_site_type_symbol
 _atom_site_label
 _atom_site_symmetry_multiplicity
 _atom_site_fract_x
 _atom_site_fract_y
 _atom_site_fract_z
 _atom_site_occupancy
  Sr  Sr0  1  0.000000  0.000000  0.500000  1
  Ca  Ca1  1  0.500000  0.500000  0.000000  1
  La  La2  1  0.500000  0.000000  0.752088  1
  La  La3  1  0.000000  0.500000  0.247912  1
  Si  Si4  1  0.000000  0.000000  0.914653  1
  Si  Si5  1  0.500000  0.500000  0.413026  1
  Si  Si6  1  0.000000  0.500000  0.836721  1
  Si  Si7  1  0.500000  0.000000  0.332086  1
  Si  Si8  1  0.000000  0.000000  0.085347  1
  Si  Si9  1  0.500000  0.500000  0.586974  1
  Si  Si10  1  0.500000  0.000000  0.163279  1
  Si  Si11  1  0.000000  0.500000  0.667914  1
