# generated using pymatgen
data_TbDy2Ho(Al8Pt3)3
_symmetry_space_group_name_H-M   'P 1'
_cell_length_a   7.53457739
_cell_length_b   7.55558413
_cell_length_c   13.17571227
_cell_angle_alpha   84.57228179
_cell_angle_beta   79.11186850
_cell_angle_gamma   59.98133422
_symmetry_Int_Tables_number   1
_chemical_formula_structural   TbDy2Ho(Al8Pt3)3
_chemical_formula_sum   'Tb1 Dy2 Ho1 Al24 Pt9'
_cell_volume   637.76473412
_cell_formula_units_Z   1
loop_
 _symmetry_equiv_pos_site_id
 _symmetry_equiv_pos_as_xyz
  1  'x, y, z'
loop_
 _atom_site_type_symbol
 _atom_site_label
 _atom_site_symmetry_multiplicity
 _atom_site_fract_x
 _atom_site_fract_y
 _atom_site_fract_z
 _atom_site_occupancy
  Tb  Tb0  1  0.393377  0.168636  0.808040  1
  Dy  Dy1  1  0.606643  0.831271  0.192194  1
  Dy  Dy2  1  0.734074  0.498562  0.807550  1
  Ho  Ho3  1  0.265798  0.501520  0.192537  1
  Al  Al4  1  0.684628  0.833571  0.944515  1
  Al  Al5  1  0.315516  0.166228  0.055823  1
  Al  Al6  1  0.146553  0.832466  0.561345  1
  Al  Al7  1  0.853482  0.167528  0.438604  1
  Al  Al8  1  0.479444  0.166720  0.558508  1
  Al  Al9  1  0.520569  0.833264  0.441389  1
  Al  Al10  1  0.217397  0.165235  0.329629  1
  Al  Al11  1  0.782857  0.834621  0.670190  1
  Al  Al12  1  0.437650  0.506436  0.670264  1
  Al  Al13  1  0.562354  0.493754  0.329550  1
  Al  Al14  1  0.109342  0.160105  0.669223  1
  Al  Al15  1  0.890606  0.839827  0.330559  1
  Al  Al16  1  0.353040  0.499725  0.944675  1
  Al  Al17  1  0.646851  0.500541  0.055538  1
  Al  Al18  1  0.015246  0.167643  0.952933  1
  Al  Al19  1  0.984476  0.832334  0.047289  1
  Al  Al20  1  0.186864  0.499176  0.441313  1
  Al  Al21  1  0.813143  0.500841  0.558617  1
  Al  Al22  1  0.734091  0.163923  0.183450  1
  Al  Al23  1  0.265842  0.835782  0.816555  1
  Al  Al24  1  0.061438  0.631660  0.815391  1
  Al  Al25  1  0.938290  0.368671  0.184608  1
  Al  Al26  1  0.855557  0.041657  0.815917  1
  Al  Al27  1  0.144782  0.958235  0.184096  1
  Pt  Pt28  1  0.119650  0.492078  0.638784  1
  Pt  Pt29  1  0.880281  0.508166  0.361020  1
  Pt  Pt30  1  0.657094  0.171406  0.999919  1
  Pt  Pt31  1  0.342883  0.828578  0.000237  1
  Pt  Pt32  1  0.537853  0.166759  0.361071  1
  Pt  Pt33  1  0.462107  0.833110  0.638758  1
  Pt  Pt34  1  0.778676  0.175156  0.637234  1
  Pt  Pt35  1  0.221574  0.824750  0.362590  1
  Pt  Pt36  1  0.999972  0.500067  0.000085  1
