# generated using pymatgen
data_Nb2Co4ReB4W
_symmetry_space_group_name_H-M   'P 1'
_cell_length_a   3.29295300
_cell_length_b   5.78519670
_cell_length_c   6.68676089
_cell_angle_alpha   89.26433942
_cell_angle_beta   90.00000000
_cell_angle_gamma   90.00000000
_symmetry_Int_Tables_number   1
_chemical_formula_structural   Nb2Co4ReB4W
_chemical_formula_sum   'Nb2 Co4 Re1 B4 W1'
_cell_volume   127.37484138
_cell_formula_units_Z   1
loop_
 _symmetry_equiv_pos_site_id
 _symmetry_equiv_pos_as_xyz
  1  'x, y, z'
loop_
 _atom_site_type_symbol
 _atom_site_label
 _atom_site_symmetry_multiplicity
 _atom_site_fract_x
 _atom_site_fract_y
 _atom_site_fract_z
 _atom_site_occupancy
  Nb  Nb0  1  0.250000  0.528269  0.679196  1
  Nb  Nb1  1  0.750000  0.471732  0.318997  1
  Co  Co2  1  0.750000  0.860839  0.557696  1
  Co  Co3  1  0.250000  0.141771  0.443377  1
  Co  Co4  1  0.750000  0.352602  0.942541  1
  Co  Co5  1  0.250000  0.644436  0.056996  1
  Re  Re6  1  0.750000  0.972704  0.174940  1
  B  B7  1  0.250000  0.262131  0.120591  1
  B  B8  1  0.750000  0.734572  0.885065  1
  B  B9  1  0.250000  0.779808  0.368975  1
  B  B10  1  0.750000  0.224571  0.626855  1
  W  W11  1  0.250000  0.026565  0.824771  1
