# generated using pymatgen
data_CaPr(Al4Co)2
_symmetry_space_group_name_H-M   'P 1'
_cell_length_a   4.02338500
_cell_length_b   6.93180700
_cell_length_c   7.69121400
_cell_angle_alpha   90.00000000
_cell_angle_beta   90.00000000
_cell_angle_gamma   90.00000000
_symmetry_Int_Tables_number   1
_chemical_formula_structural   CaPr(Al4Co)2
_chemical_formula_sum   'Ca1 Pr1 Al8 Co2'
_cell_volume   214.50279232
_cell_formula_units_Z   1
loop_
 _symmetry_equiv_pos_site_id
 _symmetry_equiv_pos_as_xyz
  1  'x, y, z'
loop_
 _atom_site_type_symbol
 _atom_site_label
 _atom_site_symmetry_multiplicity
 _atom_site_fract_x
 _atom_site_fract_y
 _atom_site_fract_z
 _atom_site_occupancy
  Ca  Ca0  1  0.000000  0.887714  0.250000  1
  Pr  Pr1  1  0.000000  0.113703  0.750000  1
  Al  Al2  1  0.000000  0.501021  0.001712  1
  Al  Al3  1  0.000000  0.501021  0.498288  1
  Al  Al4  1  0.500000  0.545184  0.250000  1
  Al  Al5  1  0.500000  0.796165  0.567631  1
  Al  Al6  1  0.500000  0.796165  0.932369  1
  Al  Al7  1  0.500000  0.201655  0.069720  1
  Al  Al8  1  0.500000  0.201655  0.430280  1
  Al  Al9  1  0.500000  0.458910  0.750000  1
  Co  Co10  1  0.000000  0.683421  0.750000  1
  Co  Co11  1  0.000000  0.313385  0.250000  1
