# generated using pymatgen
data_La16MgCd3Tc3Pd
_symmetry_space_group_name_H-M   'P 1'
_cell_length_a   10.08554988
_cell_length_b   10.21764978
_cell_length_c   10.21765043
_cell_angle_alpha   60.01250270
_cell_angle_beta   59.36053295
_cell_angle_gamma   59.36053452
_symmetry_Int_Tables_number   1
_chemical_formula_structural   La16MgCd3Tc3Pd
_chemical_formula_sum   'La16 Mg1 Cd3 Tc3 Pd1'
_cell_volume   737.32816787
_cell_formula_units_Z   1
loop_
 _symmetry_equiv_pos_site_id
 _symmetry_equiv_pos_as_xyz
  1  'x, y, z'
loop_
 _atom_site_type_symbol
 _atom_site_label
 _atom_site_symmetry_multiplicity
 _atom_site_fract_x
 _atom_site_fract_y
 _atom_site_fract_z
 _atom_site_occupancy
  La  La0  1  0.341965  0.349266  0.349266  1
  La  La1  1  0.340899  0.347126  0.960719  1
  La  La2  1  0.340899  0.960719  0.347126  1
  La  La3  1  0.965841  0.343559  0.343559  1
  La  La4  1  0.819876  0.190036  0.190036  1
  La  La5  1  0.188769  0.813087  0.813087  1
  La  La6  1  0.190583  0.810155  0.188729  1
  La  La7  1  0.824100  0.188239  0.800758  1
  La  La8  1  0.190583  0.188729  0.810155  1
  La  La9  1  0.824100  0.800758  0.188239  1
  La  La10  1  0.938476  0.560081  0.560081  1
  La  La11  1  0.554227  0.941959  0.941959  1
  La  La12  1  0.559027  0.940085  0.563460  1
  La  La13  1  0.941542  0.557338  0.944226  1
  La  La14  1  0.559027  0.563460  0.940085  1
  La  La15  1  0.941542  0.944226  0.557338  1
  Mg  Mg16  1  0.575263  0.575147  0.575147  1
  Cd  Cd17  1  0.578983  0.579766  0.262731  1
  Cd  Cd18  1  0.578983  0.262731  0.579766  1
  Cd  Cd19  1  0.262854  0.578826  0.578826  1
  Tc  Tc20  1  0.136358  0.134828  0.134828  1
  Tc  Tc21  1  0.132778  0.134413  0.596324  1
  Tc  Tc22  1  0.132778  0.596324  0.134413  1
  Pd  Pd23  1  0.580548  0.139140  0.139140  1
