# generated using pymatgen
data_U4Tc7Sn4Rh
_symmetry_space_group_name_H-M   'P 1'
_cell_length_a   4.89396000
_cell_length_b   6.82731100
_cell_length_c   9.50357598
_cell_angle_alpha   100.44368060
_cell_angle_beta   90.00000000
_cell_angle_gamma   90.00000000
_symmetry_Int_Tables_number   1
_chemical_formula_structural   U4Tc7Sn4Rh
_chemical_formula_sum   'U4 Tc7 Sn4 Rh1'
_cell_volume   312.27856755
_cell_formula_units_Z   1
loop_
 _symmetry_equiv_pos_site_id
 _symmetry_equiv_pos_as_xyz
  1  'x, y, z'
loop_
 _atom_site_type_symbol
 _atom_site_label
 _atom_site_symmetry_multiplicity
 _atom_site_fract_x
 _atom_site_fract_y
 _atom_site_fract_z
 _atom_site_occupancy
  U  U0  1  0.250000  0.289291  0.101586  1
  U  U1  1  0.750000  0.706262  0.894754  1
  U  U2  1  0.750000  0.821836  0.403039  1
  U  U3  1  0.250000  0.174626  0.595837  1
  Tc  Tc4  1  0.250000  0.509097  0.320504  1
  Tc  Tc5  1  0.750000  0.486879  0.673280  1
  Tc  Tc6  1  0.750000  0.981072  0.091795  1
  Tc  Tc7  1  0.250000  0.013399  0.897308  1
  Tc  Tc8  1  0.250000  0.089145  0.355228  1
  Tc  Tc9  1  0.750000  0.911917  0.649470  1
  Tc  Tc10  1  0.750000  0.589871  0.186624  1
  Sn  Sn11  1  0.250000  0.777823  0.119502  1
  Sn  Sn12  1  0.750000  0.226249  0.875379  1
  Sn  Sn13  1  0.750000  0.298747  0.367986  1
  Sn  Sn14  1  0.250000  0.691835  0.630791  1
  Rh  Rh15  1  0.250000  0.431950  0.836915  1
