# generated using pymatgen
data_Y10In2FeCu
_symmetry_space_group_name_H-M   'P 1'
_cell_length_a   9.79155900
_cell_length_b   9.65759853
_cell_length_c   9.52042100
_cell_angle_alpha   90.00000000
_cell_angle_beta   90.00000000
_cell_angle_gamma   119.54845560
_symmetry_Int_Tables_number   1
_chemical_formula_structural   Y10In2FeCu
_chemical_formula_sum   'Y20 In4 Fe2 Cu2'
_cell_volume   783.18780424
_cell_formula_units_Z   2
loop_
 _symmetry_equiv_pos_site_id
 _symmetry_equiv_pos_as_xyz
  1  'x, y, z'
loop_
 _atom_site_type_symbol
 _atom_site_label
 _atom_site_symmetry_multiplicity
 _atom_site_fract_x
 _atom_site_fract_y
 _atom_site_fract_z
 _atom_site_occupancy
  Y  Y0  1  0.975218  0.987609  0.456284  1
  Y  Y1  1  0.975218  0.987609  0.043716  1
  Y  Y2  1  0.212258  0.793363  0.434576  1
  Y  Y3  1  0.212258  0.418896  0.434576  1
  Y  Y4  1  0.567752  0.783876  0.438000  1
  Y  Y5  1  0.792815  0.213193  0.563448  1
  Y  Y6  1  0.792815  0.579621  0.563448  1
  Y  Y7  1  0.422839  0.211420  0.560620  1
  Y  Y8  1  0.792815  0.213193  0.936552  1
  Y  Y9  1  0.792815  0.579621  0.936552  1
  Y  Y10  1  0.422839  0.211420  0.939380  1
  Y  Y11  1  0.212258  0.793363  0.065424  1
  Y  Y12  1  0.212258  0.418896  0.065424  1
  Y  Y13  1  0.567752  0.783876  0.062000  1
  Y  Y14  1  0.559965  0.472594  0.250000  1
  Y  Y15  1  0.559965  0.087373  0.250000  1
  Y  Y16  1  0.928275  0.464138  0.250000  1
  Y  Y17  1  0.460997  0.538291  0.750000  1
  Y  Y18  1  0.460997  0.922704  0.750000  1
  Y  Y19  1  0.087420  0.543710  0.750000  1
  In  In20  1  0.253576  0.126788  0.250000  1
  In  In21  1  0.110355  0.892798  0.750000  1
  In  In22  1  0.110355  0.217556  0.750000  1
  In  In23  1  0.775188  0.887593  0.750000  1
  Fe  Fe24  1  0.327276  0.663639  0.250000  1
  Fe  Fe25  1  0.664833  0.332416  0.750000  1
  Cu  Cu26  1  0.874444  0.136709  0.250000  1
  Cu  Cu27  1  0.874444  0.737736  0.250000  1
