# generated using pymatgen
data_Tm5Lu3(ScBi)12
_symmetry_space_group_name_H-M   'P 1'
_cell_length_a   7.88932502
_cell_length_b   9.12719900
_cell_length_c   11.68795802
_cell_angle_alpha   90.00000000
_cell_angle_beta   90.00742201
_cell_angle_gamma   90.00000000
_symmetry_Int_Tables_number   1
_chemical_formula_structural   Tm5Lu3(ScBi)12
_chemical_formula_sum   'Tm5 Lu3 Sc12 Bi12'
_cell_volume   841.61992212
_cell_formula_units_Z   1
loop_
 _symmetry_equiv_pos_site_id
 _symmetry_equiv_pos_as_xyz
  1  'x, y, z'
loop_
 _atom_site_type_symbol
 _atom_site_label
 _atom_site_symmetry_multiplicity
 _atom_site_fract_x
 _atom_site_fract_y
 _atom_site_fract_z
 _atom_site_occupancy
  Tm  Tm0  1  0.851850  0.250000  0.218591  1
  Tm  Tm1  1  0.184799  0.250000  0.780529  1
  Tm  Tm2  1  0.815241  0.750000  0.219461  1
  Tm  Tm3  1  0.315183  0.750000  0.280574  1
  Tm  Tm4  1  0.684792  0.250000  0.719481  1
  Lu  Lu5  1  0.351741  0.250000  0.281185  1
  Lu  Lu6  1  0.648158  0.750000  0.718845  1
  Lu  Lu7  1  0.148224  0.750000  0.781174  1
  Sc  Sc8  1  0.019773  0.250000  0.510096  1
  Sc  Sc9  1  0.980396  0.750000  0.490073  1
  Sc  Sc10  1  0.480295  0.750000  0.009966  1
  Sc  Sc11  1  0.519695  0.250000  0.990023  1
  Sc  Sc12  1  0.192889  0.067084  0.058576  1
  Sc  Sc13  1  0.807146  0.932948  0.941381  1
  Sc  Sc14  1  0.307091  0.932863  0.558616  1
  Sc  Sc15  1  0.807146  0.567052  0.941381  1
  Sc  Sc16  1  0.692778  0.066996  0.441537  1
  Sc  Sc17  1  0.192889  0.432916  0.058576  1
  Sc  Sc18  1  0.692778  0.433004  0.441537  1
  Sc  Sc19  1  0.307091  0.567137  0.558616  1
  Bi  Bi20  1  0.403462  0.250000  0.539915  1
  Bi  Bi21  1  0.596492  0.750000  0.460085  1
  Bi  Bi22  1  0.096492  0.750000  0.039924  1
  Bi  Bi23  1  0.903611  0.250000  0.959632  1
  Bi  Bi24  1  0.065319  0.003961  0.331317  1
  Bi  Bi25  1  0.934885  0.995739  0.668834  1
  Bi  Bi26  1  0.434879  0.995773  0.831139  1
  Bi  Bi27  1  0.934885  0.504261  0.668834  1
  Bi  Bi28  1  0.564910  0.004112  0.168825  1
  Bi  Bi29  1  0.065319  0.496039  0.331317  1
  Bi  Bi30  1  0.564910  0.495888  0.168825  1
  Bi  Bi31  1  0.434879  0.504227  0.831139  1
