# generated using pymatgen
data_LaSn6RuRh3
_symmetry_space_group_name_H-M   'P 1'
_cell_length_a   7.01086777
_cell_length_b   7.01086674
_cell_length_c   6.95207290
_cell_angle_alpha   119.40179068
_cell_angle_beta   119.40178727
_cell_angle_gamma   91.46289007
_symmetry_Int_Tables_number   1
_chemical_formula_structural   LaSn6RuRh3
_chemical_formula_sum   'La1 Sn6 Ru1 Rh3'
_cell_volume   242.83448289
_cell_formula_units_Z   1
loop_
 _symmetry_equiv_pos_site_id
 _symmetry_equiv_pos_as_xyz
  1  'x, y, z'
loop_
 _atom_site_type_symbol
 _atom_site_label
 _atom_site_symmetry_multiplicity
 _atom_site_fract_x
 _atom_site_fract_y
 _atom_site_fract_z
 _atom_site_occupancy
  La  La0  1  0.998309  0.998309  0.995247  1
  Sn  Sn1  1  0.474367  0.129563  0.004525  1
  Sn  Sn2  1  0.129563  0.474367  0.004525  1
  Sn  Sn3  1  0.873022  0.873022  0.346100  1
  Sn  Sn4  1  0.527705  0.527705  0.653339  1
  Sn  Sn5  1  0.996660  0.498698  0.500821  1
  Sn  Sn6  1  0.498698  0.996660  0.500821  1
  Ru  Ru7  1  0.596951  0.596951  0.351851  1
  Rh  Rh8  1  0.400738  0.760315  0.998599  1
  Rh  Rh9  1  0.760315  0.400738  0.998599  1
  Rh  Rh10  1  0.243670  0.243670  0.645573  1
