# generated using pymatgen
data_Eu4Mn3RuO14
_symmetry_space_group_name_H-M   'P 1'
_cell_length_a   7.20990311
_cell_length_b   7.23954701
_cell_length_c   7.20990300
_cell_angle_alpha   60.13535590
_cell_angle_beta   59.99999594
_cell_angle_gamma   60.13535461
_symmetry_Int_Tables_number   1
_chemical_formula_structural   Eu4Mn3RuO14
_chemical_formula_sum   'Eu4 Mn3 Ru1 O14'
_cell_volume   266.64947266
_cell_formula_units_Z   1
loop_
 _symmetry_equiv_pos_site_id
 _symmetry_equiv_pos_as_xyz
  1  'x, y, z'
loop_
 _atom_site_type_symbol
 _atom_site_label
 _atom_site_symmetry_multiplicity
 _atom_site_fract_x
 _atom_site_fract_y
 _atom_site_fract_z
 _atom_site_occupancy
  Eu  Eu0  1  0.125000  0.625000  0.125000  1
  Eu  Eu1  1  0.125000  0.125000  0.625000  1
  Eu  Eu2  1  0.625000  0.125000  0.125000  1
  Eu  Eu3  1  0.125000  0.125000  0.125000  1
  Mn  Mn4  1  0.625000  0.625000  0.625000  1
  Mn  Mn5  1  0.125000  0.625000  0.625000  1
  Mn  Mn6  1  0.625000  0.625000  0.125000  1
  Ru  Ru7  1  0.625000  0.125000  0.625000  1
  O  O8  1  0.298613  0.701013  0.701760  1
  O  O9  1  0.547901  0.949701  0.954497  1
  O  O10  1  0.701760  0.701013  0.298613  1
  O  O11  1  0.295503  0.300299  0.702099  1
  O  O12  1  0.000028  0.999917  0.000028  1
  O  O13  1  0.298613  0.701013  0.298613  1
  O  O14  1  0.702099  0.300299  0.702099  1
  O  O15  1  0.951387  0.548987  0.951387  1
  O  O16  1  0.548240  0.548987  0.951387  1
  O  O17  1  0.954497  0.949701  0.547901  1
  O  O18  1  0.249972  0.250083  0.249972  1
  O  O19  1  0.547901  0.949701  0.547901  1
  O  O20  1  0.702099  0.300299  0.295503  1
  O  O21  1  0.951387  0.548987  0.548240  1
