# generated using pymatgen
data_Er8Ta11TiSi15As
_symmetry_space_group_name_H-M   'P 1'
_cell_length_a   7.02837169
_cell_length_b   7.01842682
_cell_length_c   12.94898151
_cell_angle_alpha   89.92955209
_cell_angle_beta   89.87963511
_cell_angle_gamma   89.96529009
_symmetry_Int_Tables_number   1
_chemical_formula_structural   Er8Ta11TiSi15As
_chemical_formula_sum   'Er8 Ta11 Ti1 Si15 As1'
_cell_volume   638.74680690
_cell_formula_units_Z   1
loop_
 _symmetry_equiv_pos_site_id
 _symmetry_equiv_pos_as_xyz
  1  'x, y, z'
loop_
 _atom_site_type_symbol
 _atom_site_label
 _atom_site_symmetry_multiplicity
 _atom_site_fract_x
 _atom_site_fract_y
 _atom_site_fract_z
 _atom_site_occupancy
  Er  Er0  1  0.343117  0.001107  0.467358  1
  Er  Er1  1  0.498756  0.843074  0.718768  1
  Er  Er2  1  0.501184  0.158383  0.218369  1
  Er  Er3  1  0.841768  0.498032  0.281634  1
  Er  Er4  1  0.157906  0.500851  0.781840  1
  Er  Er5  1  0.658923  0.997168  0.968814  1
  Er  Er6  1  0.999483  0.343901  0.530576  1
  Er  Er7  1  0.998083  0.659238  0.031464  1
  Ta  Ta8  1  0.328837  0.329205  0.999698  1
  Ta  Ta9  1  0.171064  0.828860  0.250077  1
  Ta  Ta10  1  0.824851  0.172938  0.750097  1
  Ta  Ta11  1  0.670623  0.670323  0.499901  1
  Ta  Ta12  1  0.153327  0.006733  0.874348  1
  Ta  Ta13  1  0.493384  0.652361  0.124226  1
  Ta  Ta14  1  0.508632  0.348393  0.624308  1
  Ta  Ta15  1  0.653382  0.494271  0.876724  1
  Ta  Ta16  1  0.347923  0.505954  0.376140  1
  Ta  Ta17  1  0.846271  0.992558  0.373983  1
  Ta  Ta18  1  0.007238  0.152316  0.126070  1
  Ti  Ti19  1  0.991662  0.843686  0.625970  1
  Si  Si20  1  0.365335  0.704923  0.931007  1
  Si  Si21  1  0.634299  0.295661  0.431446  1
  Si  Si22  1  0.704071  0.365255  0.069024  1
  Si  Si23  1  0.295158  0.635361  0.568880  1
  Si  Si24  1  0.795974  0.865182  0.181112  1
  Si  Si25  1  0.134799  0.203890  0.319377  1
  Si  Si26  1  0.865709  0.796959  0.818035  1
  Si  Si27  1  0.295218  0.954570  0.063850  1
  Si  Si28  1  0.545108  0.794670  0.313638  1
  Si  Si29  1  0.460491  0.206171  0.817420  1
  Si  Si30  1  0.796188  0.547124  0.685201  1
  Si  Si31  1  0.205038  0.454852  0.186156  1
  Si  Si32  1  0.707976  0.043997  0.564281  1
  Si  Si33  1  0.954499  0.295134  0.936306  1
  Si  Si34  1  0.045168  0.706397  0.436876  1
  As  As35  1  0.198552  0.130504  0.677027  1
