# generated using pymatgen
data_Y10Tm2Ru7
_symmetry_space_group_name_H-M   'P 1'
_cell_length_a   11.35312800
_cell_length_b   8.40289204
_cell_length_c   11.26521074
_cell_angle_alpha   56.31813644
_cell_angle_beta   90.00000000
_cell_angle_gamma   90.00000000
_symmetry_Int_Tables_number   1
_chemical_formula_structural   Y10Tm2Ru7
_chemical_formula_sum   'Y20 Tm4 Ru14'
_cell_volume   894.28236662
_cell_formula_units_Z   2
loop_
 _symmetry_equiv_pos_site_id
 _symmetry_equiv_pos_as_xyz
  1  'x, y, z'
loop_
 _atom_site_type_symbol
 _atom_site_label
 _atom_site_symmetry_multiplicity
 _atom_site_fract_x
 _atom_site_fract_y
 _atom_site_fract_z
 _atom_site_occupancy
  Y  Y0  1  0.705328  0.244442  0.531278  1
  Y  Y1  1  0.205328  0.755558  0.968722  1
  Y  Y2  1  0.844775  0.509349  0.655284  1
  Y  Y3  1  0.344775  0.490651  0.844716  1
  Y  Y4  1  0.155225  0.490651  0.344716  1
  Y  Y5  1  0.655225  0.509349  0.155284  1
  Y  Y6  1  0.006547  0.854049  0.360151  1
  Y  Y7  1  0.506547  0.145951  0.139849  1
  Y  Y8  1  0.993453  0.145951  0.639849  1
  Y  Y9  1  0.493453  0.854049  0.860151  1
  Y  Y10  1  0.794672  0.244442  0.031278  1
  Y  Y11  1  0.294672  0.755558  0.468722  1
  Y  Y12  1  0.931590  0.777109  0.089309  1
  Y  Y13  1  0.431590  0.222891  0.410691  1
  Y  Y14  1  0.068410  0.222891  0.910691  1
  Y  Y15  1  0.568410  0.777109  0.589309  1
  Y  Y16  1  0.301266  0.239933  0.676539  1
  Y  Y17  1  0.801266  0.760067  0.823461  1
  Y  Y18  1  0.698734  0.760067  0.323461  1
  Y  Y19  1  0.198734  0.239933  0.176539  1
  Tm  Tm20  1  0.925871  0.281540  0.293510  1
  Tm  Tm21  1  0.425871  0.718460  0.206490  1
  Tm  Tm22  1  0.074129  0.718460  0.706490  1
  Tm  Tm23  1  0.574129  0.281540  0.793510  1
  Ru  Ru24  1  0.500000  0.500000  0.500000  1
  Ru  Ru25  1  0.000000  0.500000  0.000000  1
  Ru  Ru26  1  0.646013  0.928501  0.030794  1
  Ru  Ru27  1  0.146013  0.071499  0.469206  1
  Ru  Ru28  1  0.353987  0.071499  0.969206  1
  Ru  Ru29  1  0.853987  0.928501  0.530794  1
  Ru  Ru30  1  0.398621  0.485870  0.103448  1
  Ru  Ru31  1  0.898621  0.514130  0.396552  1
  Ru  Ru32  1  0.601379  0.514130  0.896552  1
  Ru  Ru33  1  0.101379  0.485870  0.603448  1
  Ru  Ru34  1  0.815896  0.097581  0.850992  1
  Ru  Ru35  1  0.315896  0.902419  0.649008  1
  Ru  Ru36  1  0.184104  0.902419  0.149008  1
  Ru  Ru37  1  0.684104  0.097581  0.350992  1
