# generated using pymatgen
data_Rb4Ta5NbBr18
_symmetry_space_group_name_H-M   'P 1'
_cell_length_a   10.57871454
_cell_length_b   10.58139089
_cell_length_c   10.48080152
_cell_angle_alpha   76.68750641
_cell_angle_beta   76.65587868
_cell_angle_gamma   116.35222860
_symmetry_Int_Tables_number   1
_chemical_formula_structural   Rb4Ta5NbBr18
_chemical_formula_sum   'Rb4 Ta5 Nb1 Br18'
_cell_volume   945.49191147
_cell_formula_units_Z   1
loop_
 _symmetry_equiv_pos_site_id
 _symmetry_equiv_pos_as_xyz
  1  'x, y, z'
loop_
 _atom_site_type_symbol
 _atom_site_label
 _atom_site_symmetry_multiplicity
 _atom_site_fract_x
 _atom_site_fract_y
 _atom_site_fract_z
 _atom_site_occupancy
  Rb  Rb0  1  0.732933  0.052210  0.326118  1
  Rb  Rb1  1  0.267501  0.948081  0.673746  1
  Rb  Rb2  1  0.948422  0.267779  0.673332  1
  Rb  Rb3  1  0.052003  0.732250  0.326202  1
  Ta  Ta4  1  0.607806  0.607863  0.119946  1
  Ta  Ta5  1  0.392068  0.392089  0.880129  1
  Ta  Ta6  1  0.456912  0.293639  0.131281  1
  Ta  Ta7  1  0.543012  0.706341  0.868761  1
  Ta  Ta8  1  0.705790  0.542928  0.869108  1
  Nb  Nb9  1  0.291838  0.456565  0.132341  1
  Br  Br10  1  0.703091  0.296983  0.999990  1
  Br  Br11  1  0.297983  0.704772  0.998551  1
  Br  Br12  1  0.395183  0.006545  0.314352  1
  Br  Br13  1  0.605477  0.993612  0.685286  1
  Br  Br14  1  0.993366  0.605188  0.685552  1
  Br  Br15  1  0.004263  0.394328  0.316053  1
  Br  Br16  1  0.314591  0.111039  0.014390  1
  Br  Br17  1  0.685366  0.888957  0.985683  1
  Br  Br18  1  0.889375  0.685586  0.985618  1
  Br  Br19  1  0.110416  0.313636  0.012962  1
  Br  Br20  1  0.755158  0.754917  0.281241  1
  Br  Br21  1  0.245513  0.245180  0.718392  1
  Br  Br22  1  0.810365  0.810355  0.674412  1
  Br  Br23  1  0.189981  0.188147  0.326148  1
  Br  Br24  1  0.579382  0.377211  0.309480  1
  Br  Br25  1  0.420547  0.622775  0.690535  1
  Br  Br26  1  0.623001  0.420478  0.690168  1
  Br  Br27  1  0.378659  0.580546  0.310223  1
