# generated using pymatgen
data_Dy2Tm2Ga12Ru
_symmetry_space_group_name_H-M   'P 1'
_cell_length_a   7.45772145
_cell_length_b   7.45772077
_cell_length_c   7.42344798
_cell_angle_alpha   109.46210410
_cell_angle_beta   109.46210774
_cell_angle_gamma   109.67569466
_symmetry_Int_Tables_number   1
_chemical_formula_structural   Dy2Tm2Ga12Ru
_chemical_formula_sum   'Dy2 Tm2 Ga12 Ru1'
_cell_volume   317.09711257
_cell_formula_units_Z   1
loop_
 _symmetry_equiv_pos_site_id
 _symmetry_equiv_pos_as_xyz
  1  'x, y, z'
loop_
 _atom_site_type_symbol
 _atom_site_label
 _atom_site_symmetry_multiplicity
 _atom_site_fract_x
 _atom_site_fract_y
 _atom_site_fract_z
 _atom_site_occupancy
  Dy  Dy0  1  0.500000  0.500000  0.500000  1
  Dy  Dy1  1  0.000000  0.000000  0.500000  1
  Tm  Tm2  1  0.000000  0.500000  0.000000  1
  Tm  Tm3  1  0.500000  0.000000  0.000000  1
  Ga  Ga4  1  0.750000  0.250000  0.500000  1
  Ga  Ga5  1  0.001528  0.709366  0.710894  1
  Ga  Ga6  1  0.290634  0.998472  0.289106  1
  Ga  Ga7  1  0.501707  0.250159  0.751865  1
  Ga  Ga8  1  0.749841  0.498293  0.248135  1
  Ga  Ga9  1  0.250000  0.750000  0.500000  1
  Ga  Ga10  1  0.250159  0.501707  0.751865  1
  Ga  Ga11  1  0.709366  0.001528  0.710894  1
  Ga  Ga12  1  0.498293  0.749841  0.248135  1
  Ga  Ga13  1  0.709164  0.709164  0.000000  1
  Ga  Ga14  1  0.290836  0.290836  0.000000  1
  Ga  Ga15  1  0.998472  0.290634  0.289106  1
  Ru  Ru16  1  0.000000  0.000000  0.000000  1
