# generated using pymatgen
data_Dy16MgHg3(RuRh)2
_symmetry_space_group_name_H-M   'P 1'
_cell_length_a   9.61812235
_cell_length_b   9.61370237
_cell_length_c   9.62363900
_cell_angle_alpha   59.96580666
_cell_angle_beta   59.98102815
_cell_angle_gamma   59.97410099
_symmetry_Int_Tables_number   1
_chemical_formula_structural   Dy16MgHg3(RuRh)2
_chemical_formula_sum   'Dy16 Mg1 Hg3 Ru2 Rh2'
_cell_volume   628.84796087
_cell_formula_units_Z   1
loop_
 _symmetry_equiv_pos_site_id
 _symmetry_equiv_pos_as_xyz
  1  'x, y, z'
loop_
 _atom_site_type_symbol
 _atom_site_label
 _atom_site_symmetry_multiplicity
 _atom_site_fract_x
 _atom_site_fract_y
 _atom_site_fract_z
 _atom_site_occupancy
  Dy  Dy0  1  0.062310  0.436355  0.440288  1
  Dy  Dy1  1  0.648821  0.043865  0.653658  1
  Dy  Dy2  1  0.812381  0.811722  0.187949  1
  Dy  Dy3  1  0.436301  0.062171  0.062764  1
  Dy  Dy4  1  0.439431  0.437869  0.061350  1
  Dy  Dy5  1  0.190486  0.190219  0.809647  1
  Dy  Dy6  1  0.813685  0.189964  0.185591  1
  Dy  Dy7  1  0.062310  0.436355  0.061048  1
  Dy  Dy8  1  0.436301  0.062171  0.438764  1
  Dy  Dy9  1  0.055417  0.646707  0.648939  1
  Dy  Dy10  1  0.193191  0.810027  0.808807  1
  Dy  Dy11  1  0.650770  0.652487  0.042367  1
  Dy  Dy12  1  0.193191  0.810027  0.187975  1
  Dy  Dy13  1  0.063810  0.061486  0.437353  1
  Dy  Dy14  1  0.813685  0.189964  0.810761  1
  Dy  Dy15  1  0.650770  0.652487  0.654378  1
  Mg  Mg16  1  0.714711  0.428816  0.428236  1
  Hg  Hg17  1  0.418115  0.412763  0.756243  1
  Hg  Hg18  1  0.418115  0.412763  0.412880  1
  Hg  Hg19  1  0.418103  0.756039  0.412929  1
  Ru  Ru20  1  0.860784  0.423695  0.857760  1
  Ru  Ru21  1  0.424253  0.857757  0.858994  1
  Rh  Rh22  1  0.861529  0.857147  0.423173  1
  Rh  Rh23  1  0.861529  0.857147  0.858150  1
