# generated using pymatgen
data_Rb8ThSb4
_symmetry_space_group_name_H-M   'P 1'
_cell_length_a   12.27204549
_cell_length_b   12.27204646
_cell_length_c   12.27204500
_cell_angle_alpha   60.00000125
_cell_angle_beta   59.99999862
_cell_angle_gamma   59.99999859
_symmetry_Int_Tables_number   1
_chemical_formula_structural   Rb8ThSb4
_chemical_formula_sum   'Rb16 Th2 Sb8'
_cell_volume   1306.88051659
_cell_formula_units_Z   2
loop_
 _symmetry_equiv_pos_site_id
 _symmetry_equiv_pos_as_xyz
  1  'x, y, z'
loop_
 _atom_site_type_symbol
 _atom_site_label
 _atom_site_symmetry_multiplicity
 _atom_site_fract_x
 _atom_site_fract_y
 _atom_site_fract_z
 _atom_site_occupancy
  Rb  Rb0  1  0.625000  0.125000  0.625000  1
  Rb  Rb1  1  0.625000  0.625000  0.125000  1
  Rb  Rb2  1  0.125000  0.625000  0.625000  1
  Rb  Rb3  1  0.625000  0.625000  0.625000  1
  Rb  Rb4  1  0.030340  0.030340  0.469660  1
  Rb  Rb5  1  0.780340  0.219660  0.219660  1
  Rb  Rb6  1  0.219660  0.780340  0.780340  1
  Rb  Rb7  1  0.780340  0.780340  0.219660  1
  Rb  Rb8  1  0.780340  0.219660  0.780340  1
  Rb  Rb9  1  0.219660  0.780340  0.219660  1
  Rb  Rb10  1  0.469660  0.030340  0.469660  1
  Rb  Rb11  1  0.469660  0.030340  0.030340  1
  Rb  Rb12  1  0.030340  0.469660  0.469660  1
  Rb  Rb13  1  0.030340  0.469660  0.030340  1
  Rb  Rb14  1  0.219660  0.219660  0.780340  1
  Rb  Rb15  1  0.469660  0.469660  0.030340  1
  Th  Th16  1  0.750000  0.750000  0.750000  1
  Th  Th17  1  0.500000  0.500000  0.500000  1
  Sb  Sb18  1  0.396836  0.809492  0.396836  1
  Sb  Sb19  1  0.853164  0.853164  0.440508  1
  Sb  Sb20  1  0.440508  0.853164  0.853164  1
  Sb  Sb21  1  0.853164  0.853164  0.853164  1
  Sb  Sb22  1  0.809492  0.396836  0.396836  1
  Sb  Sb23  1  0.396836  0.396836  0.396836  1
  Sb  Sb24  1  0.396836  0.396836  0.809492  1
  Sb  Sb25  1  0.853164  0.440508  0.853164  1
