# generated using pymatgen
data_LaPu(ZnP)6
_symmetry_space_group_name_H-M   'P 1'
_cell_length_a   4.05161800
_cell_length_b   4.05161827
_cell_length_c   19.83750600
_cell_angle_alpha   90.00000000
_cell_angle_beta   90.00000000
_cell_angle_gamma   119.99998149
_symmetry_Int_Tables_number   1
_chemical_formula_structural   LaPu(ZnP)6
_chemical_formula_sum   'La1 Pu1 Zn6 P6'
_cell_volume   282.01668038
_cell_formula_units_Z   1
loop_
 _symmetry_equiv_pos_site_id
 _symmetry_equiv_pos_as_xyz
  1  'x, y, z'
loop_
 _atom_site_type_symbol
 _atom_site_label
 _atom_site_symmetry_multiplicity
 _atom_site_fract_x
 _atom_site_fract_y
 _atom_site_fract_z
 _atom_site_occupancy
  La  La0  1  0.000000  0.000000  0.500000  1
  Pu  Pu1  1  0.000000  0.000000  0.000000  1
  Zn  Zn2  1  0.333333  0.666667  0.751290  1
  Zn  Zn3  1  0.666667  0.333333  0.248710  1
  Zn  Zn4  1  0.333333  0.666667  0.122212  1
  Zn  Zn5  1  0.666667  0.333333  0.877788  1
  Zn  Zn6  1  0.666667  0.333333  0.633977  1
  Zn  Zn7  1  0.333333  0.666667  0.366023  1
  P  P8  1  0.333333  0.666667  0.591300  1
  P  P9  1  0.666667  0.333333  0.408700  1
  P  P10  1  0.666667  0.333333  0.078424  1
  P  P11  1  0.333333  0.666667  0.921576  1
  P  P12  1  0.333333  0.666667  0.244022  1
  P  P13  1  0.666667  0.333333  0.755978  1
