# generated using pymatgen
data_Tb3Pr2(SnBi)2
_symmetry_space_group_name_H-M   'P 1'
_cell_length_a   8.33390800
_cell_length_b   8.34368500
_cell_length_c   15.85167200
_cell_angle_alpha   90.00000000
_cell_angle_beta   90.00000000
_cell_angle_gamma   90.00000000
_symmetry_Int_Tables_number   1
_chemical_formula_structural   Tb3Pr2(SnBi)2
_chemical_formula_sum   'Tb12 Pr8 Sn8 Bi8'
_cell_volume   1102.25398862
_cell_formula_units_Z   4
loop_
 _symmetry_equiv_pos_site_id
 _symmetry_equiv_pos_as_xyz
  1  'x, y, z'
loop_
 _atom_site_type_symbol
 _atom_site_label
 _atom_site_symmetry_multiplicity
 _atom_site_fract_x
 _atom_site_fract_y
 _atom_site_fract_z
 _atom_site_occupancy
  Tb  Tb0  1  0.383476  0.838157  0.875784  1
  Tb  Tb1  1  0.883476  0.661843  0.624216  1
  Tb  Tb2  1  0.616524  0.161843  0.375784  1
  Tb  Tb3  1  0.116524  0.338157  0.124216  1
  Tb  Tb4  1  0.616524  0.161843  0.124216  1
  Tb  Tb5  1  0.116524  0.338157  0.375784  1
  Tb  Tb6  1  0.383476  0.838157  0.624216  1
  Tb  Tb7  1  0.883476  0.661843  0.875784  1
  Tb  Tb8  1  0.216152  0.497601  0.750000  1
  Tb  Tb9  1  0.716152  0.002399  0.750000  1
  Tb  Tb10  1  0.783848  0.502399  0.250000  1
  Tb  Tb11  1  0.283848  0.997601  0.250000  1
  Pr  Pr12  1  0.544117  0.325617  0.893128  1
  Pr  Pr13  1  0.044117  0.174383  0.606872  1
  Pr  Pr14  1  0.455883  0.674383  0.393128  1
  Pr  Pr15  1  0.955883  0.825617  0.106872  1
  Pr  Pr16  1  0.455883  0.674383  0.106872  1
  Pr  Pr17  1  0.955883  0.825617  0.393128  1
  Pr  Pr18  1  0.544117  0.325617  0.606872  1
  Pr  Pr19  1  0.044117  0.174383  0.893128  1
  Sn  Sn20  1  0.582447  0.630492  0.750000  1
  Sn  Sn21  1  0.082447  0.869508  0.750000  1
  Sn  Sn22  1  0.417553  0.369508  0.250000  1
  Sn  Sn23  1  0.917553  0.130492  0.250000  1
  Sn  Sn24  1  0.352665  0.138113  0.750000  1
  Sn  Sn25  1  0.852665  0.361887  0.750000  1
  Sn  Sn26  1  0.647335  0.861887  0.250000  1
  Sn  Sn27  1  0.147335  0.638113  0.250000  1
  Bi  Bi28  1  0.279820  0.029719  0.044769  1
  Bi  Bi29  1  0.779820  0.470281  0.455231  1
  Bi  Bi30  1  0.720180  0.970281  0.544769  1
  Bi  Bi31  1  0.220180  0.529719  0.955231  1
  Bi  Bi32  1  0.720180  0.970281  0.955231  1
  Bi  Bi33  1  0.220180  0.529719  0.544769  1
  Bi  Bi34  1  0.279820  0.029719  0.455231  1
  Bi  Bi35  1  0.779820  0.470281  0.044769  1
