# generated using pymatgen
data_MgTa3PdPt8Rh3
_symmetry_space_group_name_H-M   'P 1'
_cell_length_a   5.61501635
_cell_length_b   5.61158597
_cell_length_c   9.11704700
_cell_angle_alpha   90.00000000
_cell_angle_beta   90.00000000
_cell_angle_gamma   119.97979619
_symmetry_Int_Tables_number   1
_chemical_formula_structural   MgTa3PdPt8Rh3
_chemical_formula_sum   'Mg1 Ta3 Pd1 Pt8 Rh3'
_cell_volume   248.83407521
_cell_formula_units_Z   1
loop_
 _symmetry_equiv_pos_site_id
 _symmetry_equiv_pos_as_xyz
  1  'x, y, z'
loop_
 _atom_site_type_symbol
 _atom_site_label
 _atom_site_symmetry_multiplicity
 _atom_site_fract_x
 _atom_site_fract_y
 _atom_site_fract_z
 _atom_site_occupancy
  Mg  Mg0  1  0.334612  0.667306  0.000000  1
  Ta  Ta1  1  0.666049  0.333024  0.500000  1
  Ta  Ta2  1  0.998123  0.999061  0.743034  1
  Ta  Ta3  1  0.998123  0.999061  0.256966  1
  Pd  Pd4  1  0.334266  0.167133  0.000000  1
  Pt  Pt5  1  0.831985  0.168206  0.000000  1
  Pt  Pt6  1  0.831985  0.663779  0.000000  1
  Pt  Pt7  1  0.997801  0.498901  0.746136  1
  Pt  Pt8  1  0.500854  0.498349  0.745688  1
  Pt  Pt9  1  0.500854  0.002506  0.745688  1
  Pt  Pt10  1  0.997801  0.498901  0.253864  1
  Pt  Pt11  1  0.500854  0.498349  0.254312  1
  Pt  Pt12  1  0.500854  0.002506  0.254312  1
  Rh  Rh13  1  0.169217  0.831732  0.500000  1
  Rh  Rh14  1  0.169217  0.337487  0.500000  1
  Rh  Rh15  1  0.667402  0.833702  0.500000  1
