# generated using pymatgen
data_Ca2La11Pr3CdIn3Ir4
_symmetry_space_group_name_H-M   'P 1'
_cell_length_a   10.10276371
_cell_length_b   10.09165228
_cell_length_c   10.10634700
_cell_angle_alpha   59.80296520
_cell_angle_beta   59.91454161
_cell_angle_gamma   59.94001222
_symmetry_Int_Tables_number   1
_chemical_formula_structural   Ca2La11Pr3CdIn3Ir4
_chemical_formula_sum   'Ca2 La11 Pr3 Cd1 In3 Ir4'
_cell_volume   726.69792969
_cell_formula_units_Z   1
loop_
 _symmetry_equiv_pos_site_id
 _symmetry_equiv_pos_as_xyz
  1  'x, y, z'
loop_
 _atom_site_type_symbol
 _atom_site_label
 _atom_site_symmetry_multiplicity
 _atom_site_fract_x
 _atom_site_fract_y
 _atom_site_fract_z
 _atom_site_occupancy
  Ca  Ca0  1  0.563447  0.938030  0.936114  1
  Ca  Ca1  1  0.562169  0.938973  0.562623  1
  La  La2  1  0.346455  0.347308  0.345928  1
  La  La3  1  0.348867  0.348491  0.957276  1
  La  La4  1  0.348413  0.959332  0.347648  1
  La  La5  1  0.956335  0.349258  0.348066  1
  La  La6  1  0.807390  0.190963  0.194359  1
  La  La7  1  0.193399  0.804050  0.807140  1
  La  La8  1  0.192802  0.808526  0.189124  1
  La  La9  1  0.807535  0.189615  0.807737  1
  La  La10  1  0.196372  0.188176  0.807878  1
  La  La11  1  0.805044  0.803355  0.193880  1
  La  La12  1  0.939932  0.563105  0.565808  1
  Pr  Pr13  1  0.936650  0.561185  0.936689  1
  Pr  Pr14  1  0.565211  0.565176  0.937134  1
  Pr  Pr15  1  0.932967  0.940770  0.562597  1
  Cd  Cd16  1  0.261750  0.578408  0.578760  1
  In  In17  1  0.580305  0.578208  0.581416  1
  In  In18  1  0.579728  0.579143  0.258245  1
  In  In19  1  0.582959  0.255706  0.580269  1
  Ir  Ir20  1  0.137783  0.143259  0.139883  1
  Ir  Ir21  1  0.137962  0.143404  0.580570  1
  Ir  Ir22  1  0.137992  0.581331  0.140697  1
  Ir  Ir23  1  0.578530  0.144227  0.140156  1
