# generated using pymatgen
data_Li5AgBi2
_symmetry_space_group_name_H-M   'P 1'
_cell_length_a   4.90987000
_cell_length_b   5.13472166
_cell_length_c   6.22239936
_cell_angle_alpha   90.36321429
_cell_angle_beta   90.00000000
_cell_angle_gamma   90.00000000
_symmetry_Int_Tables_number   1
_chemical_formula_structural   Li5AgBi2
_chemical_formula_sum   'Li5 Ag1 Bi2'
_cell_volume   156.86861231
_cell_formula_units_Z   1
loop_
 _symmetry_equiv_pos_site_id
 _symmetry_equiv_pos_as_xyz
  1  'x, y, z'
loop_
 _atom_site_type_symbol
 _atom_site_label
 _atom_site_symmetry_multiplicity
 _atom_site_fract_x
 _atom_site_fract_y
 _atom_site_fract_z
 _atom_site_occupancy
  Li  Li0  1  0.500000  0.342876  0.977208  1
  Li  Li1  1  0.000000  0.656102  0.520833  1
  Li  Li2  1  0.000000  0.188788  0.246429  1
  Li  Li3  1  0.500000  0.816572  0.252177  1
  Li  Li4  1  0.000000  0.170209  0.748811  1
  Ag  Ag5  1  0.500000  0.832311  0.755232  1
  Bi  Bi6  1  0.000000  0.692345  0.015663  1
  Bi  Bi7  1  0.500000  0.300796  0.483646  1
