# generated using pymatgen
data_Tb3Yb(Pt2O7)2
_symmetry_space_group_name_H-M   'P 1'
_cell_length_a   7.28227016
_cell_length_b   7.27646615
_cell_length_c   7.28227000
_cell_angle_alpha   59.97361146
_cell_angle_beta   60.00000072
_cell_angle_gamma   59.97361384
_symmetry_Int_Tables_number   1
_chemical_formula_structural   Tb3Yb(Pt2O7)2
_chemical_formula_sum   'Tb3 Yb1 Pt4 O14'
_cell_volume   272.75062224
_cell_formula_units_Z   1
loop_
 _symmetry_equiv_pos_site_id
 _symmetry_equiv_pos_as_xyz
  1  'x, y, z'
loop_
 _atom_site_type_symbol
 _atom_site_label
 _atom_site_symmetry_multiplicity
 _atom_site_fract_x
 _atom_site_fract_y
 _atom_site_fract_z
 _atom_site_occupancy
  Tb  Tb0  1  0.625000  0.625000  0.125000  1
  Tb  Tb1  1  0.625000  0.625000  0.625000  1
  Tb  Tb2  1  0.125000  0.625000  0.625000  1
  Yb  Yb3  1  0.625000  0.125000  0.625000  1
  Pt  Pt4  1  0.125000  0.125000  0.125000  1
  Pt  Pt5  1  0.625000  0.125000  0.125000  1
  Pt  Pt6  1  0.125000  0.625000  0.125000  1
  Pt  Pt7  1  0.125000  0.125000  0.625000  1
  O  O8  1  0.036009  0.464435  0.463546  1
  O  O9  1  0.786454  0.785565  0.213991  1
  O  O10  1  0.788829  0.215453  0.206890  1
  O  O11  1  0.461171  0.034547  0.461171  1
  O  O12  1  0.036009  0.464435  0.036009  1
  O  O13  1  0.751396  0.745813  0.751396  1
  O  O14  1  0.043110  0.034547  0.461171  1
  O  O15  1  0.213991  0.785565  0.213991  1
  O  O16  1  0.206890  0.215453  0.788829  1
  O  O17  1  0.498604  0.504187  0.498604  1
  O  O18  1  0.788829  0.215453  0.788829  1
  O  O19  1  0.461171  0.034547  0.043110  1
  O  O20  1  0.463546  0.464435  0.036009  1
  O  O21  1  0.213991  0.785565  0.786454  1
