# generated using pymatgen
data_FeNi2P3PbO12
_symmetry_space_group_name_H-M   'P 1'
_cell_length_a   9.10395094
_cell_length_b   9.10395138
_cell_length_c   9.10395077
_cell_angle_alpha   137.40252241
_cell_angle_beta   109.47869376
_cell_angle_gamma   86.00995032
_symmetry_Int_Tables_number   1
_chemical_formula_structural   FeNi2P3PbO12
_chemical_formula_sum   'Fe2 Ni4 P6 Pb2 O24'
_cell_volume   462.83257128
_cell_formula_units_Z   2
loop_
 _symmetry_equiv_pos_site_id
 _symmetry_equiv_pos_as_xyz
  1  'x, y, z'
loop_
 _atom_site_type_symbol
 _atom_site_label
 _atom_site_symmetry_multiplicity
 _atom_site_fract_x
 _atom_site_fract_y
 _atom_site_fract_z
 _atom_site_occupancy
  Fe  Fe0  1  0.000000  0.500000  0.500000  1
  Fe  Fe1  1  0.500000  0.000000  0.500000  1
  Ni  Ni2  1  0.116746  0.116746  0.500000  1
  Ni  Ni3  1  0.383254  0.883254  0.000000  1
  Ni  Ni4  1  0.616746  0.116746  0.000000  1
  Ni  Ni5  1  0.883254  0.883254  0.500000  1
  P  P6  1  0.250000  0.838733  0.588733  1
  P  P7  1  0.750000  0.161267  0.411267  1
  P  P8  1  0.321677  0.321677  0.500000  1
  P  P9  1  0.178323  0.678323  0.000000  1
  P  P10  1  0.821677  0.321677  0.000000  1
  P  P11  1  0.678323  0.678323  0.500000  1
  Pb  Pb12  1  0.250000  0.345255  0.095255  1
  Pb  Pb13  1  0.750000  0.654745  0.904745  1
  O  O14  1  0.344628  0.798893  0.454265  1
  O  O15  1  0.655372  0.201107  0.545735  1
  O  O16  1  0.844628  0.390363  0.545735  1
  O  O17  1  0.155372  0.609637  0.454265  1
  O  O18  1  0.131094  0.981206  0.612298  1
  O  O19  1  0.631094  0.018794  0.149888  1
  O  O20  1  0.868906  0.018794  0.387702  1
  O  O21  1  0.368906  0.981206  0.850112  1
  O  O22  1  0.347970  0.201516  0.278358  1
  O  O23  1  0.076842  0.798484  0.146454  1
  O  O24  1  0.847970  0.569613  0.146454  1
  O  O25  1  0.576842  0.430387  0.278358  1
  O  O26  1  0.652030  0.798484  0.721642  1
  O  O27  1  0.923158  0.201516  0.853546  1
  O  O28  1  0.152030  0.430387  0.853546  1
  O  O29  1  0.423158  0.569613  0.721642  1
  O  O30  1  0.132624  0.288213  0.432089  1
  O  O31  1  0.143877  0.711787  0.844412  1
  O  O32  1  0.632624  0.200535  0.844412  1
  O  O33  1  0.643877  0.799465  0.432089  1
  O  O34  1  0.867376  0.711787  0.567911  1
  O  O35  1  0.856123  0.288213  0.155588  1
  O  O36  1  0.367376  0.799465  0.155588  1
  O  O37  1  0.356123  0.200535  0.567911  1
