# generated using pymatgen
data_Gd4PtSe7
_symmetry_space_group_name_H-M   'P 1'
_cell_length_a   3.94962714
_cell_length_b   8.11087391
_cell_length_c   8.53730300
_cell_angle_alpha   90.02581211
_cell_angle_beta   89.98478254
_cell_angle_gamma   89.99143814
_symmetry_Int_Tables_number   1
_chemical_formula_structural   Gd4PtSe7
_chemical_formula_sum   'Gd4 Pt1 Se7'
_cell_volume   273.49184418
_cell_formula_units_Z   1
loop_
 _symmetry_equiv_pos_site_id
 _symmetry_equiv_pos_as_xyz
  1  'x, y, z'
loop_
 _atom_site_type_symbol
 _atom_site_label
 _atom_site_symmetry_multiplicity
 _atom_site_fract_x
 _atom_site_fract_y
 _atom_site_fract_z
 _atom_site_occupancy
  Gd  Gd0  1  0.248239  0.125508  0.703587  1
  Gd  Gd1  1  0.250126  0.626007  0.749674  1
  Gd  Gd2  1  0.751099  0.867869  0.272553  1
  Gd  Gd3  1  0.751135  0.381154  0.273145  1
  Pt  Pt4  1  0.749130  0.124889  0.999816  1
  Se  Se5  1  0.249836  0.325823  0.997471  1
  Se  Se6  1  0.750682  0.624379  0.006355  1
  Se  Se7  1  0.749177  0.871420  0.631303  1
  Se  Se8  1  0.251014  0.624794  0.374708  1
  Se  Se9  1  0.249828  0.924041  0.996629  1
  Se  Se10  1  0.748881  0.379731  0.631999  1
  Se  Se11  1  0.250853  0.124385  0.362758  1
