# generated using pymatgen
data_Tb2Tm2Hf3ScRh4
_symmetry_space_group_name_H-M   'P 1'
_cell_length_a   4.56577200
_cell_length_b   6.96488182
_cell_length_c   8.30385118
_cell_angle_alpha   90.08807491
_cell_angle_beta   90.00000000
_cell_angle_gamma   90.00000000
_symmetry_Int_Tables_number   1
_chemical_formula_structural   Tb2Tm2Hf3ScRh4
_chemical_formula_sum   'Tb2 Tm2 Hf3 Sc1 Rh4'
_cell_volume   264.06267359
_cell_formula_units_Z   1
loop_
 _symmetry_equiv_pos_site_id
 _symmetry_equiv_pos_as_xyz
  1  'x, y, z'
loop_
 _atom_site_type_symbol
 _atom_site_label
 _atom_site_symmetry_multiplicity
 _atom_site_fract_x
 _atom_site_fract_y
 _atom_site_fract_z
 _atom_site_occupancy
  Tb  Tb0  1  0.250000  0.986523  0.323951  1
  Tb  Tb1  1  0.250000  0.483555  0.174451  1
  Tm  Tm2  1  0.750000  0.018651  0.680002  1
  Tm  Tm3  1  0.750000  0.513402  0.821341  1
  Hf  Hf4  1  0.250000  0.363394  0.575902  1
  Hf  Hf5  1  0.250000  0.856539  0.925283  1
  Hf  Hf6  1  0.750000  0.644442  0.426265  1
  Sc  Sc7  1  0.750000  0.137951  0.074660  1
  Rh  Rh8  1  0.250000  0.232564  0.900351  1
  Rh  Rh9  1  0.250000  0.736771  0.590741  1
  Rh  Rh10  1  0.750000  0.756571  0.087591  1
  Rh  Rh11  1  0.750000  0.269639  0.419463  1
