# generated using pymatgen
data_Er20IrRu2Pt9
_symmetry_space_group_name_H-M   'P 1'
_cell_length_a   10.92940400
_cell_length_b   10.92940400
_cell_length_c   6.30758200
_cell_angle_alpha   90.00000000
_cell_angle_beta   90.00000000
_cell_angle_gamma   90.00000000
_symmetry_Int_Tables_number   1
_chemical_formula_structural   Er20IrRu2Pt9
_chemical_formula_sum   'Er20 Ir1 Ru2 Pt9'
_cell_volume   753.45247640
_cell_formula_units_Z   1
loop_
 _symmetry_equiv_pos_site_id
 _symmetry_equiv_pos_as_xyz
  1  'x, y, z'
loop_
 _atom_site_type_symbol
 _atom_site_label
 _atom_site_symmetry_multiplicity
 _atom_site_fract_x
 _atom_site_fract_y
 _atom_site_fract_z
 _atom_site_occupancy
  Er  Er0  1  0.293628  0.087930  0.377022  1
  Er  Er1  1  0.293003  0.912056  0.869054  1
  Er  Er2  1  0.706997  0.087944  0.869054  1
  Er  Er3  1  0.706372  0.912070  0.377022  1
  Er  Er4  1  0.587944  0.793003  0.869054  1
  Er  Er5  1  0.587930  0.206372  0.377022  1
  Er  Er6  1  0.412070  0.793628  0.377022  1
  Er  Er7  1  0.412056  0.206997  0.869054  1
  Er  Er8  1  0.203802  0.413563  0.627876  1
  Er  Er9  1  0.203900  0.587106  0.126122  1
  Er  Er10  1  0.796100  0.412894  0.126122  1
  Er  Er11  1  0.796198  0.586437  0.627876  1
  Er  Er12  1  0.912894  0.703900  0.126122  1
  Er  Er13  1  0.913563  0.296198  0.627876  1
  Er  Er14  1  0.086437  0.703802  0.627876  1
  Er  Er15  1  0.087106  0.296100  0.126122  1
  Er  Er16  1  0.000000  0.000000  0.500417  1
  Er  Er17  1  0.000000  0.000000  0.000706  1
  Er  Er18  1  0.500000  0.500000  0.000706  1
  Er  Er19  1  0.500000  0.500000  0.500417  1
  Ir  Ir20  1  0.000000  0.500000  0.378916  1
  Ru  Ru21  1  0.500000  0.000000  0.621226  1
  Ru  Ru22  1  0.000000  0.500000  0.877986  1
  Pt  Pt23  1  0.845557  0.153164  0.249911  1
  Pt  Pt24  1  0.845972  0.846257  0.750217  1
  Pt  Pt25  1  0.154028  0.153743  0.750217  1
  Pt  Pt26  1  0.154443  0.846836  0.249911  1
  Pt  Pt27  1  0.653743  0.345972  0.750217  1
  Pt  Pt28  1  0.653164  0.654443  0.249911  1
  Pt  Pt29  1  0.346836  0.345557  0.249911  1
  Pt  Pt30  1  0.346257  0.654028  0.750217  1
  Pt  Pt31  1  0.500000  0.000000  0.118815  1
