# generated using pymatgen
data_YLu(Si7Ir3)2
_symmetry_space_group_name_H-M   'P 1'
_cell_length_a   8.04102084
_cell_length_b   8.04101975
_cell_length_c   8.04102037
_cell_angle_alpha   56.46890206
_cell_angle_beta   56.46890283
_cell_angle_gamma   56.46889656
_symmetry_Int_Tables_number   1
_chemical_formula_structural   YLu(Si7Ir3)2
_chemical_formula_sum   'Y1 Lu1 Si14 Ir6'
_cell_volume   337.62684789
_cell_formula_units_Z   1
loop_
 _symmetry_equiv_pos_site_id
 _symmetry_equiv_pos_as_xyz
  1  'x, y, z'
loop_
 _atom_site_type_symbol
 _atom_site_label
 _atom_site_symmetry_multiplicity
 _atom_site_fract_x
 _atom_site_fract_y
 _atom_site_fract_z
 _atom_site_occupancy
  Y  Y0  1  0.500000  0.500000  0.500000  1
  Lu  Lu1  1  0.000000  0.000000  0.000000  1
  Si  Si2  1  0.850493  0.063782  0.672872  1
  Si  Si3  1  0.672872  0.850493  0.063782  1
  Si  Si4  1  0.063782  0.672872  0.850493  1
  Si  Si5  1  0.649590  0.827653  0.435647  1
  Si  Si6  1  0.249938  0.249938  0.249938  1
  Si  Si7  1  0.750062  0.750062  0.750062  1
  Si  Si8  1  0.172347  0.564353  0.350410  1
  Si  Si9  1  0.564353  0.350410  0.172347  1
  Si  Si10  1  0.350410  0.172347  0.564353  1
  Si  Si11  1  0.936218  0.327128  0.149507  1
  Si  Si12  1  0.327128  0.149507  0.936218  1
  Si  Si13  1  0.149507  0.936218  0.327128  1
  Si  Si14  1  0.827653  0.435647  0.649590  1
  Si  Si15  1  0.435647  0.649590  0.827653  1
  Ir  Ir16  1  0.751135  0.070238  0.427840  1
  Ir  Ir17  1  0.427840  0.751135  0.070238  1
  Ir  Ir18  1  0.070238  0.427840  0.751135  1
  Ir  Ir19  1  0.248865  0.929762  0.572160  1
  Ir  Ir20  1  0.572160  0.248865  0.929762  1
  Ir  Ir21  1  0.929762  0.572160  0.248865  1
