# generated using pymatgen
data_Tb16MgCd3Pt4
_symmetry_space_group_name_H-M   'P 1'
_cell_length_a   9.75088401
_cell_length_b   9.75088372
_cell_length_c   9.75088394
_cell_angle_alpha   60.11163993
_cell_angle_beta   60.11164216
_cell_angle_gamma   60.11164091
_symmetry_Int_Tables_number   1
_chemical_formula_structural   Tb16MgCd3Pt4
_chemical_formula_sum   'Tb16 Mg1 Cd3 Pt4'
_cell_volume   657.22499565
_cell_formula_units_Z   1
loop_
 _symmetry_equiv_pos_site_id
 _symmetry_equiv_pos_as_xyz
  1  'x, y, z'
loop_
 _atom_site_type_symbol
 _atom_site_label
 _atom_site_symmetry_multiplicity
 _atom_site_fract_x
 _atom_site_fract_y
 _atom_site_fract_z
 _atom_site_occupancy
  Tb  Tb0  1  0.349661  0.349661  0.349661  1
  Tb  Tb1  1  0.352393  0.352393  0.945046  1
  Tb  Tb2  1  0.352393  0.945046  0.352393  1
  Tb  Tb3  1  0.945046  0.352393  0.352393  1
  Tb  Tb4  1  0.809644  0.191364  0.191364  1
  Tb  Tb5  1  0.188319  0.811502  0.811502  1
  Tb  Tb6  1  0.191364  0.809644  0.191364  1
  Tb  Tb7  1  0.811502  0.188319  0.811502  1
  Tb  Tb8  1  0.191364  0.191364  0.809644  1
  Tb  Tb9  1  0.811502  0.811502  0.188319  1
  Tb  Tb10  1  0.936411  0.566042  0.566042  1
  Tb  Tb11  1  0.563193  0.936369  0.936369  1
  Tb  Tb12  1  0.566042  0.936411  0.566042  1
  Tb  Tb13  1  0.936369  0.563193  0.936369  1
  Tb  Tb14  1  0.566042  0.566042  0.936411  1
  Tb  Tb15  1  0.936369  0.936369  0.563193  1
  Mg  Mg16  1  0.576569  0.576569  0.576569  1
  Cd  Cd17  1  0.581426  0.581426  0.254102  1
  Cd  Cd18  1  0.581426  0.254102  0.581426  1
  Cd  Cd19  1  0.254102  0.581426  0.581426  1
  Pt  Pt20  1  0.143882  0.143882  0.143882  1
  Pt  Pt21  1  0.141828  0.141828  0.571324  1
  Pt  Pt22  1  0.141828  0.571324  0.141828  1
  Pt  Pt23  1  0.571324  0.141828  0.141828  1
