# generated using pymatgen
data_Tb7HoNb12Si15Ge
_symmetry_space_group_name_H-M   'P 1'
_cell_length_a   6.90260331
_cell_length_b   7.10185946
_cell_length_c   13.47375454
_cell_angle_alpha   90.01675301
_cell_angle_beta   89.91958882
_cell_angle_gamma   90.01071804
_symmetry_Int_Tables_number   1
_chemical_formula_structural   Tb7HoNb12Si15Ge
_chemical_formula_sum   'Tb7 Ho1 Nb12 Si15 Ge1'
_cell_volume   660.50052451
_cell_formula_units_Z   1
loop_
 _symmetry_equiv_pos_site_id
 _symmetry_equiv_pos_as_xyz
  1  'x, y, z'
loop_
 _atom_site_type_symbol
 _atom_site_label
 _atom_site_symmetry_multiplicity
 _atom_site_fract_x
 _atom_site_fract_y
 _atom_site_fract_z
 _atom_site_occupancy
  Tb  Tb0  1  0.503469  0.328847  0.095840  1
  Tb  Tb1  1  0.002566  0.170775  0.403714  1
  Tb  Tb2  1  0.499543  0.672960  0.596599  1
  Tb  Tb3  1  0.996301  0.828701  0.904808  1
  Tb  Tb4  1  0.496232  0.671059  0.904615  1
  Tb  Tb5  1  0.996397  0.829449  0.596068  1
  Tb  Tb6  1  0.503991  0.327635  0.403043  1
  Ho  Ho7  1  0.003253  0.171821  0.095877  1
  Nb  Nb8  1  0.663991  0.008863  0.750307  1
  Nb  Nb9  1  0.163926  0.490059  0.751988  1
  Nb  Nb10  1  0.335589  0.991441  0.249528  1
  Nb  Nb11  1  0.836136  0.509294  0.249724  1
  Nb  Nb12  1  0.835889  0.324224  0.626052  1
  Nb  Nb13  1  0.337355  0.175146  0.874796  1
  Nb  Nb14  1  0.162394  0.675696  0.125297  1
  Nb  Nb15  1  0.662166  0.825353  0.373768  1
  Nb  Nb16  1  0.160762  0.677838  0.372647  1
  Nb  Nb17  1  0.661802  0.824662  0.125227  1
  Nb  Nb18  1  0.837767  0.324094  0.874849  1
  Nb  Nb19  1  0.340249  0.171620  0.626844  1
  Si  Si20  1  0.796730  0.624063  0.750390  1
  Si  Si21  1  0.295569  0.874609  0.750719  1
  Si  Si22  1  0.203314  0.375397  0.249294  1
  Si  Si23  1  0.704460  0.124550  0.249141  1
  Si  Si24  1  0.542265  0.375335  0.750526  1
  Si  Si25  1  0.042199  0.124635  0.750091  1
  Si  Si26  1  0.457350  0.624808  0.249726  1
  Si  Si27  1  0.956967  0.876395  0.248739  1
  Si  Si28  1  0.662901  0.037857  0.540250  1
  Si  Si29  1  0.161854  0.462119  0.959735  1
  Si  Si30  1  0.336462  0.963615  0.040937  1
  Si  Si31  1  0.833899  0.538374  0.458403  1
  Si  Si32  1  0.337475  0.962112  0.459300  1
  Si  Si33  1  0.838336  0.536388  0.041195  1
  Si  Si34  1  0.662315  0.037389  0.959583  1
  Ge  Ge35  1  0.168126  0.462820  0.540379  1
