# generated using pymatgen
data_CaHo3(Si3Pt)2
_symmetry_space_group_name_H-M   'P 1'
_cell_length_a   8.12999000
_cell_length_b   8.12999011
_cell_length_c   8.21602700
_cell_angle_alpha   90.00000000
_cell_angle_beta   90.00000000
_cell_angle_gamma   119.99999955
_symmetry_Int_Tables_number   1
_chemical_formula_structural   CaHo3(Si3Pt)2
_chemical_formula_sum   'Ca2 Ho6 Si12 Pt4'
_cell_volume   470.29733760
_cell_formula_units_Z   2
loop_
 _symmetry_equiv_pos_site_id
 _symmetry_equiv_pos_as_xyz
  1  'x, y, z'
loop_
 _atom_site_type_symbol
 _atom_site_label
 _atom_site_symmetry_multiplicity
 _atom_site_fract_x
 _atom_site_fract_y
 _atom_site_fract_z
 _atom_site_occupancy
  Ca  Ca0  1  0.000000  0.000000  0.250000  1
  Ca  Ca1  1  0.000000  0.000000  0.750000  1
  Ho  Ho2  1  0.502010  0.497990  0.250000  1
  Ho  Ho3  1  0.502010  0.004020  0.250000  1
  Ho  Ho4  1  0.995980  0.497990  0.250000  1
  Ho  Ho5  1  0.497990  0.502010  0.750000  1
  Ho  Ho6  1  0.497990  0.995980  0.750000  1
  Ho  Ho7  1  0.004020  0.502010  0.750000  1
  Si  Si8  1  0.165887  0.834113  0.499965  1
  Si  Si9  1  0.165887  0.331772  0.499965  1
  Si  Si10  1  0.668228  0.834113  0.499965  1
  Si  Si11  1  0.834113  0.165887  0.500035  1
  Si  Si12  1  0.834113  0.668228  0.500035  1
  Si  Si13  1  0.331772  0.165887  0.500035  1
  Si  Si14  1  0.834113  0.165887  0.999965  1
  Si  Si15  1  0.834113  0.668228  0.999965  1
  Si  Si16  1  0.331772  0.165887  0.999965  1
  Si  Si17  1  0.165887  0.834113  0.000035  1
  Si  Si18  1  0.165887  0.331772  0.000035  1
  Si  Si19  1  0.668228  0.834113  0.000035  1
  Pt  Pt20  1  0.333333  0.666667  0.494966  1
  Pt  Pt21  1  0.666667  0.333333  0.505034  1
  Pt  Pt22  1  0.666667  0.333333  0.994966  1
  Pt  Pt23  1  0.333333  0.666667  0.005034  1
