# generated using pymatgen
data_Nd5LuTiAl23Ru8
_symmetry_space_group_name_H-M   'P 1'
_cell_length_a   8.87613700
_cell_length_b   8.90427798
_cell_length_c   9.66520901
_cell_angle_alpha   90.00322586
_cell_angle_beta   90.00001238
_cell_angle_gamma   119.89554804
_symmetry_Int_Tables_number   1
_chemical_formula_structural   Nd5LuTiAl23Ru8
_chemical_formula_sum   'Nd5 Lu1 Ti1 Al23 Ru8'
_cell_volume   662.24811757
_cell_formula_units_Z   1
loop_
 _symmetry_equiv_pos_site_id
 _symmetry_equiv_pos_as_xyz
  1  'x, y, z'
loop_
 _atom_site_type_symbol
 _atom_site_label
 _atom_site_symmetry_multiplicity
 _atom_site_fract_x
 _atom_site_fract_y
 _atom_site_fract_z
 _atom_site_occupancy
  Nd  Nd0  1  0.808112  0.616224  0.750429  1
  Nd  Nd1  1  0.617775  0.809760  0.250243  1
  Nd  Nd2  1  0.383232  0.191327  0.750022  1
  Nd  Nd3  1  0.191989  0.809764  0.250242  1
  Nd  Nd4  1  0.808095  0.191328  0.750024  1
  Lu  Lu5  1  0.195715  0.391431  0.249609  1
  Ti  Ti6  1  0.332444  0.664888  0.993846  1
  Al  Al7  1  0.666696  0.333393  0.989891  1
  Al  Al8  1  0.666345  0.332687  0.513104  1
  Al  Al9  1  0.332180  0.664356  0.481782  1
  Al  Al10  1  0.162347  0.324694  0.570689  1
  Al  Al11  1  0.836434  0.672868  0.422766  1
  Al  Al12  1  0.673267  0.836346  0.573300  1
  Al  Al13  1  0.836837  0.673672  0.080219  1
  Al  Al14  1  0.324658  0.164329  0.422866  1
  Al  Al15  1  0.158919  0.317836  0.929159  1
  Al  Al16  1  0.163078  0.836347  0.573300  1
  Al  Al17  1  0.324056  0.164064  0.079981  1
  Al  Al18  1  0.839671  0.164331  0.422867  1
  Al  Al19  1  0.680517  0.840443  0.925915  1
  Al  Al20  1  0.840008  0.164063  0.079980  1
  Al  Al21  1  0.159925  0.840442  0.925916  1
  Al  Al22  1  0.563440  0.126879  0.251480  1
  Al  Al23  1  0.437987  0.875979  0.749125  1
  Al  Al24  1  0.878308  0.437263  0.251778  1
  Al  Al25  1  0.122953  0.560608  0.749232  1
  Al  Al26  1  0.558957  0.437263  0.251777  1
  Al  Al27  1  0.437656  0.560608  0.749231  1
  Al  Al28  1  0.005189  0.010375  0.250242  1
  Al  Al29  1  0.999859  0.999719  0.749791  1
  Ru  Ru30  1  0.497180  0.994361  0.002569  1
  Ru  Ru31  1  0.006279  0.500691  0.003604  1
  Ru  Ru32  1  0.498669  0.997342  0.500302  1
  Ru  Ru33  1  0.494411  0.500690  0.003606  1
  Ru  Ru34  1  0.001944  0.498579  0.500381  1
  Ru  Ru35  1  0.496633  0.498573  0.500383  1
  Ru  Ru36  1  0.999071  0.998139  0.001760  1
  Ru  Ru37  1  0.999165  0.998335  0.498589  1
