# generated using pymatgen
data_Zr3Mn(Pd3Pt)3
_symmetry_space_group_name_H-M   'P 1'
_cell_length_a   5.69504100
_cell_length_b   5.69504109
_cell_length_c   9.26738800
_cell_angle_alpha   90.00000000
_cell_angle_beta   90.00000000
_cell_angle_gamma   120.00000527
_symmetry_Int_Tables_number   1
_chemical_formula_structural   Zr3Mn(Pd3Pt)3
_chemical_formula_sum   'Zr3 Mn1 Pd9 Pt3'
_cell_volume   260.30449751
_cell_formula_units_Z   1
loop_
 _symmetry_equiv_pos_site_id
 _symmetry_equiv_pos_as_xyz
  1  'x, y, z'
loop_
 _atom_site_type_symbol
 _atom_site_label
 _atom_site_symmetry_multiplicity
 _atom_site_fract_x
 _atom_site_fract_y
 _atom_site_fract_z
 _atom_site_occupancy
  Zr  Zr0  1  0.000000  0.000000  0.500195  1
  Zr  Zr1  1  0.000000  0.000000  0.999805  1
  Zr  Zr2  1  0.666667  0.333333  0.750000  1
  Mn  Mn3  1  0.333333  0.666667  0.250000  1
  Pd  Pd4  1  0.499300  0.500700  0.496879  1
  Pd  Pd5  1  0.499300  0.998602  0.496879  1
  Pd  Pd6  1  0.001398  0.500700  0.496879  1
  Pd  Pd7  1  0.499300  0.500700  0.003121  1
  Pd  Pd8  1  0.499300  0.998602  0.003121  1
  Pd  Pd9  1  0.001398  0.500700  0.003121  1
  Pd  Pd10  1  0.830834  0.169166  0.250000  1
  Pd  Pd11  1  0.830834  0.661666  0.250000  1
  Pd  Pd12  1  0.338334  0.169166  0.250000  1
  Pt  Pt13  1  0.169612  0.830388  0.750000  1
  Pt  Pt14  1  0.169612  0.339223  0.750000  1
  Pt  Pt15  1  0.660777  0.830388  0.750000  1
