# generated using pymatgen
data_Zr8Co11Si16Ir
_symmetry_space_group_name_H-M   'P 1'
_cell_length_a   5.27222622
_cell_length_b   6.80318803
_cell_length_c   13.84249116
_cell_angle_alpha   90.10405029
_cell_angle_beta   90.01736835
_cell_angle_gamma   89.86223321
_symmetry_Int_Tables_number   1
_chemical_formula_structural   Zr8Co11Si16Ir
_chemical_formula_sum   'Zr8 Co11 Si16 Ir1'
_cell_volume   496.49945407
_cell_formula_units_Z   1
loop_
 _symmetry_equiv_pos_site_id
 _symmetry_equiv_pos_as_xyz
  1  'x, y, z'
loop_
 _atom_site_type_symbol
 _atom_site_label
 _atom_site_symmetry_multiplicity
 _atom_site_fract_x
 _atom_site_fract_y
 _atom_site_fract_z
 _atom_site_occupancy
  Zr  Zr0  1  0.236300  0.398472  0.150153  1
  Zr  Zr1  1  0.731143  0.100077  0.148751  1
  Zr  Zr2  1  0.268016  0.100493  0.644330  1
  Zr  Zr3  1  0.764729  0.401498  0.644110  1
  Zr  Zr4  1  0.232900  0.600541  0.354616  1
  Zr  Zr5  1  0.733225  0.899184  0.354399  1
  Zr  Zr6  1  0.263634  0.903282  0.853545  1
  Zr  Zr7  1  0.769582  0.601323  0.851554  1
  Co  Co8  1  0.505132  0.228453  0.480166  1
  Co  Co9  1  0.771716  0.999735  0.748858  1
  Co  Co10  1  0.494099  0.222933  0.979973  1
  Co  Co11  1  0.727281  0.500078  0.251385  1
  Co  Co12  1  0.495282  0.771802  0.519810  1
  Co  Co13  1  0.005412  0.272052  0.480236  1
  Co  Co14  1  0.005147  0.724310  0.020930  1
  Co  Co15  1  0.226056  0.999255  0.251265  1
  Co  Co16  1  0.275123  0.502978  0.748908  1
  Co  Co17  1  0.504810  0.771424  0.020709  1
  Co  Co18  1  0.995030  0.728596  0.519528  1
  Si  Si19  1  0.223998  0.012253  0.071258  1
  Si  Si20  1  0.721079  0.519170  0.432712  1
  Si  Si21  1  0.779567  0.019147  0.566775  1
  Si  Si22  1  0.481966  0.753468  0.189619  1
  Si  Si23  1  0.018478  0.254942  0.803998  1
  Si  Si24  1  0.517347  0.247337  0.810798  1
  Si  Si25  1  0.221076  0.980995  0.432801  1
  Si  Si26  1  0.291692  0.525733  0.931545  1
  Si  Si27  1  0.981322  0.745889  0.188944  1
  Si  Si28  1  0.712282  0.485013  0.070626  1
  Si  Si29  1  0.278954  0.482015  0.566782  1
  Si  Si30  1  0.481998  0.246136  0.313478  1
  Si  Si31  1  0.018847  0.747616  0.686559  1
  Si  Si32  1  0.772735  0.972479  0.931560  1
  Si  Si33  1  0.517642  0.754938  0.687289  1
  Si  Si34  1  0.981480  0.253185  0.313064  1
  Ir  Ir35  1  0.994919  0.273199  0.978968  1
