# generated using pymatgen
data_Zr10Si2SnSb3
_symmetry_space_group_name_H-M   'P 1'
_cell_length_a   8.32580496
_cell_length_b   8.32577502
_cell_length_c   8.33721615
_cell_angle_alpha   96.29205334
_cell_angle_beta   96.29415855
_cell_angle_gamma   141.30017921
_symmetry_Int_Tables_number   1
_chemical_formula_structural   Zr10Si2SnSb3
_chemical_formula_sum   'Zr10 Si2 Sn1 Sb3'
_cell_volume   340.99580077
_cell_formula_units_Z   1
loop_
 _symmetry_equiv_pos_site_id
 _symmetry_equiv_pos_as_xyz
  1  'x, y, z'
loop_
 _atom_site_type_symbol
 _atom_site_label
 _atom_site_symmetry_multiplicity
 _atom_site_fract_x
 _atom_site_fract_y
 _atom_site_fract_z
 _atom_site_occupancy
  Zr  Zr0  1  0.425340  0.291998  0.717321  1
  Zr  Zr1  1  0.207774  0.074653  0.282439  1
  Zr  Zr2  1  0.574680  0.707753  0.282443  1
  Zr  Zr3  1  0.250815  0.750810  0.500463  1
  Zr  Zr4  1  0.292030  0.574380  0.866389  1
  Zr  Zr5  1  0.707932  0.425469  0.133419  1
  Zr  Zr6  1  0.749604  0.249612  0.500373  1
  Zr  Zr7  1  0.925449  0.207924  0.133375  1
  Zr  Zr8  1  0.791975  0.925359  0.717331  1
  Zr  Zr9  1  0.074399  0.792039  0.866436  1
  Si  Si10  1  0.249947  0.249949  0.999904  1
  Si  Si11  1  0.749959  0.749951  0.999906  1
  Sn  Sn12  1  0.336127  0.836087  0.172227  1
  Sb  Sb13  1  0.163820  0.336016  0.499867  1
  Sb  Sb14  1  0.664058  0.164104  0.828155  1
  Sb  Sb15  1  0.836093  0.663893  0.499952  1
