# generated using pymatgen
data_SmTh3(Sn5Rh3)2
_symmetry_space_group_name_H-M   'P 1'
_cell_length_a   13.63739325
_cell_length_b   13.63739395
_cell_length_c   7.36061679
_cell_angle_alpha   89.55994646
_cell_angle_beta   90.44005389
_cell_angle_gamma   161.00867478
_symmetry_Int_Tables_number   1
_chemical_formula_structural   SmTh3(Sn5Rh3)2
_chemical_formula_sum   'Sm1 Th3 Sn10 Rh6'
_cell_volume   445.46613986
_cell_formula_units_Z   1
loop_
 _symmetry_equiv_pos_site_id
 _symmetry_equiv_pos_as_xyz
  1  'x, y, z'
loop_
 _atom_site_type_symbol
 _atom_site_label
 _atom_site_symmetry_multiplicity
 _atom_site_fract_x
 _atom_site_fract_y
 _atom_site_fract_z
 _atom_site_occupancy
  Sm  Sm0  1  0.172973  0.827027  0.751207  1
  Th  Th1  1  0.826852  0.173148  0.255506  1
  Th  Th2  1  0.474342  0.525658  0.736469  1
  Th  Th3  1  0.526191  0.473809  0.237241  1
  Sn  Sn4  1  0.877659  0.122341  0.733209  1
  Sn  Sn5  1  0.122726  0.877274  0.234026  1
  Sn  Sn6  1  0.703966  0.296034  0.047675  1
  Sn  Sn7  1  0.295326  0.704674  0.551073  1
  Sn  Sn8  1  0.597781  0.402219  0.615826  1
  Sn  Sn9  1  0.402722  0.597278  0.111155  1
  Sn  Sn10  1  0.950812  0.049188  0.395065  1
  Sn  Sn11  1  0.049807  0.950193  0.895738  1
  Sn  Sn12  1  0.288637  0.711363  0.974007  1
  Sn  Sn13  1  0.709925  0.290075  0.477121  1
  Rh  Rh14  1  0.050517  0.949483  0.515247  1
  Rh  Rh15  1  0.949494  0.050506  0.014660  1
  Rh  Rh16  1  0.777072  0.222928  0.766962  1
  Rh  Rh17  1  0.223664  0.776336  0.269358  1
  Rh  Rh18  1  0.395415  0.604585  0.485282  1
  Rh  Rh19  1  0.604119  0.395881  0.989173  1
