# generated using pymatgen
data_SmBeOs2C
_symmetry_space_group_name_H-M   'P 1'
_cell_length_a   5.63101117
_cell_length_b   5.63101020
_cell_length_c   7.11352700
_cell_angle_alpha   90.00000000
_cell_angle_beta   90.00000000
_cell_angle_gamma   139.35828148
_symmetry_Int_Tables_number   1
_chemical_formula_structural   SmBeOs2C
_chemical_formula_sum   'Sm2 Be2 Os4 C2'
_cell_volume   146.91180537
_cell_formula_units_Z   2
loop_
 _symmetry_equiv_pos_site_id
 _symmetry_equiv_pos_as_xyz
  1  'x, y, z'
loop_
 _atom_site_type_symbol
 _atom_site_label
 _atom_site_symmetry_multiplicity
 _atom_site_fract_x
 _atom_site_fract_y
 _atom_site_fract_z
 _atom_site_occupancy
  Sm  Sm0  1  0.544382  0.455618  0.250000  1
  Sm  Sm1  1  0.455618  0.544382  0.750000  1
  Be  Be2  1  0.269524  0.730476  0.250000  1
  Be  Be3  1  0.730476  0.269524  0.750000  1
  Os  Os4  1  0.822652  0.177348  0.058937  1
  Os  Os5  1  0.177348  0.822652  0.941063  1
  Os  Os6  1  0.177348  0.822652  0.558937  1
  Os  Os7  1  0.822652  0.177348  0.441063  1
  C  C8  1  0.000000  0.000000  0.000000  1
  C  C9  1  0.000000  0.000000  0.500000  1
