# generated using pymatgen
data_Cs4Zn7Cd3Sb8
_symmetry_space_group_name_H-M   'P 1'
_cell_length_a   7.55216019
_cell_length_b   7.55215919
_cell_length_c   12.96282720
_cell_angle_alpha   90.05066644
_cell_angle_beta   90.05066391
_cell_angle_gamma   115.27836628
_symmetry_Int_Tables_number   1
_chemical_formula_structural   Cs4Zn7Cd3Sb8
_chemical_formula_sum   'Cs4 Zn7 Cd3 Sb8'
_cell_volume   668.53943634
_cell_formula_units_Z   1
loop_
 _symmetry_equiv_pos_site_id
 _symmetry_equiv_pos_as_xyz
  1  'x, y, z'
loop_
 _atom_site_type_symbol
 _atom_site_label
 _atom_site_symmetry_multiplicity
 _atom_site_fract_x
 _atom_site_fract_y
 _atom_site_fract_z
 _atom_site_occupancy
  Cs  Cs0  1  0.216858  0.782052  0.498946  1
  Cs  Cs1  1  0.218755  0.783476  0.000690  1
  Cs  Cs2  1  0.782052  0.216858  0.498946  1
  Cs  Cs3  1  0.783476  0.218755  0.000690  1
  Zn  Zn4  1  0.531440  0.238283  0.252836  1
  Zn  Zn5  1  0.756556  0.471304  0.749603  1
  Zn  Zn6  1  0.471304  0.756556  0.749603  1
  Zn  Zn7  1  0.238283  0.531440  0.252836  1
  Zn  Zn8  1  0.651466  0.651466  0.389451  1
  Zn  Zn9  1  0.346637  0.346637  0.608932  1
  Zn  Zn10  1  0.654407  0.654407  0.110022  1
  Cd  Cd11  1  0.343742  0.343742  0.891677  1
  Cd  Cd12  1  0.007699  0.007699  0.253327  1
  Cd  Cd13  1  0.993227  0.993227  0.747071  1
  Sb  Sb14  1  0.580467  0.897359  0.250119  1
  Sb  Sb15  1  0.094820  0.420883  0.742968  1
  Sb  Sb16  1  0.420883  0.094820  0.742968  1
  Sb  Sb17  1  0.897359  0.580467  0.250119  1
  Sb  Sb18  1  0.296000  0.296000  0.401427  1
  Sb  Sb19  1  0.703963  0.703963  0.598964  1
  Sb  Sb20  1  0.293810  0.293810  0.108765  1
  Sb  Sb21  1  0.716793  0.716793  0.900042  1
