# generated using pymatgen
data_Tb2Y6ReTc3C8
_symmetry_space_group_name_H-M   'P 1'
_cell_length_a   5.12189900
_cell_length_b   6.59416708
_cell_length_c   9.91162801
_cell_angle_alpha   89.96996570
_cell_angle_beta   90.00000000
_cell_angle_gamma   90.00000000
_symmetry_Int_Tables_number   1
_chemical_formula_structural   Tb2Y6ReTc3C8
_chemical_formula_sum   'Tb2 Y6 Re1 Tc3 C8'
_cell_volume   334.76179794
_cell_formula_units_Z   1
loop_
 _symmetry_equiv_pos_site_id
 _symmetry_equiv_pos_as_xyz
  1  'x, y, z'
loop_
 _atom_site_type_symbol
 _atom_site_label
 _atom_site_symmetry_multiplicity
 _atom_site_fract_x
 _atom_site_fract_y
 _atom_site_fract_z
 _atom_site_occupancy
  Tb  Tb0  1  0.750000  0.531558  0.784209  1
  Tb  Tb1  1  0.250000  0.967724  0.284152  1
  Y  Y2  1  0.750000  0.677644  0.443491  1
  Y  Y3  1  0.250000  0.821547  0.943104  1
  Y  Y4  1  0.750000  0.179812  0.057378  1
  Y  Y5  1  0.250000  0.321465  0.557279  1
  Y  Y6  1  0.250000  0.467009  0.216402  1
  Y  Y7  1  0.750000  0.032177  0.716089  1
  Re  Re8  1  0.750000  0.721042  0.134911  1
  Tc  Tc9  1  0.250000  0.279186  0.865066  1
  Tc  Tc10  1  0.250000  0.779283  0.635042  1
  Tc  Tc11  1  0.750000  0.221261  0.365177  1
  C  C12  1  0.250000  0.678844  0.452983  1
  C  C13  1  0.250000  0.546536  0.758783  1
  C  C14  1  0.750000  0.454995  0.240171  1
  C  C15  1  0.750000  0.820872  0.951787  1
  C  C16  1  0.250000  0.046163  0.741273  1
  C  C17  1  0.250000  0.178937  0.047190  1
  C  C18  1  0.750000  0.320620  0.547207  1
  C  C19  1  0.750000  0.953326  0.258303  1
