# generated using pymatgen
data_PrTm2AuO7
_symmetry_space_group_name_H-M   'P 1'
_cell_length_a   6.43120700
_cell_length_b   6.43120806
_cell_length_c   7.40067500
_cell_angle_alpha   90.00000000
_cell_angle_beta   90.00000000
_cell_angle_gamma   108.80299523
_symmetry_Int_Tables_number   1
_chemical_formula_structural   PrTm2AuO7
_chemical_formula_sum   'Pr2 Tm4 Au2 O14'
_cell_volume   289.75954525
_cell_formula_units_Z   2
loop_
 _symmetry_equiv_pos_site_id
 _symmetry_equiv_pos_as_xyz
  1  'x, y, z'
loop_
 _atom_site_type_symbol
 _atom_site_label
 _atom_site_symmetry_multiplicity
 _atom_site_fract_x
 _atom_site_fract_y
 _atom_site_fract_z
 _atom_site_occupancy
  Pr  Pr0  1  0.500000  0.500000  0.500000  1
  Pr  Pr1  1  0.500000  0.500000  0.000000  1
  Tm  Tm2  1  0.528692  0.998783  0.750000  1
  Tm  Tm3  1  0.998783  0.528692  0.250000  1
  Tm  Tm4  1  0.471308  0.001217  0.250000  1
  Tm  Tm5  1  0.001217  0.471308  0.750000  1
  Au  Au6  1  0.000000  0.000000  0.500000  1
  Au  Au7  1  0.000000  0.000000  0.000000  1
  O  O8  1  0.669379  0.924919  0.475152  1
  O  O9  1  0.924919  0.669379  0.524848  1
  O  O10  1  0.669379  0.924919  0.024848  1
  O  O11  1  0.924919  0.669379  0.975152  1
  O  O12  1  0.330621  0.075081  0.524848  1
  O  O13  1  0.075081  0.330621  0.475152  1
  O  O14  1  0.330621  0.075081  0.975152  1
  O  O15  1  0.075081  0.330621  0.024848  1
  O  O16  1  0.919717  0.080283  0.750000  1
  O  O17  1  0.080283  0.919717  0.250000  1
  O  O18  1  0.356677  0.643323  0.750000  1
  O  O19  1  0.643323  0.356677  0.250000  1
  O  O20  1  0.646950  0.353050  0.750000  1
  O  O21  1  0.353050  0.646950  0.250000  1
