# generated using pymatgen
data_SeSO5
_symmetry_space_group_name_H-M   'P 1'
_cell_length_a   4.78247600
_cell_length_b   9.41576200
_cell_length_c   9.41576200
_cell_angle_alpha   90.00000000
_cell_angle_beta   90.00000000
_cell_angle_gamma   90.00000000
_symmetry_Int_Tables_number   1
_chemical_formula_structural   SeSO5
_chemical_formula_sum   'Se4 S4 O20'
_cell_volume   423.99793759
_cell_formula_units_Z   4
loop_
 _symmetry_equiv_pos_site_id
 _symmetry_equiv_pos_as_xyz
  1  'x, y, z'
loop_
 _atom_site_type_symbol
 _atom_site_label
 _atom_site_symmetry_multiplicity
 _atom_site_fract_x
 _atom_site_fract_y
 _atom_site_fract_z
 _atom_site_occupancy
  Se  Se0  1  0.396822  0.250000  0.500000  1
  Se  Se1  1  0.603178  0.750000  0.500000  1
  Se  Se2  1  0.396822  0.750000  0.000000  1
  Se  Se3  1  0.603178  0.250000  0.000000  1
  S  S4  1  0.500000  0.500000  0.750000  1
  S  S5  1  0.500000  0.000000  0.250000  1
  S  S6  1  0.500000  0.500000  0.250000  1
  S  S7  1  0.500000  0.000000  0.750000  1
  O  O8  1  0.267768  0.250000  0.000000  1
  O  O9  1  0.267768  0.750000  0.500000  1
  O  O10  1  0.732232  0.750000  0.000000  1
  O  O11  1  0.732232  0.250000  0.500000  1
  O  O12  1  0.689635  0.600271  0.326851  1
  O  O13  1  0.689635  0.100271  0.826851  1
  O  O14  1  0.689635  0.423149  0.850271  1
  O  O15  1  0.689635  0.923149  0.350271  1
  O  O16  1  0.689635  0.576851  0.649729  1
  O  O17  1  0.689635  0.076851  0.149729  1
  O  O18  1  0.689635  0.399729  0.173149  1
  O  O19  1  0.689635  0.899729  0.673149  1
  O  O20  1  0.310365  0.600271  0.826851  1
  O  O21  1  0.310365  0.100271  0.326851  1
  O  O22  1  0.310365  0.423149  0.350271  1
  O  O23  1  0.310365  0.923149  0.850271  1
  O  O24  1  0.310365  0.576851  0.149729  1
  O  O25  1  0.310365  0.076851  0.649729  1
  O  O26  1  0.310365  0.399729  0.673149  1
  O  O27  1  0.310365  0.899729  0.173149  1
