# generated using pymatgen
data_Yb8CrSi16W11
_symmetry_space_group_name_H-M   'P 1'
_cell_length_a   6.71312527
_cell_length_b   6.87642344
_cell_length_c   13.00293609
_cell_angle_alpha   89.97855826
_cell_angle_beta   89.98334819
_cell_angle_gamma   90.05798999
_symmetry_Int_Tables_number   1
_chemical_formula_structural   Yb8CrSi16W11
_chemical_formula_sum   'Yb8 Cr1 Si16 W11'
_cell_volume   600.24495704
_cell_formula_units_Z   1
loop_
 _symmetry_equiv_pos_site_id
 _symmetry_equiv_pos_as_xyz
  1  'x, y, z'
loop_
 _atom_site_type_symbol
 _atom_site_label
 _atom_site_symmetry_multiplicity
 _atom_site_fract_x
 _atom_site_fract_y
 _atom_site_fract_z
 _atom_site_occupancy
  Yb  Yb0  1  0.999008  0.166515  0.089755  1
  Yb  Yb1  1  0.000883  0.832548  0.911145  1
  Yb  Yb2  1  0.503356  0.667102  0.910162  1
  Yb  Yb3  1  0.001260  0.833197  0.589909  1
  Yb  Yb4  1  0.499141  0.333113  0.090102  1
  Yb  Yb5  1  0.999670  0.166773  0.408306  1
  Yb  Yb6  1  0.497728  0.334010  0.408434  1
  Yb  Yb7  1  0.501188  0.667171  0.590368  1
  Cr  Cr8  1  0.162454  0.665406  0.128884  1
  Si  Si9  1  0.034948  0.119636  0.750492  1
  Si  Si10  1  0.968159  0.875828  0.246128  1
  Si  Si11  1  0.459726  0.622726  0.247224  1
  Si  Si12  1  0.535425  0.379829  0.750737  1
  Si  Si13  1  0.298929  0.863198  0.750537  1
  Si  Si14  1  0.701660  0.135928  0.249733  1
  Si  Si15  1  0.198660  0.368172  0.247728  1
  Si  Si16  1  0.799626  0.637298  0.750160  1
  Si  Si17  1  0.160511  0.456948  0.544326  1
  Si  Si18  1  0.838398  0.542460  0.455361  1
  Si  Si19  1  0.339754  0.957386  0.455210  1
  Si  Si20  1  0.845718  0.543933  0.047550  1
  Si  Si21  1  0.661031  0.043125  0.543861  1
  Si  Si22  1  0.161195  0.459124  0.957609  1
  Si  Si23  1  0.659483  0.043466  0.955944  1
  Si  Si24  1  0.337018  0.950119  0.047568  1
  W  W25  1  0.159674  0.488379  0.750666  1
  W  W26  1  0.839753  0.512227  0.249930  1
  W  W27  1  0.339823  0.987781  0.249792  1
  W  W28  1  0.659441  0.011851  0.750185  1
  W  W29  1  0.336594  0.167763  0.628079  1
  W  W30  1  0.663951  0.831543  0.371368  1
  W  W31  1  0.162878  0.668766  0.370861  1
  W  W32  1  0.664693  0.833391  0.127731  1
  W  W33  1  0.836151  0.332810  0.627870  1
  W  W34  1  0.334648  0.167398  0.873529  1
  W  W35  1  0.837464  0.333077  0.872757  1
