# generated using pymatgen
data_DyHo6TmAl3Si8Ge
_symmetry_space_group_name_H-M   'P 1'
_cell_length_a   5.57186261
_cell_length_b   5.57186111
_cell_length_c   19.43489474
_cell_angle_alpha   82.13708171
_cell_angle_beta   82.13708320
_cell_angle_gamma   42.54008407
_symmetry_Int_Tables_number   1
_chemical_formula_structural   DyHo6TmAl3Si8Ge
_chemical_formula_sum   'Dy1 Ho6 Tm1 Al3 Si8 Ge1'
_cell_volume   403.52142254
_cell_formula_units_Z   1
loop_
 _symmetry_equiv_pos_site_id
 _symmetry_equiv_pos_as_xyz
  1  'x, y, z'
loop_
 _atom_site_type_symbol
 _atom_site_label
 _atom_site_symmetry_multiplicity
 _atom_site_fract_x
 _atom_site_fract_y
 _atom_site_fract_z
 _atom_site_occupancy
  Dy  Dy0  1  0.702978  0.702978  0.928558  1
  Ho  Ho1  1  0.974186  0.974186  0.179277  1
  Ho  Ho2  1  0.217011  0.217011  0.428192  1
  Ho  Ho3  1  0.783010  0.783010  0.572197  1
  Ho  Ho4  1  0.025922  0.025922  0.820557  1
  Ho  Ho5  1  0.297159  0.297159  0.071343  1
  Ho  Ho6  1  0.537675  0.537675  0.323604  1
  Tm  Tm7  1  0.462292  0.462292  0.676255  1
  Al  Al8  1  0.255203  0.255203  0.252453  1
  Al  Al9  1  0.499862  0.499862  0.500106  1
  Al  Al10  1  0.745137  0.745137  0.747425  1
  Si  Si11  1  0.172007  0.172007  0.676307  1
  Si  Si12  1  0.415508  0.415508  0.922907  1
  Si  Si13  1  0.687707  0.687707  0.180182  1
  Si  Si14  1  0.928402  0.928402  0.427993  1
  Si  Si15  1  0.071236  0.071236  0.572378  1
  Si  Si16  1  0.312787  0.312787  0.819425  1
  Si  Si17  1  0.584526  0.584526  0.077056  1
  Si  Si18  1  0.827750  0.827750  0.323839  1
  Ge  Ge19  1  0.999643  0.999643  0.999946  1
