# generated using pymatgen
data_Er3Tm5(IrO6)4
_symmetry_space_group_name_H-M   'P 1'
_cell_length_a   5.23526804
_cell_length_b   9.08580901
_cell_length_c   9.78602607
_cell_angle_alpha   89.99944702
_cell_angle_beta   90.01359385
_cell_angle_gamma   90.00557809
_symmetry_Int_Tables_number   1
_chemical_formula_structural   Er3Tm5(IrO6)4
_chemical_formula_sum   'Er3 Tm5 Ir4 O24'
_cell_volume   465.48841813
_cell_formula_units_Z   1
loop_
 _symmetry_equiv_pos_site_id
 _symmetry_equiv_pos_as_xyz
  1  'x, y, z'
loop_
 _atom_site_type_symbol
 _atom_site_label
 _atom_site_symmetry_multiplicity
 _atom_site_fract_x
 _atom_site_fract_y
 _atom_site_fract_z
 _atom_site_occupancy
  Er  Er0  1  0.543007  0.219162  0.371124  1
  Er  Er1  1  0.956964  0.781045  0.871283  1
  Er  Er2  1  0.982498  0.898651  0.466816  1
  Tm  Tm3  1  0.017505  0.399091  0.032999  1
  Tm  Tm4  1  0.043022  0.281356  0.628992  1
  Tm  Tm5  1  0.457151  0.718668  0.128846  1
  Tm  Tm6  1  0.482623  0.600535  0.533120  1
  Tm  Tm7  1  0.517272  0.101024  0.966836  1
  Ir  Ir8  1  0.042212  0.004035  0.148482  1
  Ir  Ir9  1  0.457780  0.996252  0.649018  1
  Ir  Ir10  1  0.542051  0.495519  0.851107  1
  Ir  Ir11  1  0.958034  0.504264  0.350982  1
  O  O12  1  0.086184  0.656881  0.473517  1
  O  O13  1  0.166228  0.554354  0.198106  1
  O  O14  1  0.190264  0.855275  0.265126  1
  O  O15  1  0.167913  0.865302  0.682820  1
  O  O16  1  0.237719  0.384956  0.430517  1
  O  O17  1  0.251519  0.090478  0.501443  1
  O  O18  1  0.249286  0.910383  0.000973  1
  O  O19  1  0.262327  0.614872  0.930636  1
  O  O20  1  0.332619  0.134715  0.181804  1
  O  O21  1  0.310338  0.144714  0.766054  1
  O  O22  1  0.333787  0.445573  0.698133  1
  O  O23  1  0.414258  0.342160  0.973265  1
  O  O24  1  0.583486  0.842258  0.526838  1
  O  O25  1  0.665304  0.946242  0.801927  1
  O  O26  1  0.688303  0.644014  0.733621  1
  O  O27  1  0.666897  0.634913  0.317501  1
  O  O28  1  0.739012  0.115586  0.570415  1
  O  O29  1  0.752370  0.410694  0.499422  1
  O  O30  1  0.747765  0.589170  0.999480  1
  O  O31  1  0.760862  0.884615  0.070255  1
  O  O32  1  0.833279  0.365210  0.817442  1
  O  O33  1  0.811624  0.355961  0.233470  1
  O  O34  1  0.834457  0.054438  0.301118  1
  O  O35  1  0.914083  0.157631  0.026514  1
