# generated using pymatgen
data_Dy7Ho9(LuGa3)4
_symmetry_space_group_name_H-M   'P 1'
_cell_length_a   7.56102905
_cell_length_b   7.56060005
_cell_length_c   14.10420602
_cell_angle_alpha   90.00501500
_cell_angle_beta   89.99702009
_cell_angle_gamma   90.01262500
_symmetry_Int_Tables_number   1
_chemical_formula_structural   Dy7Ho9(LuGa3)4
_chemical_formula_sum   'Dy7 Ho9 Lu4 Ga12'
_cell_volume   806.27984156
_cell_formula_units_Z   1
loop_
 _symmetry_equiv_pos_site_id
 _symmetry_equiv_pos_as_xyz
  1  'x, y, z'
loop_
 _atom_site_type_symbol
 _atom_site_label
 _atom_site_symmetry_multiplicity
 _atom_site_fract_x
 _atom_site_fract_y
 _atom_site_fract_z
 _atom_site_occupancy
  Dy  Dy0  1  0.676400  0.662337  0.602822  1
  Dy  Dy1  1  0.676394  0.337671  0.102778  1
  Dy  Dy2  1  0.823608  0.837672  0.397192  1
  Dy  Dy3  1  0.176346  0.837670  0.897248  1
  Dy  Dy4  1  0.323649  0.337682  0.602800  1
  Dy  Dy5  1  0.323616  0.662361  0.102760  1
  Dy  Dy6  1  0.176369  0.162324  0.397194  1
  Ho  Ho7  1  0.823672  0.162233  0.897104  1
  Ho  Ho8  1  0.662285  0.323754  0.397050  1
  Ho  Ho9  1  0.337742  0.323711  0.897076  1
  Ho  Ho10  1  0.162276  0.823758  0.602940  1
  Ho  Ho11  1  0.837763  0.823848  0.102904  1
  Ho  Ho12  1  0.337690  0.676264  0.397066  1
  Ho  Ho13  1  0.662291  0.676292  0.897093  1
  Ho  Ho14  1  0.837698  0.176217  0.602956  1
  Ho  Ho15  1  0.162167  0.176194  0.102894  1
  Lu  Lu16  1  0.999970  0.499946  0.762378  1
  Lu  Lu17  1  0.999975  0.500009  0.262299  1
  Lu  Lu18  1  0.499978  0.999976  0.237655  1
  Lu  Lu19  1  0.500064  0.000015  0.737717  1
  Ga  Ga20  1  0.999983  0.500033  0.495280  1
  Ga  Ga21  1  0.999919  0.499896  0.995262  1
  Ga  Ga22  1  0.500006  0.000020  0.504706  1
  Ga  Ga23  1  0.500132  0.000111  0.004680  1
  Ga  Ga24  1  0.876106  0.876234  0.749986  1
  Ga  Ga25  1  0.876123  0.123859  0.249912  1
  Ga  Ga26  1  0.623892  0.623840  0.250070  1
  Ga  Ga27  1  0.376152  0.623882  0.750107  1
  Ga  Ga28  1  0.123736  0.123894  0.749995  1
  Ga  Ga29  1  0.123902  0.876105  0.249896  1
  Ga  Ga30  1  0.376164  0.376150  0.250060  1
  Ga  Ga31  1  0.623932  0.376042  0.750119  1
