# generated using pymatgen
data_InBi2Ir4PbO14
_symmetry_space_group_name_H-M   'P 1'
_cell_length_a   7.28680798
_cell_length_b   7.28680911
_cell_length_c   7.26388145
_cell_angle_alpha   60.65528092
_cell_angle_beta   60.65527415
_cell_angle_gamma   60.84805038
_symmetry_Int_Tables_number   1
_chemical_formula_structural   InBi2Ir4PbO14
_chemical_formula_sum   'In1 Bi2 Ir4 Pb1 O14'
_cell_volume   277.15368461
_cell_formula_units_Z   1
loop_
 _symmetry_equiv_pos_site_id
 _symmetry_equiv_pos_as_xyz
  1  'x, y, z'
loop_
 _atom_site_type_symbol
 _atom_site_label
 _atom_site_symmetry_multiplicity
 _atom_site_fract_x
 _atom_site_fract_y
 _atom_site_fract_z
 _atom_site_occupancy
  In  In0  1  0.125000  0.125000  0.125000  1
  Bi  Bi1  1  0.625000  0.125000  0.125000  1
  Bi  Bi2  1  0.125000  0.625000  0.125000  1
  Ir  Ir3  1  0.125000  0.625000  0.625000  1
  Ir  Ir4  1  0.625000  0.125000  0.625000  1
  Ir  Ir5  1  0.625000  0.625000  0.125000  1
  Ir  Ir6  1  0.625000  0.625000  0.625000  1
  Pb  Pb7  1  0.125000  0.125000  0.625000  1
  O  O8  1  0.706379  0.706379  0.293305  1
  O  O9  1  0.292576  0.292576  0.715695  1
  O  O10  1  0.703897  0.294784  0.706888  1
  O  O11  1  0.293414  0.713565  0.292157  1
  O  O12  1  0.294784  0.703897  0.706888  1
  O  O13  1  0.713565  0.293414  0.292157  1
  O  O14  1  0.543621  0.543621  0.956695  1
  O  O15  1  0.957424  0.957424  0.534305  1
  O  O16  1  0.546103  0.955216  0.543112  1
  O  O17  1  0.956586  0.536435  0.957843  1
  O  O18  1  0.955216  0.546103  0.543112  1
  O  O19  1  0.536435  0.956586  0.957843  1
  O  O20  1  0.247475  0.247475  0.235265  1
  O  O21  1  0.002525  0.002525  0.014735  1
