# generated using pymatgen
data_Y12InCo4Ag
_symmetry_space_group_name_H-M   'P 1'
_cell_length_a   8.39308165
_cell_length_b   8.39389112
_cell_length_c   8.39308125
_cell_angle_alpha   111.17390542
_cell_angle_beta   110.48618307
_cell_angle_gamma   106.78348842
_symmetry_Int_Tables_number   1
_chemical_formula_structural   Y12InCo4Ag
_chemical_formula_sum   'Y12 In1 Co4 Ag1'
_cell_volume   454.43930162
_cell_formula_units_Z   1
loop_
 _symmetry_equiv_pos_site_id
 _symmetry_equiv_pos_as_xyz
  1  'x, y, z'
loop_
 _atom_site_type_symbol
 _atom_site_label
 _atom_site_symmetry_multiplicity
 _atom_site_fract_x
 _atom_site_fract_y
 _atom_site_fract_z
 _atom_site_occupancy
  Y  Y0  1  0.427132  0.221871  0.205148  1
  Y  Y1  1  0.573681  0.778673  0.795893  1
  Y  Y2  1  0.016722  0.221871  0.794739  1
  Y  Y3  1  0.982780  0.778673  0.204992  1
  Y  Y4  1  0.187018  0.292223  0.479585  1
  Y  Y5  1  0.812350  0.708362  0.520340  1
  Y  Y6  1  0.188022  0.708362  0.896012  1
  Y  Y7  1  0.812636  0.292223  0.105204  1
  Y  Y8  1  0.314058  0.617630  0.303572  1
  Y  Y9  1  0.685443  0.382430  0.696987  1
  Y  Y10  1  0.314739  0.010977  0.696239  1
  Y  Y11  1  0.685350  0.988920  0.303570  1
  In  In12  1  0.499949  0.499978  0.000029  1
  Co  Co13  1  0.381458  0.998992  0.380086  1
  Co  Co14  1  0.618905  0.998992  0.617534  1
  Co  Co15  1  0.110309  0.610908  0.500599  1
  Co  Co16  1  0.888802  0.388850  0.500049  1
  Ag  Ag17  1  0.000646  0.000069  0.999423  1
