# generated using pymatgen
data_SrCr2(Sb6Os)2
_symmetry_space_group_name_H-M   'P 1'
_cell_length_a   8.20855315
_cell_length_b   8.24211065
_cell_length_c   8.20855265
_cell_angle_alpha   109.40436291
_cell_angle_beta   109.55074653
_cell_angle_gamma   109.29405160
_symmetry_Int_Tables_number   1
_chemical_formula_structural   SrCr2(Sb6Os)2
_chemical_formula_sum   'Sr1 Cr2 Sb12 Os2'
_cell_volume   428.37751908
_cell_formula_units_Z   1
loop_
 _symmetry_equiv_pos_site_id
 _symmetry_equiv_pos_as_xyz
  1  'x, y, z'
loop_
 _atom_site_type_symbol
 _atom_site_label
 _atom_site_symmetry_multiplicity
 _atom_site_fract_x
 _atom_site_fract_y
 _atom_site_fract_z
 _atom_site_occupancy
  Sr  Sr0  1  0.000000  0.000000  0.000000  1
  Cr  Cr1  1  0.500000  0.000000  0.000000  1
  Cr  Cr2  1  0.000000  0.000000  0.500000  1
  Sb  Sb3  1  0.157554  0.495883  0.338329  1
  Sb  Sb4  1  0.501850  0.654269  0.840536  1
  Sb  Sb5  1  0.337863  0.839882  0.186062  1
  Sb  Sb6  1  0.813732  0.654269  0.152419  1
  Sb  Sb7  1  0.653822  0.839882  0.502020  1
  Sb  Sb8  1  0.186268  0.345731  0.847581  1
  Sb  Sb9  1  0.662137  0.160118  0.813938  1
  Sb  Sb10  1  0.346178  0.160118  0.497980  1
  Sb  Sb11  1  0.498150  0.345731  0.159464  1
  Sb  Sb12  1  0.842446  0.504117  0.661671  1
  Sb  Sb13  1  0.846173  0.191708  0.345534  1
  Sb  Sb14  1  0.153827  0.808292  0.654466  1
  Os  Os15  1  0.500000  0.500000  0.500000  1
  Os  Os16  1  0.000000  0.500000  0.000000  1
