# generated using pymatgen
data_Yb2Ho3Er(Si3Ru)8
_symmetry_space_group_name_H-M   'P 1'
_cell_length_a   10.13082804
_cell_length_b   10.13082978
_cell_length_c   8.13796402
_cell_angle_alpha   90.00135131
_cell_angle_beta   90.00135166
_cell_angle_gamma   132.67177579
_symmetry_Int_Tables_number   1
_chemical_formula_structural   Yb2Ho3Er(Si3Ru)8
_chemical_formula_sum   'Yb2 Ho3 Er1 Si24 Ru8'
_cell_volume   614.10115710
_cell_formula_units_Z   1
loop_
 _symmetry_equiv_pos_site_id
 _symmetry_equiv_pos_as_xyz
  1  'x, y, z'
loop_
 _atom_site_type_symbol
 _atom_site_label
 _atom_site_symmetry_multiplicity
 _atom_site_fract_x
 _atom_site_fract_y
 _atom_site_fract_z
 _atom_site_occupancy
  Yb  Yb0  1  0.501216  0.001148  0.749913  1
  Yb  Yb1  1  0.998852  0.498784  0.250087  1
  Ho  Ho2  1  0.000079  0.999921  0.000000  1
  Ho  Ho3  1  0.496843  0.996892  0.250057  1
  Ho  Ho4  1  0.003108  0.503157  0.749943  1
  Er  Er5  1  0.499942  0.500058  0.500000  1
  Si  Si6  1  0.794632  0.205368  0.500000  1
  Si  Si7  1  0.294338  0.705662  0.000000  1
  Si  Si8  1  0.205642  0.794358  0.500000  1
  Si  Si9  1  0.705404  0.294596  0.000000  1
  Si  Si10  1  0.330245  0.336321  0.832831  1
  Si  Si11  1  0.663679  0.669755  0.167169  1
  Si  Si12  1  0.169780  0.163809  0.332845  1
  Si  Si13  1  0.836191  0.830220  0.667155  1
  Si  Si14  1  0.122087  0.887865  0.727944  1
  Si  Si15  1  0.112135  0.877913  0.272056  1
  Si  Si16  1  0.609771  0.376028  0.228237  1
  Si  Si17  1  0.623972  0.390229  0.771763  1
  Si  Si18  1  0.876103  0.109809  0.271711  1
  Si  Si19  1  0.890191  0.123897  0.728289  1
  Si  Si20  1  0.388052  0.622327  0.772087  1
  Si  Si21  1  0.377673  0.611948  0.227913  1
  Si  Si22  1  0.344729  0.111254  0.504068  1
  Si  Si23  1  0.888746  0.655271  0.495932  1
  Si  Si24  1  0.388643  0.154966  0.006058  1
  Si  Si25  1  0.845034  0.611357  0.993942  1
  Si  Si26  1  0.654820  0.888254  0.493594  1
  Si  Si27  1  0.111746  0.345180  0.506406  1
  Si  Si28  1  0.610899  0.844587  0.996407  1
  Si  Si29  1  0.155413  0.389101  0.003593  1
  Ru  Ru30  1  0.669909  0.330091  0.500000  1
  Ru  Ru31  1  0.169116  0.830884  0.000000  1
  Ru  Ru32  1  0.330934  0.669066  0.500000  1
  Ru  Ru33  1  0.830057  0.169943  0.000000  1
  Ru  Ru34  1  0.126396  0.127428  0.626194  1
  Ru  Ru35  1  0.872572  0.873604  0.373806  1
  Ru  Ru36  1  0.373763  0.372709  0.126309  1
  Ru  Ru37  1  0.627291  0.626237  0.873691  1
