# generated using pymatgen
data_YbAgH9W
_symmetry_space_group_name_H-M   'P 1'
_cell_length_a   8.45019500
_cell_length_b   8.45019342
_cell_length_c   4.91066300
_cell_angle_alpha   90.00000000
_cell_angle_beta   90.00000000
_cell_angle_gamma   120.00000227
_symmetry_Int_Tables_number   1
_chemical_formula_structural   YbAgH9W
_chemical_formula_sum   'Yb3 Ag3 H27 W3'
_cell_volume   303.67156924
_cell_formula_units_Z   3
loop_
 _symmetry_equiv_pos_site_id
 _symmetry_equiv_pos_as_xyz
  1  'x, y, z'
loop_
 _atom_site_type_symbol
 _atom_site_label
 _atom_site_symmetry_multiplicity
 _atom_site_fract_x
 _atom_site_fract_y
 _atom_site_fract_z
 _atom_site_occupancy
  Yb  Yb0  1  0.000000  0.610058  0.000000  1
  Yb  Yb1  1  0.389942  0.389942  0.000000  1
  Yb  Yb2  1  0.610058  0.000000  0.000000  1
  Ag  Ag3  1  0.000000  0.262181  0.500000  1
  Ag  Ag4  1  0.737819  0.737819  0.500000  1
  Ag  Ag5  1  0.262181  0.000000  0.500000  1
  H  H6  1  0.812252  0.332353  0.762390  1
  H  H7  1  0.667647  0.479897  0.762390  1
  H  H8  1  0.520103  0.187748  0.762390  1
  H  H9  1  0.187748  0.520103  0.237610  1
  H  H10  1  0.520103  0.187748  0.237610  1
  H  H11  1  0.812252  0.332353  0.237610  1
  H  H12  1  0.667647  0.479897  0.237610  1
  H  H13  1  0.332353  0.812252  0.762390  1
  H  H14  1  0.479897  0.667647  0.762390  1
  H  H15  1  0.207154  0.000000  0.000000  1
  H  H16  1  0.792846  0.792846  0.000000  1
  H  H17  1  0.000000  0.207154  0.000000  1
  H  H18  1  0.850087  0.000000  0.256147  1
  H  H19  1  0.149913  0.149913  0.743853  1
  H  H20  1  0.000000  0.850087  0.743853  1
  H  H21  1  0.000000  0.850087  0.256147  1
  H  H22  1  0.149913  0.149913  0.256147  1
  H  H23  1  0.850087  0.000000  0.743853  1
  H  H24  1  0.127081  0.665190  0.500000  1
  H  H25  1  0.538109  0.872919  0.500000  1
  H  H26  1  0.334810  0.461891  0.500000  1
  H  H27  1  0.461891  0.334810  0.500000  1
  H  H28  1  0.872919  0.538109  0.500000  1
  H  H29  1  0.665190  0.127081  0.500000  1
  H  H30  1  0.187748  0.520103  0.762390  1
  H  H31  1  0.332353  0.812252  0.237610  1
  H  H32  1  0.479897  0.667647  0.237610  1
  W  W33  1  0.666667  0.333333  0.500000  1
  W  W34  1  0.333333  0.666667  0.500000  1
  W  W35  1  0.000000  0.000000  0.000000  1
