# generated using pymatgen
data_Li12CuSi4
_symmetry_space_group_name_H-M   'P 1'
_cell_length_a   4.39104700
_cell_length_b   7.90993700
_cell_length_c   14.66981900
_cell_angle_alpha   90.00000000
_cell_angle_beta   90.00000000
_cell_angle_gamma   90.00000000
_symmetry_Int_Tables_number   1
_chemical_formula_structural   Li12CuSi4
_chemical_formula_sum   'Li24 Cu2 Si8'
_cell_volume   509.52543166
_cell_formula_units_Z   2
loop_
 _symmetry_equiv_pos_site_id
 _symmetry_equiv_pos_as_xyz
  1  'x, y, z'
loop_
 _atom_site_type_symbol
 _atom_site_label
 _atom_site_symmetry_multiplicity
 _atom_site_fract_x
 _atom_site_fract_y
 _atom_site_fract_z
 _atom_site_occupancy
  Li  Li0  1  0.000000  0.766207  0.150850  1
  Li  Li1  1  0.000000  0.343272  0.521478  1
  Li  Li2  1  0.000000  0.156728  0.021478  1
  Li  Li3  1  0.500000  0.765081  0.412958  1
  Li  Li4  1  0.000000  0.233793  0.849150  1
  Li  Li5  1  0.000000  0.405981  0.691746  1
  Li  Li6  1  0.000000  0.905981  0.808254  1
  Li  Li7  1  0.500000  0.591759  0.748904  1
  Li  Li8  1  0.500000  0.901389  0.594870  1
  Li  Li9  1  0.000000  0.733793  0.650850  1
  Li  Li10  1  0.500000  0.234919  0.587042  1
  Li  Li11  1  0.500000  0.265081  0.087042  1
  Li  Li12  1  0.500000  0.098611  0.405130  1
  Li  Li13  1  0.500000  0.734919  0.912958  1
  Li  Li14  1  0.500000  0.091759  0.751096  1
  Li  Li15  1  0.000000  0.266207  0.349150  1
  Li  Li16  1  0.500000  0.408241  0.251096  1
  Li  Li17  1  0.000000  0.094019  0.191746  1
  Li  Li18  1  0.500000  0.401389  0.905130  1
  Li  Li19  1  0.000000  0.656728  0.478522  1
  Li  Li20  1  0.000000  0.843272  0.978522  1
  Li  Li21  1  0.500000  0.908241  0.248904  1
  Li  Li22  1  0.500000  0.598611  0.094870  1
  Li  Li23  1  0.000000  0.594019  0.308254  1
  Cu  Cu24  1  0.000000  0.000000  0.500000  1
  Cu  Cu25  1  0.000000  0.500000  0.000000  1
  Si  Si26  1  0.500000  0.934311  0.072891  1
  Si  Si27  1  0.000000  0.578427  0.846717  1
  Si  Si28  1  0.000000  0.421573  0.153283  1
  Si  Si29  1  0.500000  0.565689  0.572891  1
  Si  Si30  1  0.000000  0.078427  0.653283  1
  Si  Si31  1  0.500000  0.434311  0.427109  1
  Si  Si32  1  0.500000  0.065689  0.927109  1
  Si  Si33  1  0.000000  0.921573  0.346717  1
