# generated using pymatgen
data_Tb20OsPt11
_symmetry_space_group_name_H-M   'P 1'
_cell_length_a   11.11156800
_cell_length_b   11.11156800
_cell_length_c   6.45772000
_cell_angle_alpha   90.00000000
_cell_angle_beta   90.00000000
_cell_angle_gamma   90.00000000
_symmetry_Int_Tables_number   1
_chemical_formula_structural   Tb20OsPt11
_chemical_formula_sum   'Tb20 Os1 Pt11'
_cell_volume   797.31494985
_cell_formula_units_Z   1
loop_
 _symmetry_equiv_pos_site_id
 _symmetry_equiv_pos_as_xyz
  1  'x, y, z'
loop_
 _atom_site_type_symbol
 _atom_site_label
 _atom_site_symmetry_multiplicity
 _atom_site_fract_x
 _atom_site_fract_y
 _atom_site_fract_z
 _atom_site_occupancy
  Tb  Tb0  1  0.294044  0.088519  0.371334  1
  Tb  Tb1  1  0.295045  0.911131  0.881389  1
  Tb  Tb2  1  0.704955  0.088869  0.881389  1
  Tb  Tb3  1  0.705956  0.911481  0.371334  1
  Tb  Tb4  1  0.588869  0.795045  0.881389  1
  Tb  Tb5  1  0.588519  0.205956  0.371334  1
  Tb  Tb6  1  0.411481  0.794044  0.371334  1
  Tb  Tb7  1  0.411131  0.204955  0.881389  1
  Tb  Tb8  1  0.207070  0.410788  0.623332  1
  Tb  Tb9  1  0.206788  0.588678  0.122751  1
  Tb  Tb10  1  0.793212  0.411322  0.122751  1
  Tb  Tb11  1  0.792930  0.589212  0.623332  1
  Tb  Tb12  1  0.911322  0.706788  0.122751  1
  Tb  Tb13  1  0.910788  0.292930  0.623332  1
  Tb  Tb14  1  0.089212  0.707070  0.623332  1
  Tb  Tb15  1  0.088678  0.293212  0.122751  1
  Tb  Tb16  1  0.000000  0.000000  0.499243  1
  Tb  Tb17  1  0.000000  0.000000  0.998936  1
  Tb  Tb18  1  0.500000  0.500000  0.998936  1
  Tb  Tb19  1  0.500000  0.500000  0.499243  1
  Os  Os20  1  0.500000  0.000000  0.123607  1
  Pt  Pt21  1  0.847649  0.154546  0.249952  1
  Pt  Pt22  1  0.846935  0.846203  0.749588  1
  Pt  Pt23  1  0.153065  0.153797  0.749588  1
  Pt  Pt24  1  0.152351  0.845454  0.249952  1
  Pt  Pt25  1  0.653797  0.346935  0.749588  1
  Pt  Pt26  1  0.654546  0.652351  0.249952  1
  Pt  Pt27  1  0.345454  0.347649  0.249952  1
  Pt  Pt28  1  0.346203  0.653065  0.749588  1
  Pt  Pt29  1  0.500000  0.000000  0.621371  1
  Pt  Pt30  1  0.000000  0.500000  0.882366  1
  Pt  Pt31  1  0.000000  0.500000  0.382900  1
