# generated using pymatgen
data_EuInSn3Rh2
_symmetry_space_group_name_H-M   'P 1'
_cell_length_a   4.55295000
_cell_length_b   7.17123400
_cell_length_c   18.92746000
_cell_angle_alpha   90.00000000
_cell_angle_beta   90.00000000
_cell_angle_gamma   90.00000000
_symmetry_Int_Tables_number   1
_chemical_formula_structural   EuInSn3Rh2
_chemical_formula_sum   'Eu4 In4 Sn12 Rh8'
_cell_volume   617.98667639
_cell_formula_units_Z   4
loop_
 _symmetry_equiv_pos_site_id
 _symmetry_equiv_pos_as_xyz
  1  'x, y, z'
loop_
 _atom_site_type_symbol
 _atom_site_label
 _atom_site_symmetry_multiplicity
 _atom_site_fract_x
 _atom_site_fract_y
 _atom_site_fract_z
 _atom_site_occupancy
  Eu  Eu0  1  0.250000  0.999431  0.859509  1
  Eu  Eu1  1  0.250000  0.500569  0.359509  1
  Eu  Eu2  1  0.750000  0.000569  0.140491  1
  Eu  Eu3  1  0.750000  0.499431  0.640491  1
  In  In4  1  0.250000  0.305722  0.179590  1
  In  In5  1  0.250000  0.194278  0.679590  1
  In  In6  1  0.750000  0.694278  0.820410  1
  In  In7  1  0.750000  0.805722  0.320410  1
  Sn  Sn8  1  0.250000  0.727683  0.198627  1
  Sn  Sn9  1  0.250000  0.772317  0.698627  1
  Sn  Sn10  1  0.750000  0.272317  0.801373  1
  Sn  Sn11  1  0.750000  0.227683  0.301373  1
  Sn  Sn12  1  0.250000  0.862344  0.034214  1
  Sn  Sn13  1  0.250000  0.637656  0.534214  1
  Sn  Sn14  1  0.750000  0.137656  0.965786  1
  Sn  Sn15  1  0.750000  0.362344  0.465786  1
  Sn  Sn16  1  0.250000  0.519170  0.926794  1
  Sn  Sn17  1  0.250000  0.980830  0.426794  1
  Sn  Sn18  1  0.750000  0.480830  0.073206  1
  Sn  Sn19  1  0.750000  0.019170  0.573206  1
  Rh  Rh20  1  0.250000  0.256331  0.031798  1
  Rh  Rh21  1  0.250000  0.243669  0.531798  1
  Rh  Rh22  1  0.750000  0.743669  0.968202  1
  Rh  Rh23  1  0.750000  0.756331  0.468202  1
  Rh  Rh24  1  0.250000  0.027442  0.284553  1
  Rh  Rh25  1  0.250000  0.472558  0.784553  1
  Rh  Rh26  1  0.750000  0.972558  0.715447  1
  Rh  Rh27  1  0.750000  0.527442  0.215447  1
