# generated using pymatgen
data_Tb7Mg3(Pb3C)2
_symmetry_space_group_name_H-M   'P 1'
_cell_length_a   9.05571900
_cell_length_b   9.05571951
_cell_length_c   6.35807800
_cell_angle_alpha   90.00000000
_cell_angle_beta   90.00000000
_cell_angle_gamma   120.00000180
_symmetry_Int_Tables_number   1
_chemical_formula_structural   Tb7Mg3(Pb3C)2
_chemical_formula_sum   'Tb7 Mg3 Pb6 C2'
_cell_volume   451.54639076
_cell_formula_units_Z   1
loop_
 _symmetry_equiv_pos_site_id
 _symmetry_equiv_pos_as_xyz
  1  'x, y, z'
loop_
 _atom_site_type_symbol
 _atom_site_label
 _atom_site_symmetry_multiplicity
 _atom_site_fract_x
 _atom_site_fract_y
 _atom_site_fract_z
 _atom_site_occupancy
  Tb  Tb0  1  0.214278  0.001394  0.251903  1
  Tb  Tb1  1  0.787116  0.001394  0.748097  1
  Tb  Tb2  1  0.998606  0.212884  0.251903  1
  Tb  Tb3  1  0.998606  0.785722  0.748097  1
  Tb  Tb4  1  0.787116  0.785722  0.251903  1
  Tb  Tb5  1  0.214278  0.212884  0.748097  1
  Tb  Tb6  1  0.333333  0.666667  0.500000  1
  Mg  Mg7  1  0.333333  0.666667  0.000000  1
  Mg  Mg8  1  0.666667  0.333333  0.000000  1
  Mg  Mg9  1  0.666667  0.333333  0.500000  1
  Pb  Pb10  1  0.591151  0.002888  0.254870  1
  Pb  Pb11  1  0.411736  0.002888  0.745130  1
  Pb  Pb12  1  0.997112  0.588264  0.254870  1
  Pb  Pb13  1  0.997112  0.408849  0.745130  1
  Pb  Pb14  1  0.411736  0.408849  0.254870  1
  Pb  Pb15  1  0.591151  0.588264  0.745130  1
  C  C16  1  0.000000  0.000000  0.000000  1
  C  C17  1  0.000000  0.000000  0.500000  1
