# generated using pymatgen
data_Dy2Lu2TcOs7
_symmetry_space_group_name_H-M   'P 1'
_cell_length_a   5.37113400
_cell_length_b   5.24057907
_cell_length_c   8.89953204
_cell_angle_alpha   90.00952596
_cell_angle_beta   90.00000000
_cell_angle_gamma   120.82755921
_symmetry_Int_Tables_number   1
_chemical_formula_structural   Dy2Lu2TcOs7
_chemical_formula_sum   'Dy2 Lu2 Tc1 Os7'
_cell_volume   215.11005997
_cell_formula_units_Z   1
loop_
 _symmetry_equiv_pos_site_id
 _symmetry_equiv_pos_as_xyz
  1  'x, y, z'
loop_
 _atom_site_type_symbol
 _atom_site_label
 _atom_site_symmetry_multiplicity
 _atom_site_fract_x
 _atom_site_fract_y
 _atom_site_fract_z
 _atom_site_occupancy
  Dy  Dy0  1  0.333646  0.667294  0.434725  1
  Dy  Dy1  1  0.668411  0.336822  0.564836  1
  Lu  Lu2  1  0.668866  0.337731  0.936046  1
  Lu  Lu3  1  0.333428  0.666856  0.064396  1
  Tc  Tc4  1  0.167517  0.335036  0.752480  1
  Os  Os5  1  0.171995  0.825051  0.752696  1
  Os  Os6  1  0.340777  0.168747  0.247450  1
  Os  Os7  1  0.826470  0.652939  0.247318  1
  Os  Os8  1  0.653056  0.825051  0.752696  1
  Os  Os9  1  0.004062  0.008124  0.000649  1
  Os  Os10  1  0.827972  0.168747  0.247450  1
  Os  Os11  1  0.003801  0.007603  0.499258  1
