# generated using pymatgen
data_Sm3Dy(Tm3Sn4)2
_symmetry_space_group_name_H-M   'P 1'
_cell_length_a   8.02374800
_cell_length_b   8.16104514
_cell_length_c   15.40706427
_cell_angle_alpha   89.97874033
_cell_angle_beta   90.00000000
_cell_angle_gamma   90.00000000
_symmetry_Int_Tables_number   1
_chemical_formula_structural   Sm3Dy(Tm3Sn4)2
_chemical_formula_sum   'Sm6 Dy2 Tm12 Sn16'
_cell_volume   1008.88792616
_cell_formula_units_Z   2
loop_
 _symmetry_equiv_pos_site_id
 _symmetry_equiv_pos_as_xyz
  1  'x, y, z'
loop_
 _atom_site_type_symbol
 _atom_site_label
 _atom_site_symmetry_multiplicity
 _atom_site_fract_x
 _atom_site_fract_y
 _atom_site_fract_z
 _atom_site_occupancy
  Sm  Sm0  1  0.519020  0.320582  0.903388  1
  Sm  Sm1  1  0.019020  0.179418  0.596612  1
  Sm  Sm2  1  0.480291  0.678586  0.403437  1
  Sm  Sm3  1  0.980291  0.821414  0.096563  1
  Sm  Sm4  1  0.480426  0.679056  0.096601  1
  Sm  Sm5  1  0.980426  0.820944  0.403399  1
  Dy  Dy6  1  0.520959  0.320928  0.597784  1
  Dy  Dy7  1  0.020959  0.179072  0.902216  1
  Tm  Tm8  1  0.365840  0.837385  0.876804  1
  Tm  Tm9  1  0.865840  0.662615  0.623196  1
  Tm  Tm10  1  0.634094  0.163376  0.377304  1
  Tm  Tm11  1  0.134094  0.336624  0.122696  1
  Tm  Tm12  1  0.633929  0.163008  0.122681  1
  Tm  Tm13  1  0.133929  0.336992  0.377319  1
  Tm  Tm14  1  0.365319  0.836936  0.623194  1
  Tm  Tm15  1  0.865319  0.663064  0.876806  1
  Tm  Tm16  1  0.197733  0.504174  0.749912  1
  Tm  Tm17  1  0.697733  0.995826  0.750088  1
  Tm  Tm18  1  0.802249  0.495350  0.249998  1
  Tm  Tm19  1  0.302249  0.004650  0.250002  1
  Sn  Sn20  1  0.295957  0.040416  0.040949  1
  Sn  Sn21  1  0.795957  0.459584  0.459051  1
  Sn  Sn22  1  0.701105  0.961601  0.542375  1
  Sn  Sn23  1  0.201105  0.538399  0.957625  1
  Sn  Sn24  1  0.704792  0.962544  0.957439  1
  Sn  Sn25  1  0.204792  0.537456  0.542561  1
  Sn  Sn26  1  0.298025  0.039760  0.458277  1
  Sn  Sn27  1  0.798025  0.460240  0.041723  1
  Sn  Sn28  1  0.563639  0.621403  0.749802  1
  Sn  Sn29  1  0.063639  0.878597  0.750198  1
  Sn  Sn30  1  0.436111  0.377355  0.250001  1
  Sn  Sn31  1  0.936111  0.122645  0.249999  1
  Sn  Sn32  1  0.329162  0.146925  0.749288  1
  Sn  Sn33  1  0.829162  0.353075  0.750712  1
  Sn  Sn34  1  0.671350  0.854350  0.250076  1
  Sn  Sn35  1  0.171350  0.645650  0.249924  1
