# generated using pymatgen
data_La16Eu4Ir7Rh5
_symmetry_space_group_name_H-M   'P 1'
_cell_length_a   11.37026062
_cell_length_b   11.37026018
_cell_length_c   6.60977900
_cell_angle_alpha   90.07057249
_cell_angle_beta   90.07056745
_cell_angle_gamma   90.02988054
_symmetry_Int_Tables_number   1
_chemical_formula_structural   La16Eu4Ir7Rh5
_chemical_formula_sum   'La16 Eu4 Ir7 Rh5'
_cell_volume   854.52946612
_cell_formula_units_Z   1
loop_
 _symmetry_equiv_pos_site_id
 _symmetry_equiv_pos_as_xyz
  1  'x, y, z'
loop_
 _atom_site_type_symbol
 _atom_site_label
 _atom_site_symmetry_multiplicity
 _atom_site_fract_x
 _atom_site_fract_y
 _atom_site_fract_z
 _atom_site_occupancy
  La  La0  1  0.287299  0.090690  0.394853  1
  La  La1  1  0.288792  0.908893  0.894260  1
  La  La2  1  0.711030  0.090626  0.893085  1
  La  La3  1  0.711332  0.906452  0.394536  1
  La  La4  1  0.591003  0.788313  0.894978  1
  La  La5  1  0.589450  0.210872  0.393758  1
  La  La6  1  0.408466  0.788698  0.394604  1
  La  La7  1  0.408426  0.211306  0.893723  1
  La  La8  1  0.211687  0.408997  0.605022  1
  La  La9  1  0.211302  0.591534  0.105396  1
  La  La10  1  0.789128  0.410550  0.106242  1
  La  La11  1  0.788694  0.591574  0.606277  1
  La  La12  1  0.909310  0.712701  0.105147  1
  La  La13  1  0.909374  0.288970  0.606915  1
  La  La14  1  0.091107  0.711208  0.605740  1
  La  La15  1  0.093548  0.288668  0.105464  1
  Eu  Eu16  1  0.999670  0.999434  0.499703  1
  Eu  Eu17  1  0.000566  0.000330  0.000297  1
  Eu  Eu18  1  0.500039  0.499722  0.999684  1
  Eu  Eu19  1  0.500278  0.499961  0.500316  1
  Ir  Ir20  1  0.841124  0.842526  0.750747  1
  Ir  Ir21  1  0.157474  0.158876  0.749253  1
  Ir  Ir22  1  0.158816  0.841184  0.250000  1
  Ir  Ir23  1  0.659545  0.340455  0.750000  1
  Ir  Ir24  1  0.659329  0.658370  0.250100  1
  Ir  Ir25  1  0.341630  0.340671  0.249900  1
  Ir  Ir26  1  0.341006  0.658994  0.750000  1
  Rh  Rh27  1  0.839468  0.160532  0.250000  1
  Rh  Rh28  1  0.501414  0.000339  0.121364  1
  Rh  Rh29  1  0.500299  0.000268  0.621106  1
  Rh  Rh30  1  0.999732  0.499701  0.878894  1
  Rh  Rh31  1  0.999661  0.498586  0.378636  1
