# generated using pymatgen
data_TbErLuThMgCo
_symmetry_space_group_name_H-M   'P 1'
_cell_length_a   9.57165743
_cell_length_b   9.57353119
_cell_length_c   9.56717018
_cell_angle_alpha   60.00902392
_cell_angle_beta   60.02846860
_cell_angle_gamma   59.96251049
_symmetry_Int_Tables_number   1
_chemical_formula_structural   TbErLuThMgCo
_chemical_formula_sum   'Tb4 Er4 Lu4 Th4 Mg4 Co4'
_cell_volume   619.90838516
_cell_formula_units_Z   4
loop_
 _symmetry_equiv_pos_site_id
 _symmetry_equiv_pos_as_xyz
  1  'x, y, z'
loop_
 _atom_site_type_symbol
 _atom_site_label
 _atom_site_symmetry_multiplicity
 _atom_site_fract_x
 _atom_site_fract_y
 _atom_site_fract_z
 _atom_site_occupancy
  Tb  Tb0  1  0.434570  0.434570  0.065430  1
  Tb  Tb1  1  0.065430  0.065430  0.434570  1
  Tb  Tb2  1  0.184880  0.815120  0.815120  1
  Tb  Tb3  1  0.815120  0.184880  0.184880  1
  Er  Er4  1  0.814501  0.185499  0.814501  1
  Er  Er5  1  0.185499  0.814501  0.185499  1
  Er  Er6  1  0.814481  0.814481  0.185519  1
  Er  Er7  1  0.185519  0.185519  0.814481  1
  Lu  Lu8  1  0.063848  0.436152  0.436152  1
  Lu  Lu9  1  0.436152  0.063848  0.063848  1
  Lu  Lu10  1  0.436040  0.063960  0.436040  1
  Lu  Lu11  1  0.063960  0.436040  0.063960  1
  Th  Th12  1  0.596346  0.595821  0.592998  1
  Th  Th13  1  0.595821  0.596346  0.214835  1
  Th  Th14  1  0.592998  0.214835  0.596346  1
  Th  Th15  1  0.214835  0.592998  0.595821  1
  Mg  Mg16  1  0.829916  0.830132  0.830780  1
  Mg  Mg17  1  0.830132  0.829916  0.509173  1
  Mg  Mg18  1  0.830780  0.509173  0.829916  1
  Mg  Mg19  1  0.509173  0.830780  0.830132  1
  Co  Co20  1  0.392756  0.393500  0.395964  1
  Co  Co21  1  0.393500  0.392756  0.817780  1
  Co  Co22  1  0.395964  0.817780  0.392756  1
  Co  Co23  1  0.817780  0.395964  0.393500  1
