# generated using pymatgen
data_Lu3Sn3PdRh2
_symmetry_space_group_name_H-M   'P 1'
_cell_length_a   7.73569700
_cell_length_b   7.75319382
_cell_length_c   3.56172300
_cell_angle_alpha   90.00000000
_cell_angle_beta   90.00000000
_cell_angle_gamma   119.92462238
_symmetry_Int_Tables_number   1
_chemical_formula_structural   Lu3Sn3PdRh2
_chemical_formula_sum   'Lu3 Sn3 Pd1 Rh2'
_cell_volume   185.13998898
_cell_formula_units_Z   1
loop_
 _symmetry_equiv_pos_site_id
 _symmetry_equiv_pos_as_xyz
  1  'x, y, z'
loop_
 _atom_site_type_symbol
 _atom_site_label
 _atom_site_symmetry_multiplicity
 _atom_site_fract_x
 _atom_site_fract_y
 _atom_site_fract_z
 _atom_site_occupancy
  Lu  Lu0  1  0.400551  0.386481  0.500000  1
  Lu  Lu1  1  0.613309  0.013512  0.500000  1
  Lu  Lu2  1  0.986838  0.599592  0.500000  1
  Sn  Sn3  1  0.726566  0.730814  0.000000  1
  Sn  Sn4  1  0.269079  0.995476  0.000000  1
  Sn  Sn5  1  0.005093  0.273774  0.000000  1
  Pd  Pd6  1  0.332721  0.666735  0.000000  1
  Rh  Rh7  1  0.666137  0.333465  0.000000  1
  Rh  Rh8  1  0.999705  0.000150  0.500000  1
