# generated using pymatgen
data_CsLaSm9(C2Br9)2
_symmetry_space_group_name_H-M   'P 1'
_cell_length_a   10.94739361
_cell_length_b   11.03052001
_cell_length_c   11.15964272
_cell_angle_alpha   113.25032364
_cell_angle_beta   87.49691190
_cell_angle_gamma   118.73767069
_symmetry_Int_Tables_number   1
_chemical_formula_structural   CsLaSm9(C2Br9)2
_chemical_formula_sum   'Cs1 La1 Sm9 C4 Br18'
_cell_volume   1067.63904330
_cell_formula_units_Z   1
loop_
 _symmetry_equiv_pos_site_id
 _symmetry_equiv_pos_as_xyz
  1  'x, y, z'
loop_
 _atom_site_type_symbol
 _atom_site_label
 _atom_site_symmetry_multiplicity
 _atom_site_fract_x
 _atom_site_fract_y
 _atom_site_fract_z
 _atom_site_occupancy
  Cs  Cs0  1  0.499987  0.000745  0.499776  1
  La  La1  1  0.652184  0.713183  0.696350  1
  Sm  Sm2  1  0.281382  0.365000  0.013320  1
  Sm  Sm3  1  0.092156  0.409113  0.302580  1
  Sm  Sm4  1  0.961647  0.038834  0.333888  1
  Sm  Sm5  1  0.907460  0.590580  0.697111  1
  Sm  Sm6  1  0.114040  0.942176  0.001411  1
  Sm  Sm7  1  0.040158  0.962160  0.667164  1
  Sm  Sm8  1  0.340538  0.283474  0.299040  1
  Sm  Sm9  1  0.720251  0.635548  0.988083  1
  Sm  Sm10  1  0.887613  0.058741  0.999628  1
  C  C11  1  0.156291  0.228353  0.126171  1
  C  C12  1  0.844944  0.771869  0.874506  1
  C  C13  1  0.920931  0.848701  0.796536  1
  C  C14  1  0.080412  0.151631  0.204232  1
  Br  Br15  1  0.450152  0.528034  0.836730  1
  Br  Br16  1  0.382645  0.037813  0.160002  1
  Br  Br17  1  0.779939  0.860050  0.499699  1
  Br  Br18  1  0.837944  0.311272  0.154956  1
  Br  Br19  1  0.546902  0.468602  0.167554  1
  Br  Br20  1  0.223808  0.143456  0.497495  1
  Br  Br21  1  0.312908  0.099180  0.831241  1
  Br  Br22  1  0.688033  0.901208  0.168935  1
  Br  Br23  1  0.977016  0.764165  0.172530  1
  Br  Br24  1  0.932160  0.301882  0.500865  1
  Br  Br25  1  0.023650  0.235978  0.828159  1
  Br  Br26  1  0.068068  0.698174  0.499101  1
  Br  Br27  1  0.260802  0.623693  0.188888  1
  Br  Br28  1  0.739161  0.376415  0.811195  1
  Br  Br29  1  0.637628  0.423951  0.493601  1
  Br  Br30  1  0.162352  0.688759  0.845128  1
  Br  Br31  1  0.617535  0.970392  0.844631  1
  Br  Br32  1  0.359300  0.566868  0.499492  1
