# generated using pymatgen
data_Cs4Na2ScAlBi4
_symmetry_space_group_name_H-M   'P 1'
_cell_length_a   10.44852764
_cell_length_b   10.44852673
_cell_length_c   10.44852661
_cell_angle_alpha   137.15584355
_cell_angle_beta   60.86459406
_cell_angle_gamma   138.90923294
_symmetry_Int_Tables_number   1
_chemical_formula_structural   Cs4Na2ScAlBi4
_chemical_formula_sum   'Cs4 Na2 Sc1 Al1 Bi4'
_cell_volume   504.27186775
_cell_formula_units_Z   1
loop_
 _symmetry_equiv_pos_site_id
 _symmetry_equiv_pos_as_xyz
  1  'x, y, z'
loop_
 _atom_site_type_symbol
 _atom_site_label
 _atom_site_symmetry_multiplicity
 _atom_site_fract_x
 _atom_site_fract_y
 _atom_site_fract_z
 _atom_site_occupancy
  Cs  Cs0  1  0.827267  0.266111  0.098057  1
  Cs  Cs1  1  0.672733  0.770790  0.438844  1
  Cs  Cs2  1  0.331946  0.233890  0.561156  1
  Cs  Cs3  1  0.168054  0.729210  0.901943  1
  Na  Na4  1  0.750000  0.250000  0.500000  1
  Na  Na5  1  0.250000  0.750000  0.500000  1
  Sc  Sc6  1  0.250000  0.250000  0.000000  1
  Al  Al7  1  0.750000  0.750000  0.000000  1
  Bi  Bi8  1  0.417012  0.719217  0.120676  1
  Bi  Bi9  1  0.082989  0.203664  0.302204  1
  Bi  Bi10  1  0.901460  0.780784  0.697796  1
  Bi  Bi11  1  0.598541  0.296336  0.879324  1
