# generated using pymatgen
data_Er2B4Ir4Rh
_symmetry_space_group_name_H-M   'P 1'
_cell_length_a   7.50354370
_cell_length_b   6.33173301
_cell_length_c   5.57790347
_cell_angle_alpha   77.82185242
_cell_angle_beta   55.57261565
_cell_angle_gamma   46.69922280
_symmetry_Int_Tables_number   1
_chemical_formula_structural   Er2B4Ir4Rh
_chemical_formula_sum   'Er2 B4 Ir4 Rh1'
_cell_volume   152.02694142
_cell_formula_units_Z   1
loop_
 _symmetry_equiv_pos_site_id
 _symmetry_equiv_pos_as_xyz
  1  'x, y, z'
loop_
 _atom_site_type_symbol
 _atom_site_label
 _atom_site_symmetry_multiplicity
 _atom_site_fract_x
 _atom_site_fract_y
 _atom_site_fract_z
 _atom_site_occupancy
  Er  Er0  1  0.858803  0.858803  0.141197  1
  Er  Er1  1  0.141197  0.141197  0.858803  1
  B  B2  1  0.212152  0.518325  0.482830  1
  B  B3  1  0.787848  0.481675  0.517170  1
  B  B4  1  0.518325  0.212152  0.786695  1
  B  B5  1  0.481675  0.787848  0.213305  1
  Ir  Ir6  1  0.749712  0.749712  0.750288  1
  Ir  Ir7  1  0.250288  0.250288  0.249712  1
  Ir  Ir8  1  0.000000  0.000000  0.500000  1
  Ir  Ir9  1  0.500000  0.500000  0.500000  1
  Rh  Rh10  1  0.500000  0.500000  0.000000  1
