# generated using pymatgen
data_Pr6BSBr6
_symmetry_space_group_name_H-M   'P 1'
_cell_length_a   10.34003519
_cell_length_b   10.34003249
_cell_length_c   10.14456839
_cell_angle_alpha   109.47620948
_cell_angle_beta   109.47617801
_cell_angle_gamma   110.22914690
_symmetry_Int_Tables_number   1
_chemical_formula_structural   Pr6BSBr6
_chemical_formula_sum   'Pr12 B2 S2 Br12'
_cell_volume   826.89799404
_cell_formula_units_Z   2
loop_
 _symmetry_equiv_pos_site_id
 _symmetry_equiv_pos_as_xyz
  1  'x, y, z'
loop_
 _atom_site_type_symbol
 _atom_site_label
 _atom_site_symmetry_multiplicity
 _atom_site_fract_x
 _atom_site_fract_y
 _atom_site_fract_z
 _atom_site_occupancy
  Pr  Pr0  1  0.465948  0.487566  0.226495  1
  Pr  Pr1  1  0.761071  0.239454  0.273505  1
  Pr  Pr2  1  0.762755  0.020954  0.489751  1
  Pr  Pr3  1  0.226998  0.468799  0.489752  1
  Pr  Pr4  1  0.260547  0.738929  0.226496  1
  Pr  Pr5  1  0.031202  0.273004  0.010248  1
  Pr  Pr6  1  0.012433  0.034052  0.273505  1
  Pr  Pr7  1  0.479045  0.737244  0.010248  1
  Pr  Pr8  1  0.484222  0.234222  0.468446  1
  Pr  Pr9  1  0.018338  0.481664  0.750001  1
  Pr  Pr10  1  0.265777  0.015778  0.031554  1
  Pr  Pr11  1  0.231662  0.268337  0.750000  1
  B  B12  1  0.998766  0.248766  0.497530  1
  B  B13  1  0.251234  0.501234  0.002469  1
  S  S14  1  0.247680  0.252320  0.250001  1
  S  S15  1  0.502320  0.997679  0.250000  1
  Br  Br16  1  0.249389  0.758619  0.742880  1
  Br  Br17  1  0.515739  0.506509  0.757120  1
  Br  Br18  1  0.986301  0.743096  0.993407  1
  Br  Br19  1  0.741381  0.250611  0.757120  1
  Br  Br20  1  0.993491  0.984262  0.742880  1
  Br  Br21  1  0.249689  0.992893  0.506593  1
  Br  Br22  1  0.756904  0.513700  0.506593  1
  Br  Br23  1  0.507108  0.250311  0.993407  1
  Br  Br24  1  0.757523  0.742476  0.250000  1
  Br  Br25  1  0.743508  0.993508  0.987017  1
  Br  Br26  1  0.992477  0.507523  0.249999  1
  Br  Br27  1  0.506491  0.756491  0.512983  1
