# generated using pymatgen
data_Hf3AlZn2Ni3
_symmetry_space_group_name_H-M   'P 1'
_cell_length_a   6.86534733
_cell_length_b   6.81585152
_cell_length_c   3.43222100
_cell_angle_alpha   90.00000000
_cell_angle_beta   90.00000000
_cell_angle_gamma   119.76178209
_symmetry_Int_Tables_number   1
_chemical_formula_structural   Hf3AlZn2Ni3
_chemical_formula_sum   'Hf3 Al1 Zn2 Ni3'
_cell_volume   139.42029985
_cell_formula_units_Z   1
loop_
 _symmetry_equiv_pos_site_id
 _symmetry_equiv_pos_as_xyz
  1  'x, y, z'
loop_
 _atom_site_type_symbol
 _atom_site_label
 _atom_site_symmetry_multiplicity
 _atom_site_fract_x
 _atom_site_fract_y
 _atom_site_fract_z
 _atom_site_occupancy
  Hf  Hf0  1  0.413312  0.409494  0.500000  1
  Hf  Hf1  1  0.586688  0.996182  0.500000  1
  Hf  Hf2  1  0.000000  0.599048  0.500000  1
  Al  Al3  1  0.000000  0.251302  0.000000  1
  Zn  Zn4  1  0.739684  0.743159  0.000000  1
  Zn  Zn5  1  0.260316  0.003474  0.000000  1
  Ni  Ni6  1  0.673307  0.333007  0.000000  1
  Ni  Ni7  1  0.326693  0.659701  0.000000  1
  Ni  Ni8  1  0.000000  0.004632  0.500000  1
