# generated using pymatgen
data_HoEr5Al24IrRu7
_symmetry_space_group_name_H-M   'P 1'
_cell_length_a   8.77822600
_cell_length_b   8.77435702
_cell_length_c   9.57661900
_cell_angle_alpha   90.07402310
_cell_angle_beta   90.00000000
_cell_angle_gamma   120.01457975
_symmetry_Int_Tables_number   1
_chemical_formula_structural   HoEr5Al24IrRu7
_chemical_formula_sum   'Ho1 Er5 Al24 Ir1 Ru7'
_cell_volume   638.70540906
_cell_formula_units_Z   1
loop_
 _symmetry_equiv_pos_site_id
 _symmetry_equiv_pos_as_xyz
  1  'x, y, z'
loop_
 _atom_site_type_symbol
 _atom_site_label
 _atom_site_symmetry_multiplicity
 _atom_site_fract_x
 _atom_site_fract_y
 _atom_site_fract_z
 _atom_site_occupancy
  Ho  Ho0  1  0.192819  0.385636  0.249992  1
  Er  Er1  1  0.806247  0.612494  0.750050  1
  Er  Er2  1  0.612692  0.806064  0.250465  1
  Er  Er3  1  0.387157  0.194106  0.749529  1
  Er  Er4  1  0.193369  0.806064  0.250465  1
  Er  Er5  1  0.806948  0.194106  0.749529  1
  Al  Al6  1  0.332554  0.665109  0.019280  1
  Al  Al7  1  0.667518  0.335037  0.979797  1
  Al  Al8  1  0.666762  0.333524  0.520127  1
  Al  Al9  1  0.333313  0.666625  0.480748  1
  Al  Al10  1  0.163049  0.326100  0.577925  1
  Al  Al11  1  0.837050  0.674100  0.422944  1
  Al  Al12  1  0.674402  0.837575  0.577484  1
  Al  Al13  1  0.837402  0.674805  0.077172  1
  Al  Al14  1  0.326113  0.162478  0.423066  1
  Al  Al15  1  0.162703  0.325406  0.921959  1
  Al  Al16  1  0.163172  0.837575  0.577484  1
  Al  Al17  1  0.325588  0.163382  0.076914  1
  Al  Al18  1  0.836365  0.162478  0.423066  1
  Al  Al19  1  0.674910  0.836671  0.922530  1
  Al  Al20  1  0.837795  0.163382  0.076914  1
  Al  Al21  1  0.161761  0.836671  0.922530  1
  Al  Al22  1  0.561887  0.123772  0.251203  1
  Al  Al23  1  0.438286  0.876572  0.748806  1
  Al  Al24  1  0.876528  0.438160  0.249959  1
  Al  Al25  1  0.123150  0.562169  0.750044  1
  Al  Al26  1  0.561635  0.438160  0.249959  1
  Al  Al27  1  0.439018  0.562169  0.750044  1
  Al  Al28  1  0.998641  0.997283  0.249954  1
  Al  Al29  1  0.000302  0.000602  0.750047  1
  Ir  Ir30  1  0.500050  0.000099  0.999936  1
  Ru  Ru31  1  0.999847  0.500223  0.999709  1
  Ru  Ru32  1  0.500042  0.000083  0.500054  1
  Ru  Ru33  1  0.500376  0.500223  0.999709  1
  Ru  Ru34  1  0.999883  0.500227  0.500278  1
  Ru  Ru35  1  0.500344  0.500227  0.500278  1
  Ru  Ru36  1  0.000157  0.000316  0.000031  1
  Ru  Ru37  1  0.000164  0.000328  0.500019  1
