# generated using pymatgen
data_Dy10Zn3Fe
_symmetry_space_group_name_H-M   'P 1'
_cell_length_a   9.37896200
_cell_length_b   9.37896343
_cell_length_c   9.55312500
_cell_angle_alpha   90.00000000
_cell_angle_beta   90.00000000
_cell_angle_gamma   119.99999497
_symmetry_Int_Tables_number   1
_chemical_formula_structural   Dy10Zn3Fe
_chemical_formula_sum   'Dy20 Zn6 Fe2'
_cell_volume   727.75589613
_cell_formula_units_Z   2
loop_
 _symmetry_equiv_pos_site_id
 _symmetry_equiv_pos_as_xyz
  1  'x, y, z'
loop_
 _atom_site_type_symbol
 _atom_site_label
 _atom_site_symmetry_multiplicity
 _atom_site_fract_x
 _atom_site_fract_y
 _atom_site_fract_z
 _atom_site_occupancy
  Dy  Dy0  1  0.000000  0.000000  0.500000  1
  Dy  Dy1  1  0.000000  0.000000  0.000000  1
  Dy  Dy2  1  0.541934  0.458066  0.250000  1
  Dy  Dy3  1  0.541934  0.083870  0.250000  1
  Dy  Dy4  1  0.916130  0.458066  0.250000  1
  Dy  Dy5  1  0.458066  0.541934  0.750000  1
  Dy  Dy6  1  0.458066  0.916130  0.750000  1
  Dy  Dy7  1  0.083870  0.541934  0.750000  1
  Dy  Dy8  1  0.209605  0.790395  0.436919  1
  Dy  Dy9  1  0.209605  0.419210  0.436919  1
  Dy  Dy10  1  0.580790  0.790395  0.436919  1
  Dy  Dy11  1  0.790395  0.209605  0.563081  1
  Dy  Dy12  1  0.790395  0.580790  0.563081  1
  Dy  Dy13  1  0.419210  0.209605  0.563081  1
  Dy  Dy14  1  0.790395  0.209605  0.936919  1
  Dy  Dy15  1  0.790395  0.580790  0.936919  1
  Dy  Dy16  1  0.419210  0.209605  0.936919  1
  Dy  Dy17  1  0.209605  0.790395  0.063081  1
  Dy  Dy18  1  0.209605  0.419210  0.063081  1
  Dy  Dy19  1  0.580790  0.790395  0.063081  1
  Zn  Zn20  1  0.885714  0.114286  0.250000  1
  Zn  Zn21  1  0.885714  0.771429  0.250000  1
  Zn  Zn22  1  0.228571  0.114286  0.250000  1
  Zn  Zn23  1  0.114286  0.885714  0.750000  1
  Zn  Zn24  1  0.114286  0.228571  0.750000  1
  Zn  Zn25  1  0.771429  0.885714  0.750000  1
  Fe  Fe26  1  0.333333  0.666667  0.250000  1
  Fe  Fe27  1  0.666667  0.333333  0.750000  1
