# generated using pymatgen
data_Tb3Mg2AlGe2Pt
_symmetry_space_group_name_H-M   'P 1'
_cell_length_a   7.17419092
_cell_length_b   7.09784828
_cell_length_c   4.33711500
_cell_angle_alpha   90.00000000
_cell_angle_beta   90.00000000
_cell_angle_gamma   119.64861198
_symmetry_Int_Tables_number   1
_chemical_formula_structural   Tb3Mg2AlGe2Pt
_chemical_formula_sum   'Tb3 Mg2 Al1 Ge2 Pt1'
_cell_volume   191.93673582
_cell_formula_units_Z   1
loop_
 _symmetry_equiv_pos_site_id
 _symmetry_equiv_pos_as_xyz
  1  'x, y, z'
loop_
 _atom_site_type_symbol
 _atom_site_label
 _atom_site_symmetry_multiplicity
 _atom_site_fract_x
 _atom_site_fract_y
 _atom_site_fract_z
 _atom_site_occupancy
  Tb  Tb0  1  0.413003  0.001204  0.000000  1
  Tb  Tb1  1  0.000000  0.416706  0.000000  1
  Tb  Tb2  1  0.586997  0.588201  0.000000  1
  Mg  Mg3  1  0.763419  0.999393  0.500000  1
  Mg  Mg4  1  0.236582  0.235975  0.500000  1
  Al  Al5  1  0.000000  0.765421  0.500000  1
  Ge  Ge6  1  0.673616  0.342478  0.500000  1
  Ge  Ge7  1  0.326384  0.668864  0.500000  1
  Pt  Pt8  1  0.000000  0.981759  0.000000  1
