# generated using pymatgen
data_Dy3(B3Ir4)2
_symmetry_space_group_name_H-M   'P 1'
_cell_length_a   10.01098308
_cell_length_b   9.18697305
_cell_length_c   5.57425096
_cell_angle_alpha   81.43541677
_cell_angle_beta   65.15612121
_cell_angle_gamma   33.40847478
_symmetry_Int_Tables_number   1
_chemical_formula_structural   Dy3(B3Ir4)2
_chemical_formula_sum   'Dy3 B6 Ir8'
_cell_volume   234.33202567
_cell_formula_units_Z   1
loop_
 _symmetry_equiv_pos_site_id
 _symmetry_equiv_pos_as_xyz
  1  'x, y, z'
loop_
 _atom_site_type_symbol
 _atom_site_label
 _atom_site_symmetry_multiplicity
 _atom_site_fract_x
 _atom_site_fract_y
 _atom_site_fract_z
 _atom_site_occupancy
  Dy  Dy0  1  0.000000  0.000000  0.000000  1
  Dy  Dy1  1  0.821126  0.821126  0.178874  1
  Dy  Dy2  1  0.178874  0.178874  0.821126  1
  B  B3  1  0.670864  0.329136  0.670864  1
  B  B4  1  0.329136  0.670864  0.329136  1
  B  B5  1  0.174614  0.476562  0.523438  1
  B  B6  1  0.476562  0.174614  0.825386  1
  B  B7  1  0.825386  0.523438  0.476562  1
  B  B8  1  0.523438  0.825386  0.174614  1
  Ir  Ir9  1  0.912955  0.912955  0.587045  1
  Ir  Ir10  1  0.414083  0.414083  0.585917  1
  Ir  Ir11  1  0.585917  0.585917  0.414083  1
  Ir  Ir12  1  0.250000  0.250000  0.250000  1
  Ir  Ir13  1  0.750000  0.750000  0.750000  1
  Ir  Ir14  1  0.087045  0.087045  0.412955  1
  Ir  Ir15  1  0.587045  0.587045  0.912955  1
  Ir  Ir16  1  0.412955  0.412955  0.087045  1
