# generated using pymatgen
data_Ho4TiPd15
_symmetry_space_group_name_H-M   'P 1'
_cell_length_a   4.07715300
_cell_length_b   4.07715300
_cell_length_c   20.36195800
_cell_angle_alpha   90.00000000
_cell_angle_beta   90.00000000
_cell_angle_gamma   90.00000000
_symmetry_Int_Tables_number   1
_chemical_formula_structural   Ho4TiPd15
_chemical_formula_sum   'Ho4 Ti1 Pd15'
_cell_volume   338.48042346
_cell_formula_units_Z   1
loop_
 _symmetry_equiv_pos_site_id
 _symmetry_equiv_pos_as_xyz
  1  'x, y, z'
loop_
 _atom_site_type_symbol
 _atom_site_label
 _atom_site_symmetry_multiplicity
 _atom_site_fract_x
 _atom_site_fract_y
 _atom_site_fract_z
 _atom_site_occupancy
  Ho  Ho0  1  0.000000  0.000000  0.196604  1
  Ho  Ho1  1  0.000000  0.000000  0.398897  1
  Ho  Ho2  1  0.000000  0.000000  0.601103  1
  Ho  Ho3  1  0.000000  0.000000  0.803396  1
  Ti  Ti4  1  0.000000  0.000000  0.000000  1
  Pd  Pd5  1  0.500000  0.500000  0.000000  1
  Pd  Pd6  1  0.500000  0.500000  0.195663  1
  Pd  Pd7  1  0.500000  0.500000  0.399496  1
  Pd  Pd8  1  0.500000  0.500000  0.600504  1
  Pd  Pd9  1  0.500000  0.500000  0.804337  1
  Pd  Pd10  1  0.500000  0.000000  0.091462  1
  Pd  Pd11  1  0.500000  0.000000  0.297919  1
  Pd  Pd12  1  0.500000  0.000000  0.500000  1
  Pd  Pd13  1  0.500000  0.000000  0.702081  1
  Pd  Pd14  1  0.500000  0.000000  0.908538  1
  Pd  Pd15  1  0.000000  0.500000  0.091462  1
  Pd  Pd16  1  0.000000  0.500000  0.297919  1
  Pd  Pd17  1  0.000000  0.500000  0.500000  1
  Pd  Pd18  1  0.000000  0.500000  0.702081  1
  Pd  Pd19  1  0.000000  0.500000  0.908538  1
