# generated using pymatgen
data_Pu2Zn2Sn
_symmetry_space_group_name_H-M   'P 1'
_cell_length_a   7.89423746
_cell_length_b   7.89423733
_cell_length_c   3.10032900
_cell_angle_alpha   90.00000000
_cell_angle_beta   90.00000000
_cell_angle_gamma   145.17728339
_symmetry_Int_Tables_number   1
_chemical_formula_structural   Pu2Zn2Sn
_chemical_formula_sum   'Pu2 Zn2 Sn1'
_cell_volume   110.33009375
_cell_formula_units_Z   1
loop_
 _symmetry_equiv_pos_site_id
 _symmetry_equiv_pos_as_xyz
  1  'x, y, z'
loop_
 _atom_site_type_symbol
 _atom_site_label
 _atom_site_symmetry_multiplicity
 _atom_site_fract_x
 _atom_site_fract_y
 _atom_site_fract_z
 _atom_site_occupancy
  Pu  Pu0  1  0.615664  0.384335  0.500000  1
  Pu  Pu1  1  0.384335  0.615664  0.500000  1
  Zn  Zn2  1  0.794204  0.205795  0.000000  1
  Zn  Zn3  1  0.205795  0.794204  0.000000  1
  Sn  Sn4  1  0.000000  0.000000  0.000000  1
