# generated using pymatgen
data_ErTh3Al18(OsRh2)2
_symmetry_space_group_name_H-M   'P 1'
_cell_length_a   7.61584150
_cell_length_b   7.62777530
_cell_length_c   9.50998500
_cell_angle_alpha   90.00000000
_cell_angle_beta   90.00000000
_cell_angle_gamma   118.67403326
_symmetry_Int_Tables_number   1
_chemical_formula_structural   ErTh3Al18(OsRh2)2
_chemical_formula_sum   'Er1 Th3 Al18 Os2 Rh4'
_cell_volume   484.70253176
_cell_formula_units_Z   1
loop_
 _symmetry_equiv_pos_site_id
 _symmetry_equiv_pos_as_xyz
  1  'x, y, z'
loop_
 _atom_site_type_symbol
 _atom_site_label
 _atom_site_symmetry_multiplicity
 _atom_site_fract_x
 _atom_site_fract_y
 _atom_site_fract_z
 _atom_site_occupancy
  Er  Er0  1  0.318467  0.006361  0.250000  1
  Th  Th1  1  0.994328  0.681700  0.750000  1
  Th  Th2  1  0.005155  0.318339  0.250000  1
  Th  Th3  1  0.681349  0.994025  0.750000  1
  Al  Al4  1  0.142411  0.140036  0.750000  1
  Al  Al5  1  0.863908  0.862680  0.250000  1
  Al  Al6  1  0.007327  0.340368  0.577209  1
  Al  Al7  1  0.000227  0.666688  0.419568  1
  Al  Al8  1  0.000227  0.666688  0.080432  1
  Al  Al9  1  0.337994  0.004457  0.929118  1
  Al  Al10  1  0.007327  0.340368  0.922791  1
  Al  Al11  1  0.655420  0.994350  0.080338  1
  Al  Al12  1  0.655420  0.994350  0.419662  1
  Al  Al13  1  0.337994  0.004457  0.570882  1
  Al  Al14  1  0.334225  0.330250  0.045879  1
  Al  Al15  1  0.665150  0.664977  0.963170  1
  Al  Al16  1  0.665150  0.664977  0.536830  1
  Al  Al17  1  0.334225  0.330250  0.454121  1
  Al  Al18  1  0.344858  0.551145  0.750000  1
  Al  Al19  1  0.652418  0.443331  0.250000  1
  Al  Al20  1  0.550504  0.341782  0.750000  1
  Al  Al21  1  0.446877  0.658610  0.250000  1
  Os  Os22  1  0.998285  0.000106  0.500472  1
  Os  Os23  1  0.998285  0.000106  0.999528  1
  Rh  Rh24  1  0.672879  0.328279  0.500067  1
  Rh  Rh25  1  0.328354  0.671521  0.500333  1
  Rh  Rh26  1  0.328354  0.671521  0.999667  1
  Rh  Rh27  1  0.672879  0.328279  0.999933  1
