# generated using pymatgen
data_Sr5PN5
_symmetry_space_group_name_H-M   'P 1'
_cell_length_a   7.48361235
_cell_length_b   7.48361207
_cell_length_c   8.89421181
_cell_angle_alpha   77.00015228
_cell_angle_beta   77.00015451
_cell_angle_gamma   96.14219135
_symmetry_Int_Tables_number   1
_chemical_formula_structural   Sr5PN5
_chemical_formula_sum   'Sr10 P2 N10'
_cell_volume   466.34881820
_cell_formula_units_Z   2
loop_
 _symmetry_equiv_pos_site_id
 _symmetry_equiv_pos_as_xyz
  1  'x, y, z'
loop_
 _atom_site_type_symbol
 _atom_site_label
 _atom_site_symmetry_multiplicity
 _atom_site_fract_x
 _atom_site_fract_y
 _atom_site_fract_z
 _atom_site_occupancy
  Sr  Sr0  1  0.401857  0.401857  0.369766  1
  Sr  Sr1  1  0.598143  0.598143  0.630234  1
  Sr  Sr2  1  0.669880  0.669880  0.005404  1
  Sr  Sr3  1  0.330120  0.330120  0.994596  1
  Sr  Sr4  1  0.928262  0.928262  0.195630  1
  Sr  Sr5  1  0.071738  0.071738  0.804370  1
  Sr  Sr6  1  0.550385  0.090047  0.763319  1
  Sr  Sr7  1  0.909953  0.449615  0.236681  1
  Sr  Sr8  1  0.449615  0.909953  0.236681  1
  Sr  Sr9  1  0.090047  0.550385  0.763319  1
  P  P10  1  0.757168  0.242832  0.000000  1
  P  P11  1  0.242832  0.757168  0.000000  1
  N  N12  1  0.662468  0.662468  0.324941  1
  N  N13  1  0.337532  0.337532  0.675059  1
  N  N14  1  0.723511  0.022167  0.985776  1
  N  N15  1  0.977833  0.276489  0.014224  1
  N  N16  1  0.276489  0.977833  0.014224  1
  N  N17  1  0.022167  0.723511  0.985776  1
  N  N18  1  0.391603  0.728467  0.837828  1
  N  N19  1  0.271533  0.608397  0.162171  1
  N  N20  1  0.608397  0.271533  0.162171  1
  N  N21  1  0.728467  0.391603  0.837828  1
