# generated using pymatgen
data_Tm16CdIn3CoNi3
_symmetry_space_group_name_H-M   'P 1'
_cell_length_a   9.42114966
_cell_length_b   9.42229362
_cell_length_c   9.42229369
_cell_angle_alpha   60.06171530
_cell_angle_beta   60.07433880
_cell_angle_gamma   60.07433379
_symmetry_Int_Tables_number   1
_chemical_formula_structural   Tm16CdIn3CoNi3
_chemical_formula_sum   'Tm16 Cd1 In3 Co1 Ni3'
_cell_volume   592.36833996
_cell_formula_units_Z   1
loop_
 _symmetry_equiv_pos_site_id
 _symmetry_equiv_pos_as_xyz
  1  'x, y, z'
loop_
 _atom_site_type_symbol
 _atom_site_label
 _atom_site_symmetry_multiplicity
 _atom_site_fract_x
 _atom_site_fract_y
 _atom_site_fract_z
 _atom_site_occupancy
  Tm  Tm0  1  0.348981  0.348275  0.348275  1
  Tm  Tm1  1  0.346415  0.345759  0.957469  1
  Tm  Tm2  1  0.346415  0.957469  0.345759  1
  Tm  Tm3  1  0.955935  0.346692  0.346692  1
  Tm  Tm4  1  0.814707  0.188411  0.188411  1
  Tm  Tm5  1  0.187509  0.812056  0.812056  1
  Tm  Tm6  1  0.187232  0.816025  0.187535  1
  Tm  Tm7  1  0.811089  0.188577  0.811232  1
  Tm  Tm8  1  0.187232  0.187535  0.816025  1
  Tm  Tm9  1  0.811089  0.811232  0.188577  1
  Tm  Tm10  1  0.939071  0.562544  0.562544  1
  Tm  Tm11  1  0.562576  0.937361  0.937361  1
  Tm  Tm12  1  0.563611  0.936833  0.561782  1
  Tm  Tm13  1  0.939696  0.560568  0.936294  1
  Tm  Tm14  1  0.563611  0.561782  0.936833  1
  Tm  Tm15  1  0.939696  0.936294  0.560568  1
  Cd  Cd16  1  0.251614  0.582877  0.582877  1
  In  In17  1  0.581201  0.583228  0.583228  1
  In  In18  1  0.581217  0.583732  0.251693  1
  In  In19  1  0.581217  0.251693  0.583732  1
  Co  Co20  1  0.140732  0.143107  0.143107  1
  Ni  Ni21  1  0.142391  0.142312  0.573633  1
  Ni  Ni22  1  0.142391  0.573633  0.142312  1
  Ni  Ni23  1  0.574373  0.142002  0.142002  1
