# generated using pymatgen
data_CsK2In(AsS2)6
_symmetry_space_group_name_H-M   'P 1'
_cell_length_a   9.54495400
_cell_length_b   9.54495394
_cell_length_c   7.99557400
_cell_angle_alpha   90.00000000
_cell_angle_beta   90.00000000
_cell_angle_gamma   120.00000713
_symmetry_Int_Tables_number   1
_chemical_formula_structural   CsK2In(AsS2)6
_chemical_formula_sum   'Cs1 K2 In1 As6 S12'
_cell_volume   630.85263954
_cell_formula_units_Z   1
loop_
 _symmetry_equiv_pos_site_id
 _symmetry_equiv_pos_as_xyz
  1  'x, y, z'
loop_
 _atom_site_type_symbol
 _atom_site_label
 _atom_site_symmetry_multiplicity
 _atom_site_fract_x
 _atom_site_fract_y
 _atom_site_fract_z
 _atom_site_occupancy
  Cs  Cs0  1  0.333333  0.666667  0.849797  1
  K  K1  1  0.000000  0.000000  0.999090  1
  K  K2  1  0.666667  0.333333  0.137760  1
  In  In3  1  0.000000  0.000000  0.496466  1
  As  As4  1  0.281359  0.833744  0.389451  1
  As  As5  1  0.166256  0.447617  0.389451  1
  As  As6  1  0.552383  0.718641  0.389451  1
  As  As7  1  0.718301  0.167537  0.612887  1
  As  As8  1  0.832463  0.550763  0.612887  1
  As  As9  1  0.449237  0.281699  0.612887  1
  S  S10  1  0.241982  0.031371  0.297474  1
  S  S11  1  0.968629  0.210612  0.297474  1
  S  S12  1  0.789388  0.758018  0.297474  1
  S  S13  1  0.761661  0.970829  0.699455  1
  S  S14  1  0.029171  0.790830  0.699455  1
  S  S15  1  0.209170  0.238339  0.699455  1
  S  S16  1  0.516426  0.907274  0.235705  1
  S  S17  1  0.092726  0.609151  0.235705  1
  S  S18  1  0.390849  0.483574  0.235705  1
  S  S19  1  0.485942  0.096493  0.770658  1
  S  S20  1  0.903507  0.389448  0.770658  1
  S  S21  1  0.610552  0.514058  0.770658  1
