# generated using pymatgen
data_CaPa5(Al3Os)8
_symmetry_space_group_name_H-M   'P 1'
_cell_length_a   8.87786922
_cell_length_b   8.87787142
_cell_length_c   9.44746300
_cell_angle_alpha   90.00000000
_cell_angle_beta   90.00000000
_cell_angle_gamma   119.87934865
_symmetry_Int_Tables_number   1
_chemical_formula_structural   CaPa5(Al3Os)8
_chemical_formula_sum   'Ca1 Pa5 Al24 Os8'
_cell_volume   645.63957285
_cell_formula_units_Z   1
loop_
 _symmetry_equiv_pos_site_id
 _symmetry_equiv_pos_as_xyz
  1  'x, y, z'
loop_
 _atom_site_type_symbol
 _atom_site_label
 _atom_site_symmetry_multiplicity
 _atom_site_fract_x
 _atom_site_fract_y
 _atom_site_fract_z
 _atom_site_occupancy
  Ca  Ca0  1  0.804397  0.195603  0.750000  1
  Pa  Pa1  1  0.195403  0.395071  0.250000  1
  Pa  Pa2  1  0.798966  0.608037  0.750000  1
  Pa  Pa3  1  0.604929  0.804597  0.250000  1
  Pa  Pa4  1  0.391963  0.201034  0.750000  1
  Pa  Pa5  1  0.198809  0.801191  0.250000  1
  Al  Al6  1  0.335039  0.664961  0.014126  1
  Al  Al7  1  0.670403  0.329597  0.978763  1
  Al  Al8  1  0.670403  0.329597  0.521237  1
  Al  Al9  1  0.335039  0.664961  0.485874  1
  Al  Al10  1  0.160355  0.323912  0.578216  1
  Al  Al11  1  0.837586  0.675587  0.420856  1
  Al  Al12  1  0.676088  0.839645  0.578216  1
  Al  Al13  1  0.837586  0.675587  0.079144  1
  Al  Al14  1  0.324413  0.162414  0.420856  1
  Al  Al15  1  0.160355  0.323912  0.921784  1
  Al  Al16  1  0.162213  0.837787  0.581814  1
  Al  Al17  1  0.324413  0.162414  0.079144  1
  Al  Al18  1  0.837942  0.162058  0.423061  1
  Al  Al19  1  0.676088  0.839645  0.921784  1
  Al  Al20  1  0.837942  0.162058  0.076939  1
  Al  Al21  1  0.162213  0.837787  0.918186  1
  Al  Al22  1  0.564555  0.128635  0.250000  1
  Al  Al23  1  0.442693  0.882038  0.750000  1
  Al  Al24  1  0.871365  0.435445  0.250000  1
  Al  Al25  1  0.117962  0.557307  0.750000  1
  Al  Al26  1  0.562174  0.437826  0.250000  1
  Al  Al27  1  0.434567  0.565433  0.750000  1
  Al  Al28  1  0.999943  0.000057  0.250000  1
  Al  Al29  1  0.999365  0.000635  0.750000  1
  Os  Os30  1  0.495211  0.994886  0.006243  1
  Os  Os31  1  0.005114  0.504789  0.006243  1
  Os  Os32  1  0.495211  0.994886  0.493757  1
  Os  Os33  1  0.501780  0.498220  0.997360  1
  Os  Os34  1  0.005114  0.504789  0.493757  1
  Os  Os35  1  0.501780  0.498220  0.502640  1
  Os  Os36  1  0.000313  0.999687  0.000175  1
  Os  Os37  1  0.000313  0.999687  0.499825  1
