# generated using pymatgen
data_Y15ThMgCd3Ni4
_symmetry_space_group_name_H-M   'P 1'
_cell_length_a   9.66222822
_cell_length_b   9.66222852
_cell_length_c   9.66222781
_cell_angle_alpha   59.93283412
_cell_angle_beta   59.93283165
_cell_angle_gamma   59.93283554
_symmetry_Int_Tables_number   1
_chemical_formula_structural   Y15ThMgCd3Ni4
_chemical_formula_sum   'Y15 Th1 Mg1 Cd3 Ni4'
_cell_volume   636.87577804
_cell_formula_units_Z   1
loop_
 _symmetry_equiv_pos_site_id
 _symmetry_equiv_pos_as_xyz
  1  'x, y, z'
loop_
 _atom_site_type_symbol
 _atom_site_label
 _atom_site_symmetry_multiplicity
 _atom_site_fract_x
 _atom_site_fract_y
 _atom_site_fract_z
 _atom_site_occupancy
  Y  Y0  1  0.597883  0.597883  0.202667  1
  Y  Y1  1  0.597883  0.202667  0.597883  1
  Y  Y2  1  0.202667  0.597883  0.597883  1
  Y  Y3  1  0.061401  0.440108  0.440108  1
  Y  Y4  1  0.439299  0.063410  0.063410  1
  Y  Y5  1  0.440108  0.061401  0.440108  1
  Y  Y6  1  0.063410  0.439299  0.063410  1
  Y  Y7  1  0.440108  0.440108  0.061401  1
  Y  Y8  1  0.063410  0.063410  0.439299  1
  Y  Y9  1  0.188482  0.814944  0.814944  1
  Y  Y10  1  0.813691  0.186658  0.186658  1
  Y  Y11  1  0.814944  0.188482  0.814944  1
  Y  Y12  1  0.186658  0.813691  0.186658  1
  Y  Y13  1  0.814944  0.814944  0.188482  1
  Y  Y14  1  0.186658  0.186658  0.813691  1
  Th  Th15  1  0.593790  0.593790  0.593790  1
  Mg  Mg16  1  0.825655  0.825655  0.825655  1
  Cd  Cd17  1  0.831643  0.831643  0.505067  1
  Cd  Cd18  1  0.831643  0.505067  0.831643  1
  Cd  Cd19  1  0.505067  0.831643  0.831643  1
  Ni  Ni20  1  0.392632  0.392632  0.392632  1
  Ni  Ni21  1  0.393718  0.393718  0.820589  1
  Ni  Ni22  1  0.393718  0.820589  0.393718  1
  Ni  Ni23  1  0.820589  0.393718  0.393718  1
