# generated using pymatgen
data_SrLaTb5OsBr12
_symmetry_space_group_name_H-M   'P 1'
_cell_length_a   9.47828146
_cell_length_b   9.27044416
_cell_length_c   9.48298358
_cell_angle_alpha   105.61510961
_cell_angle_beta   106.11945988
_cell_angle_gamma   106.79726128
_symmetry_Int_Tables_number   1
_chemical_formula_structural   SrLaTb5OsBr12
_chemical_formula_sum   'Sr1 La1 Tb5 Os1 Br12'
_cell_volume   708.87660965
_cell_formula_units_Z   1
loop_
 _symmetry_equiv_pos_site_id
 _symmetry_equiv_pos_as_xyz
  1  'x, y, z'
loop_
 _atom_site_type_symbol
 _atom_site_label
 _atom_site_symmetry_multiplicity
 _atom_site_fract_x
 _atom_site_fract_y
 _atom_site_fract_z
 _atom_site_occupancy
  Sr  Sr0  1  0.499637  0.501363  0.497918  1
  La  La1  1  0.899986  0.698325  0.982453  1
  Tb  Tb2  1  0.098916  0.292828  0.018514  1
  Tb  Tb3  1  0.314509  0.018410  0.105146  1
  Tb  Tb4  1  0.019447  0.105788  0.312817  1
  Tb  Tb5  1  0.981627  0.898778  0.689556  1
  Tb  Tb6  1  0.685488  0.979096  0.894469  1
  Os  Os7  1  0.996579  0.989334  0.001210  1
  Br  Br8  1  0.230275  0.682237  0.075876  1
  Br  Br9  1  0.442367  0.361927  0.143771  1
  Br  Br10  1  0.677977  0.072835  0.212524  1
  Br  Br11  1  0.930914  0.792760  0.335012  1
  Br  Br12  1  0.144600  0.445498  0.357512  1
  Br  Br13  1  0.361126  0.142280  0.445490  1
  Br  Br14  1  0.639498  0.861903  0.555787  1
  Br  Br15  1  0.852208  0.552751  0.624164  1
  Br  Br16  1  0.074256  0.219664  0.685192  1
  Br  Br17  1  0.322409  0.931100  0.787942  1
  Br  Br18  1  0.539854  0.636683  0.845288  1
  Br  Br19  1  0.788327  0.316441  0.929360  1
