# generated using pymatgen
data_Ba4DyNbO8
_symmetry_space_group_name_H-M   'P 1'
_cell_length_a   7.45545820
_cell_length_b   7.45545746
_cell_length_c   6.04713700
_cell_angle_alpha   90.00000000
_cell_angle_beta   90.00000000
_cell_angle_gamma   132.36219927
_symmetry_Int_Tables_number   1
_chemical_formula_structural   Ba4DyNbO8
_chemical_formula_sum   'Ba4 Dy1 Nb1 O8'
_cell_volume   248.36142273
_cell_formula_units_Z   1
loop_
 _symmetry_equiv_pos_site_id
 _symmetry_equiv_pos_as_xyz
  1  'x, y, z'
loop_
 _atom_site_type_symbol
 _atom_site_label
 _atom_site_symmetry_multiplicity
 _atom_site_fract_x
 _atom_site_fract_y
 _atom_site_fract_z
 _atom_site_occupancy
  Ba  Ba0  1  0.353441  0.646559  0.000000  1
  Ba  Ba1  1  0.853442  0.146558  0.500000  1
  Ba  Ba2  1  0.146558  0.853442  0.500000  1
  Ba  Ba3  1  0.646559  0.353441  0.000000  1
  Dy  Dy4  1  0.000000  0.000000  0.000000  1
  Nb  Nb5  1  0.500000  0.500000  0.500000  1
  O  O6  1  0.261529  0.261529  0.734156  1
  O  O7  1  0.738471  0.738471  0.265844  1
  O  O8  1  0.738471  0.738471  0.734156  1
  O  O9  1  0.261529  0.261529  0.265844  1
  O  O10  1  0.165926  0.834074  0.000000  1
  O  O11  1  0.651414  0.348586  0.500000  1
  O  O12  1  0.348586  0.651414  0.500000  1
  O  O13  1  0.834074  0.165926  0.000000  1
