# generated using pymatgen
data_K3Ba3TmAs4
_symmetry_space_group_name_H-M   'P 1'
_cell_length_a   10.81708100
_cell_length_b   10.81708217
_cell_length_c   8.15034400
_cell_angle_alpha   90.00000000
_cell_angle_beta   90.00000000
_cell_angle_gamma   119.99999949
_symmetry_Int_Tables_number   1
_chemical_formula_structural   K3Ba3TmAs4
_chemical_formula_sum   'K6 Ba6 Tm2 As8'
_cell_volume   825.89870222
_cell_formula_units_Z   2
loop_
 _symmetry_equiv_pos_site_id
 _symmetry_equiv_pos_as_xyz
  1  'x, y, z'
loop_
 _atom_site_type_symbol
 _atom_site_label
 _atom_site_symmetry_multiplicity
 _atom_site_fract_x
 _atom_site_fract_y
 _atom_site_fract_z
 _atom_site_occupancy
  K  K0  1  0.135008  0.864992  0.171018  1
  K  K1  1  0.270018  0.135008  0.671018  1
  K  K2  1  0.864992  0.729982  0.671018  1
  K  K3  1  0.135008  0.270018  0.171018  1
  K  K4  1  0.729982  0.864992  0.171018  1
  K  K5  1  0.864992  0.135008  0.671018  1
  Ba  Ba6  1  0.470208  0.940415  0.497901  1
  Ba  Ba7  1  0.529792  0.059585  0.997901  1
  Ba  Ba8  1  0.940415  0.470208  0.997901  1
  Ba  Ba9  1  0.470208  0.529792  0.497901  1
  Ba  Ba10  1  0.529792  0.470208  0.997901  1
  Ba  Ba11  1  0.059585  0.529792  0.497901  1
  Tm  Tm12  1  0.333333  0.666667  0.889231  1
  Tm  Tm13  1  0.666667  0.333333  0.389231  1
  As  As14  1  0.195252  0.804748  0.770466  1
  As  As15  1  0.390504  0.195252  0.270466  1
  As  As16  1  0.804748  0.609496  0.270466  1
  As  As17  1  0.195252  0.390504  0.770466  1
  As  As18  1  0.609496  0.804748  0.770466  1
  As  As19  1  0.804748  0.195252  0.270466  1
  As  As20  1  0.333333  0.666667  0.233298  1
  As  As21  1  0.666667  0.333333  0.733298  1
