# generated using pymatgen
data_CePa2Zn3PdPt2
_symmetry_space_group_name_H-M   'P 1'
_cell_length_a   7.34015500
_cell_length_b   7.33360537
_cell_length_c   3.89888200
_cell_angle_alpha   90.00000000
_cell_angle_beta   90.00000000
_cell_angle_gamma   120.02954334
_symmetry_Int_Tables_number   1
_chemical_formula_structural   CePa2Zn3PdPt2
_chemical_formula_sum   'Ce1 Pa2 Zn3 Pd1 Pt2'
_cell_volume   181.70384804
_cell_formula_units_Z   1
loop_
 _symmetry_equiv_pos_site_id
 _symmetry_equiv_pos_as_xyz
  1  'x, y, z'
loop_
 _atom_site_type_symbol
 _atom_site_label
 _atom_site_symmetry_multiplicity
 _atom_site_fract_x
 _atom_site_fract_y
 _atom_site_fract_z
 _atom_site_occupancy
  Ce  Ce0  1  0.410998  0.000000  0.000000  1
  Pa  Pa1  1  0.001002  0.413915  0.000000  1
  Pa  Pa2  1  0.587087  0.586085  0.000000  1
  Zn  Zn3  1  0.003546  0.757421  0.500000  1
  Zn  Zn4  1  0.246125  0.242579  0.500000  1
  Zn  Zn5  1  0.749272  0.000000  0.500000  1
  Pd  Pd6  1  0.990686  0.000000  0.000000  1
  Pt  Pt7  1  0.679576  0.347869  0.500000  1
  Pt  Pt8  1  0.331708  0.652131  0.500000  1
