# generated using pymatgen
data_La12Si2Br17
_symmetry_space_group_name_H-M   'P 1'
_cell_length_a   9.62536155
_cell_length_b   11.54415151
_cell_length_c   11.37947684
_cell_angle_alpha   93.86917582
_cell_angle_beta   104.69834190
_cell_angle_gamma   115.32747959
_symmetry_Int_Tables_number   1
_chemical_formula_structural   La12Si2Br17
_chemical_formula_sum   'La12 Si2 Br17'
_cell_volume   1082.86876927
_cell_formula_units_Z   1
loop_
 _symmetry_equiv_pos_site_id
 _symmetry_equiv_pos_as_xyz
  1  'x, y, z'
loop_
 _atom_site_type_symbol
 _atom_site_label
 _atom_site_symmetry_multiplicity
 _atom_site_fract_x
 _atom_site_fract_y
 _atom_site_fract_z
 _atom_site_occupancy
  La  La0  1  0.069914  0.533538  0.334141  1
  La  La1  1  0.983379  0.813727  0.565486  1
  La  La2  1  0.621209  0.237133  0.286488  1
  La  La3  1  0.016621  0.186273  0.434514  1
  La  La4  1  0.228592  0.662809  0.010365  1
  La  La5  1  0.282713  0.007381  0.910618  1
  La  La6  1  0.378791  0.762867  0.713512  1
  La  La7  1  0.930086  0.466462  0.665859  1
  La  La8  1  0.717287  0.992619  0.089382  1
  La  La9  1  0.167916  0.290377  0.141071  1
  La  La10  1  0.771408  0.337191  0.989635  1
  La  La11  1  0.832084  0.709623  0.858929  1
  Si  Si12  1  0.105891  0.737501  0.786898  1
  Si  Si13  1  0.894109  0.262499  0.213102  1
  Br  Br14  1  0.779158  0.527089  0.416437  1
  Br  Br15  1  0.631749  0.419154  0.743653  1
  Br  Br16  1  0.840491  0.896587  0.318922  1
  Br  Br17  1  0.318725  0.212453  0.369423  1
  Br  Br18  1  0.159509  0.103413  0.681078  1
  Br  Br19  1  0.587602  0.055542  0.833532  1
  Br  Br20  1  0.742110  0.167694  0.533806  1
  Br  Br21  1  0.535191  0.687905  0.951862  1
  Br  Br22  1  0.368251  0.580846  0.256347  1
  Br  Br23  1  0.220842  0.472911  0.583563  1
  Br  Br24  1  0.056866  0.364902  0.891218  1
  Br  Br25  1  0.464809  0.312095  0.048138  1
  Br  Br26  1  0.000000  0.000000  0.000000  1
  Br  Br27  1  0.257890  0.832306  0.466194  1
  Br  Br28  1  0.412398  0.944458  0.166468  1
  Br  Br29  1  0.681275  0.787547  0.630577  1
  Br  Br30  1  0.943134  0.635098  0.108782  1
