# generated using pymatgen
data_Li4Ce2PrSi4
_symmetry_space_group_name_H-M   'P 1'
_cell_length_a   4.45982079
_cell_length_b   6.74581165
_cell_length_c   8.36208510
_cell_angle_alpha   113.78819555
_cell_angle_beta   105.46617061
_cell_angle_gamma   89.99999866
_symmetry_Int_Tables_number   1
_chemical_formula_structural   Li4Ce2PrSi4
_chemical_formula_sum   'Li4 Ce2 Pr1 Si4'
_cell_volume   220.20879335
_cell_formula_units_Z   1
loop_
 _symmetry_equiv_pos_site_id
 _symmetry_equiv_pos_as_xyz
  1  'x, y, z'
loop_
 _atom_site_type_symbol
 _atom_site_label
 _atom_site_symmetry_multiplicity
 _atom_site_fract_x
 _atom_site_fract_y
 _atom_site_fract_z
 _atom_site_occupancy
  Li  Li0  1  0.670058  0.979845  0.340115  1
  Li  Li1  1  0.329706  0.019181  0.659413  1
  Li  Li2  1  0.329706  0.640232  0.659413  1
  Li  Li3  1  0.670058  0.360270  0.340115  1
  Ce  Ce4  1  0.999925  0.999925  0.999850  1
  Ce  Ce5  1  0.868686  0.368686  0.737371  1
  Pr  Pr6  1  0.131133  0.631133  0.262266  1
  Si  Si7  1  0.497642  0.677860  0.995283  1
  Si  Si8  1  0.497642  0.317423  0.995283  1
  Si  Si9  1  0.791295  0.791295  0.582589  1
  Si  Si10  1  0.214150  0.214150  0.428300  1
