# generated using pymatgen
data_Nd3Ni8MoP6
_symmetry_space_group_name_H-M   'P 1'
_cell_length_a   3.83491400
_cell_length_b   10.77491700
_cell_length_c   12.48148700
_cell_angle_alpha   90.00000000
_cell_angle_beta   90.00000000
_cell_angle_gamma   90.00000000
_symmetry_Int_Tables_number   1
_chemical_formula_structural   Nd3Ni8MoP6
_chemical_formula_sum   'Nd6 Ni16 Mo2 P12'
_cell_volume   515.74602720
_cell_formula_units_Z   2
loop_
 _symmetry_equiv_pos_site_id
 _symmetry_equiv_pos_as_xyz
  1  'x, y, z'
loop_
 _atom_site_type_symbol
 _atom_site_label
 _atom_site_symmetry_multiplicity
 _atom_site_fract_x
 _atom_site_fract_y
 _atom_site_fract_z
 _atom_site_occupancy
  Nd  Nd0  1  0.000000  0.500000  0.521494  1
  Nd  Nd1  1  0.500000  0.000000  0.478506  1
  Nd  Nd2  1  0.500000  0.816615  0.206369  1
  Nd  Nd3  1  0.500000  0.183385  0.206369  1
  Nd  Nd4  1  0.000000  0.683385  0.793631  1
  Nd  Nd5  1  0.000000  0.316615  0.793631  1
  Ni  Ni6  1  0.500000  0.500000  0.700930  1
  Ni  Ni7  1  0.000000  0.000000  0.299070  1
  Ni  Ni8  1  0.000000  0.500000  0.984890  1
  Ni  Ni9  1  0.500000  0.000000  0.015110  1
  Ni  Ni10  1  0.500000  0.332161  0.989821  1
  Ni  Ni11  1  0.500000  0.667839  0.989821  1
  Ni  Ni12  1  0.000000  0.167839  0.010179  1
  Ni  Ni13  1  0.000000  0.832161  0.010179  1
  Ni  Ni14  1  0.500000  0.302535  0.425480  1
  Ni  Ni15  1  0.500000  0.697465  0.425480  1
  Ni  Ni16  1  0.000000  0.197465  0.574520  1
  Ni  Ni17  1  0.000000  0.802535  0.574520  1
  Ni  Ni18  1  0.500000  0.882301  0.712397  1
  Ni  Ni19  1  0.500000  0.117699  0.712397  1
  Ni  Ni20  1  0.000000  0.617699  0.287603  1
  Ni  Ni21  1  0.000000  0.382301  0.287603  1
  Mo  Mo22  1  0.500000  0.500000  0.150319  1
  Mo  Mo23  1  0.000000  0.000000  0.849681  1
  P  P24  1  0.500000  0.500000  0.881501  1
  P  P25  1  0.000000  0.000000  0.118499  1
  P  P26  1  0.500000  0.500000  0.342873  1
  P  P27  1  0.000000  0.000000  0.657127  1
  P  P28  1  0.500000  0.310119  0.612091  1
  P  P29  1  0.500000  0.689881  0.612091  1
  P  P30  1  0.000000  0.189881  0.387909  1
  P  P31  1  0.000000  0.810119  0.387909  1
  P  P32  1  0.500000  0.847015  0.896328  1
  P  P33  1  0.500000  0.152985  0.896328  1
  P  P34  1  0.000000  0.652985  0.103672  1
  P  P35  1  0.000000  0.347015  0.103672  1
