# generated using pymatgen
data_Y7Th(AlIr)2
_symmetry_space_group_name_H-M   'P 1'
_cell_length_a   9.63888189
_cell_length_b   9.63888085
_cell_length_c   9.62503100
_cell_angle_alpha   60.04752346
_cell_angle_beta   60.04752699
_cell_angle_gamma   60.25983369
_symmetry_Int_Tables_number   1
_chemical_formula_structural   Y7Th(AlIr)2
_chemical_formula_sum   'Y14 Th2 Al4 Ir4'
_cell_volume   634.01394173
_cell_formula_units_Z   2
loop_
 _symmetry_equiv_pos_site_id
 _symmetry_equiv_pos_as_xyz
  1  'x, y, z'
loop_
 _atom_site_type_symbol
 _atom_site_label
 _atom_site_symmetry_multiplicity
 _atom_site_fract_x
 _atom_site_fract_y
 _atom_site_fract_z
 _atom_site_occupancy
  Y  Y0  1  0.355749  0.939057  0.352597  1
  Y  Y1  1  0.939057  0.355749  0.352597  1
  Y  Y2  1  0.808249  0.194233  0.191920  1
  Y  Y3  1  0.194233  0.808249  0.805598  1
  Y  Y4  1  0.194233  0.808249  0.191920  1
  Y  Y5  1  0.808249  0.194233  0.805598  1
  Y  Y6  1  0.190907  0.190907  0.809093  1
  Y  Y7  1  0.806618  0.806618  0.193382  1
  Y  Y8  1  0.938048  0.564134  0.561823  1
  Y  Y9  1  0.564134  0.938048  0.935997  1
  Y  Y10  1  0.564134  0.938048  0.561823  1
  Y  Y11  1  0.938048  0.564134  0.935997  1
  Y  Y12  1  0.563245  0.563245  0.936755  1
  Y  Y13  1  0.942267  0.942267  0.557733  1
  Th  Th14  1  0.347541  0.347541  0.350803  1
  Th  Th15  1  0.347541  0.347541  0.954116  1
  Al  Al16  1  0.578692  0.578692  0.578571  1
  Al  Al17  1  0.578692  0.578692  0.264047  1
  Al  Al18  1  0.577273  0.264640  0.579044  1
  Al  Al19  1  0.264640  0.577273  0.579044  1
  Ir  Ir20  1  0.140685  0.140685  0.146070  1
  Ir  Ir21  1  0.140685  0.140685  0.572561  1
  Ir  Ir22  1  0.144239  0.572843  0.141460  1
  Ir  Ir23  1  0.572843  0.144239  0.141460  1
