# generated using pymatgen
data_Tm3Mg3Si2Rh
_symmetry_space_group_name_H-M   'P 1'
_cell_length_a   7.12617500
_cell_length_b   7.12617338
_cell_length_c   4.23574800
_cell_angle_alpha   90.00000000
_cell_angle_beta   90.00000000
_cell_angle_gamma   120.00000288
_symmetry_Int_Tables_number   1
_chemical_formula_structural   Tm3Mg3Si2Rh
_chemical_formula_sum   'Tm3 Mg3 Si2 Rh1'
_cell_volume   186.28316211
_cell_formula_units_Z   1
loop_
 _symmetry_equiv_pos_site_id
 _symmetry_equiv_pos_as_xyz
  1  'x, y, z'
loop_
 _atom_site_type_symbol
 _atom_site_label
 _atom_site_symmetry_multiplicity
 _atom_site_fract_x
 _atom_site_fract_y
 _atom_site_fract_z
 _atom_site_occupancy
  Tm  Tm0  1  0.414367  0.000000  0.000000  1
  Tm  Tm1  1  0.000000  0.414367  0.000000  1
  Tm  Tm2  1  0.585633  0.585633  0.000000  1
  Mg  Mg3  1  0.759476  0.000000  0.500000  1
  Mg  Mg4  1  0.240524  0.240525  0.500000  1
  Mg  Mg5  1  0.000000  0.759476  0.500000  1
  Si  Si6  1  0.666666  0.333333  0.500000  1
  Si  Si7  1  0.333333  0.666667  0.500000  1
  Rh  Rh8  1  0.000000  0.000000  0.000000  1
