# generated using pymatgen
data_DyYGa10Ru3
_symmetry_space_group_name_H-M   'P 1'
_cell_length_a   8.91193019
_cell_length_b   8.91193019
_cell_length_c   6.44929800
_cell_angle_alpha   90.00000000
_cell_angle_beta   90.00000000
_cell_angle_gamma   89.97646946
_symmetry_Int_Tables_number   1
_chemical_formula_structural   DyYGa10Ru3
_chemical_formula_sum   'Dy2 Y2 Ga20 Ru6'
_cell_volume   512.21932511
_cell_formula_units_Z   2
loop_
 _symmetry_equiv_pos_site_id
 _symmetry_equiv_pos_as_xyz
  1  'x, y, z'
loop_
 _atom_site_type_symbol
 _atom_site_label
 _atom_site_symmetry_multiplicity
 _atom_site_fract_x
 _atom_site_fract_y
 _atom_site_fract_z
 _atom_site_occupancy
  Dy  Dy0  1  0.182679  0.682679  0.000000  1
  Dy  Dy1  1  0.817321  0.317321  0.000000  1
  Y  Y2  1  0.682646  0.817354  0.000000  1
  Y  Y3  1  0.317354  0.182646  0.000000  1
  Ga  Ga4  1  0.060940  0.206202  0.705725  1
  Ga  Ga5  1  0.939060  0.793798  0.705725  1
  Ga  Ga6  1  0.561131  0.293799  0.705772  1
  Ga  Ga7  1  0.438869  0.706201  0.705772  1
  Ga  Ga8  1  0.793799  0.061131  0.705772  1
  Ga  Ga9  1  0.206201  0.938869  0.705772  1
  Ga  Ga10  1  0.706202  0.560940  0.705725  1
  Ga  Ga11  1  0.293798  0.439060  0.705725  1
  Ga  Ga12  1  0.939060  0.793798  0.294275  1
  Ga  Ga13  1  0.060940  0.206202  0.294275  1
  Ga  Ga14  1  0.438869  0.706201  0.294228  1
  Ga  Ga15  1  0.561131  0.293799  0.294228  1
  Ga  Ga16  1  0.206201  0.938869  0.294228  1
  Ga  Ga17  1  0.793799  0.061131  0.294228  1
  Ga  Ga18  1  0.293798  0.439060  0.294275  1
  Ga  Ga19  1  0.706202  0.560940  0.294275  1
  Ga  Ga20  1  0.000000  0.500000  0.710258  1
  Ga  Ga21  1  0.500000  0.000000  0.709558  1
  Ga  Ga22  1  0.000000  0.500000  0.289742  1
  Ga  Ga23  1  0.500000  0.000000  0.290442  1
  Ru  Ru24  1  0.178456  0.678456  0.500000  1
  Ru  Ru25  1  0.821544  0.321544  0.500000  1
  Ru  Ru26  1  0.678526  0.821474  0.500000  1
  Ru  Ru27  1  0.321474  0.178526  0.500000  1
  Ru  Ru28  1  0.000000  0.000000  0.000000  1
  Ru  Ru29  1  0.500000  0.500000  0.000000  1
