# generated using pymatgen
data_DyEr3(Si4Tc3)2
_symmetry_space_group_name_H-M   'P 1'
_cell_length_a   6.77605701
_cell_length_b   6.75200790
_cell_length_c   6.76840124
_cell_angle_alpha   69.82036357
_cell_angle_beta   90.05546118
_cell_angle_gamma   89.99200875
_symmetry_Int_Tables_number   1
_chemical_formula_structural   DyEr3(Si4Tc3)2
_chemical_formula_sum   'Dy1 Er3 Si8 Tc6'
_cell_volume   290.65890855
_cell_formula_units_Z   1
loop_
 _symmetry_equiv_pos_site_id
 _symmetry_equiv_pos_as_xyz
  1  'x, y, z'
loop_
 _atom_site_type_symbol
 _atom_site_label
 _atom_site_symmetry_multiplicity
 _atom_site_fract_x
 _atom_site_fract_y
 _atom_site_fract_z
 _atom_site_occupancy
  Dy  Dy0  1  0.667305  0.442066  0.191024  1
  Er  Er1  1  0.167948  0.057868  0.808246  1
  Er  Er2  1  0.331986  0.557880  0.808073  1
  Er  Er3  1  0.832195  0.942100  0.191825  1
  Si  Si4  1  0.449018  0.122396  0.101835  1
  Si  Si5  1  0.949778  0.376915  0.897475  1
  Si  Si6  1  0.550483  0.877595  0.897557  1
  Si  Si7  1  0.051492  0.623356  0.101886  1
  Si  Si8  1  0.859249  0.130923  0.512997  1
  Si  Si9  1  0.358111  0.368243  0.488230  1
  Si  Si10  1  0.141227  0.868320  0.487797  1
  Si  Si11  1  0.641235  0.632039  0.513051  1
  Tc  Tc12  1  0.499722  0.999333  0.500359  1
  Tc  Tc13  1  0.000408  0.500113  0.500278  1
  Tc  Tc14  1  0.150364  0.242553  0.238679  1
  Tc  Tc15  1  0.650220  0.257180  0.760875  1
  Tc  Tc16  1  0.850099  0.757679  0.760928  1
  Tc  Tc17  1  0.349159  0.743442  0.238885  1
