# generated using pymatgen
data_CaNd3(NiH6)2
_symmetry_space_group_name_H-M   'P 1'
_cell_length_a   7.15670911
_cell_length_b   7.15671114
_cell_length_c   5.13602300
_cell_angle_alpha   89.99011274
_cell_angle_beta   89.99010473
_cell_angle_gamma   137.97808379
_symmetry_Int_Tables_number   1
_chemical_formula_structural   CaNd3(NiH6)2
_chemical_formula_sum   'Ca1 Nd3 Ni2 H12'
_cell_volume   176.09583519
_cell_formula_units_Z   1
loop_
 _symmetry_equiv_pos_site_id
 _symmetry_equiv_pos_as_xyz
  1  'x, y, z'
loop_
 _atom_site_type_symbol
 _atom_site_label
 _atom_site_symmetry_multiplicity
 _atom_site_fract_x
 _atom_site_fract_y
 _atom_site_fract_z
 _atom_site_occupancy
  Ca  Ca0  1  0.140335  0.859665  0.500000  1
  Nd  Nd1  1  0.636810  0.363190  0.000000  1
  Nd  Nd2  1  0.358785  0.641215  0.000000  1
  Nd  Nd3  1  0.859719  0.140281  0.500000  1
  Ni  Ni4  1  0.000863  0.999137  0.000000  1
  Ni  Ni5  1  0.500548  0.499452  0.500000  1
  H  H6  1  0.880310  0.119690  0.000000  1
  H  H7  1  0.121916  0.878084  0.000000  1
  H  H8  1  0.621467  0.378533  0.500000  1
  H  H9  1  0.379165  0.620835  0.500000  1
  H  H10  1  0.997248  0.496221  0.248609  1
  H  H11  1  0.997372  0.496341  0.751099  1
  H  H12  1  0.503779  0.002752  0.751391  1
  H  H13  1  0.503659  0.002628  0.248901  1
  H  H14  1  0.250477  0.251290  0.247288  1
  H  H15  1  0.748710  0.749523  0.752712  1
  H  H16  1  0.254154  0.255320  0.752364  1
  H  H17  1  0.744680  0.745846  0.247636  1
