# generated using pymatgen
data_Zr2Nb4Al16Ir7
_symmetry_space_group_name_H-M   'P 1'
_cell_length_a   8.65027581
_cell_length_b   8.65027536
_cell_length_c   8.62888000
_cell_angle_alpha   60.08250208
_cell_angle_beta   60.08250493
_cell_angle_gamma   59.82307229
_symmetry_Int_Tables_number   1
_chemical_formula_structural   Zr2Nb4Al16Ir7
_chemical_formula_sum   'Zr2 Nb4 Al16 Ir7'
_cell_volume   456.51417187
_cell_formula_units_Z   1
loop_
 _symmetry_equiv_pos_site_id
 _symmetry_equiv_pos_as_xyz
  1  'x, y, z'
loop_
 _atom_site_type_symbol
 _atom_site_label
 _atom_site_symmetry_multiplicity
 _atom_site_fract_x
 _atom_site_fract_y
 _atom_site_fract_z
 _atom_site_occupancy
  Zr  Zr0  1  0.688088  0.311920  0.687452  1
  Zr  Zr1  1  0.311920  0.688088  0.687452  1
  Nb  Nb2  1  0.682697  0.682697  0.316200  1
  Nb  Nb3  1  0.321058  0.678972  0.320049  1
  Nb  Nb4  1  0.678972  0.321058  0.320049  1
  Nb  Nb5  1  0.317260  0.317260  0.681624  1
  Al  Al6  1  0.881353  0.881353  0.357207  1
  Al  Al7  1  0.881348  0.359283  0.881898  1
  Al  Al8  1  0.359283  0.881348  0.881898  1
  Al  Al9  1  0.878082  0.878082  0.882331  1
  Al  Al10  1  0.121966  0.121966  0.638515  1
  Al  Al11  1  0.118782  0.640691  0.122477  1
  Al  Al12  1  0.640691  0.118782  0.122477  1
  Al  Al13  1  0.118690  0.118690  0.119801  1
  Al  Al14  1  0.660812  0.660812  0.015680  1
  Al  Al15  1  0.660894  0.014358  0.659553  1
  Al  Al16  1  0.014358  0.660894  0.659553  1
  Al  Al17  1  0.663993  0.663993  0.659403  1
  Al  Al18  1  0.336003  0.336003  0.987232  1
  Al  Al19  1  0.338930  0.985783  0.334821  1
  Al  Al20  1  0.985783  0.338930  0.334821  1
  Al  Al21  1  0.339182  0.339182  0.337477  1
  Ir  Ir22  1  0.000001  0.000001  0.998094  1
  Ir  Ir23  1  0.999972  0.999972  0.498125  1
  Ir  Ir24  1  0.499585  0.002202  0.497634  1
  Ir  Ir25  1  0.002202  0.499585  0.497634  1
  Ir  Ir26  1  0.499975  0.499975  0.001450  1
  Ir  Ir27  1  0.997672  0.500450  0.999547  1
  Ir  Ir28  1  0.500450  0.997672  0.999547  1
