# generated using pymatgen
data_Nd4CoAg
_symmetry_space_group_name_H-M   'P 1'
_cell_length_a   9.73144561
_cell_length_b   9.73144473
_cell_length_c   9.73144500
_cell_angle_alpha   59.99999568
_cell_angle_beta   59.99999867
_cell_angle_gamma   59.99999808
_symmetry_Int_Tables_number   1
_chemical_formula_structural   Nd4CoAg
_chemical_formula_sum   'Nd16 Co4 Ag4'
_cell_volume   651.65388645
_cell_formula_units_Z   4
loop_
 _symmetry_equiv_pos_site_id
 _symmetry_equiv_pos_as_xyz
  1  'x, y, z'
loop_
 _atom_site_type_symbol
 _atom_site_label
 _atom_site_symmetry_multiplicity
 _atom_site_fract_x
 _atom_site_fract_y
 _atom_site_fract_z
 _atom_site_occupancy
  Nd  Nd0  1  0.597735  0.597735  0.597735  1
  Nd  Nd1  1  0.597735  0.597735  0.206795  1
  Nd  Nd2  1  0.597735  0.206795  0.597735  1
  Nd  Nd3  1  0.206795  0.597735  0.597735  1
  Nd  Nd4  1  0.187473  0.812527  0.812527  1
  Nd  Nd5  1  0.812527  0.187473  0.187473  1
  Nd  Nd6  1  0.812527  0.187473  0.812527  1
  Nd  Nd7  1  0.187473  0.812527  0.187473  1
  Nd  Nd8  1  0.812527  0.812527  0.187473  1
  Nd  Nd9  1  0.187473  0.187473  0.812527  1
  Nd  Nd10  1  0.060148  0.439852  0.439852  1
  Nd  Nd11  1  0.439852  0.060148  0.060148  1
  Nd  Nd12  1  0.439852  0.060148  0.439852  1
  Nd  Nd13  1  0.060148  0.439852  0.060148  1
  Nd  Nd14  1  0.439852  0.439852  0.060148  1
  Nd  Nd15  1  0.060148  0.060148  0.439852  1
  Co  Co16  1  0.390449  0.390449  0.390449  1
  Co  Co17  1  0.390449  0.390449  0.828653  1
  Co  Co18  1  0.390449  0.828653  0.390449  1
  Co  Co19  1  0.828653  0.390449  0.390449  1
  Ag  Ag20  1  0.829535  0.829535  0.829535  1
  Ag  Ag21  1  0.829535  0.829535  0.511394  1
  Ag  Ag22  1  0.829535  0.511394  0.829535  1
  Ag  Ag23  1  0.511394  0.829535  0.829535  1
