# generated using pymatgen
data_Pr4Th2MnCo17P12
_symmetry_space_group_name_H-M   'P 1'
_cell_length_a   3.78710900
_cell_length_b   10.69010700
_cell_length_c   12.41514800
_cell_angle_alpha   90.00000000
_cell_angle_beta   90.00000000
_cell_angle_gamma   90.00000000
_symmetry_Int_Tables_number   1
_chemical_formula_structural   Pr4Th2MnCo17P12
_chemical_formula_sum   'Pr4 Th2 Mn1 Co17 P12'
_cell_volume   502.62230607
_cell_formula_units_Z   1
loop_
 _symmetry_equiv_pos_site_id
 _symmetry_equiv_pos_as_xyz
  1  'x, y, z'
loop_
 _atom_site_type_symbol
 _atom_site_label
 _atom_site_symmetry_multiplicity
 _atom_site_fract_x
 _atom_site_fract_y
 _atom_site_fract_z
 _atom_site_occupancy
  Pr  Pr0  1  0.500000  0.816790  0.205747  1
  Pr  Pr1  1  0.500000  0.183210  0.205747  1
  Pr  Pr2  1  0.000000  0.684531  0.795376  1
  Pr  Pr3  1  0.000000  0.315469  0.795376  1
  Th  Th4  1  0.000000  0.500000  0.524741  1
  Th  Th5  1  0.500000  0.000000  0.476533  1
  Mn  Mn6  1  0.500000  0.500000  0.150953  1
  Co  Co7  1  0.000000  0.000000  0.842658  1
  Co  Co8  1  0.500000  0.500000  0.699107  1
  Co  Co9  1  0.000000  0.000000  0.301536  1
  Co  Co10  1  0.000000  0.500000  0.986797  1
  Co  Co11  1  0.500000  0.000000  0.014054  1
  Co  Co12  1  0.500000  0.332372  0.995163  1
  Co  Co13  1  0.500000  0.667628  0.995163  1
  Co  Co14  1  0.000000  0.164884  0.003561  1
  Co  Co15  1  0.000000  0.835116  0.003561  1
  Co  Co16  1  0.500000  0.299530  0.431109  1
  Co  Co17  1  0.500000  0.700470  0.431109  1
  Co  Co18  1  0.000000  0.200326  0.569469  1
  Co  Co19  1  0.000000  0.799674  0.569469  1
  Co  Co20  1  0.500000  0.882890  0.710843  1
  Co  Co21  1  0.500000  0.117110  0.710843  1
  Co  Co22  1  0.000000  0.618758  0.289914  1
  Co  Co23  1  0.000000  0.381242  0.289914  1
  P  P24  1  0.500000  0.500000  0.885664  1
  P  P25  1  0.000000  0.000000  0.114676  1
  P  P26  1  0.500000  0.500000  0.340975  1
  P  P27  1  0.000000  0.000000  0.661796  1
  P  P28  1  0.500000  0.303605  0.614477  1
  P  P29  1  0.500000  0.696395  0.614477  1
  P  P30  1  0.000000  0.196112  0.386605  1
  P  P31  1  0.000000  0.803888  0.386605  1
  P  P32  1  0.500000  0.850451  0.895862  1
  P  P33  1  0.500000  0.149549  0.895862  1
  P  P34  1  0.000000  0.653711  0.102125  1
  P  P35  1  0.000000  0.346289  0.102125  1
