# generated using pymatgen
data_Y9Lu(PPb3)2
_symmetry_space_group_name_H-M   'P 1'
_cell_length_a   9.14789500
_cell_length_b   9.14789535
_cell_length_c   6.81483800
_cell_angle_alpha   90.00000000
_cell_angle_beta   90.00000000
_cell_angle_gamma   120.00000958
_symmetry_Int_Tables_number   1
_chemical_formula_structural   Y9Lu(PPb3)2
_chemical_formula_sum   'Y9 Lu1 P2 Pb6'
_cell_volume   493.88801228
_cell_formula_units_Z   1
loop_
 _symmetry_equiv_pos_site_id
 _symmetry_equiv_pos_as_xyz
  1  'x, y, z'
loop_
 _atom_site_type_symbol
 _atom_site_label
 _atom_site_symmetry_multiplicity
 _atom_site_fract_x
 _atom_site_fract_y
 _atom_site_fract_z
 _atom_site_occupancy
  Y  Y0  1  0.762496  0.762006  0.750525  1
  Y  Y1  1  0.237994  0.000490  0.750525  1
  Y  Y2  1  0.999510  0.237504  0.750525  1
  Y  Y3  1  0.237994  0.237504  0.249475  1
  Y  Y4  1  0.762496  0.000490  0.249475  1
  Y  Y5  1  0.999510  0.762006  0.249475  1
  Y  Y6  1  0.333333  0.666667  0.000000  1
  Y  Y7  1  0.333333  0.666667  0.500000  1
  Y  Y8  1  0.666667  0.333333  0.500000  1
  Lu  Lu9  1  0.666667  0.333333  0.000000  1
  P  P10  1  0.000000  0.000000  0.000000  1
  P  P11  1  0.000000  0.000000  0.500000  1
  Pb  Pb12  1  0.402421  0.401239  0.751365  1
  Pb  Pb13  1  0.598761  0.001183  0.751365  1
  Pb  Pb14  1  0.998817  0.597579  0.751365  1
  Pb  Pb15  1  0.598761  0.597579  0.248635  1
  Pb  Pb16  1  0.402421  0.001183  0.248635  1
  Pb  Pb17  1  0.998817  0.401239  0.248635  1
