# generated using pymatgen
data_Tb4Ho8Os3Ru
_symmetry_space_group_name_H-M   'P 1'
_cell_length_a   6.32713509
_cell_length_b   7.36877537
_cell_length_c   9.07363400
_cell_angle_alpha   90.00000000
_cell_angle_beta   90.00000000
_cell_angle_gamma   89.95492919
_symmetry_Int_Tables_number   1
_chemical_formula_structural   Tb4Ho8Os3Ru
_chemical_formula_sum   'Tb4 Ho8 Os3 Ru1'
_cell_volume   423.04205986
_cell_formula_units_Z   1
loop_
 _symmetry_equiv_pos_site_id
 _symmetry_equiv_pos_as_xyz
  1  'x, y, z'
loop_
 _atom_site_type_symbol
 _atom_site_label
 _atom_site_symmetry_multiplicity
 _atom_site_fract_x
 _atom_site_fract_y
 _atom_site_fract_z
 _atom_site_occupancy
  Tb  Tb0  1  0.868848  0.538346  0.250000  1
  Tb  Tb1  1  0.630771  0.038859  0.250000  1
  Tb  Tb2  1  0.132415  0.460924  0.750000  1
  Tb  Tb3  1  0.369273  0.959342  0.750000  1
  Ho  Ho4  1  0.330008  0.675723  0.064883  1
  Ho  Ho5  1  0.169148  0.175471  0.436589  1
  Ho  Ho6  1  0.668747  0.324343  0.563940  1
  Ho  Ho7  1  0.832329  0.825487  0.936796  1
  Ho  Ho8  1  0.668747  0.324343  0.936060  1
  Ho  Ho9  1  0.832329  0.825487  0.563204  1
  Ho  Ho10  1  0.330008  0.675723  0.435117  1
  Ho  Ho11  1  0.169148  0.175471  0.063411  1
  Os  Os12  1  0.041167  0.884256  0.250000  1
  Os  Os13  1  0.458596  0.384478  0.250000  1
  Os  Os14  1  0.959075  0.115981  0.750000  1
  Ru  Ru15  1  0.539390  0.615766  0.750000  1
