# generated using pymatgen
data_Hf18Nb2CoCuRe6
_symmetry_space_group_name_H-M   'P 1'
_cell_length_a   8.68916900
_cell_length_b   8.68916730
_cell_length_c   8.45801000
_cell_angle_alpha   90.00000000
_cell_angle_beta   90.00000000
_cell_angle_gamma   119.99999503
_symmetry_Int_Tables_number   1
_chemical_formula_structural   Hf18Nb2CoCuRe6
_chemical_formula_sum   'Hf18 Nb2 Co1 Cu1 Re6'
_cell_volume   553.03835388
_cell_formula_units_Z   1
loop_
 _symmetry_equiv_pos_site_id
 _symmetry_equiv_pos_as_xyz
  1  'x, y, z'
loop_
 _atom_site_type_symbol
 _atom_site_label
 _atom_site_symmetry_multiplicity
 _atom_site_fract_x
 _atom_site_fract_y
 _atom_site_fract_z
 _atom_site_occupancy
  Hf  Hf0  1  0.197480  0.802520  0.445027  1
  Hf  Hf1  1  0.197480  0.394961  0.445027  1
  Hf  Hf2  1  0.605039  0.802520  0.445027  1
  Hf  Hf3  1  0.798290  0.201710  0.559096  1
  Hf  Hf4  1  0.798290  0.596579  0.559096  1
  Hf  Hf5  1  0.403421  0.201710  0.559096  1
  Hf  Hf6  1  0.798290  0.201710  0.940904  1
  Hf  Hf7  1  0.798290  0.596579  0.940904  1
  Hf  Hf8  1  0.403421  0.201710  0.940904  1
  Hf  Hf9  1  0.197480  0.802520  0.054973  1
  Hf  Hf10  1  0.197480  0.394961  0.054973  1
  Hf  Hf11  1  0.605039  0.802520  0.054973  1
  Hf  Hf12  1  0.541773  0.458227  0.250000  1
  Hf  Hf13  1  0.541773  0.083546  0.250000  1
  Hf  Hf14  1  0.916454  0.458227  0.250000  1
  Hf  Hf15  1  0.458682  0.541318  0.750000  1
  Hf  Hf16  1  0.458682  0.917364  0.750000  1
  Hf  Hf17  1  0.082636  0.541318  0.750000  1
  Nb  Nb18  1  0.000000  0.000000  0.500927  1
  Nb  Nb19  1  0.000000  0.000000  0.999073  1
  Co  Co20  1  0.666667  0.333333  0.750000  1
  Cu  Cu21  1  0.333333  0.666667  0.250000  1
  Re  Re22  1  0.886295  0.113705  0.250000  1
  Re  Re23  1  0.886295  0.772590  0.250000  1
  Re  Re24  1  0.227410  0.113705  0.250000  1
  Re  Re25  1  0.113869  0.886131  0.750000  1
  Re  Re26  1  0.113869  0.227738  0.750000  1
  Re  Re27  1  0.772262  0.886131  0.750000  1
