# generated using pymatgen
data_Lu5(RuPb2)2
_symmetry_space_group_name_H-M   'P 1'
_cell_length_a   8.01459700
_cell_length_b   17.98191100
_cell_length_c   3.51859600
_cell_angle_alpha   90.00000000
_cell_angle_beta   90.00000000
_cell_angle_gamma   90.00000000
_symmetry_Int_Tables_number   1
_chemical_formula_structural   Lu5(RuPb2)2
_chemical_formula_sum   'Lu10 Ru4 Pb8'
_cell_volume   507.09220889
_cell_formula_units_Z   2
loop_
 _symmetry_equiv_pos_site_id
 _symmetry_equiv_pos_as_xyz
  1  'x, y, z'
loop_
 _atom_site_type_symbol
 _atom_site_label
 _atom_site_symmetry_multiplicity
 _atom_site_fract_x
 _atom_site_fract_y
 _atom_site_fract_z
 _atom_site_occupancy
  Lu  Lu0  1  0.500000  0.500000  0.000000  1
  Lu  Lu1  1  0.000000  0.000000  0.000000  1
  Lu  Lu2  1  0.739259  0.280949  0.000000  1
  Lu  Lu3  1  0.260741  0.719051  0.000000  1
  Lu  Lu4  1  0.760741  0.780949  0.000000  1
  Lu  Lu5  1  0.239259  0.219051  0.000000  1
  Lu  Lu6  1  0.618984  0.089234  0.000000  1
  Lu  Lu7  1  0.381016  0.910766  0.000000  1
  Lu  Lu8  1  0.881016  0.589234  0.000000  1
  Lu  Lu9  1  0.118984  0.410766  0.000000  1
  Ru  Ru10  1  0.518702  0.194404  0.500000  1
  Ru  Ru11  1  0.481298  0.805596  0.500000  1
  Ru  Ru12  1  0.981298  0.694404  0.500000  1
  Ru  Ru13  1  0.018702  0.305596  0.500000  1
  Pb  Pb14  1  0.700714  0.935370  0.500000  1
  Pb  Pb15  1  0.299286  0.064630  0.500000  1
  Pb  Pb16  1  0.799286  0.435370  0.500000  1
  Pb  Pb17  1  0.200714  0.564630  0.500000  1
  Pb  Pb18  1  0.581943  0.651031  0.500000  1
  Pb  Pb19  1  0.418057  0.348969  0.500000  1
  Pb  Pb20  1  0.918057  0.151031  0.500000  1
  Pb  Pb21  1  0.081943  0.848969  0.500000  1
