# generated using pymatgen
data_Sc8V10ReSi16Ni
_symmetry_space_group_name_H-M   'P 1'
_cell_length_a   6.63079184
_cell_length_b   6.63079257
_cell_length_c   12.24191720
_cell_angle_alpha   90.23263551
_cell_angle_beta   89.76736322
_cell_angle_gamma   89.56036750
_symmetry_Int_Tables_number   1
_chemical_formula_structural   Sc8V10ReSi16Ni
_chemical_formula_sum   'Sc8 V10 Re1 Si16 Ni1'
_cell_volume   538.22054847
_cell_formula_units_Z   1
loop_
 _symmetry_equiv_pos_site_id
 _symmetry_equiv_pos_as_xyz
  1  'x, y, z'
loop_
 _atom_site_type_symbol
 _atom_site_label
 _atom_site_symmetry_multiplicity
 _atom_site_fract_x
 _atom_site_fract_y
 _atom_site_fract_z
 _atom_site_occupancy
  Sc  Sc0  1  0.001695  0.661413  0.029663  1
  Sc  Sc1  1  0.837318  0.501642  0.279666  1
  Sc  Sc2  1  0.163136  0.501046  0.780303  1
  Sc  Sc3  1  0.501642  0.837318  0.720334  1
  Sc  Sc4  1  0.501046  0.163136  0.219697  1
  Sc  Sc5  1  0.998694  0.337911  0.529331  1
  Sc  Sc6  1  0.661413  0.001695  0.970337  1
  Sc  Sc7  1  0.337911  0.998694  0.470669  1
  V  V8  1  0.167344  0.829641  0.250450  1
  V  V9  1  0.829641  0.167344  0.749550  1
  V  V10  1  0.003142  0.156621  0.124672  1
  V  V11  1  0.339822  0.504999  0.374284  1
  V  V12  1  0.659539  0.495010  0.875581  1
  V  V13  1  0.504999  0.339822  0.625716  1
  V  V14  1  0.495010  0.659539  0.124419  1
  V  V15  1  0.996411  0.846703  0.628844  1
  V  V16  1  0.156621  0.003142  0.875328  1
  V  V17  1  0.846703  0.996411  0.371156  1
  Re  Re18  1  0.667001  0.667001  0.500000  1
  Si  Si19  1  0.289929  0.957291  0.064590  1
  Si  Si20  1  0.538764  0.795289  0.314384  1
  Si  Si21  1  0.457610  0.206533  0.817424  1
  Si  Si22  1  0.795289  0.538764  0.685616  1
  Si  Si23  1  0.206533  0.457610  0.182576  1
  Si  Si24  1  0.707838  0.039602  0.564135  1
  Si  Si25  1  0.957291  0.289929  0.935410  1
  Si  Si26  1  0.039602  0.707838  0.435865  1
  Si  Si27  1  0.705349  0.374089  0.069377  1
  Si  Si28  1  0.132362  0.204046  0.318188  1
  Si  Si29  1  0.869392  0.797435  0.820617  1
  Si  Si30  1  0.204046  0.132362  0.681812  1
  Si  Si31  1  0.797435  0.869392  0.179383  1
  Si  Si32  1  0.295016  0.627844  0.571430  1
  Si  Si33  1  0.374089  0.705349  0.930623  1
  Si  Si34  1  0.627844  0.295016  0.428570  1
  Ni  Ni35  1  0.332520  0.332520  0.000000  1
