# generated using pymatgen
data_Zr(GaCu)6
_symmetry_space_group_name_H-M   'P 1'
_cell_length_a   6.54212476
_cell_length_b   6.54212404
_cell_length_c   6.54212415
_cell_angle_alpha   133.04308991
_cell_angle_beta   100.59694383
_cell_angle_gamma   97.67495159
_symmetry_Int_Tables_number   1
_chemical_formula_structural   Zr(GaCu)6
_chemical_formula_sum   'Zr1 Ga6 Cu6'
_cell_volume   187.60882875
_cell_formula_units_Z   1
loop_
 _symmetry_equiv_pos_site_id
 _symmetry_equiv_pos_as_xyz
  1  'x, y, z'
loop_
 _atom_site_type_symbol
 _atom_site_label
 _atom_site_symmetry_multiplicity
 _atom_site_fract_x
 _atom_site_fract_y
 _atom_site_fract_z
 _atom_site_occupancy
  Zr  Zr0  1  0.000000  0.000000  0.000000  1
  Ga  Ga1  1  0.344943  0.000000  0.344943  1
  Ga  Ga2  1  0.655057  0.000000  0.655057  1
  Ga  Ga3  1  0.659592  0.659592  0.000000  1
  Ga  Ga4  1  0.340408  0.340408  0.000000  1
  Ga  Ga5  1  0.171890  0.671890  0.500000  1
  Ga  Ga6  1  0.828110  0.328110  0.500000  1
  Cu  Cu7  1  0.757475  0.500000  0.257475  1
  Cu  Cu8  1  0.242525  0.500000  0.742525  1
  Cu  Cu9  1  0.000000  0.000000  0.500000  1
  Cu  Cu10  1  0.000000  0.500000  0.000000  1
  Cu  Cu11  1  0.500000  0.000000  0.000000  1
  Cu  Cu12  1  0.500000  0.500000  0.500000  1
