# generated using pymatgen
data_Ac2Zn3Rh
_symmetry_space_group_name_H-M   'P 1'
_cell_length_a   9.01378500
_cell_length_b   9.01378493
_cell_length_c   8.40209100
_cell_angle_alpha   90.00000000
_cell_angle_beta   90.00000000
_cell_angle_gamma   119.99999659
_symmetry_Int_Tables_number   1
_chemical_formula_structural   Ac2Zn3Rh
_chemical_formula_sum   'Ac8 Zn12 Rh4'
_cell_volume   591.19726177
_cell_formula_units_Z   4
loop_
 _symmetry_equiv_pos_site_id
 _symmetry_equiv_pos_as_xyz
  1  'x, y, z'
loop_
 _atom_site_type_symbol
 _atom_site_label
 _atom_site_symmetry_multiplicity
 _atom_site_fract_x
 _atom_site_fract_y
 _atom_site_fract_z
 _atom_site_occupancy
  Ac  Ac0  1  0.000000  0.000000  0.250000  1
  Ac  Ac1  1  0.000000  0.000000  0.750000  1
  Ac  Ac2  1  0.500028  0.499972  0.250000  1
  Ac  Ac3  1  0.500028  0.000056  0.250000  1
  Ac  Ac4  1  0.999944  0.499972  0.250000  1
  Ac  Ac5  1  0.499972  0.500028  0.750000  1
  Ac  Ac6  1  0.499972  0.999944  0.750000  1
  Ac  Ac7  1  0.000056  0.500028  0.750000  1
  Zn  Zn8  1  0.167981  0.832019  0.500283  1
  Zn  Zn9  1  0.167981  0.335961  0.500283  1
  Zn  Zn10  1  0.664039  0.832019  0.500283  1
  Zn  Zn11  1  0.832019  0.167981  0.499717  1
  Zn  Zn12  1  0.832019  0.664039  0.499717  1
  Zn  Zn13  1  0.335961  0.167981  0.499717  1
  Zn  Zn14  1  0.832019  0.167981  0.000283  1
  Zn  Zn15  1  0.832019  0.664039  0.000283  1
  Zn  Zn16  1  0.335961  0.167981  0.000283  1
  Zn  Zn17  1  0.167981  0.832019  0.999717  1
  Zn  Zn18  1  0.167981  0.335961  0.999717  1
  Zn  Zn19  1  0.664039  0.832019  0.999717  1
  Rh  Rh20  1  0.333333  0.666667  0.497582  1
  Rh  Rh21  1  0.666667  0.333333  0.502418  1
  Rh  Rh22  1  0.666667  0.333333  0.997582  1
  Rh  Rh23  1  0.333333  0.666667  0.002418  1
