# generated using pymatgen
data_Al4Hg11(AsI4)4
_symmetry_space_group_name_H-M   'P 1'
_cell_length_a   8.29116711
_cell_length_b   8.29116813
_cell_length_c   23.39062957
_cell_angle_alpha   82.35816407
_cell_angle_beta   82.35816381
_cell_angle_gamma   59.61929639
_symmetry_Int_Tables_number   1
_chemical_formula_structural   Al4Hg11(AsI4)4
_chemical_formula_sum   'Al4 Hg11 As4 I16'
_cell_volume   1370.76744755
_cell_formula_units_Z   1
loop_
 _symmetry_equiv_pos_site_id
 _symmetry_equiv_pos_as_xyz
  1  'x, y, z'
loop_
 _atom_site_type_symbol
 _atom_site_label
 _atom_site_symmetry_multiplicity
 _atom_site_fract_x
 _atom_site_fract_y
 _atom_site_fract_z
 _atom_site_occupancy
  Al  Al0  1  0.638993  0.638993  0.106274  1
  Al  Al1  1  0.361007  0.361007  0.893726  1
  Al  Al2  1  0.751851  0.751851  0.612930  1
  Al  Al3  1  0.248149  0.248149  0.387070  1
  Hg  Hg4  1  0.031010  0.031010  0.881104  1
  Hg  Hg5  1  0.761702  0.761702  0.282501  1
  Hg  Hg6  1  0.477066  0.477066  0.558980  1
  Hg  Hg7  1  0.735372  0.238325  0.721337  1
  Hg  Hg8  1  0.264628  0.761675  0.278663  1
  Hg  Hg9  1  0.761675  0.264628  0.278663  1
  Hg  Hg10  1  0.238325  0.735372  0.721337  1
  Hg  Hg11  1  0.522934  0.522934  0.441020  1
  Hg  Hg12  1  0.968990  0.968990  0.118896  1
  Hg  Hg13  1  0.000000  0.000000  0.000000  1
  Hg  Hg14  1  0.238298  0.238298  0.717499  1
  As  As15  1  0.938843  0.938843  0.236613  1
  As  As16  1  0.061157  0.061157  0.763387  1
  As  As17  1  0.582928  0.582928  0.325615  1
  As  As18  1  0.417072  0.417072  0.674385  1
  I  I19  1  0.536544  0.042915  0.850022  1
  I  I20  1  0.073392  0.073392  0.424780  1
  I  I21  1  0.536018  0.536018  0.850748  1
  I  I22  1  0.415806  0.922413  0.582665  1
  I  I23  1  0.736421  0.736421  0.722324  1
  I  I24  1  0.332934  0.332934  0.002090  1
  I  I25  1  0.463456  0.957085  0.149978  1
  I  I26  1  0.957085  0.463456  0.149978  1
  I  I27  1  0.463982  0.463982  0.149252  1
  I  I28  1  0.584194  0.077587  0.417335  1
  I  I29  1  0.667066  0.667066  0.997910  1
  I  I30  1  0.922413  0.415806  0.582665  1
  I  I31  1  0.263579  0.263579  0.277676  1
  I  I32  1  0.077587  0.584194  0.417335  1
  I  I33  1  0.926608  0.926608  0.575220  1
  I  I34  1  0.042915  0.536544  0.850022  1
