# generated using pymatgen
data_Er3Tm5V4O20
_symmetry_space_group_name_H-M   'P 1'
_cell_length_a   3.67949400
_cell_length_b   10.28396226
_cell_length_c   11.17725128
_cell_angle_alpha   89.97437615
_cell_angle_beta   90.00000000
_cell_angle_gamma   90.00000000
_symmetry_Int_Tables_number   1
_chemical_formula_structural   Er3Tm5V4O20
_chemical_formula_sum   'Er3 Tm5 V4 O20'
_cell_volume   422.94465830
_cell_formula_units_Z   1
loop_
 _symmetry_equiv_pos_site_id
 _symmetry_equiv_pos_as_xyz
  1  'x, y, z'
loop_
 _atom_site_type_symbol
 _atom_site_label
 _atom_site_symmetry_multiplicity
 _atom_site_fract_x
 _atom_site_fract_y
 _atom_site_fract_z
 _atom_site_occupancy
  Er  Er0  1  0.250000  0.120293  0.772832  1
  Er  Er1  1  0.250000  0.136073  0.443552  1
  Er  Er2  1  0.750000  0.364163  0.943896  1
  Tm  Tm3  1  0.750000  0.378979  0.272607  1
  Tm  Tm4  1  0.250000  0.621578  0.727138  1
  Tm  Tm5  1  0.250000  0.636934  0.056163  1
  Tm  Tm6  1  0.750000  0.862719  0.555680  1
  Tm  Tm7  1  0.750000  0.878411  0.227205  1
  V  V8  1  0.250000  0.169303  0.117127  1
  V  V9  1  0.750000  0.331047  0.616617  1
  V  V10  1  0.250000  0.669387  0.383063  1
  V  V11  1  0.750000  0.830064  0.883218  1
  O  O12  1  0.250000  0.993017  0.605270  1
  O  O13  1  0.250000  0.004790  0.154239  1
  O  O14  1  0.750000  0.236813  0.114539  1
  O  O15  1  0.750000  0.243746  0.768674  1
  O  O16  1  0.250000  0.225748  0.954719  1
  O  O17  1  0.750000  0.274808  0.453965  1
  O  O18  1  0.250000  0.257450  0.268568  1
  O  O19  1  0.250000  0.263485  0.613825  1
  O  O20  1  0.750000  0.495373  0.654121  1
  O  O21  1  0.750000  0.506479  0.106165  1
  O  O22  1  0.250000  0.495377  0.894352  1
  O  O23  1  0.250000  0.505099  0.346153  1
  O  O24  1  0.750000  0.737088  0.386042  1
  O  O25  1  0.750000  0.743369  0.730861  1
  O  O26  1  0.250000  0.725983  0.545730  1
  O  O27  1  0.750000  0.773717  0.045839  1
  O  O28  1  0.250000  0.756610  0.230869  1
  O  O29  1  0.250000  0.762777  0.886079  1
  O  O30  1  0.750000  0.994559  0.846701  1
  O  O31  1  0.750000  0.004761  0.394192  1
