# generated using pymatgen
data_Ho5Er5(PPb3)2
_symmetry_space_group_name_H-M   'P 1'
_cell_length_a   9.08252405
_cell_length_b   9.08258879
_cell_length_c   6.77676800
_cell_angle_alpha   89.99946711
_cell_angle_beta   90.00089599
_cell_angle_gamma   119.98776280
_symmetry_Int_Tables_number   1
_chemical_formula_structural   Ho5Er5(PPb3)2
_chemical_formula_sum   'Ho5 Er5 P2 Pb6'
_cell_volume   484.19800750
_cell_formula_units_Z   1
loop_
 _symmetry_equiv_pos_site_id
 _symmetry_equiv_pos_as_xyz
  1  'x, y, z'
loop_
 _atom_site_type_symbol
 _atom_site_label
 _atom_site_symmetry_multiplicity
 _atom_site_fract_x
 _atom_site_fract_y
 _atom_site_fract_z
 _atom_site_occupancy
  Ho  Ho0  1  0.762417  0.762479  0.249958  1
  Ho  Ho1  1  0.237506  0.999913  0.249964  1
  Ho  Ho2  1  0.000034  0.237553  0.249961  1
  Ho  Ho3  1  0.237454  0.237512  0.750038  1
  Ho  Ho4  1  0.666709  0.333340  0.500020  1
  Er  Er5  1  0.762890  0.999932  0.750071  1
  Er  Er6  1  0.000025  0.762919  0.750019  1
  Er  Er7  1  0.333345  0.666715  0.500028  1
  Er  Er8  1  0.333338  0.666719  0.999982  1
  Er  Er9  1  0.666713  0.333366  0.999974  1
  P  P10  1  0.999765  0.999762  0.500442  1
  P  P11  1  0.999748  0.999757  0.999556  1
  Pb  Pb12  1  0.401171  0.401296  0.249917  1
  Pb  Pb13  1  0.598677  0.999877  0.249911  1
  Pb  Pb14  1  0.000140  0.598828  0.249906  1
  Pb  Pb15  1  0.598990  0.599108  0.750074  1
  Pb  Pb16  1  0.401071  0.999710  0.750078  1
  Pb  Pb17  1  0.000006  0.401211  0.750102  1
