# generated using pymatgen
data_Th6ReRhAu6
_symmetry_space_group_name_H-M   'P 1'
_cell_length_a   8.30725136
_cell_length_b   8.30725267
_cell_length_c   8.30725316
_cell_angle_alpha   114.23766660
_cell_angle_beta   114.23766749
_cell_angle_gamma   114.23764905
_symmetry_Int_Tables_number   1
_chemical_formula_structural   Th6ReRhAu6
_chemical_formula_sum   'Th6 Re1 Rh1 Au6'
_cell_volume   342.07723571
_cell_formula_units_Z   1
loop_
 _symmetry_equiv_pos_site_id
 _symmetry_equiv_pos_as_xyz
  1  'x, y, z'
loop_
 _atom_site_type_symbol
 _atom_site_label
 _atom_site_symmetry_multiplicity
 _atom_site_fract_x
 _atom_site_fract_y
 _atom_site_fract_z
 _atom_site_occupancy
  Th  Th0  1  0.039265  0.388266  0.278923  1
  Th  Th1  1  0.388266  0.278923  0.039265  1
  Th  Th2  1  0.721077  0.960735  0.611734  1
  Th  Th3  1  0.278923  0.039265  0.388266  1
  Th  Th4  1  0.611734  0.721077  0.960735  1
  Th  Th5  1  0.960735  0.611734  0.721077  1
  Re  Re6  1  0.000000  0.000000  0.000000  1
  Rh  Rh7  1  0.500000  0.500000  0.500000  1
  Au  Au8  1  0.428342  0.932936  0.769603  1
  Au  Au9  1  0.932936  0.769603  0.428342  1
  Au  Au10  1  0.230397  0.571658  0.067064  1
  Au  Au11  1  0.769603  0.428342  0.932936  1
  Au  Au12  1  0.067064  0.230397  0.571658  1
  Au  Au13  1  0.571658  0.067064  0.230397  1
