# generated using pymatgen
data_TmLu9OsRu3
_symmetry_space_group_name_H-M   'P 1'
_cell_length_a   6.19424571
_cell_length_b   7.23357520
_cell_length_c   8.24918819
_cell_angle_alpha   97.00463683
_cell_angle_beta   111.98125707
_cell_angle_gamma   89.91226085
_symmetry_Int_Tables_number   1
_chemical_formula_structural   TmLu9OsRu3
_chemical_formula_sum   'Tm1 Lu9 Os1 Ru3'
_cell_volume   339.79957167
_cell_formula_units_Z   1
loop_
 _symmetry_equiv_pos_site_id
 _symmetry_equiv_pos_as_xyz
  1  'x, y, z'
loop_
 _atom_site_type_symbol
 _atom_site_label
 _atom_site_symmetry_multiplicity
 _atom_site_fract_x
 _atom_site_fract_y
 _atom_site_fract_z
 _atom_site_occupancy
  Tm  Tm0  1  0.522618  0.083709  0.814516  1
  Lu  Lu1  1  0.477008  0.917944  0.185938  1
  Lu  Lu2  1  0.710037  0.415951  0.185155  1
  Lu  Lu3  1  0.293172  0.584300  0.819252  1
  Lu  Lu4  1  0.294566  0.318131  0.435655  1
  Lu  Lu5  1  0.703553  0.681550  0.562980  1
  Lu  Lu6  1  0.860190  0.182525  0.564311  1
  Lu  Lu7  1  0.140508  0.815964  0.434638  1
  Lu  Lu8  1  0.081325  0.250144  0.000297  1
  Lu  Lu9  1  0.918763  0.749124  0.000133  1
  Os  Os10  1  0.322071  0.578802  0.217650  1
  Ru  Ru11  1  0.677450  0.421890  0.779809  1
  Ru  Ru12  1  0.100514  0.922339  0.778282  1
  Ru  Ru13  1  0.898222  0.077626  0.221381  1
