# generated using pymatgen
data_Cr2GeSb11Pt2
_symmetry_space_group_name_H-M   'P 1'
_cell_length_a   8.15655251
_cell_length_b   8.15655114
_cell_length_c   8.15454500
_cell_angle_alpha   109.11107274
_cell_angle_beta   109.46631943
_cell_angle_gamma   109.84698319
_symmetry_Int_Tables_number   1
_chemical_formula_structural   Cr2GeSb11Pt2
_chemical_formula_sum   'Cr2 Ge1 Sb11 Pt2'
_cell_volume   417.56122930
_cell_formula_units_Z   1
loop_
 _symmetry_equiv_pos_site_id
 _symmetry_equiv_pos_as_xyz
  1  'x, y, z'
loop_
 _atom_site_type_symbol
 _atom_site_label
 _atom_site_symmetry_multiplicity
 _atom_site_fract_x
 _atom_site_fract_y
 _atom_site_fract_z
 _atom_site_occupancy
  Cr  Cr0  1  0.001751  0.499763  0.000340  1
  Cr  Cr1  1  0.500577  0.998589  0.000340  1
  Ge  Ge2  1  0.846551  0.657578  0.504129  1
  Sb  Sb3  1  0.842421  0.354462  0.196885  1
  Sb  Sb4  1  0.142859  0.660230  0.803086  1
  Sb  Sb5  1  0.343606  0.495226  0.151989  1
  Sb  Sb6  1  0.150151  0.344137  0.494290  1
  Sb  Sb7  1  0.656764  0.808382  0.151989  1
  Sb  Sb8  1  0.188591  0.843551  0.342296  1
  Sb  Sb9  1  0.661403  0.504447  0.846142  1
  Sb  Sb10  1  0.813357  0.153707  0.660182  1
  Sb  Sb11  1  0.341694  0.184739  0.846142  1
  Sb  Sb12  1  0.506476  0.846824  0.660182  1
  Sb  Sb13  1  0.498743  0.153705  0.342296  1
  Pt  Pt14  1  0.996009  0.990812  0.499857  1
  Pt  Pt15  1  0.509045  0.503848  0.499857  1
