# generated using pymatgen
data_Er2LuAl12NiOs3
_symmetry_space_group_name_H-M   'P 1'
_cell_length_a   8.85021500
_cell_length_b   8.75302902
_cell_length_c   9.47389000
_cell_angle_alpha   90.00000000
_cell_angle_beta   90.00000000
_cell_angle_gamma   120.36798454
_symmetry_Int_Tables_number   1
_chemical_formula_structural   Er2LuAl12NiOs3
_chemical_formula_sum   'Er4 Lu2 Al24 Ni2 Os6'
_cell_volume   633.21150702
_cell_formula_units_Z   2
loop_
 _symmetry_equiv_pos_site_id
 _symmetry_equiv_pos_as_xyz
  1  'x, y, z'
loop_
 _atom_site_type_symbol
 _atom_site_label
 _atom_site_symmetry_multiplicity
 _atom_site_fract_x
 _atom_site_fract_y
 _atom_site_fract_z
 _atom_site_occupancy
  Er  Er0  1  0.614083  0.797889  0.250000  1
  Er  Er1  1  0.385917  0.202111  0.750000  1
  Er  Er2  1  0.183805  0.797889  0.250000  1
  Er  Er3  1  0.816195  0.202111  0.750000  1
  Lu  Lu4  1  0.197890  0.395782  0.250000  1
  Lu  Lu5  1  0.802110  0.604218  0.750000  1
  Al  Al6  1  0.335990  0.671981  0.022677  1
  Al  Al7  1  0.664010  0.328019  0.977323  1
  Al  Al8  1  0.664010  0.328019  0.522677  1
  Al  Al9  1  0.335990  0.671981  0.477323  1
  Al  Al10  1  0.165308  0.330616  0.573105  1
  Al  Al11  1  0.834692  0.669384  0.426895  1
  Al  Al12  1  0.673642  0.839046  0.577382  1
  Al  Al13  1  0.834692  0.669384  0.073105  1
  Al  Al14  1  0.326358  0.160954  0.422618  1
  Al  Al15  1  0.165308  0.330616  0.926895  1
  Al  Al16  1  0.165402  0.839046  0.577382  1
  Al  Al17  1  0.326358  0.160954  0.077382  1
  Al  Al18  1  0.834598  0.160954  0.422618  1
  Al  Al19  1  0.673642  0.839046  0.922618  1
  Al  Al20  1  0.834598  0.160954  0.077382  1
  Al  Al21  1  0.165402  0.839046  0.922618  1
  Al  Al22  1  0.555316  0.110632  0.250000  1
  Al  Al23  1  0.444684  0.889368  0.750000  1
  Al  Al24  1  0.873792  0.433590  0.250000  1
  Al  Al25  1  0.126208  0.566410  0.750000  1
  Al  Al26  1  0.559798  0.433590  0.250000  1
  Al  Al27  1  0.440202  0.566410  0.750000  1
  Al  Al28  1  0.000508  0.001016  0.250000  1
  Al  Al29  1  0.999492  0.998984  0.750000  1
  Ni  Ni30  1  0.500000  0.000000  0.000000  1
  Ni  Ni31  1  0.500000  0.000000  0.500000  1
  Os  Os32  1  0.000000  0.500000  0.000000  1
  Os  Os33  1  0.500000  0.500000  0.000000  1
  Os  Os34  1  0.000000  0.500000  0.500000  1
  Os  Os35  1  0.500000  0.500000  0.500000  1
  Os  Os36  1  0.000000  0.000000  0.000000  1
  Os  Os37  1  0.000000  0.000000  0.500000  1
