# generated using pymatgen
data_Li2Th3AlIr2Pd
_symmetry_space_group_name_H-M   'P 1'
_cell_length_a   7.43991051
_cell_length_b   7.43991029
_cell_length_c   3.98968500
_cell_angle_alpha   90.00000000
_cell_angle_beta   90.00000000
_cell_angle_gamma   120.50938055
_symmetry_Int_Tables_number   1
_chemical_formula_structural   Li2Th3AlIr2Pd
_chemical_formula_sum   'Li2 Th3 Al1 Ir2 Pd1'
_cell_volume   190.26220088
_cell_formula_units_Z   1
loop_
 _symmetry_equiv_pos_site_id
 _symmetry_equiv_pos_as_xyz
  1  'x, y, z'
loop_
 _atom_site_type_symbol
 _atom_site_label
 _atom_site_symmetry_multiplicity
 _atom_site_fract_x
 _atom_site_fract_y
 _atom_site_fract_z
 _atom_site_occupancy
  Li  Li0  1  0.768247  0.002607  0.000000  1
  Li  Li1  1  0.002607  0.768247  0.000000  1
  Th  Th2  1  0.419711  0.000020  0.500000  1
  Th  Th3  1  0.000020  0.419711  0.500000  1
  Th  Th4  1  0.580122  0.580122  0.500000  1
  Al  Al5  1  0.236056  0.236056  0.000000  1
  Ir  Ir6  1  0.328376  0.648353  0.000000  1
  Ir  Ir7  1  0.648353  0.328376  0.000000  1
  Pd  Pd8  1  0.016507  0.016507  0.500000  1
