# generated using pymatgen
data_Dy20Si3GeBi8
_symmetry_space_group_name_H-M   'P 1'
_cell_length_a   8.06789850
_cell_length_b   9.20039000
_cell_length_c   12.06884475
_cell_angle_alpha   90.00000000
_cell_angle_beta   90.04041877
_cell_angle_gamma   90.00000000
_symmetry_Int_Tables_number   1
_chemical_formula_structural   Dy20Si3GeBi8
_chemical_formula_sum   'Dy20 Si3 Ge1 Bi8'
_cell_volume   895.84372473
_cell_formula_units_Z   1
loop_
 _symmetry_equiv_pos_site_id
 _symmetry_equiv_pos_as_xyz
  1  'x, y, z'
loop_
 _atom_site_type_symbol
 _atom_site_label
 _atom_site_symmetry_multiplicity
 _atom_site_fract_x
 _atom_site_fract_y
 _atom_site_fract_z
 _atom_site_occupancy
  Dy  Dy0  1  0.820952  0.552880  0.062509  1
  Dy  Dy1  1  0.680980  0.948969  0.563432  1
  Dy  Dy2  1  0.179127  0.052820  0.937412  1
  Dy  Dy3  1  0.320274  0.445293  0.436888  1
  Dy  Dy4  1  0.179127  0.447180  0.937412  1
  Dy  Dy5  1  0.320274  0.054707  0.436888  1
  Dy  Dy6  1  0.820952  0.947120  0.062509  1
  Dy  Dy7  1  0.680980  0.551031  0.563432  1
  Dy  Dy8  1  0.165641  0.750000  0.211784  1
  Dy  Dy9  1  0.333198  0.750000  0.714143  1
  Dy  Dy10  1  0.834121  0.250000  0.787923  1
  Dy  Dy11  1  0.665972  0.250000  0.287879  1
  Dy  Dy12  1  0.460870  0.750000  0.001431  1
  Dy  Dy13  1  0.037094  0.750000  0.501362  1
  Dy  Dy14  1  0.539213  0.250000  0.998834  1
  Dy  Dy15  1  0.960634  0.250000  0.498855  1
  Dy  Dy16  1  0.638641  0.750000  0.294106  1
  Dy  Dy17  1  0.863220  0.750000  0.795437  1
  Dy  Dy18  1  0.363274  0.250000  0.704278  1
  Dy  Dy19  1  0.136512  0.250000  0.204416  1
  Si  Si20  1  0.087837  0.750000  0.978998  1
  Si  Si21  1  0.587434  0.250000  0.520448  1
  Si  Si22  1  0.912134  0.250000  0.020835  1
  Ge  Ge23  1  0.411365  0.750000  0.478305  1
  Bi  Bi24  1  0.932647  0.510827  0.325756  1
  Bi  Bi25  1  0.567412  0.989266  0.825720  1
  Bi  Bi26  1  0.067384  0.010679  0.674355  1
  Bi  Bi27  1  0.432643  0.489343  0.174412  1
  Bi  Bi28  1  0.067384  0.489321  0.674355  1
  Bi  Bi29  1  0.432643  0.010657  0.174412  1
  Bi  Bi30  1  0.932647  0.989173  0.325756  1
  Bi  Bi31  1  0.567412  0.510734  0.825720  1
