# generated using pymatgen
data_Nd5DyAl17Si7Os8
_symmetry_space_group_name_H-M   'P 1'
_cell_length_a   8.77868301
_cell_length_b   8.76544218
_cell_length_c   9.60020900
_cell_angle_alpha   90.00000000
_cell_angle_beta   90.00000000
_cell_angle_gamma   120.25085595
_symmetry_Int_Tables_number   1
_chemical_formula_structural   Nd5DyAl17Si7Os8
_chemical_formula_sum   'Nd5 Dy1 Al17 Si7 Os8'
_cell_volume   638.13292199
_cell_formula_units_Z   1
loop_
 _symmetry_equiv_pos_site_id
 _symmetry_equiv_pos_as_xyz
  1  'x, y, z'
loop_
 _atom_site_type_symbol
 _atom_site_label
 _atom_site_symmetry_multiplicity
 _atom_site_fract_x
 _atom_site_fract_y
 _atom_site_fract_z
 _atom_site_occupancy
  Nd  Nd0  1  0.190458  0.382188  0.250000  1
  Nd  Nd1  1  0.809995  0.619622  0.750000  1
  Nd  Nd2  1  0.616322  0.809547  0.250000  1
  Nd  Nd3  1  0.381740  0.188304  0.750000  1
  Nd  Nd4  1  0.193939  0.807637  0.250000  1
  Dy  Dy5  1  0.801019  0.192700  0.750000  1
  Al  Al6  1  0.163387  0.329843  0.577629  1
  Al  Al7  1  0.833865  0.669758  0.423157  1
  Al  Al8  1  0.671292  0.835937  0.576802  1
  Al  Al9  1  0.833865  0.669758  0.076843  1
  Al  Al10  1  0.331122  0.166316  0.424623  1
  Al  Al11  1  0.163387  0.329843  0.922371  1
  Al  Al12  1  0.164200  0.833758  0.574969  1
  Al  Al13  1  0.331122  0.166316  0.075377  1
  Al  Al14  1  0.835434  0.164290  0.426500  1
  Al  Al15  1  0.671292  0.835937  0.923198  1
  Al  Al16  1  0.835434  0.164290  0.073500  1
  Al  Al17  1  0.164200  0.833758  0.925031  1
  Al  Al18  1  0.126743  0.565796  0.750000  1
  Al  Al19  1  0.565731  0.433902  0.250000  1
  Al  Al20  1  0.438032  0.568012  0.750000  1
  Al  Al21  1  0.999958  0.998117  0.250000  1
  Al  Al22  1  0.995583  0.004795  0.750000  1
  Si  Si23  1  0.333587  0.664012  0.033996  1
  Si  Si24  1  0.666948  0.335118  0.962503  1
  Si  Si25  1  0.666948  0.335118  0.537497  1
  Si  Si26  1  0.333587  0.664012  0.466004  1
  Si  Si27  1  0.568590  0.127715  0.250000  1
  Si  Si28  1  0.437117  0.872259  0.750000  1
  Si  Si29  1  0.872156  0.431473  0.250000  1
  Os  Os30  1  0.502421  0.001969  0.999454  1
  Os  Os31  1  0.997279  0.497933  0.005083  1
  Os  Os32  1  0.502421  0.001969  0.500546  1
  Os  Os33  1  0.500982  0.499757  0.999847  1
  Os  Os34  1  0.997279  0.497933  0.494917  1
  Os  Os35  1  0.500982  0.499757  0.500153  1
  Os  Os36  1  0.000792  0.000274  0.999686  1
  Os  Os37  1  0.000792  0.000274  0.500314  1
