# generated using pymatgen
data_Lu12Fe3HgSb
_symmetry_space_group_name_H-M   'P 1'
_cell_length_a   8.15935758
_cell_length_b   8.15935875
_cell_length_c   8.15935700
_cell_angle_alpha   108.38135390
_cell_angle_beta   108.82051125
_cell_angle_gamma   111.22646458
_symmetry_Int_Tables_number   1
_chemical_formula_structural   Lu12Fe3HgSb
_chemical_formula_sum   'Lu12 Fe3 Hg1 Sb1'
_cell_volume   417.86214700
_cell_formula_units_Z   1
loop_
 _symmetry_equiv_pos_site_id
 _symmetry_equiv_pos_as_xyz
  1  'x, y, z'
loop_
 _atom_site_type_symbol
 _atom_site_label
 _atom_site_symmetry_multiplicity
 _atom_site_fract_x
 _atom_site_fract_y
 _atom_site_fract_z
 _atom_site_occupancy
  Lu  Lu0  1  0.312256  0.305111  0.617368  1
  Lu  Lu1  1  0.687744  0.694889  0.382632  1
  Lu  Lu2  1  0.687744  0.305111  0.992854  1
  Lu  Lu3  1  0.312256  0.694889  0.007146  1
  Lu  Lu4  1  0.192821  0.424903  0.232082  1
  Lu  Lu5  1  0.807179  0.575097  0.767918  1
  Lu  Lu6  1  0.192821  0.960738  0.767918  1
  Lu  Lu7  1  0.948146  0.188890  0.759257  1
  Lu  Lu8  1  0.807179  0.039262  0.232082  1
  Lu  Lu9  1  0.051854  0.811110  0.240743  1
  Lu  Lu10  1  0.429633  0.188890  0.240743  1
  Lu  Lu11  1  0.570367  0.811110  0.759257  1
  Fe  Fe12  1  0.382787  0.382787  0.000000  1
  Fe  Fe13  1  0.617213  0.617213  0.000000  1
  Fe  Fe14  1  0.000000  0.000000  0.000000  1
  Hg  Hg15  1  0.500000  0.000000  0.500000  1
  Sb  Sb16  1  0.000000  0.500000  0.500000  1
