# generated using pymatgen
data_PrEu(In2Rh)2
_symmetry_space_group_name_H-M   'P 1'
_cell_length_a   5.66914036
_cell_length_b   5.66914089
_cell_length_c   8.27647700
_cell_angle_alpha   90.00000000
_cell_angle_beta   90.00000000
_cell_angle_gamma   135.09172032
_symmetry_Int_Tables_number   1
_chemical_formula_structural   PrEu(In2Rh)2
_chemical_formula_sum   'Pr1 Eu1 In4 Rh2'
_cell_volume   187.78834397
_cell_formula_units_Z   1
loop_
 _symmetry_equiv_pos_site_id
 _symmetry_equiv_pos_as_xyz
  1  'x, y, z'
loop_
 _atom_site_type_symbol
 _atom_site_label
 _atom_site_symmetry_multiplicity
 _atom_site_fract_x
 _atom_site_fract_y
 _atom_site_fract_z
 _atom_site_occupancy
  Pr  Pr0  1  0.065223  0.934777  0.250000  1
  Eu  Eu1  1  0.936110  0.063890  0.750000  1
  In  In2  1  0.647796  0.352204  0.551648  1
  In  In3  1  0.352768  0.647232  0.451587  1
  In  In4  1  0.647796  0.352204  0.948352  1
  In  In5  1  0.352768  0.647232  0.048413  1
  Rh  Rh6  1  0.218538  0.781462  0.750000  1
  Rh  Rh7  1  0.779002  0.220998  0.250000  1
