# generated using pymatgen
data_Pr4As3Cl
_symmetry_space_group_name_H-M   'P 1'
_cell_length_a   8.59087300
_cell_length_b   4.28946300
_cell_length_c   6.02269102
_cell_angle_alpha   90.00000000
_cell_angle_beta   90.00625314
_cell_angle_gamma   90.00000000
_symmetry_Int_Tables_number   1
_chemical_formula_structural   Pr4As3Cl
_chemical_formula_sum   'Pr4 As3 Cl1'
_cell_volume   221.93755941
_cell_formula_units_Z   1
loop_
 _symmetry_equiv_pos_site_id
 _symmetry_equiv_pos_as_xyz
  1  'x, y, z'
loop_
 _atom_site_type_symbol
 _atom_site_label
 _atom_site_symmetry_multiplicity
 _atom_site_fract_x
 _atom_site_fract_y
 _atom_site_fract_z
 _atom_site_occupancy
  Pr  Pr0  1  0.393442  0.249999  0.249981  1
  Pr  Pr1  1  0.856429  0.249999  0.250032  1
  Pr  Pr2  1  0.125084  0.750001  0.749900  1
  Pr  Pr3  1  0.625045  0.750001  0.750075  1
  As  As4  1  0.624927  0.750001  0.250117  1
  As  As5  1  0.369511  0.249999  0.749962  1
  As  As6  1  0.880595  0.249999  0.750047  1
  Cl  Cl7  1  0.124973  0.750001  0.249889  1
