# generated using pymatgen
data_Er7Tm3In8IrPt3
_symmetry_space_group_name_H-M   'P 1'
_cell_length_a   3.59871100
_cell_length_b   8.10975175
_cell_length_c   18.15348500
_cell_angle_alpha   89.97541091
_cell_angle_beta   90.00000000
_cell_angle_gamma   90.00000000
_symmetry_Int_Tables_number   1
_chemical_formula_structural   Er7Tm3In8IrPt3
_chemical_formula_sum   'Er7 Tm3 In8 Ir1 Pt3'
_cell_volume   529.80310871
_cell_formula_units_Z   1
loop_
 _symmetry_equiv_pos_site_id
 _symmetry_equiv_pos_as_xyz
  1  'x, y, z'
loop_
 _atom_site_type_symbol
 _atom_site_label
 _atom_site_symmetry_multiplicity
 _atom_site_fract_x
 _atom_site_fract_y
 _atom_site_fract_z
 _atom_site_occupancy
  Er  Er0  1  0.000000  0.616884  0.085956  1
  Er  Er1  1  0.000000  0.236638  0.222181  1
  Er  Er2  1  0.000000  0.757866  0.779666  1
  Er  Er3  1  0.000000  0.257411  0.720884  1
  Er  Er4  1  0.000000  0.751047  0.279611  1
  Er  Er5  1  0.000000  0.999799  0.000230  1
  Er  Er6  1  0.000000  0.500464  0.499528  1
  Tm  Tm7  1  0.000000  0.114671  0.412028  1
  Tm  Tm8  1  0.000000  0.883120  0.585303  1
  Tm  Tm9  1  0.000000  0.383535  0.914730  1
  In  In10  1  0.500000  0.422408  0.351180  1
  In  In11  1  0.500000  0.577004  0.648669  1
  In  In12  1  0.500000  0.077058  0.851610  1
  In  In13  1  0.500000  0.925721  0.149314  1
  In  In14  1  0.500000  0.292054  0.066104  1
  In  In15  1  0.500000  0.707568  0.933580  1
  In  In16  1  0.500000  0.207794  0.566349  1
  In  In17  1  0.500000  0.793574  0.432331  1
  Ir  Ir18  1  0.500000  0.022218  0.304201  1
  Pt  Pt19  1  0.500000  0.975047  0.696167  1
  Pt  Pt20  1  0.500000  0.475175  0.803784  1
  Pt  Pt21  1  0.500000  0.522948  0.196592  1
