# generated using pymatgen
data_Hf8CoBi4Os
_symmetry_space_group_name_H-M   'P 1'
_cell_length_a   8.30299648
_cell_length_b   8.30302824
_cell_length_c   8.30299666
_cell_angle_alpha   95.83492289
_cell_angle_beta   95.83767018
_cell_angle_gamma   142.80884389
_symmetry_Int_Tables_number   1
_chemical_formula_structural   Hf8CoBi4Os
_chemical_formula_sum   'Hf8 Co1 Bi4 Os1'
_cell_volume   327.94409393
_cell_formula_units_Z   1
loop_
 _symmetry_equiv_pos_site_id
 _symmetry_equiv_pos_as_xyz
  1  'x, y, z'
loop_
 _atom_site_type_symbol
 _atom_site_label
 _atom_site_symmetry_multiplicity
 _atom_site_fract_x
 _atom_site_fract_y
 _atom_site_fract_z
 _atom_site_occupancy
  Hf  Hf0  1  0.699564  0.585397  0.279390  1
  Hf  Hf1  1  0.585399  0.306013  0.885812  1
  Hf  Hf2  1  0.079798  0.193987  0.279386  1
  Hf  Hf3  1  0.914608  0.800427  0.720605  1
  Hf  Hf4  1  0.193993  0.914603  0.114166  1
  Hf  Hf5  1  0.800419  0.079813  0.885829  1
  Hf  Hf6  1  0.306015  0.420187  0.720606  1
  Hf  Hf7  1  0.420178  0.699573  0.114180  1
  Co  Co8  1  0.750025  0.750000  0.000025  1
  Bi  Bi9  1  0.138689  0.638685  0.777371  1
  Bi  Bi10  1  0.361314  0.138687  0.500001  1
  Bi  Bi11  1  0.638685  0.861315  0.500004  1
  Bi  Bi12  1  0.861314  0.361313  0.222626  1
  Os  Os13  1  0.249998  0.250000  0.999998  1
