# generated using pymatgen
data_Lu5Fe7Co9(P4Ru)3
_symmetry_space_group_name_H-M   'P 1'
_cell_length_a   11.96708907
_cell_length_b   11.93778925
_cell_length_c   3.67411800
_cell_angle_alpha   90.00000000
_cell_angle_beta   90.00000000
_cell_angle_gamma   119.93017558
_symmetry_Int_Tables_number   1
_chemical_formula_structural   Lu5Fe7Co9(P4Ru)3
_chemical_formula_sum   'Lu5 Fe7 Co9 P12 Ru3'
_cell_volume   454.88467049
_cell_formula_units_Z   1
loop_
 _symmetry_equiv_pos_site_id
 _symmetry_equiv_pos_as_xyz
  1  'x, y, z'
loop_
 _atom_site_type_symbol
 _atom_site_label
 _atom_site_symmetry_multiplicity
 _atom_site_fract_x
 _atom_site_fract_y
 _atom_site_fract_z
 _atom_site_occupancy
  Lu  Lu0  1  0.666081  0.332052  0.000000  1
  Lu  Lu1  1  0.333834  0.667440  0.000000  1
  Lu  Lu2  1  0.185534  0.185292  0.500000  1
  Lu  Lu3  1  0.814921  0.000501  0.500000  1
  Lu  Lu4  1  0.999428  0.815081  0.500000  1
  Fe  Fe5  1  0.823104  0.198454  0.000000  1
  Fe  Fe6  1  0.801935  0.622668  0.000000  1
  Fe  Fe7  1  0.376732  0.178924  0.000000  1
  Fe  Fe8  1  0.196067  0.819908  0.000000  1
  Fe  Fe9  1  0.623346  0.803604  0.000000  1
  Fe  Fe10  1  0.180503  0.377660  0.000000  1
  Fe  Fe11  1  0.641511  0.124599  0.500000  1
  Co  Co12  1  0.873724  0.514436  0.500000  1
  Co  Co13  1  0.485264  0.358568  0.500000  1
  Co  Co14  1  0.126200  0.640977  0.500000  1
  Co  Co15  1  0.514093  0.874001  0.500000  1
  Co  Co16  1  0.359600  0.485917  0.500000  1
  Co  Co17  1  0.716889  0.716937  0.500000  1
  Co  Co18  1  0.281923  0.999870  0.500000  1
  Co  Co19  1  0.001625  0.283866  0.500000  1
  Co  Co20  1  0.999533  0.999840  0.000000  1
  P  P21  1  0.360470  0.359805  0.000000  1
  P  P22  1  0.640188  0.003148  0.000000  1
  P  P23  1  0.999330  0.639675  0.000000  1
  P  P24  1  0.830665  0.309160  0.500000  1
  P  P25  1  0.688800  0.520094  0.500000  1
  P  P26  1  0.480085  0.166786  0.500000  1
  P  P27  1  0.310338  0.831713  0.500000  1
  P  P28  1  0.521188  0.689963  0.500000  1
  P  P29  1  0.168964  0.479793  0.500000  1
  P  P30  1  0.819134  0.819713  0.000000  1
  P  P31  1  0.179823  0.000118  0.000000  1
  P  P32  1  0.001024  0.180955  0.000000  1
  Ru  Ru33  1  0.552125  0.552410  0.000000  1
  Ru  Ru34  1  0.445275  0.997939  0.000000  1
  Ru  Ru35  1  0.000742  0.448131  0.000000  1
