# generated using pymatgen
data_Sr5Te6PbO18
_symmetry_space_group_name_H-M   'P 1'
_cell_length_a   5.90675898
_cell_length_b   9.03425187
_cell_length_c   12.29055700
_cell_angle_alpha   114.12508888
_cell_angle_beta   89.46346372
_cell_angle_gamma   90.63114985
_symmetry_Int_Tables_number   1
_chemical_formula_structural   Sr5Te6PbO18
_chemical_formula_sum   'Sr5 Te6 Pb1 O18'
_cell_volume   598.53185799
_cell_formula_units_Z   1
loop_
 _symmetry_equiv_pos_site_id
 _symmetry_equiv_pos_as_xyz
  1  'x, y, z'
loop_
 _atom_site_type_symbol
 _atom_site_label
 _atom_site_symmetry_multiplicity
 _atom_site_fract_x
 _atom_site_fract_y
 _atom_site_fract_z
 _atom_site_occupancy
  Sr  Sr0  1  0.672792  0.135859  0.135307  1
  Sr  Sr1  1  0.240188  0.404995  0.382894  1
  Sr  Sr2  1  0.740776  0.593545  0.614065  1
  Sr  Sr3  1  0.174401  0.866158  0.865786  1
  Sr  Sr4  1  0.682035  0.645444  0.952092  1
  Te  Te5  1  0.171839  0.921993  0.169695  1
  Te  Te6  1  0.743225  0.578213  0.254042  1
  Te  Te7  1  0.764654  0.166868  0.471708  1
  Te  Te8  1  0.276111  0.834573  0.528787  1
  Te  Te9  1  0.236416  0.424287  0.746485  1
  Te  Te10  1  0.680004  0.072674  0.826302  1
  Pb  Pb11  1  0.184259  0.355161  0.044687  1
  O  O12  1  0.943348  0.897000  0.055629  1
  O  O13  1  0.403682  0.845225  0.052030  1
  O  O14  1  0.839135  0.561544  0.101000  1
  O  O15  1  0.261703  0.138832  0.211712  1
  O  O16  1  0.476040  0.449497  0.214008  1
  O  O17  1  0.920914  0.404479  0.251501  1
  O  O18  1  0.804024  0.066545  0.305696  1
  O  O19  1  0.500105  0.672678  0.481393  1
  O  O20  1  0.035819  0.688857  0.510808  1
  O  O21  1  0.528795  0.313789  0.491103  1
  O  O22  1  0.993283  0.328946  0.520177  1
  O  O23  1  0.314991  0.934992  0.695099  1
  O  O24  1  0.427094  0.596866  0.753580  1
  O  O25  1  0.974168  0.555038  0.792140  1
  O  O26  1  0.763643  0.857010  0.789231  1
  O  O27  1  0.340428  0.436718  0.896801  1
  O  O28  1  0.914055  0.151362  0.943573  1
  O  O29  1  0.452261  0.100853  0.942675  1
