# generated using pymatgen
data_YbHo3(IrRu3)2
_symmetry_space_group_name_H-M   'P 1'
_cell_length_a   5.24179929
_cell_length_b   5.24179767
_cell_length_c   8.96804700
_cell_angle_alpha   90.00048676
_cell_angle_beta   89.99951031
_cell_angle_gamma   120.01004269
_symmetry_Int_Tables_number   1
_chemical_formula_structural   YbHo3(IrRu3)2
_chemical_formula_sum   'Yb1 Ho3 Ir2 Ru6'
_cell_volume   213.37581365
_cell_formula_units_Z   1
loop_
 _symmetry_equiv_pos_site_id
 _symmetry_equiv_pos_as_xyz
  1  'x, y, z'
loop_
 _atom_site_type_symbol
 _atom_site_label
 _atom_site_symmetry_multiplicity
 _atom_site_fract_x
 _atom_site_fract_y
 _atom_site_fract_z
 _atom_site_occupancy
  Yb  Yb0  1  0.666654  0.333346  0.933265  1
  Ho  Ho1  1  0.666654  0.333346  0.574093  1
  Ho  Ho2  1  0.333355  0.666645  0.430269  1
  Ho  Ho3  1  0.333352  0.666648  0.065029  1
  Ir  Ir4  1  0.999999  0.000001  0.499167  1
  Ir  Ir5  1  0.999997  0.000003  0.999080  1
  Ru  Ru6  1  0.170416  0.340883  0.749204  1
  Ru  Ru7  1  0.170452  0.829548  0.749202  1
  Ru  Ru8  1  0.659117  0.829584  0.749204  1
  Ru  Ru9  1  0.829339  0.658627  0.250495  1
  Ru  Ru10  1  0.829294  0.170706  0.250498  1
  Ru  Ru11  1  0.341373  0.170661  0.250495  1
