# generated using pymatgen
data_La20Si11Te
_symmetry_space_group_name_H-M   'P 1'
_cell_length_a   7.91857900
_cell_length_b   7.91857900
_cell_length_c   14.51966000
_cell_angle_alpha   90.00000000
_cell_angle_beta   90.00000000
_cell_angle_gamma   90.00000000
_symmetry_Int_Tables_number   1
_chemical_formula_structural   La20Si11Te
_chemical_formula_sum   'La20 Si11 Te1'
_cell_volume   910.43921254
_cell_formula_units_Z   1
loop_
 _symmetry_equiv_pos_site_id
 _symmetry_equiv_pos_as_xyz
  1  'x, y, z'
loop_
 _atom_site_type_symbol
 _atom_site_label
 _atom_site_symmetry_multiplicity
 _atom_site_fract_x
 _atom_site_fract_y
 _atom_site_fract_z
 _atom_site_occupancy
  La  La0  1  0.500000  0.000000  0.785549  1
  La  La1  1  0.328631  0.316804  0.103901  1
  La  La2  1  0.828524  0.816310  0.895417  1
  La  La3  1  0.000000  0.500000  0.218955  1
  La  La4  1  0.821721  0.173722  0.389354  1
  La  La5  1  0.171476  0.183690  0.895417  1
  La  La6  1  0.671369  0.683196  0.103901  1
  La  La7  1  0.000000  0.500000  0.743354  1
  La  La8  1  0.811059  0.835140  0.609732  1
  La  La9  1  0.326278  0.321721  0.389354  1
  La  La10  1  0.183196  0.828631  0.103901  1
  La  La11  1  0.188941  0.164860  0.609732  1
  La  La12  1  0.816804  0.171369  0.103901  1
  La  La13  1  0.335140  0.688941  0.609732  1
  La  La14  1  0.500000  0.000000  0.264145  1
  La  La15  1  0.683690  0.328524  0.895417  1
  La  La16  1  0.664860  0.311059  0.609732  1
  La  La17  1  0.316310  0.671476  0.895417  1
  La  La18  1  0.178279  0.826278  0.389354  1
  La  La19  1  0.673722  0.678279  0.389354  1
  Si  Si20  1  0.615178  0.387233  0.248199  1
  Si  Si21  1  0.887224  0.114127  0.751026  1
  Si  Si22  1  0.500000  0.000000  0.490764  1
  Si  Si23  1  0.887233  0.884822  0.248199  1
  Si  Si24  1  0.000000  0.500000  0.998821  1
  Si  Si25  1  0.112776  0.885873  0.751026  1
  Si  Si26  1  0.385873  0.387224  0.751026  1
  Si  Si27  1  0.112767  0.115178  0.248199  1
  Si  Si28  1  0.384822  0.612767  0.248199  1
  Si  Si29  1  0.614127  0.612776  0.751026  1
  Si  Si30  1  0.500000  0.000000  0.002105  1
  Te  Te31  1  0.000000  0.500000  0.505784  1
