# generated using pymatgen
data_Tb3DyHf4F28
_symmetry_space_group_name_H-M   'P 1'
_cell_length_a   5.71558808
_cell_length_b   9.07101366
_cell_length_c   12.19319845
_cell_angle_alpha   62.25749274
_cell_angle_beta   90.00543813
_cell_angle_gamma   89.99334398
_symmetry_Int_Tables_number   1
_chemical_formula_structural   Tb3DyHf4F28
_chemical_formula_sum   'Tb3 Dy1 Hf4 F28'
_cell_volume   559.50175853
_cell_formula_units_Z   1
loop_
 _symmetry_equiv_pos_site_id
 _symmetry_equiv_pos_as_xyz
  1  'x, y, z'
loop_
 _atom_site_type_symbol
 _atom_site_label
 _atom_site_symmetry_multiplicity
 _atom_site_fract_x
 _atom_site_fract_y
 _atom_site_fract_z
 _atom_site_occupancy
  Tb  Tb0  1  0.742941  0.185217  0.734415  1
  Tb  Tb1  1  0.756780  0.184844  0.234421  1
  Tb  Tb2  1  0.242998  0.814556  0.765547  1
  Dy  Dy3  1  0.257096  0.814685  0.265579  1
  Hf  Hf4  1  0.756612  0.725912  0.044778  1
  Hf  Hf5  1  0.243754  0.273707  0.956042  1
  Hf  Hf6  1  0.256276  0.274746  0.455530  1
  Hf  Hf7  1  0.743761  0.725803  0.543664  1
  F  F8  1  0.960346  0.710256  0.420345  1
  F  F9  1  0.040600  0.290202  0.579145  1
  F  F10  1  0.459271  0.289991  0.079407  1
  F  F11  1  0.540380  0.710299  0.921364  1
  F  F12  1  0.485497  0.733098  0.146760  1
  F  F13  1  0.515836  0.267202  0.854519  1
  F  F14  1  0.984657  0.267116  0.354122  1
  F  F15  1  0.015369  0.732702  0.645413  1
  F  F16  1  0.964923  0.745628  0.171549  1
  F  F17  1  0.037165  0.254524  0.828645  1
  F  F18  1  0.463163  0.255249  0.328353  1
  F  F19  1  0.536653  0.745168  0.670931  1
  F  F20  1  0.771900  0.477043  0.140385  1
  F  F21  1  0.228219  0.522721  0.860073  1
  F  F22  1  0.271206  0.523781  0.359489  1
  F  F23  1  0.727914  0.477014  0.639912  1
  F  F24  1  0.953019  0.278468  0.048544  1
  F  F25  1  0.046552  0.721470  0.951636  1
  F  F26  1  0.453265  0.721512  0.450615  1
  F  F27  1  0.546873  0.278888  0.548303  1
  F  F28  1  0.739666  0.974259  0.442659  1
  F  F29  1  0.260134  0.026313  0.557076  1
  F  F30  1  0.240088  0.025314  0.057713  1
  F  F31  1  0.760254  0.974226  0.943026  1
  F  F32  1  0.574620  0.971550  0.233064  1
  F  F33  1  0.422861  0.028209  0.767199  1
  F  F34  1  0.076474  0.026686  0.267028  1
  F  F35  1  0.922879  0.971639  0.732749  1
