# generated using pymatgen
data_CaLa3(Hg2O)4
_symmetry_space_group_name_H-M   'P 1'
_cell_length_a   5.95307175
_cell_length_b   5.88734004
_cell_length_c   11.02778670
_cell_angle_alpha   90.12431833
_cell_angle_beta   96.84352147
_cell_angle_gamma   90.03923581
_symmetry_Int_Tables_number   1
_chemical_formula_structural   CaLa3(Hg2O)4
_chemical_formula_sum   'Ca1 La3 Hg8 O4'
_cell_volume   383.74442220
_cell_formula_units_Z   1
loop_
 _symmetry_equiv_pos_site_id
 _symmetry_equiv_pos_as_xyz
  1  'x, y, z'
loop_
 _atom_site_type_symbol
 _atom_site_label
 _atom_site_symmetry_multiplicity
 _atom_site_fract_x
 _atom_site_fract_y
 _atom_site_fract_z
 _atom_site_occupancy
  Ca  Ca0  1  0.519047  0.184550  0.094075  1
  La  La1  1  0.022030  0.683738  0.104389  1
  La  La2  1  0.979133  0.183156  0.900271  1
  La  La3  1  0.479204  0.683614  0.900576  1
  Hg  Hg4  1  0.528927  0.166429  0.418380  1
  Hg  Hg5  1  0.024591  0.659150  0.425348  1
  Hg  Hg6  1  0.975044  0.157475  0.578441  1
  Hg  Hg7  1  0.472203  0.665524  0.579220  1
  Hg  Hg8  1  0.546914  0.670344  0.294676  1
  Hg  Hg9  1  0.046314  0.169482  0.293640  1
  Hg  Hg10  1  0.951945  0.667450  0.705828  1
  Hg  Hg11  1  0.455110  0.173938  0.704191  1
  O  O12  1  0.752842  0.930517  0.000508  1
  O  O13  1  0.247004  0.931442  0.000029  1
  O  O14  1  0.753029  0.437008  0.000772  1
  O  O15  1  0.246673  0.436143  0.999657  1
