# generated using pymatgen
data_Er(Ta2N3)2
_symmetry_space_group_name_H-M   'P 1'
_cell_length_a   5.30901100
_cell_length_b   5.30901091
_cell_length_c   10.71242300
_cell_angle_alpha   90.00000000
_cell_angle_beta   90.00000000
_cell_angle_gamma   120.00000680
_symmetry_Int_Tables_number   1
_chemical_formula_structural   Er(Ta2N3)2
_chemical_formula_sum   'Er2 Ta8 N12'
_cell_volume   261.48426380
_cell_formula_units_Z   2
loop_
 _symmetry_equiv_pos_site_id
 _symmetry_equiv_pos_as_xyz
  1  'x, y, z'
loop_
 _atom_site_type_symbol
 _atom_site_label
 _atom_site_symmetry_multiplicity
 _atom_site_fract_x
 _atom_site_fract_y
 _atom_site_fract_z
 _atom_site_occupancy
  Er  Er0  1  0.666667  0.333333  0.000000  1
  Er  Er1  1  0.333333  0.666667  0.000000  1
  Ta  Ta2  1  0.680001  0.680001  0.740417  1
  Ta  Ta3  1  0.319999  0.000000  0.740417  1
  Ta  Ta4  1  0.000000  0.319999  0.740417  1
  Ta  Ta5  1  0.319999  0.319999  0.259583  1
  Ta  Ta6  1  0.680001  0.000000  0.259583  1
  Ta  Ta7  1  0.000000  0.680001  0.259583  1
  Ta  Ta8  1  0.333333  0.666667  0.500000  1
  Ta  Ta9  1  0.666667  0.333333  0.500000  1
  N  N10  1  0.658090  0.658090  0.384999  1
  N  N11  1  0.341910  0.000000  0.384999  1
  N  N12  1  0.000000  0.341910  0.384999  1
  N  N13  1  0.341910  0.341910  0.615001  1
  N  N14  1  0.658090  0.000000  0.615001  1
  N  N15  1  0.000000  0.658090  0.615001  1
  N  N16  1  0.343854  0.343854  0.856586  1
  N  N17  1  0.656146  0.000000  0.856586  1
  N  N18  1  0.000000  0.656146  0.856586  1
  N  N19  1  0.656146  0.656146  0.143414  1
  N  N20  1  0.343854  0.000000  0.143414  1
  N  N21  1  0.000000  0.343854  0.143414  1
