# generated using pymatgen
data_Sm2TiCo8ReP6
_symmetry_space_group_name_H-M   'P 1'
_cell_length_a   3.71961500
_cell_length_b   10.49435000
_cell_length_c   11.94448100
_cell_angle_alpha   90.00000000
_cell_angle_beta   90.00000000
_cell_angle_gamma   90.00000000
_symmetry_Int_Tables_number   1
_chemical_formula_structural   Sm2TiCo8ReP6
_chemical_formula_sum   'Sm4 Ti2 Co16 Re2 P12'
_cell_volume   466.25211918
_cell_formula_units_Z   2
loop_
 _symmetry_equiv_pos_site_id
 _symmetry_equiv_pos_as_xyz
  1  'x, y, z'
loop_
 _atom_site_type_symbol
 _atom_site_label
 _atom_site_symmetry_multiplicity
 _atom_site_fract_x
 _atom_site_fract_y
 _atom_site_fract_z
 _atom_site_occupancy
  Sm  Sm0  1  0.250000  0.582430  0.703374  1
  Sm  Sm1  1  0.250000  0.917570  0.203374  1
  Sm  Sm2  1  0.750000  0.417798  0.295919  1
  Sm  Sm3  1  0.750000  0.082202  0.795919  1
  Ti  Ti4  1  0.250000  0.703960  0.990192  1
  Ti  Ti5  1  0.250000  0.796040  0.490192  1
  Co  Co6  1  0.250000  0.402060  0.491355  1
  Co  Co7  1  0.250000  0.097940  0.991355  1
  Co  Co8  1  0.750000  0.592394  0.510782  1
  Co  Co9  1  0.750000  0.907606  0.010782  1
  Co  Co10  1  0.250000  0.223500  0.177132  1
  Co  Co11  1  0.250000  0.276500  0.677132  1
  Co  Co12  1  0.750000  0.779415  0.824546  1
  Co  Co13  1  0.750000  0.720585  0.324546  1
  Co  Co14  1  0.250000  0.887308  0.698472  1
  Co  Co15  1  0.250000  0.612692  0.198472  1
  Co  Co16  1  0.750000  0.114663  0.299805  1
  Co  Co17  1  0.750000  0.385337  0.799805  1
  Co  Co18  1  0.250000  0.464131  0.932510  1
  Co  Co19  1  0.250000  0.035869  0.432510  1
  Co  Co20  1  0.750000  0.532849  0.064555  1
  Co  Co21  1  0.750000  0.967151  0.564555  1
  Re  Re22  1  0.750000  0.293044  0.010291  1
  Re  Re23  1  0.750000  0.206956  0.510291  1
  P  P24  1  0.250000  0.420152  0.112259  1
  P  P25  1  0.250000  0.079848  0.612259  1
  P  P26  1  0.750000  0.580343  0.884666  1
  P  P27  1  0.750000  0.919657  0.384666  1
  P  P28  1  0.250000  0.270006  0.866296  1
  P  P29  1  0.250000  0.229994  0.366296  1
  P  P30  1  0.750000  0.725949  0.137817  1
  P  P31  1  0.750000  0.774051  0.637817  1
  P  P32  1  0.250000  0.594690  0.392352  1
  P  P33  1  0.250000  0.905310  0.892352  1
  P  P34  1  0.750000  0.399875  0.607675  1
  P  P35  1  0.750000  0.100125  0.107675  1
