# generated using pymatgen
data_Dy4Al4IrPt2Rh
_symmetry_space_group_name_H-M   'P 1'
_cell_length_a   4.37010300
_cell_length_b   6.81451618
_cell_length_c   7.85189314
_cell_angle_alpha   90.02307371
_cell_angle_beta   90.00000000
_cell_angle_gamma   90.00000000
_symmetry_Int_Tables_number   1
_chemical_formula_structural   Dy4Al4IrPt2Rh
_chemical_formula_sum   'Dy4 Al4 Ir1 Pt2 Rh1'
_cell_volume   233.83043915
_cell_formula_units_Z   1
loop_
 _symmetry_equiv_pos_site_id
 _symmetry_equiv_pos_as_xyz
  1  'x, y, z'
loop_
 _atom_site_type_symbol
 _atom_site_label
 _atom_site_symmetry_multiplicity
 _atom_site_fract_x
 _atom_site_fract_y
 _atom_site_fract_z
 _atom_site_occupancy
  Dy  Dy0  1  0.250000  0.466605  0.183475  1
  Dy  Dy1  1  0.750000  0.532091  0.816920  1
  Dy  Dy2  1  0.750000  0.030186  0.678395  1
  Dy  Dy3  1  0.250000  0.972124  0.322385  1
  Al  Al4  1  0.250000  0.856546  0.937790  1
  Al  Al5  1  0.750000  0.143744  0.063800  1
  Al  Al6  1  0.750000  0.639313  0.437922  1
  Al  Al7  1  0.250000  0.359896  0.561270  1
  Ir  Ir8  1  0.750000  0.266779  0.380921  1
  Pt  Pt9  1  0.750000  0.769907  0.118708  1
  Pt  Pt10  1  0.250000  0.229552  0.880501  1
  Rh  Rh11  1  0.250000  0.733256  0.617913  1
