# generated using pymatgen
data_Ho16Cd4TcPd3
_symmetry_space_group_name_H-M   'P 1'
_cell_length_a   9.69015754
_cell_length_b   9.69015712
_cell_length_c   9.69015815
_cell_angle_alpha   59.27655199
_cell_angle_beta   59.27655304
_cell_angle_gamma   59.27654880
_symmetry_Int_Tables_number   1
_chemical_formula_structural   Ho16Cd4TcPd3
_chemical_formula_sum   'Ho16 Cd4 Tc1 Pd3'
_cell_volume   632.79464730
_cell_formula_units_Z   1
loop_
 _symmetry_equiv_pos_site_id
 _symmetry_equiv_pos_as_xyz
  1  'x, y, z'
loop_
 _atom_site_type_symbol
 _atom_site_label
 _atom_site_symmetry_multiplicity
 _atom_site_fract_x
 _atom_site_fract_y
 _atom_site_fract_z
 _atom_site_occupancy
  Ho  Ho0  1  0.352695  0.352695  0.352695  1
  Ho  Ho1  1  0.351513  0.351513  0.944185  1
  Ho  Ho2  1  0.351513  0.944185  0.351513  1
  Ho  Ho3  1  0.944185  0.351513  0.351513  1
  Ho  Ho4  1  0.816447  0.187790  0.187790  1
  Ho  Ho5  1  0.188834  0.810455  0.810455  1
  Ho  Ho6  1  0.187790  0.816447  0.187790  1
  Ho  Ho7  1  0.810455  0.188834  0.810455  1
  Ho  Ho8  1  0.187790  0.187790  0.816447  1
  Ho  Ho9  1  0.810455  0.810455  0.188834  1
  Ho  Ho10  1  0.934699  0.566083  0.566083  1
  Ho  Ho11  1  0.557132  0.937323  0.937323  1
  Ho  Ho12  1  0.566083  0.934699  0.566083  1
  Ho  Ho13  1  0.937323  0.557132  0.937323  1
  Ho  Ho14  1  0.566083  0.566083  0.934699  1
  Ho  Ho15  1  0.937323  0.937323  0.557132  1
  Cd  Cd16  1  0.580261  0.580261  0.580261  1
  Cd  Cd17  1  0.581124  0.581124  0.253867  1
  Cd  Cd18  1  0.581124  0.253867  0.581124  1
  Cd  Cd19  1  0.253867  0.581124  0.581124  1
  Tc  Tc20  1  0.144902  0.144902  0.144902  1
  Pd  Pd21  1  0.144816  0.144816  0.568767  1
  Pd  Pd22  1  0.144816  0.568767  0.144816  1
  Pd  Pd23  1  0.568767  0.144816  0.144816  1
