# generated using pymatgen
data_Sr2Li4Ag2P5
_symmetry_space_group_name_H-M   'P 1'
_cell_length_a   4.33698178
_cell_length_b   4.31741200
_cell_length_c   13.20182400
_cell_angle_alpha   99.41103753
_cell_angle_beta   99.45407995
_cell_angle_gamma   89.99999182
_symmetry_Int_Tables_number   1
_chemical_formula_structural   Sr2Li4Ag2P5
_chemical_formula_sum   'Sr2 Li4 Ag2 P5'
_cell_volume   240.46692520
_cell_formula_units_Z   1
loop_
 _symmetry_equiv_pos_site_id
 _symmetry_equiv_pos_as_xyz
  1  'x, y, z'
loop_
 _atom_site_type_symbol
 _atom_site_label
 _atom_site_symmetry_multiplicity
 _atom_site_fract_x
 _atom_site_fract_y
 _atom_site_fract_z
 _atom_site_occupancy
  Sr  Sr0  1  0.645317  0.645317  0.290632  1
  Sr  Sr1  1  0.352947  0.352947  0.705895  1
  Li  Li2  1  0.450384  0.950384  0.900768  1
  Li  Li3  1  0.051757  0.551757  0.103514  1
  Li  Li4  1  0.550897  0.050897  0.101793  1
  Li  Li5  1  0.749096  0.249096  0.498192  1
  Ag  Ag6  1  0.949172  0.449172  0.898342  1
  Ag  Ag7  1  0.249481  0.749481  0.498962  1
  P  P8  1  0.502786  0.502786  0.005572  1
  P  P9  1  0.890305  0.890305  0.780611  1
  P  P10  1  0.108497  0.108497  0.216994  1
  P  P11  1  0.804354  0.804354  0.608708  1
  P  P12  1  0.195008  0.195008  0.390015  1
