# generated using pymatgen
data_Ho14TmSc5Bi12
_symmetry_space_group_name_H-M   'P 1'
_cell_length_a   8.07069193
_cell_length_b   9.36200846
_cell_length_c   11.90528547
_cell_angle_alpha   89.94460036
_cell_angle_beta   90.09170754
_cell_angle_gamma   89.98558206
_symmetry_Int_Tables_number   1
_chemical_formula_structural   Ho14TmSc5Bi12
_chemical_formula_sum   'Ho14 Tm1 Sc5 Bi12'
_cell_volume   899.53660213
_cell_formula_units_Z   1
loop_
 _symmetry_equiv_pos_site_id
 _symmetry_equiv_pos_as_xyz
  1  'x, y, z'
loop_
 _atom_site_type_symbol
 _atom_site_label
 _atom_site_symmetry_multiplicity
 _atom_site_fract_x
 _atom_site_fract_y
 _atom_site_fract_z
 _atom_site_occupancy
  Ho  Ho0  1  0.353149  0.247106  0.282415  1
  Ho  Ho1  1  0.643512  0.749368  0.716334  1
  Ho  Ho2  1  0.144902  0.748787  0.784254  1
  Ho  Ho3  1  0.856029  0.248964  0.215351  1
  Ho  Ho4  1  0.184758  0.249075  0.781255  1
  Ho  Ho5  1  0.814433  0.749477  0.218982  1
  Ho  Ho6  1  0.314968  0.750408  0.280890  1
  Ho  Ho7  1  0.684552  0.249343  0.720106  1
  Ho  Ho8  1  0.804996  0.935153  0.940834  1
  Ho  Ho9  1  0.304276  0.934653  0.558946  1
  Ho  Ho10  1  0.806659  0.565476  0.941836  1
  Ho  Ho11  1  0.695002  0.065112  0.440801  1
  Ho  Ho12  1  0.195058  0.435975  0.058998  1
  Ho  Ho13  1  0.695578  0.434657  0.440831  1
  Tm  Tm14  1  0.304377  0.566731  0.559260  1
  Sc  Sc15  1  0.024810  0.249878  0.512091  1
  Sc  Sc16  1  0.976268  0.749350  0.486583  1
  Sc  Sc17  1  0.475653  0.750132  0.012624  1
  Sc  Sc18  1  0.522255  0.247860  0.988518  1
  Sc  Sc19  1  0.196218  0.069250  0.058028  1
  Bi  Bi20  1  0.401485  0.251726  0.542385  1
  Bi  Bi21  1  0.598171  0.749435  0.457449  1
  Bi  Bi22  1  0.101377  0.758833  0.044054  1
  Bi  Bi23  1  0.905578  0.247919  0.958626  1
  Bi  Bi24  1  0.066446  0.003715  0.329234  1
  Bi  Bi25  1  0.933790  0.995503  0.668789  1
  Bi  Bi26  1  0.432147  0.995593  0.832567  1
  Bi  Bi27  1  0.933997  0.503296  0.668898  1
  Bi  Bi28  1  0.563451  0.003769  0.167812  1
  Bi  Bi29  1  0.066385  0.495546  0.330456  1
  Bi  Bi30  1  0.565929  0.494928  0.169093  1
  Bi  Bi31  1  0.433793  0.502984  0.831700  1
