# generated using pymatgen
data_Tb2Er8In7HgPd4
_symmetry_space_group_name_H-M   'P 1'
_cell_length_a   3.59720200
_cell_length_b   8.12636829
_cell_length_c   18.22425001
_cell_angle_alpha   90.07483507
_cell_angle_beta   90.00000000
_cell_angle_gamma   90.00000000
_symmetry_Int_Tables_number   1
_chemical_formula_structural   Tb2Er8In7HgPd4
_chemical_formula_sum   'Tb2 Er8 In7 Hg1 Pd4'
_cell_volume   532.73425298
_cell_formula_units_Z   1
loop_
 _symmetry_equiv_pos_site_id
 _symmetry_equiv_pos_as_xyz
  1  'x, y, z'
loop_
 _atom_site_type_symbol
 _atom_site_label
 _atom_site_symmetry_multiplicity
 _atom_site_fract_x
 _atom_site_fract_y
 _atom_site_fract_z
 _atom_site_occupancy
  Tb  Tb0  1  0.000000  0.499530  0.500370  1
  Tb  Tb1  1  0.000000  0.995991  0.997634  1
  Er  Er2  1  0.000000  0.741300  0.279620  1
  Er  Er3  1  0.000000  0.258678  0.719364  1
  Er  Er4  1  0.000000  0.758000  0.783861  1
  Er  Er5  1  0.000000  0.241417  0.220106  1
  Er  Er6  1  0.000000  0.616662  0.083671  1
  Er  Er7  1  0.000000  0.390567  0.915567  1
  Er  Er8  1  0.000000  0.881738  0.584913  1
  Er  Er9  1  0.000000  0.116777  0.415883  1
  In  In10  1  0.500000  0.291081  0.067292  1
  In  In11  1  0.500000  0.792675  0.432464  1
  In  In12  1  0.500000  0.205751  0.567397  1
  In  In13  1  0.500000  0.579667  0.650529  1
  In  In14  1  0.500000  0.421663  0.350019  1
  In  In15  1  0.500000  0.921574  0.149154  1
  In  In16  1  0.500000  0.082920  0.849995  1
  Hg  Hg17  1  0.500000  0.708280  0.933434  1
  Pd  Pd18  1  0.500000  0.523470  0.195788  1
  Pd  Pd19  1  0.500000  0.473373  0.802517  1
  Pd  Pd20  1  0.500000  0.975301  0.696546  1
  Pd  Pd21  1  0.500000  0.023585  0.303878  1
