# generated using pymatgen
data_La12Nd3Y(CdCo)4
_symmetry_space_group_name_H-M   'P 1'
_cell_length_a   9.88411928
_cell_length_b   9.89743830
_cell_length_c   9.89649300
_cell_angle_alpha   60.00316272
_cell_angle_beta   59.95858290
_cell_angle_gamma   60.80702825
_symmetry_Int_Tables_number   1
_chemical_formula_structural   La12Nd3Y(CdCo)4
_chemical_formula_sum   'La12 Nd3 Y1 Cd4 Co4'
_cell_volume   688.46009890
_cell_formula_units_Z   1
loop_
 _symmetry_equiv_pos_site_id
 _symmetry_equiv_pos_as_xyz
  1  'x, y, z'
loop_
 _atom_site_type_symbol
 _atom_site_label
 _atom_site_symmetry_multiplicity
 _atom_site_fract_x
 _atom_site_fract_y
 _atom_site_fract_z
 _atom_site_occupancy
  La  La0  1  0.155898  0.153685  0.537523  1
  La  La1  1  0.315338  0.693599  0.681798  1
  La  La2  1  0.155898  0.153685  0.152892  1
  La  La3  1  0.536642  0.147261  0.158047  1
  La  La4  1  0.315338  0.693599  0.309265  1
  La  La5  1  0.314234  0.310420  0.687674  1
  La  La6  1  0.691194  0.315463  0.682476  1
  La  La7  1  0.938994  0.561243  0.560464  1
  La  La8  1  0.556042  0.557383  0.943287  1
  La  La9  1  0.148005  0.535155  0.158419  1
  La  La10  1  0.691194  0.315463  0.310868  1
  La  La11  1  0.938994  0.561243  0.939298  1
  Nd  Nd12  1  0.937045  0.940412  0.561272  1
  Nd  Nd13  1  0.562959  0.938107  0.562330  1
  Nd  Nd14  1  0.562959  0.938107  0.936604  1
  Y  Y15  1  0.692414  0.696510  0.305538  1
  Cd  Cd16  1  0.239388  0.919332  0.920640  1
  Cd  Cd17  1  0.918183  0.920027  0.923240  1
  Cd  Cd18  1  0.918183  0.920027  0.238548  1
  Cd  Cd19  1  0.919407  0.237041  0.921775  1
  Co  Co20  1  0.917394  0.355231  0.363687  1
  Co  Co21  1  0.360535  0.359021  0.919107  1
  Co  Co22  1  0.353223  0.918962  0.363907  1
  Co  Co23  1  0.360535  0.359021  0.361336  1
