# generated using pymatgen
data_TmPa3(B4Os)4
_symmetry_space_group_name_H-M   'P 1'
_cell_length_a   3.59161100
_cell_length_b   5.98616786
_cell_length_c   11.60474166
_cell_angle_alpha   90.06143179
_cell_angle_beta   90.00000000
_cell_angle_gamma   90.00000000
_symmetry_Int_Tables_number   1
_chemical_formula_structural   TmPa3(B4Os)4
_chemical_formula_sum   'Tm1 Pa3 B16 Os4'
_cell_volume   249.50164386
_cell_formula_units_Z   1
loop_
 _symmetry_equiv_pos_site_id
 _symmetry_equiv_pos_as_xyz
  1  'x, y, z'
loop_
 _atom_site_type_symbol
 _atom_site_label
 _atom_site_symmetry_multiplicity
 _atom_site_fract_x
 _atom_site_fract_y
 _atom_site_fract_z
 _atom_site_occupancy
  Tm  Tm0  1  0.500000  0.370405  0.148796  1
  Pa  Pa1  1  0.500000  0.128321  0.649523  1
  Pa  Pa2  1  0.500000  0.871070  0.348927  1
  Pa  Pa3  1  0.500000  0.629206  0.851495  1
  B  B4  1  0.000000  0.471417  0.691148  1
  B  B5  1  0.000000  0.525023  0.307509  1
  B  B6  1  0.000000  0.972117  0.809711  1
  B  B7  1  0.000000  0.029070  0.190514  1
  B  B8  1  0.000000  0.289924  0.812093  1
  B  B9  1  0.000000  0.709656  0.187368  1
  B  B10  1  0.000000  0.791144  0.688822  1
  B  B11  1  0.000000  0.210578  0.311566  1
  B  B12  1  0.000000  0.365481  0.969972  1
  B  B13  1  0.000000  0.635686  0.033096  1
  B  B14  1  0.000000  0.864772  0.531849  1
  B  B15  1  0.000000  0.133204  0.466515  1
  B  B16  1  0.000000  0.385695  0.544884  1
  B  B17  1  0.000000  0.611786  0.452974  1
  B  B18  1  0.000000  0.887386  0.955965  1
  B  B19  1  0.000000  0.115004  0.047049  1
  Os  Os20  1  0.500000  0.143939  0.903086  1
  Os  Os21  1  0.500000  0.858041  0.094549  1
  Os  Os22  1  0.500000  0.642312  0.597662  1
  Os  Os23  1  0.500000  0.358764  0.404928  1
