# generated using pymatgen
data_Th8Be3Si12Rh
_symmetry_space_group_name_H-M   'P 1'
_cell_length_a   8.06970800
_cell_length_b   8.06970739
_cell_length_c   8.47784200
_cell_angle_alpha   90.00000000
_cell_angle_beta   90.00000000
_cell_angle_gamma   119.99999431
_symmetry_Int_Tables_number   1
_chemical_formula_structural   Th8Be3Si12Rh
_chemical_formula_sum   'Th8 Be3 Si12 Rh1'
_cell_volume   478.11413400
_cell_formula_units_Z   1
loop_
 _symmetry_equiv_pos_site_id
 _symmetry_equiv_pos_as_xyz
  1  'x, y, z'
loop_
 _atom_site_type_symbol
 _atom_site_label
 _atom_site_symmetry_multiplicity
 _atom_site_fract_x
 _atom_site_fract_y
 _atom_site_fract_z
 _atom_site_occupancy
  Th  Th0  1  0.000000  0.000000  0.250375  1
  Th  Th1  1  0.000000  0.000000  0.749584  1
  Th  Th2  1  0.499495  0.500505  0.250609  1
  Th  Th3  1  0.499495  0.998990  0.250609  1
  Th  Th4  1  0.001010  0.500505  0.250609  1
  Th  Th5  1  0.499314  0.500686  0.749364  1
  Th  Th6  1  0.499314  0.998629  0.749364  1
  Th  Th7  1  0.001371  0.500686  0.749364  1
  Be  Be8  1  0.333333  0.666667  0.499013  1
  Be  Be9  1  0.666667  0.333333  0.500827  1
  Be  Be10  1  0.666667  0.333333  0.999897  1
  Si  Si11  1  0.172726  0.827274  0.499658  1
  Si  Si12  1  0.172726  0.345451  0.499658  1
  Si  Si13  1  0.654549  0.827274  0.499658  1
  Si  Si14  1  0.826418  0.173582  0.499960  1
  Si  Si15  1  0.826418  0.652835  0.499960  1
  Si  Si16  1  0.347165  0.173582  0.499960  1
  Si  Si17  1  0.826176  0.173824  0.000117  1
  Si  Si18  1  0.826176  0.652351  0.000117  1
  Si  Si19  1  0.347649  0.173824  0.000117  1
  Si  Si20  1  0.164780  0.835220  0.000081  1
  Si  Si21  1  0.164780  0.329561  0.000081  1
  Si  Si22  1  0.670439  0.835220  0.000081  1
  Rh  Rh23  1  0.333333  0.666667  0.000937  1
