# generated using pymatgen
data_Sm7Lu(Si4W3)4
_symmetry_space_group_name_H-M   'P 1'
_cell_length_a   6.84397160
_cell_length_b   6.99538639
_cell_length_c   12.98357702
_cell_angle_alpha   89.89802037
_cell_angle_beta   89.98628592
_cell_angle_gamma   89.94099892
_symmetry_Int_Tables_number   1
_chemical_formula_structural   Sm7Lu(Si4W3)4
_chemical_formula_sum   'Sm7 Lu1 Si16 W12'
_cell_volume   621.60333281
_cell_formula_units_Z   1
loop_
 _symmetry_equiv_pos_site_id
 _symmetry_equiv_pos_as_xyz
  1  'x, y, z'
loop_
 _atom_site_type_symbol
 _atom_site_label
 _atom_site_symmetry_multiplicity
 _atom_site_fract_x
 _atom_site_fract_y
 _atom_site_fract_z
 _atom_site_occupancy
  Sm  Sm0  1  0.496506  0.333809  0.093477  1
  Sm  Sm1  1  0.996321  0.166315  0.406690  1
  Sm  Sm2  1  0.503694  0.666104  0.593503  1
  Sm  Sm3  1  0.002848  0.833059  0.907454  1
  Sm  Sm4  1  0.503046  0.666735  0.907340  1
  Sm  Sm5  1  0.003584  0.833546  0.593627  1
  Sm  Sm6  1  0.496329  0.333806  0.405352  1
  Lu  Lu7  1  0.994464  0.167929  0.094618  1
  Si  Si8  1  0.658840  0.044884  0.547837  1
  Si  Si9  1  0.158370  0.453133  0.953671  1
  Si  Si10  1  0.336684  0.958141  0.048515  1
  Si  Si11  1  0.841150  0.545152  0.451742  1
  Si  Si12  1  0.341719  0.955068  0.451181  1
  Si  Si13  1  0.842603  0.540911  0.048403  1
  Si  Si14  1  0.660144  0.044686  0.953526  1
  Si  Si15  1  0.159007  0.455240  0.547816  1
  Si  Si16  1  0.536585  0.366193  0.750766  1
  Si  Si17  1  0.036394  0.132878  0.750302  1
  Si  Si18  1  0.464056  0.634955  0.249237  1
  Si  Si19  1  0.964985  0.869668  0.248301  1
  Si  Si20  1  0.804192  0.626851  0.750771  1
  Si  Si21  1  0.303712  0.871753  0.750411  1
  Si  Si22  1  0.193603  0.369305  0.248192  1
  Si  Si23  1  0.698607  0.129192  0.248500  1
  W  W24  1  0.832561  0.335689  0.626802  1
  W  W25  1  0.331532  0.163346  0.874439  1
  W  W26  1  0.167640  0.663918  0.126171  1
  W  W27  1  0.668856  0.836690  0.372505  1
  W  W28  1  0.167187  0.664084  0.372427  1
  W  W29  1  0.669634  0.838133  0.125520  1
  W  W30  1  0.833296  0.334153  0.875059  1
  W  W31  1  0.332863  0.163654  0.626608  1
  W  W32  1  0.664256  0.003967  0.750634  1
  W  W33  1  0.164585  0.495025  0.750591  1
  W  W34  1  0.334239  0.998462  0.248871  1
  W  W35  1  0.835908  0.503566  0.249147  1
