# generated using pymatgen
data_YInCu3Ir
_symmetry_space_group_name_H-M   'P 1'
_cell_length_a   5.11544670
_cell_length_b   5.11544666
_cell_length_c   5.22339103
_cell_angle_alpha   60.68129607
_cell_angle_beta   60.68129373
_cell_angle_gamma   60.00000649
_symmetry_Int_Tables_number   1
_chemical_formula_structural   YInCu3Ir
_chemical_formula_sum   'Y1 In1 Cu3 Ir1'
_cell_volume   97.63398657
_cell_formula_units_Z   1
loop_
 _symmetry_equiv_pos_site_id
 _symmetry_equiv_pos_as_xyz
  1  'x, y, z'
loop_
 _atom_site_type_symbol
 _atom_site_label
 _atom_site_symmetry_multiplicity
 _atom_site_fract_x
 _atom_site_fract_y
 _atom_site_fract_z
 _atom_site_occupancy
  Y  Y0  1  0.998657  0.998657  0.004030  1
  In  In1  1  0.252987  0.252987  0.241038  1
  Cu  Cu2  1  0.625400  0.124515  0.624684  1
  Cu  Cu3  1  0.124515  0.625400  0.624684  1
  Cu  Cu4  1  0.625400  0.625400  0.624684  1
  Ir  Ir5  1  0.623039  0.623039  0.130881  1
