# generated using pymatgen
data_Rb7Ta(MoO4)6
_symmetry_space_group_name_H-M   'P 1'
_cell_length_a   10.50303768
_cell_length_b   10.50303675
_cell_length_c   10.50303600
_cell_angle_alpha   109.65691424
_cell_angle_beta   109.65691821
_cell_angle_gamma   109.65690166
_symmetry_Int_Tables_number   1
_chemical_formula_structural   Rb7Ta(MoO4)6
_chemical_formula_sum   'Rb7 Ta1 Mo6 O24'
_cell_volume   885.72859435
_cell_formula_units_Z   1
loop_
 _symmetry_equiv_pos_site_id
 _symmetry_equiv_pos_as_xyz
  1  'x, y, z'
loop_
 _atom_site_type_symbol
 _atom_site_label
 _atom_site_symmetry_multiplicity
 _atom_site_fract_x
 _atom_site_fract_y
 _atom_site_fract_z
 _atom_site_occupancy
  Rb  Rb0  1  0.500000  0.500000  0.500000  1
  Rb  Rb1  1  0.675902  0.170287  0.340999  1
  Rb  Rb2  1  0.340999  0.675902  0.170287  1
  Rb  Rb3  1  0.170287  0.340999  0.675902  1
  Rb  Rb4  1  0.324098  0.829713  0.659001  1
  Rb  Rb5  1  0.659001  0.324098  0.829713  1
  Rb  Rb6  1  0.829713  0.659001  0.324098  1
  Ta  Ta7  1  0.000000  0.000000  0.000000  1
  Mo  Mo8  1  0.248939  0.029763  0.374529  1
  Mo  Mo9  1  0.374529  0.248939  0.029763  1
  Mo  Mo10  1  0.029763  0.374529  0.248939  1
  Mo  Mo11  1  0.751061  0.970237  0.625471  1
  Mo  Mo12  1  0.625471  0.751061  0.970237  1
  Mo  Mo13  1  0.970237  0.625471  0.751061  1
  O  O14  1  0.107689  0.577635  0.842657  1
  O  O15  1  0.842657  0.107689  0.577635  1
  O  O16  1  0.577635  0.842657  0.107689  1
  O  O17  1  0.892311  0.422365  0.157343  1
  O  O18  1  0.157343  0.892311  0.422365  1
  O  O19  1  0.422365  0.157343  0.892311  1
  O  O20  1  0.013454  0.680659  0.622190  1
  O  O21  1  0.622190  0.013454  0.680659  1
  O  O22  1  0.680659  0.622190  0.013454  1
  O  O23  1  0.986546  0.319341  0.377810  1
  O  O24  1  0.377810  0.986546  0.319341  1
  O  O25  1  0.319341  0.377810  0.986546  1
  O  O26  1  0.022903  0.210559  0.095776  1
  O  O27  1  0.095776  0.022903  0.210559  1
  O  O28  1  0.539933  0.357975  0.223212  1
  O  O29  1  0.357975  0.223212  0.539933  1
  O  O30  1  0.223212  0.539933  0.357975  1
  O  O31  1  0.460067  0.642025  0.776788  1
  O  O32  1  0.642025  0.776788  0.460067  1
  O  O33  1  0.776788  0.460067  0.642025  1
  O  O34  1  0.789441  0.904224  0.977097  1
  O  O35  1  0.904224  0.977097  0.789441  1
  O  O36  1  0.977097  0.789441  0.904224  1
  O  O37  1  0.210559  0.095776  0.022903  1
