# generated using pymatgen
data_SrMo2PbO8
_symmetry_space_group_name_H-M   'P 1'
_cell_length_a   7.25967094
_cell_length_b   7.25967125
_cell_length_c   7.25967100
_cell_angle_alpha   135.28883675
_cell_angle_beta   135.28883741
_cell_angle_gamma   65.08174283
_symmetry_Int_Tables_number   1
_chemical_formula_structural   SrMo2PbO8
_chemical_formula_sum   'Sr1 Mo2 Pb1 O8'
_cell_volume   186.64542306
_cell_formula_units_Z   1
loop_
 _symmetry_equiv_pos_site_id
 _symmetry_equiv_pos_as_xyz
  1  'x, y, z'
loop_
 _atom_site_type_symbol
 _atom_site_label
 _atom_site_symmetry_multiplicity
 _atom_site_fract_x
 _atom_site_fract_y
 _atom_site_fract_z
 _atom_site_occupancy
  Sr  Sr0  1  0.250000  0.750000  0.500000  1
  Mo  Mo1  1  0.000000  0.000000  0.000000  1
  Mo  Mo2  1  0.750000  0.250000  0.500000  1
  Pb  Pb3  1  0.500000  0.500000  0.000000  1
  O  O4  1  0.532511  0.932280  0.125905  1
  O  O5  1  0.947834  0.845098  0.629194  1
  O  O6  1  0.593394  0.467489  0.399770  1
  O  O7  1  0.067720  0.193624  0.600230  1
  O  O8  1  0.681359  0.052166  0.897265  1
  O  O9  1  0.215904  0.318641  0.370806  1
  O  O10  1  0.806376  0.406606  0.874095  1
  O  O11  1  0.154902  0.784096  0.102735  1
