# generated using pymatgen
data_U4Co5Si2Ni
_symmetry_space_group_name_H-M   'P 1'
_cell_length_a   5.10553232
_cell_length_b   5.10553235
_cell_length_c   7.54959300
_cell_angle_alpha   90.00000000
_cell_angle_beta   90.00000000
_cell_angle_gamma   118.94757520
_symmetry_Int_Tables_number   1
_chemical_formula_structural   U4Co5Si2Ni
_chemical_formula_sum   'U4 Co5 Si2 Ni1'
_cell_volume   172.20465620
_cell_formula_units_Z   1
loop_
 _symmetry_equiv_pos_site_id
 _symmetry_equiv_pos_as_xyz
  1  'x, y, z'
loop_
 _atom_site_type_symbol
 _atom_site_label
 _atom_site_symmetry_multiplicity
 _atom_site_fract_x
 _atom_site_fract_y
 _atom_site_fract_z
 _atom_site_occupancy
  U  U0  1  0.335952  0.664048  0.427279  1
  U  U1  1  0.662264  0.337736  0.574572  1
  U  U2  1  0.662264  0.337736  0.925428  1
  U  U3  1  0.335952  0.664048  0.072721  1
  Co  Co4  1  0.835136  0.664835  0.250000  1
  Co  Co5  1  0.335165  0.164864  0.250000  1
  Co  Co6  1  0.167424  0.832576  0.750000  1
  Co  Co7  1  0.164507  0.333792  0.750000  1
  Co  Co8  1  0.666208  0.835493  0.750000  1
  Si  Si9  1  0.000934  0.999066  0.501208  1
  Si  Si10  1  0.000934  0.999066  0.998792  1
  Ni  Ni11  1  0.833261  0.166739  0.250000  1
