# generated using pymatgen
data_Tm8Lu2Ga3Bi2Pt
_symmetry_space_group_name_H-M   'P 1'
_cell_length_a   8.51831501
_cell_length_b   8.51831492
_cell_length_c   8.64717192
_cell_angle_alpha   124.60066275
_cell_angle_beta   124.60066124
_cell_angle_gamma   81.20575173
_symmetry_Int_Tables_number   1
_chemical_formula_structural   Tm8Lu2Ga3Bi2Pt
_chemical_formula_sum   'Tm8 Lu2 Ga3 Bi2 Pt1'
_cell_volume   411.59693594
_cell_formula_units_Z   1
loop_
 _symmetry_equiv_pos_site_id
 _symmetry_equiv_pos_as_xyz
  1  'x, y, z'
loop_
 _atom_site_type_symbol
 _atom_site_label
 _atom_site_symmetry_multiplicity
 _atom_site_fract_x
 _atom_site_fract_y
 _atom_site_fract_z
 _atom_site_occupancy
  Tm  Tm0  1  0.784305  0.295550  0.798925  1
  Tm  Tm1  1  0.204450  0.715695  0.201075  1
  Tm  Tm2  1  0.485380  0.996625  0.201075  1
  Tm  Tm3  1  0.298736  0.468766  0.500000  1
  Tm  Tm4  1  0.031234  0.201264  0.500000  1
  Tm  Tm5  1  0.503375  0.014620  0.798925  1
  Tm  Tm6  1  0.705498  0.513305  0.500000  1
  Tm  Tm7  1  0.986695  0.794502  0.500000  1
  Lu  Lu8  1  0.997862  0.999699  0.997563  1
  Lu  Lu9  1  0.500301  0.502138  0.002437  1
  Ga  Ga10  1  0.144559  0.645521  0.790081  1
  Ga  Ga11  1  0.854479  0.355441  0.209919  1
  Ga  Ga12  1  0.639917  0.860083  0.500000  1
  Bi  Bi13  1  0.246156  0.253844  0.000000  1
  Bi  Bi14  1  0.746156  0.753844  0.000000  1
  Pt  Pt15  1  0.370896  0.129104  0.500000  1
