# generated using pymatgen
data_Hf4Zr3Nb3(GaSn3)2
_symmetry_space_group_name_H-M   'P 1'
_cell_length_a   8.58885300
_cell_length_b   8.58885248
_cell_length_c   5.76886800
_cell_angle_alpha   90.00000000
_cell_angle_beta   90.00000000
_cell_angle_gamma   120.00000585
_symmetry_Int_Tables_number   1
_chemical_formula_structural   Hf4Zr3Nb3(GaSn3)2
_chemical_formula_sum   'Hf4 Zr3 Nb3 Ga2 Sn6'
_cell_volume   368.54584661
_cell_formula_units_Z   1
loop_
 _symmetry_equiv_pos_site_id
 _symmetry_equiv_pos_as_xyz
  1  'x, y, z'
loop_
 _atom_site_type_symbol
 _atom_site_label
 _atom_site_symmetry_multiplicity
 _atom_site_fract_x
 _atom_site_fract_y
 _atom_site_fract_z
 _atom_site_occupancy
  Hf  Hf0  1  0.268959  0.269615  0.250459  1
  Hf  Hf1  1  0.730385  0.999344  0.250459  1
  Hf  Hf2  1  0.000656  0.731041  0.250459  1
  Hf  Hf3  1  0.666667  0.333333  0.499754  1
  Zr  Zr4  1  0.731840  0.732416  0.749429  1
  Zr  Zr5  1  0.267584  0.999425  0.749429  1
  Zr  Zr6  1  0.000575  0.268160  0.749429  1
  Nb  Nb7  1  0.666667  0.333333  0.000257  1
  Nb  Nb8  1  0.333333  0.666667  0.000303  1
  Nb  Nb9  1  0.333333  0.666667  0.499692  1
  Ga  Ga10  1  0.000000  0.000000  0.002571  1
  Ga  Ga11  1  0.000000  0.000000  0.497591  1
  Sn  Sn12  1  0.389638  0.391455  0.752093  1
  Sn  Sn13  1  0.608545  0.998183  0.752093  1
  Sn  Sn14  1  0.001817  0.610362  0.752093  1
  Sn  Sn15  1  0.609025  0.610727  0.247963  1
  Sn  Sn16  1  0.389273  0.998298  0.247963  1
  Sn  Sn17  1  0.001702  0.390975  0.247963  1
