# generated using pymatgen
data_LiCaCdPd3
_symmetry_space_group_name_H-M   'P 1'
_cell_length_a   5.20236407
_cell_length_b   5.20236383
_cell_length_c   5.20236440
_cell_angle_alpha   63.83955889
_cell_angle_beta   63.83956661
_cell_angle_gamma   63.83956024
_symmetry_Int_Tables_number   1
_chemical_formula_structural   LiCaCdPd3
_chemical_formula_sum   'Li1 Ca1 Cd1 Pd3'
_cell_volume   107.99060859
_cell_formula_units_Z   1
loop_
 _symmetry_equiv_pos_site_id
 _symmetry_equiv_pos_as_xyz
  1  'x, y, z'
loop_
 _atom_site_type_symbol
 _atom_site_label
 _atom_site_symmetry_multiplicity
 _atom_site_fract_x
 _atom_site_fract_y
 _atom_site_fract_z
 _atom_site_occupancy
  Li  Li0  1  0.501494  0.501494  0.501494  1
  Ca  Ca1  1  0.123298  0.123298  0.123298  1
  Cd  Cd2  1  0.871790  0.871790  0.871790  1
  Pd  Pd3  1  0.501677  0.501677  0.000065  1
  Pd  Pd4  1  0.000065  0.501677  0.501677  1
  Pd  Pd5  1  0.501677  0.000065  0.501677  1
