# generated using pymatgen
data_Y3Lu17(Cd3Fe)2
_symmetry_space_group_name_H-M   'P 1'
_cell_length_a   9.38652500
_cell_length_b   9.38652553
_cell_length_c   9.56951500
_cell_angle_alpha   90.00000000
_cell_angle_beta   90.00000000
_cell_angle_gamma   119.99999462
_symmetry_Int_Tables_number   1
_chemical_formula_structural   Y3Lu17(Cd3Fe)2
_chemical_formula_sum   'Y3 Lu17 Cd6 Fe2'
_cell_volume   730.18059899
_cell_formula_units_Z   1
loop_
 _symmetry_equiv_pos_site_id
 _symmetry_equiv_pos_as_xyz
  1  'x, y, z'
loop_
 _atom_site_type_symbol
 _atom_site_label
 _atom_site_symmetry_multiplicity
 _atom_site_fract_x
 _atom_site_fract_y
 _atom_site_fract_z
 _atom_site_occupancy
  Y  Y0  1  0.460267  0.539733  0.750000  1
  Y  Y1  1  0.460267  0.920535  0.750000  1
  Y  Y2  1  0.079465  0.539733  0.750000  1
  Lu  Lu3  1  0.000000  0.000000  0.499330  1
  Lu  Lu4  1  0.000000  0.000000  0.000670  1
  Lu  Lu5  1  0.540708  0.459292  0.250000  1
  Lu  Lu6  1  0.540708  0.081415  0.250000  1
  Lu  Lu7  1  0.918585  0.459292  0.250000  1
  Lu  Lu8  1  0.212205  0.787795  0.435197  1
  Lu  Lu9  1  0.212205  0.424413  0.435197  1
  Lu  Lu10  1  0.575587  0.787795  0.435197  1
  Lu  Lu11  1  0.787531  0.212469  0.561415  1
  Lu  Lu12  1  0.787531  0.575061  0.561415  1
  Lu  Lu13  1  0.424939  0.212469  0.561415  1
  Lu  Lu14  1  0.787531  0.212469  0.938585  1
  Lu  Lu15  1  0.787531  0.575061  0.938585  1
  Lu  Lu16  1  0.424939  0.212469  0.938585  1
  Lu  Lu17  1  0.212205  0.787795  0.064803  1
  Lu  Lu18  1  0.212205  0.424413  0.064803  1
  Lu  Lu19  1  0.575587  0.787795  0.064803  1
  Cd  Cd20  1  0.884846  0.115154  0.250000  1
  Cd  Cd21  1  0.884846  0.769692  0.250000  1
  Cd  Cd22  1  0.230308  0.115154  0.250000  1
  Cd  Cd23  1  0.112041  0.887959  0.750000  1
  Cd  Cd24  1  0.112041  0.224083  0.750000  1
  Cd  Cd25  1  0.775917  0.887959  0.750000  1
  Fe  Fe26  1  0.333333  0.666667  0.250000  1
  Fe  Fe27  1  0.666667  0.333333  0.750000  1
