# generated using pymatgen
data_SrPa(AsRh)2
_symmetry_space_group_name_H-M   'P 1'
_cell_length_a   4.31000400
_cell_length_b   4.31000367
_cell_length_c   15.63701600
_cell_angle_alpha   90.00000000
_cell_angle_beta   90.00000000
_cell_angle_gamma   120.00001786
_symmetry_Int_Tables_number   1
_chemical_formula_structural   SrPa(AsRh)2
_chemical_formula_sum   'Sr2 Pa2 As4 Rh4'
_cell_volume   251.55893511
_cell_formula_units_Z   2
loop_
 _symmetry_equiv_pos_site_id
 _symmetry_equiv_pos_as_xyz
  1  'x, y, z'
loop_
 _atom_site_type_symbol
 _atom_site_label
 _atom_site_symmetry_multiplicity
 _atom_site_fract_x
 _atom_site_fract_y
 _atom_site_fract_z
 _atom_site_occupancy
  Sr  Sr0  1  0.000000  0.000000  0.000000  1
  Sr  Sr1  1  0.000000  0.000000  0.500000  1
  Pa  Pa2  1  0.000000  0.000000  0.250000  1
  Pa  Pa3  1  0.000000  0.000000  0.750000  1
  As  As4  1  0.333333  0.666667  0.626992  1
  As  As5  1  0.666667  0.333333  0.373008  1
  As  As6  1  0.666667  0.333333  0.126992  1
  As  As7  1  0.333333  0.666667  0.873008  1
  Rh  Rh8  1  0.333333  0.666667  0.156990  1
  Rh  Rh9  1  0.666667  0.333333  0.843010  1
  Rh  Rh10  1  0.666667  0.333333  0.656990  1
  Rh  Rh11  1  0.333333  0.666667  0.343010  1
