# generated using pymatgen
data_Er12TlZnInFe2
_symmetry_space_group_name_H-M   'P 1'
_cell_length_a   8.32691785
_cell_length_b   8.32691706
_cell_length_c   8.32691719
_cell_angle_alpha   109.90406040
_cell_angle_beta   109.66273653
_cell_angle_gamma   108.84874353
_symmetry_Int_Tables_number   1
_chemical_formula_structural   Er12TlZnInFe2
_chemical_formula_sum   'Er12 Tl1 Zn1 In1 Fe2'
_cell_volume   444.41686365
_cell_formula_units_Z   1
loop_
 _symmetry_equiv_pos_site_id
 _symmetry_equiv_pos_as_xyz
  1  'x, y, z'
loop_
 _atom_site_type_symbol
 _atom_site_label
 _atom_site_symmetry_multiplicity
 _atom_site_fract_x
 _atom_site_fract_y
 _atom_site_fract_z
 _atom_site_occupancy
  Er  Er0  1  0.306121  0.305148  0.611268  1
  Er  Er1  1  0.693879  0.694852  0.388732  1
  Er  Er2  1  0.306121  0.694852  0.000973  1
  Er  Er3  1  0.693879  0.305148  0.999027  1
  Er  Er4  1  0.444487  0.201788  0.242699  1
  Er  Er5  1  0.555513  0.798212  0.757301  1
  Er  Er6  1  0.959089  0.201788  0.757301  1
  Er  Er7  1  0.202529  0.958980  0.756451  1
  Er  Er8  1  0.040911  0.798212  0.242699  1
  Er  Er9  1  0.797471  0.041020  0.243549  1
  Er  Er10  1  0.202529  0.446078  0.243549  1
  Er  Er11  1  0.797471  0.553922  0.756451  1
  Tl  Tl12  1  0.000000  0.500000  0.500000  1
  Zn  Zn13  1  0.000000  0.000000  0.000000  1
  In  In14  1  0.500000  0.000000  0.500000  1
  Fe  Fe15  1  0.386701  0.386701  0.000000  1
  Fe  Fe16  1  0.613299  0.613299  0.000000  1
