# generated using pymatgen
data_Ti3Al2RhO
_symmetry_space_group_name_H-M   'P 1'
_cell_length_a   8.16448439
_cell_length_b   8.16448445
_cell_length_c   8.16448500
_cell_angle_alpha   60.00000181
_cell_angle_beta   60.00000157
_cell_angle_gamma   60.00000596
_symmetry_Int_Tables_number   1
_chemical_formula_structural   Ti3Al2RhO
_chemical_formula_sum   'Ti12 Al8 Rh4 O4'
_cell_volume   384.83215892
_cell_formula_units_Z   4
loop_
 _symmetry_equiv_pos_site_id
 _symmetry_equiv_pos_as_xyz
  1  'x, y, z'
loop_
 _atom_site_type_symbol
 _atom_site_label
 _atom_site_symmetry_multiplicity
 _atom_site_fract_x
 _atom_site_fract_y
 _atom_site_fract_z
 _atom_site_occupancy
  Ti  Ti0  1  0.565273  0.934727  0.565273  1
  Ti  Ti1  1  0.315273  0.684727  0.684727  1
  Ti  Ti2  1  0.684727  0.315273  0.315273  1
  Ti  Ti3  1  0.315273  0.684727  0.315273  1
  Ti  Ti4  1  0.684727  0.684727  0.315273  1
  Ti  Ti5  1  0.315273  0.315273  0.684727  1
  Ti  Ti6  1  0.565273  0.565273  0.934727  1
  Ti  Ti7  1  0.934727  0.565273  0.565273  1
  Ti  Ti8  1  0.565273  0.934727  0.934727  1
  Ti  Ti9  1  0.934727  0.934727  0.565273  1
  Ti  Ti10  1  0.684727  0.315273  0.684727  1
  Ti  Ti11  1  0.934727  0.565273  0.934727  1
  Al  Al12  1  0.334861  0.334861  0.334861  1
  Al  Al13  1  0.254583  0.915139  0.915139  1
  Al  Al14  1  0.915139  0.254583  0.915139  1
  Al  Al15  1  0.915139  0.915139  0.254583  1
  Al  Al16  1  0.334861  0.995417  0.334861  1
  Al  Al17  1  0.334861  0.334861  0.995417  1
  Al  Al18  1  0.995417  0.334861  0.334861  1
  Al  Al19  1  0.915139  0.915139  0.915139  1
  Rh  Rh20  1  0.125000  0.125000  0.125000  1
  Rh  Rh21  1  0.625000  0.125000  0.125000  1
  Rh  Rh22  1  0.125000  0.625000  0.125000  1
  Rh  Rh23  1  0.125000  0.125000  0.625000  1
  O  O24  1  0.625000  0.625000  0.625000  1
  O  O25  1  0.125000  0.625000  0.625000  1
  O  O26  1  0.625000  0.125000  0.625000  1
  O  O27  1  0.625000  0.625000  0.125000  1
