# generated using pymatgen
data_Nd20Ir9PdRu2
_symmetry_space_group_name_H-M   'P 1'
_cell_length_a   11.27715643
_cell_length_b   11.27715643
_cell_length_c   6.60890829
_cell_angle_alpha   89.97579302
_cell_angle_beta   89.97579302
_cell_angle_gamma   89.97934950
_symmetry_Int_Tables_number   1
_chemical_formula_structural   Nd20Ir9PdRu2
_chemical_formula_sum   'Nd20 Ir9 Pd1 Ru2'
_cell_volume   840.48279908
_cell_formula_units_Z   1
loop_
 _symmetry_equiv_pos_site_id
 _symmetry_equiv_pos_as_xyz
  1  'x, y, z'
loop_
 _atom_site_type_symbol
 _atom_site_label
 _atom_site_symmetry_multiplicity
 _atom_site_fract_x
 _atom_site_fract_y
 _atom_site_fract_z
 _atom_site_occupancy
  Nd  Nd0  1  0.088649  0.291770  0.116532  1
  Nd  Nd1  1  0.792929  0.411227  0.118661  1
  Nd  Nd2  1  0.204341  0.586736  0.125496  1
  Nd  Nd3  1  0.910715  0.707944  0.117188  1
  Nd  Nd4  1  0.413264  0.795659  0.374504  1
  Nd  Nd5  1  0.588773  0.207071  0.381339  1
  Nd  Nd6  1  0.292056  0.089285  0.382812  1
  Nd  Nd7  1  0.708230  0.911351  0.383468  1
  Nd  Nd8  1  0.411194  0.208300  0.884415  1
  Nd  Nd9  1  0.707607  0.090031  0.884712  1
  Nd  Nd10  1  0.291617  0.916096  0.885393  1
  Nd  Nd11  1  0.593801  0.793929  0.886191  1
  Nd  Nd12  1  0.083904  0.708383  0.614607  1
  Nd  Nd13  1  0.909969  0.292393  0.615288  1
  Nd  Nd14  1  0.206071  0.406199  0.613809  1
  Nd  Nd15  1  0.791700  0.588806  0.615585  1
  Nd  Nd16  1  0.999598  0.000282  0.000698  1
  Nd  Nd17  1  0.502060  0.498019  0.000330  1
  Nd  Nd18  1  0.501981  0.497940  0.499670  1
  Nd  Nd19  1  0.999718  0.000402  0.499302  1
  Ir  Ir20  1  0.154951  0.845049  0.250000  1
  Ir  Ir21  1  0.346991  0.347394  0.249999  1
  Ir  Ir22  1  0.652606  0.653009  0.250001  1
  Ir  Ir23  1  0.846195  0.153805  0.250000  1
  Ir  Ir24  1  0.153236  0.153017  0.749561  1
  Ir  Ir25  1  0.846983  0.846764  0.750439  1
  Ir  Ir26  1  0.653737  0.346263  0.750000  1
  Ir  Ir27  1  0.499509  0.998509  0.623346  1
  Ir  Ir28  1  0.001491  0.500491  0.876654  1
  Pd  Pd29  1  0.345601  0.654399  0.750000  1
  Ru  Ru30  1  0.001326  0.500804  0.379469  1
  Ru  Ru31  1  0.499196  0.998674  0.120531  1
