# generated using pymatgen
data_K12Li4Si15Sn
_symmetry_space_group_name_H-M   'P 1'
_cell_length_a   7.70046980
_cell_length_b   9.83089300
_cell_length_c   12.42159312
_cell_angle_alpha   90.00000000
_cell_angle_beta   89.81629287
_cell_angle_gamma   90.00000000
_symmetry_Int_Tables_number   1
_chemical_formula_structural   K12Li4Si15Sn
_chemical_formula_sum   'K12 Li4 Si15 Sn1'
_cell_volume   940.34075300
_cell_formula_units_Z   1
loop_
 _symmetry_equiv_pos_site_id
 _symmetry_equiv_pos_as_xyz
  1  'x, y, z'
loop_
 _atom_site_type_symbol
 _atom_site_label
 _atom_site_symmetry_multiplicity
 _atom_site_fract_x
 _atom_site_fract_y
 _atom_site_fract_z
 _atom_site_occupancy
  K  K0  1  0.655942  0.250000  0.400488  1
  K  K1  1  0.155251  0.250000  0.100266  1
  K  K2  1  0.343366  0.750000  0.591852  1
  K  K3  1  0.851233  0.750000  0.900679  1
  K  K4  1  0.654215  0.446209  0.694114  1
  K  K5  1  0.151251  0.060959  0.805219  1
  K  K6  1  0.344723  0.947005  0.308811  1
  K  K7  1  0.843050  0.553875  0.194570  1
  K  K8  1  0.344723  0.552995  0.308811  1
  K  K9  1  0.843050  0.946125  0.194570  1
  K  K10  1  0.654215  0.053791  0.694114  1
  K  K11  1  0.151251  0.439041  0.805219  1
  Li  Li12  1  0.500421  0.497362  0.002683  1
  Li  Li13  1  0.999781  0.999936  0.500084  1
  Li  Li14  1  0.500421  0.002638  0.002683  1
  Li  Li15  1  0.999781  0.500064  0.500084  1
  Si  Si16  1  0.861470  0.750000  0.598721  1
  Si  Si17  1  0.637841  0.250000  0.099363  1
  Si  Si18  1  0.138568  0.250000  0.400697  1
  Si  Si19  1  0.716557  0.628696  0.451700  1
  Si  Si20  1  0.215130  0.871475  0.054084  1
  Si  Si21  1  0.283581  0.128787  0.547801  1
  Si  Si22  1  0.784393  0.371313  0.952315  1
  Si  Si23  1  0.011387  0.250000  0.582379  1
  Si  Si24  1  0.513247  0.250000  0.917018  1
  Si  Si25  1  0.987989  0.750000  0.416259  1
  Si  Si26  1  0.487510  0.750000  0.088532  1
  Si  Si27  1  0.215130  0.628525  0.054084  1
  Si  Si28  1  0.716557  0.871304  0.451700  1
  Si  Si29  1  0.784393  0.128687  0.952315  1
  Si  Si30  1  0.283581  0.371213  0.547801  1
  Sn  Sn31  1  0.369990  0.750000  0.880985  1
