# generated using pymatgen
data_Yb2AlClO3
_symmetry_space_group_name_H-M   'P 1'
_cell_length_a   3.66408500
_cell_length_b   3.66408500
_cell_length_c   13.87431600
_cell_angle_alpha   90.00000000
_cell_angle_beta   90.00000000
_cell_angle_gamma   90.00000000
_symmetry_Int_Tables_number   1
_chemical_formula_structural   Yb2AlClO3
_chemical_formula_sum   'Yb4 Al2 Cl2 O6'
_cell_volume   186.26989151
_cell_formula_units_Z   2
loop_
 _symmetry_equiv_pos_site_id
 _symmetry_equiv_pos_as_xyz
  1  'x, y, z'
loop_
 _atom_site_type_symbol
 _atom_site_label
 _atom_site_symmetry_multiplicity
 _atom_site_fract_x
 _atom_site_fract_y
 _atom_site_fract_z
 _atom_site_occupancy
  Yb  Yb0  1  0.499999  0.000000  0.090248  1
  Yb  Yb1  1  0.499999  0.000000  0.330227  1
  Yb  Yb2  1  0.000000  0.499999  0.669773  1
  Yb  Yb3  1  0.000000  0.499999  0.909752  1
  Al  Al4  1  0.000000  0.499999  0.200964  1
  Al  Al5  1  0.499999  0.000000  0.799036  1
  Cl  Cl6  1  0.000000  0.499999  0.415163  1
  Cl  Cl7  1  0.499999  0.000000  0.584837  1
  O  O8  1  0.000000  0.499999  0.070833  1
  O  O9  1  0.000000  0.000000  0.224468  1
  O  O10  1  0.499999  0.499999  0.224468  1
  O  O11  1  0.000000  0.000000  0.775532  1
  O  O12  1  0.499999  0.499999  0.775532  1
  O  O13  1  0.499999  0.000000  0.929167  1
