# generated using pymatgen
data_AcY3(MoN3)4
_symmetry_space_group_name_H-M   'P 1'
_cell_length_a   7.29277406
_cell_length_b   7.29277378
_cell_length_c   6.17041386
_cell_angle_alpha   76.75258399
_cell_angle_beta   76.75257882
_cell_angle_gamma   84.00873709
_symmetry_Int_Tables_number   1
_chemical_formula_structural   AcY3(MoN3)4
_chemical_formula_sum   'Ac1 Y3 Mo4 N12'
_cell_volume   310.47137583
_cell_formula_units_Z   1
loop_
 _symmetry_equiv_pos_site_id
 _symmetry_equiv_pos_as_xyz
  1  'x, y, z'
loop_
 _atom_site_type_symbol
 _atom_site_label
 _atom_site_symmetry_multiplicity
 _atom_site_fract_x
 _atom_site_fract_y
 _atom_site_fract_z
 _atom_site_occupancy
  Ac  Ac0  1  0.685362  0.314638  0.750000  1
  Y  Y1  1  0.307770  0.692230  0.250000  1
  Y  Y2  1  0.920354  0.079646  0.250000  1
  Y  Y3  1  0.093600  0.906400  0.750000  1
  Mo  Mo4  1  0.616885  0.804557  0.742216  1
  Mo  Mo5  1  0.378225  0.198801  0.264716  1
  Mo  Mo6  1  0.801199  0.621775  0.235284  1
  Mo  Mo7  1  0.195443  0.383115  0.757784  1
  N  N8  1  0.383850  0.895216  0.850354  1
  N  N9  1  0.010399  0.209173  0.856001  1
  N  N10  1  0.655359  0.623144  0.007229  1
  N  N11  1  0.104784  0.616150  0.649646  1
  N  N12  1  0.883573  0.385128  0.329114  1
  N  N13  1  0.223259  0.994530  0.355149  1
  N  N14  1  0.328911  0.376997  0.999605  1
  N  N15  1  0.790827  0.989601  0.643999  1
  N  N16  1  0.614872  0.116427  0.170886  1
  N  N17  1  0.376856  0.344641  0.492771  1
  N  N18  1  0.005470  0.776741  0.144851  1
  N  N19  1  0.623003  0.671089  0.500395  1
