# generated using pymatgen
data_Y7ErSc11Si16Tc
_symmetry_space_group_name_H-M   'P 1'
_cell_length_a   7.03619201
_cell_length_b   7.37066897
_cell_length_c   13.91774828
_cell_angle_alpha   89.97683848
_cell_angle_beta   89.99890741
_cell_angle_gamma   90.14196697
_symmetry_Int_Tables_number   1
_chemical_formula_structural   Y7ErSc11Si16Tc
_chemical_formula_sum   'Y7 Er1 Sc11 Si16 Tc1'
_cell_volume   721.79222159
_cell_formula_units_Z   1
loop_
 _symmetry_equiv_pos_site_id
 _symmetry_equiv_pos_as_xyz
  1  'x, y, z'
loop_
 _atom_site_type_symbol
 _atom_site_label
 _atom_site_symmetry_multiplicity
 _atom_site_fract_x
 _atom_site_fract_y
 _atom_site_fract_z
 _atom_site_occupancy
  Y  Y0  1  0.012847  0.177741  0.093312  1
  Y  Y1  1  0.992046  0.818629  0.900494  1
  Y  Y2  1  0.487144  0.672391  0.902593  1
  Y  Y3  1  0.991977  0.818549  0.599237  1
  Y  Y4  1  0.512434  0.323443  0.095433  1
  Y  Y5  1  0.012972  0.177766  0.406832  1
  Y  Y6  1  0.512348  0.323549  0.404855  1
  Er  Er7  1  0.486771  0.672688  0.598082  1
  Sc  Sc8  1  0.843485  0.497305  0.250018  1
  Sc  Sc9  1  0.343771  0.003145  0.250014  1
  Sc  Sc10  1  0.654906  0.995513  0.749791  1
  Sc  Sc11  1  0.324763  0.178110  0.627775  1
  Sc  Sc12  1  0.673189  0.824198  0.374405  1
  Sc  Sc13  1  0.173516  0.674186  0.376642  1
  Sc  Sc14  1  0.673379  0.824464  0.125773  1
  Sc  Sc15  1  0.826235  0.331408  0.628669  1
  Sc  Sc16  1  0.324696  0.178029  0.872073  1
  Sc  Sc17  1  0.826560  0.331126  0.871062  1
  Sc  Sc18  1  0.173385  0.674240  0.123467  1
  Si  Si19  1  0.027344  0.119344  0.749886  1
  Si  Si20  1  0.974260  0.885603  0.250027  1
  Si  Si21  1  0.470300  0.616463  0.250030  1
  Si  Si22  1  0.516712  0.394945  0.749600  1
  Si  Si23  1  0.284751  0.861349  0.749515  1
  Si  Si24  1  0.718753  0.129017  0.250041  1
  Si  Si25  1  0.216001  0.371873  0.250018  1
  Si  Si26  1  0.791813  0.628988  0.749645  1
  Si  Si27  1  0.155823  0.466463  0.548309  1
  Si  Si28  1  0.843333  0.536222  0.463349  1
  Si  Si29  1  0.346942  0.963826  0.463183  1
  Si  Si30  1  0.843572  0.536138  0.036781  1
  Si  Si31  1  0.656549  0.033777  0.540369  1
  Si  Si32  1  0.154441  0.465659  0.951898  1
  Si  Si33  1  0.656885  0.034816  0.959824  1
  Si  Si34  1  0.346803  0.964708  0.037156  1
  Tc  Tc35  1  0.149293  0.494331  0.749842  1
