# generated using pymatgen
data_Pr2Nd3Dy3Au4
_symmetry_space_group_name_H-M   'P 1'
_cell_length_a   5.04517400
_cell_length_b   7.31094580
_cell_length_c   9.16010507
_cell_angle_alpha   90.06493078
_cell_angle_beta   90.00000000
_cell_angle_gamma   90.00000000
_symmetry_Int_Tables_number   1
_chemical_formula_structural   Pr2Nd3Dy3Au4
_chemical_formula_sum   'Pr2 Nd3 Dy3 Au4'
_cell_volume   337.87020076
_cell_formula_units_Z   1
loop_
 _symmetry_equiv_pos_site_id
 _symmetry_equiv_pos_as_xyz
  1  'x, y, z'
loop_
 _atom_site_type_symbol
 _atom_site_label
 _atom_site_symmetry_multiplicity
 _atom_site_fract_x
 _atom_site_fract_y
 _atom_site_fract_z
 _atom_site_occupancy
  Pr  Pr0  1  0.250000  0.490217  0.177278  1
  Pr  Pr1  1  0.250000  0.994248  0.323489  1
  Nd  Nd2  1  0.750000  0.652500  0.414556  1
  Nd  Nd3  1  0.750000  0.508350  0.822584  1
  Nd  Nd4  1  0.750000  0.009826  0.679179  1
  Dy  Dy5  1  0.250000  0.850119  0.919139  1
  Dy  Dy6  1  0.250000  0.348856  0.584614  1
  Dy  Dy7  1  0.750000  0.151508  0.080761  1
  Au  Au8  1  0.250000  0.245965  0.902140  1
  Au  Au9  1  0.250000  0.747716  0.605085  1
  Au  Au10  1  0.750000  0.755600  0.088576  1
  Au  Au11  1  0.750000  0.245094  0.402599  1
