# generated using pymatgen
data_DyAl2CuSi
_symmetry_space_group_name_H-M   'P 1'
_cell_length_a   4.05711533
_cell_length_b   4.05742395
_cell_length_c   5.99394211
_cell_angle_alpha   70.21690509
_cell_angle_beta   70.21847607
_cell_angle_gamma   90.00001321
_symmetry_Int_Tables_number   1
_chemical_formula_structural   DyAl2CuSi
_chemical_formula_sum   'Dy1 Al2 Cu1 Si1'
_cell_volume   86.63256771
_cell_formula_units_Z   1
loop_
 _symmetry_equiv_pos_site_id
 _symmetry_equiv_pos_as_xyz
  1  'x, y, z'
loop_
 _atom_site_type_symbol
 _atom_site_label
 _atom_site_symmetry_multiplicity
 _atom_site_fract_x
 _atom_site_fract_y
 _atom_site_fract_z
 _atom_site_occupancy
  Dy  Dy0  1  0.993730  0.993730  0.012540  1
  Al  Al1  1  0.744999  0.244999  0.510002  1
  Al  Al2  1  0.245025  0.745025  0.509948  1
  Cu  Cu3  1  0.616393  0.616393  0.767215  1
  Si  Si4  1  0.399852  0.399852  0.200294  1
