# generated using pymatgen
data_Na3AlSb2
_symmetry_space_group_name_H-M   'P 1'
_cell_length_a   10.13337859
_cell_length_b   10.13337894
_cell_length_c   6.59765100
_cell_angle_alpha   90.00000000
_cell_angle_beta   90.00000000
_cell_angle_gamma   97.50017922
_symmetry_Int_Tables_number   1
_chemical_formula_structural   Na3AlSb2
_chemical_formula_sum   'Na12 Al4 Sb8'
_cell_volume   671.68597185
_cell_formula_units_Z   4
loop_
 _symmetry_equiv_pos_site_id
 _symmetry_equiv_pos_as_xyz
  1  'x, y, z'
loop_
 _atom_site_type_symbol
 _atom_site_label
 _atom_site_symmetry_multiplicity
 _atom_site_fract_x
 _atom_site_fract_y
 _atom_site_fract_z
 _atom_site_occupancy
  Na  Na0  1  0.074043  0.425957  0.250000  1
  Na  Na1  1  0.425957  0.074043  0.750000  1
  Na  Na2  1  0.925957  0.574043  0.750000  1
  Na  Na3  1  0.574043  0.925957  0.250000  1
  Na  Na4  1  0.676199  0.323801  0.220916  1
  Na  Na5  1  0.823801  0.176199  0.720916  1
  Na  Na6  1  0.323801  0.676199  0.779084  1
  Na  Na7  1  0.176199  0.823801  0.279084  1
  Na  Na8  1  0.383569  0.383569  0.000000  1
  Na  Na9  1  0.116431  0.116431  0.500000  1
  Na  Na10  1  0.616431  0.616431  0.000000  1
  Na  Na11  1  0.883569  0.883569  0.500000  1
  Al  Al12  1  0.130892  0.130892  0.000000  1
  Al  Al13  1  0.369108  0.369108  0.500000  1
  Al  Al14  1  0.869108  0.869108  0.000000  1
  Al  Al15  1  0.630892  0.630892  0.500000  1
  Sb  Sb16  1  0.860733  0.639266  0.250000  1
  Sb  Sb17  1  0.639266  0.860733  0.750000  1
  Sb  Sb18  1  0.139266  0.360733  0.750000  1
  Sb  Sb19  1  0.360733  0.139266  0.250000  1
  Sb  Sb20  1  0.886197  0.113803  0.189659  1
  Sb  Sb21  1  0.613803  0.386197  0.689659  1
  Sb  Sb22  1  0.113803  0.886197  0.810341  1
  Sb  Sb23  1  0.386197  0.613803  0.310341  1
