# generated using pymatgen
data_Tb6Y10CdNi4Ag3
_symmetry_space_group_name_H-M   'P 1'
_cell_length_a   9.49662898
_cell_length_b   9.53334157
_cell_length_c   9.53334088
_cell_angle_alpha   59.97597634
_cell_angle_beta   60.08355998
_cell_angle_gamma   60.08355723
_symmetry_Int_Tables_number   1
_chemical_formula_structural   Tb6Y10CdNi4Ag3
_chemical_formula_sum   'Tb6 Y10 Cd1 Ni4 Ag3'
_cell_volume   610.96030499
_cell_formula_units_Z   1
loop_
 _symmetry_equiv_pos_site_id
 _symmetry_equiv_pos_as_xyz
  1  'x, y, z'
loop_
 _atom_site_type_symbol
 _atom_site_label
 _atom_site_symmetry_multiplicity
 _atom_site_fract_x
 _atom_site_fract_y
 _atom_site_fract_z
 _atom_site_occupancy
  Tb  Tb0  1  0.597175  0.598270  0.598270  1
  Tb  Tb1  1  0.601717  0.599819  0.200094  1
  Tb  Tb2  1  0.601717  0.200094  0.599819  1
  Tb  Tb3  1  0.196423  0.602412  0.602412  1
  Tb  Tb4  1  0.061111  0.439481  0.439481  1
  Tb  Tb5  1  0.438304  0.061407  0.061407  1
  Y  Y6  1  0.439060  0.060881  0.439925  1
  Y  Y7  1  0.060957  0.438047  0.061010  1
  Y  Y8  1  0.439060  0.439925  0.060881  1
  Y  Y9  1  0.060957  0.061010  0.438047  1
  Y  Y10  1  0.182553  0.815392  0.815392  1
  Y  Y11  1  0.814630  0.185244  0.185244  1
  Y  Y12  1  0.813355  0.186204  0.814455  1
  Y  Y13  1  0.184482  0.814160  0.187623  1
  Y  Y14  1  0.813355  0.814455  0.186204  1
  Y  Y15  1  0.184482  0.187623  0.814160  1
  Cd  Cd16  1  0.513685  0.827796  0.827796  1
  Ni  Ni17  1  0.391583  0.395307  0.395307  1
  Ni  Ni18  1  0.392888  0.391878  0.820780  1
  Ni  Ni19  1  0.392888  0.820780  0.391878  1
  Ni  Ni20  1  0.821213  0.393090  0.393090  1
  Ag  Ag21  1  0.832627  0.831775  0.831775  1
  Ag  Ag22  1  0.832888  0.833214  0.501738  1
  Ag  Ag23  1  0.832888  0.501738  0.833214  1
