# generated using pymatgen
data_Ac3Nd2(Sn5Ir2)2
_symmetry_space_group_name_H-M   'P 1'
_cell_length_a   14.35199200
_cell_length_b   14.35199200
_cell_length_c   4.77255100
_cell_angle_alpha   90.00000000
_cell_angle_beta   90.00000000
_cell_angle_gamma   90.00000000
_symmetry_Int_Tables_number   1
_chemical_formula_structural   Ac3Nd2(Sn5Ir2)2
_chemical_formula_sum   'Ac6 Nd4 Sn20 Ir8'
_cell_volume   983.04850088
_cell_formula_units_Z   2
loop_
 _symmetry_equiv_pos_site_id
 _symmetry_equiv_pos_as_xyz
  1  'x, y, z'
loop_
 _atom_site_type_symbol
 _atom_site_label
 _atom_site_symmetry_multiplicity
 _atom_site_fract_x
 _atom_site_fract_y
 _atom_site_fract_z
 _atom_site_occupancy
  Ac  Ac0  1  0.500000  0.500000  0.000000  1
  Ac  Ac1  1  0.000000  0.000000  0.000000  1
  Ac  Ac2  1  0.887366  0.387366  0.500000  1
  Ac  Ac3  1  0.112634  0.612634  0.500000  1
  Ac  Ac4  1  0.387366  0.112634  0.500000  1
  Ac  Ac5  1  0.612634  0.887366  0.500000  1
  Nd  Nd6  1  0.676577  0.176577  0.500000  1
  Nd  Nd7  1  0.323423  0.823423  0.500000  1
  Nd  Nd8  1  0.176577  0.323423  0.500000  1
  Nd  Nd9  1  0.823423  0.676577  0.500000  1
  Sn  Sn10  1  0.570938  0.070938  0.000000  1
  Sn  Sn11  1  0.429062  0.929062  0.000000  1
  Sn  Sn12  1  0.070938  0.429062  0.000000  1
  Sn  Sn13  1  0.929062  0.570938  0.000000  1
  Sn  Sn14  1  0.655708  0.697681  0.000000  1
  Sn  Sn15  1  0.344292  0.302319  0.000000  1
  Sn  Sn16  1  0.155708  0.802319  0.000000  1
  Sn  Sn17  1  0.844292  0.197681  0.000000  1
  Sn  Sn18  1  0.302319  0.655708  0.000000  1
  Sn  Sn19  1  0.697681  0.344292  0.000000  1
  Sn  Sn20  1  0.197681  0.155708  0.000000  1
  Sn  Sn21  1  0.802319  0.844292  0.000000  1
  Sn  Sn22  1  0.665764  0.506273  0.500000  1
  Sn  Sn23  1  0.334236  0.493727  0.500000  1
  Sn  Sn24  1  0.165764  0.993727  0.500000  1
  Sn  Sn25  1  0.834236  0.006273  0.500000  1
  Sn  Sn26  1  0.493727  0.665764  0.500000  1
  Sn  Sn27  1  0.506273  0.334236  0.500000  1
  Sn  Sn28  1  0.006273  0.165764  0.500000  1
  Sn  Sn29  1  0.993727  0.834236  0.500000  1
  Ir  Ir30  1  0.745835  0.528292  0.000000  1
  Ir  Ir31  1  0.254165  0.471708  0.000000  1
  Ir  Ir32  1  0.245835  0.971708  0.000000  1
  Ir  Ir33  1  0.754165  0.028292  0.000000  1
  Ir  Ir34  1  0.471708  0.745835  0.000000  1
  Ir  Ir35  1  0.528292  0.254165  0.000000  1
  Ir  Ir36  1  0.028292  0.245835  0.000000  1
  Ir  Ir37  1  0.971708  0.754165  0.000000  1
