# generated using pymatgen
data_Dy2SnP6(IrRh)6
_symmetry_space_group_name_H-M   'P 1'
_cell_length_a   9.72649400
_cell_length_b   9.72649423
_cell_length_c   3.96267400
_cell_angle_alpha   90.00000000
_cell_angle_beta   90.00000000
_cell_angle_gamma   120.00000694
_symmetry_Int_Tables_number   1
_chemical_formula_structural   Dy2SnP6(IrRh)6
_chemical_formula_sum   'Dy2 Sn1 P6 Ir6 Rh6'
_cell_volume   324.66210732
_cell_formula_units_Z   1
loop_
 _symmetry_equiv_pos_site_id
 _symmetry_equiv_pos_as_xyz
  1  'x, y, z'
loop_
 _atom_site_type_symbol
 _atom_site_label
 _atom_site_symmetry_multiplicity
 _atom_site_fract_x
 _atom_site_fract_y
 _atom_site_fract_z
 _atom_site_occupancy
  Dy  Dy0  1  0.333333  0.666667  0.754278  1
  Dy  Dy1  1  0.666667  0.333333  0.245722  1
  Sn  Sn2  1  0.000000  0.000000  0.500000  1
  P  P3  1  0.406875  0.283785  0.745494  1
  P  P4  1  0.716215  0.123090  0.745494  1
  P  P5  1  0.876910  0.593125  0.745494  1
  P  P6  1  0.593125  0.716215  0.254506  1
  P  P7  1  0.283785  0.876910  0.254506  1
  P  P8  1  0.123090  0.406875  0.254506  1
  Ir  Ir9  1  0.456063  0.068347  0.747069  1
  Ir  Ir10  1  0.931653  0.387716  0.747069  1
  Ir  Ir11  1  0.612284  0.543937  0.747069  1
  Ir  Ir12  1  0.543937  0.931653  0.252931  1
  Ir  Ir13  1  0.068347  0.612284  0.252931  1
  Ir  Ir14  1  0.387716  0.456063  0.252931  1
  Rh  Rh15  1  0.165368  0.288539  0.760766  1
  Rh  Rh16  1  0.711461  0.876830  0.760766  1
  Rh  Rh17  1  0.123170  0.834632  0.760766  1
  Rh  Rh18  1  0.834632  0.711461  0.239234  1
  Rh  Rh19  1  0.288539  0.123170  0.239234  1
  Rh  Rh20  1  0.876830  0.165368  0.239234  1
