# generated using pymatgen
data_Yb3SmFeOs7
_symmetry_space_group_name_H-M   'P 1'
_cell_length_a   5.29556676
_cell_length_b   5.31867189
_cell_length_c   8.73934706
_cell_angle_alpha   89.99901478
_cell_angle_beta   89.98929159
_cell_angle_gamma   120.14387625
_symmetry_Int_Tables_number   1
_chemical_formula_structural   Yb3SmFeOs7
_chemical_formula_sum   'Yb3 Sm1 Fe1 Os7'
_cell_volume   212.85986821
_cell_formula_units_Z   1
loop_
 _symmetry_equiv_pos_site_id
 _symmetry_equiv_pos_as_xyz
  1  'x, y, z'
loop_
 _atom_site_type_symbol
 _atom_site_label
 _atom_site_symmetry_multiplicity
 _atom_site_fract_x
 _atom_site_fract_y
 _atom_site_fract_z
 _atom_site_occupancy
  Yb  Yb0  1  0.334775  0.667404  0.431023  1
  Yb  Yb1  1  0.334334  0.667108  0.065360  1
  Yb  Yb2  1  0.661054  0.330496  0.940114  1
  Sm  Sm3  1  0.661121  0.330607  0.564575  1
  Fe  Fe4  1  0.344335  0.172136  0.248446  1
  Os  Os5  1  0.989292  0.994726  0.493625  1
  Os  Os6  1  0.987353  0.993653  0.004842  1
  Os  Os7  1  0.172692  0.346724  0.751998  1
  Os  Os8  1  0.172658  0.825959  0.752017  1
  Os  Os9  1  0.663194  0.831620  0.751728  1
  Os  Os10  1  0.839632  0.658154  0.248122  1
  Os  Os11  1  0.839560  0.181415  0.248149  1
