# generated using pymatgen
data_YTh3(Co7B3)2
_symmetry_space_group_name_H-M   'P 1'
_cell_length_a   5.02963600
_cell_length_b   5.02907175
_cell_length_c   13.06344200
_cell_angle_alpha   89.99987072
_cell_angle_beta   90.00026993
_cell_angle_gamma   120.00371151
_symmetry_Int_Tables_number   1
_chemical_formula_structural   YTh3(Co7B3)2
_chemical_formula_sum   'Y1 Th3 Co14 B6'
_cell_volume   286.15174413
_cell_formula_units_Z   1
loop_
 _symmetry_equiv_pos_site_id
 _symmetry_equiv_pos_as_xyz
  1  'x, y, z'
loop_
 _atom_site_type_symbol
 _atom_site_label
 _atom_site_symmetry_multiplicity
 _atom_site_fract_x
 _atom_site_fract_y
 _atom_site_fract_z
 _atom_site_occupancy
  Y  Y0  1  0.999992  0.000000  0.500036  1
  Th  Th1  1  0.999987  0.000000  0.000001  1
  Th  Th2  1  0.999987  0.000000  0.259775  1
  Th  Th3  1  0.000000  0.000000  0.740180  1
  Co  Co4  1  0.333303  0.666639  0.000023  1
  Co  Co5  1  0.666664  0.333361  0.000023  1
  Co  Co6  1  0.499986  0.000000  0.156161  1
  Co  Co7  1  0.499985  0.500000  0.156104  1
  Co  Co8  1  0.999985  0.500000  0.156104  1
  Co  Co9  1  0.500001  0.000000  0.843882  1
  Co  Co10  1  0.500000  0.500000  0.843889  1
  Co  Co11  1  0.000001  0.500000  0.843889  1
  Co  Co12  1  0.499989  0.000000  0.384964  1
  Co  Co13  1  0.499988  0.500000  0.384993  1
  Co  Co14  1  0.999988  0.500000  0.384993  1
  Co  Co15  1  0.499997  0.000000  0.615004  1
  Co  Co16  1  0.499997  0.500000  0.615004  1
  Co  Co17  1  0.999996  0.500000  0.615004  1
  B  B18  1  0.333334  0.666687  0.500009  1
  B  B19  1  0.666647  0.333313  0.500009  1
  B  B20  1  0.333332  0.666691  0.269045  1
  B  B21  1  0.666641  0.333309  0.269045  1
  B  B22  1  0.666668  0.333337  0.730931  1
  B  B23  1  0.333331  0.666663  0.730931  1
