# generated using pymatgen
data_Hf3AlPt2N
_symmetry_space_group_name_H-M   'P 1'
_cell_length_a   8.55333768
_cell_length_b   8.55392547
_cell_length_c   8.55355303
_cell_angle_alpha   60.00794854
_cell_angle_beta   60.00725181
_cell_angle_gamma   60.00610369
_symmetry_Int_Tables_number   1
_chemical_formula_structural   Hf3AlPt2N
_chemical_formula_sum   'Hf12 Al4 Pt8 N4'
_cell_volume   442.59096968
_cell_formula_units_Z   4
loop_
 _symmetry_equiv_pos_site_id
 _symmetry_equiv_pos_as_xyz
  1  'x, y, z'
loop_
 _atom_site_type_symbol
 _atom_site_label
 _atom_site_symmetry_multiplicity
 _atom_site_fract_x
 _atom_site_fract_y
 _atom_site_fract_z
 _atom_site_occupancy
  Hf  Hf0  1  0.811239  0.188717  0.188724  1
  Hf  Hf1  1  0.188659  0.811252  0.188709  1
  Hf  Hf2  1  0.811334  0.811283  0.188740  1
  Hf  Hf3  1  0.188701  0.811312  0.811324  1
  Hf  Hf4  1  0.811318  0.188739  0.811295  1
  Hf  Hf5  1  0.188659  0.188729  0.811249  1
  Hf  Hf6  1  0.438761  0.061283  0.061276  1
  Hf  Hf7  1  0.061341  0.438748  0.061291  1
  Hf  Hf8  1  0.438666  0.438717  0.061260  1
  Hf  Hf9  1  0.061299  0.438688  0.438676  1
  Hf  Hf10  1  0.438682  0.061261  0.438705  1
  Hf  Hf11  1  0.061341  0.061271  0.438751  1
  Al  Al12  1  0.625000  0.625000  0.125000  1
  Al  Al13  1  0.625000  0.625000  0.625000  1
  Al  Al14  1  0.125000  0.625000  0.625000  1
  Al  Al15  1  0.625000  0.125000  0.625000  1
  Pt  Pt16  1  0.411125  0.411072  0.766615  1
  Pt  Pt17  1  0.411233  0.411115  0.411160  1
  Pt  Pt18  1  0.766526  0.411115  0.411104  1
  Pt  Pt19  1  0.411122  0.766624  0.411092  1
  Pt  Pt20  1  0.838875  0.838928  0.483385  1
  Pt  Pt21  1  0.838767  0.838885  0.838840  1
  Pt  Pt22  1  0.483474  0.838885  0.838896  1
  Pt  Pt23  1  0.838878  0.483376  0.838908  1
  N  N24  1  0.125000  0.125000  0.625000  1
  N  N25  1  0.125000  0.125000  0.125000  1
  N  N26  1  0.625000  0.125000  0.125000  1
  N  N27  1  0.125000  0.625000  0.125000  1
