# generated using pymatgen
data_Li3La4AlIrRh3
_symmetry_space_group_name_H-M   'P 1'
_cell_length_a   4.10980900
_cell_length_b   7.17369317
_cell_length_c   8.66104227
_cell_angle_alpha   89.69852645
_cell_angle_beta   90.00000000
_cell_angle_gamma   90.00000000
_symmetry_Int_Tables_number   1
_chemical_formula_structural   Li3La4AlIrRh3
_chemical_formula_sum   'Li3 La4 Al1 Ir1 Rh3'
_cell_volume   255.34571984
_cell_formula_units_Z   1
loop_
 _symmetry_equiv_pos_site_id
 _symmetry_equiv_pos_as_xyz
  1  'x, y, z'
loop_
 _atom_site_type_symbol
 _atom_site_label
 _atom_site_symmetry_multiplicity
 _atom_site_fract_x
 _atom_site_fract_y
 _atom_site_fract_z
 _atom_site_occupancy
  Li  Li0  1  0.250000  0.623505  0.549825  1
  Li  Li1  1  0.750000  0.371510  0.446602  1
  Li  Li2  1  0.750000  0.874172  0.053702  1
  La  La3  1  0.250000  0.543522  0.179093  1
  La  La4  1  0.750000  0.459879  0.818100  1
  La  La5  1  0.750000  0.960632  0.685900  1
  La  La6  1  0.250000  0.038098  0.314234  1
  Al  Al7  1  0.250000  0.129055  0.947733  1
  Ir  Ir8  1  0.750000  0.241234  0.104520  1
  Rh  Rh9  1  0.250000  0.761962  0.882235  1
  Rh  Rh10  1  0.750000  0.758361  0.368762  1
  Rh  Rh11  1  0.250000  0.238071  0.649294  1
