# generated using pymatgen
data_Nd4C4SeCl
_symmetry_space_group_name_H-M   'P 1'
_cell_length_a   7.41846726
_cell_length_b   7.41846635
_cell_length_c   6.83490366
_cell_angle_alpha   79.17561347
_cell_angle_beta   79.17561426
_cell_angle_gamma   33.79860921
_symmetry_Int_Tables_number   1
_chemical_formula_structural   Nd4C4SeCl
_chemical_formula_sum   'Nd4 C4 Se1 Cl1'
_cell_volume   205.17282806
_cell_formula_units_Z   1
loop_
 _symmetry_equiv_pos_site_id
 _symmetry_equiv_pos_as_xyz
  1  'x, y, z'
loop_
 _atom_site_type_symbol
 _atom_site_label
 _atom_site_symmetry_multiplicity
 _atom_site_fract_x
 _atom_site_fract_y
 _atom_site_fract_z
 _atom_site_occupancy
  Nd  Nd0  1  0.547688  0.153373  0.140322  1
  Nd  Nd1  1  0.150727  0.556502  0.651282  1
  Nd  Nd2  1  0.443498  0.849273  0.848718  1
  Nd  Nd3  1  0.846627  0.452312  0.359678  1
  C  C4  1  0.354081  0.102579  0.472339  1
  C  C5  1  0.897421  0.645919  0.027661  1
  C  C6  1  0.646355  0.904247  0.524699  1
  C  C7  1  0.095753  0.353645  0.975301  1
  Se  Se8  1  0.783694  0.216306  0.750000  1
  Cl  Cl9  1  0.234158  0.765842  0.250000  1
