# generated using pymatgen
data_Sm3BOsO9
_symmetry_space_group_name_H-M   'P 1'
_cell_length_a   8.66403500
_cell_length_b   8.66403853
_cell_length_c   5.52781100
_cell_angle_alpha   90.00000000
_cell_angle_beta   90.00000000
_cell_angle_gamma   120.00005907
_symmetry_Int_Tables_number   1
_chemical_formula_structural   Sm3BOsO9
_chemical_formula_sum   'Sm6 B2 Os2 O18'
_cell_volume   359.35536410
_cell_formula_units_Z   2
loop_
 _symmetry_equiv_pos_site_id
 _symmetry_equiv_pos_as_xyz
  1  'x, y, z'
loop_
 _atom_site_type_symbol
 _atom_site_label
 _atom_site_symmetry_multiplicity
 _atom_site_fract_x
 _atom_site_fract_y
 _atom_site_fract_z
 _atom_site_occupancy
  Sm  Sm0  1  0.356469  0.078667  0.201695  1
  Sm  Sm1  1  0.921334  0.277803  0.201695  1
  Sm  Sm2  1  0.722197  0.643531  0.201695  1
  Sm  Sm3  1  0.277802  0.356468  0.701695  1
  Sm  Sm4  1  0.078667  0.722198  0.701695  1
  Sm  Sm5  1  0.643532  0.921334  0.701695  1
  B  B6  1  0.000000  0.000000  0.369264  1
  B  B7  1  0.000000  0.000000  0.869266  1
  Os  Os8  1  0.333334  0.666667  0.251607  1
  Os  Os9  1  0.666666  0.333332  0.751606  1
  O  O10  1  0.210617  0.464401  0.046377  1
  O  O11  1  0.535599  0.746215  0.046377  1
  O  O12  1  0.253784  0.789382  0.046377  1
  O  O13  1  0.129519  0.177826  0.360678  1
  O  O14  1  0.048307  0.870481  0.360678  1
  O  O15  1  0.822174  0.951693  0.360678  1
  O  O16  1  0.131657  0.517965  0.475763  1
  O  O17  1  0.482035  0.613691  0.475763  1
  O  O18  1  0.386309  0.868343  0.475763  1
  O  O19  1  0.746216  0.210617  0.546376  1
  O  O20  1  0.464402  0.253784  0.546376  1
  O  O21  1  0.789382  0.535599  0.546376  1
  O  O22  1  0.177828  0.048309  0.860677  1
  O  O23  1  0.951692  0.129520  0.860677  1
  O  O24  1  0.870481  0.822173  0.860677  1
  O  O25  1  0.613691  0.131656  0.975761  1
  O  O26  1  0.517965  0.386309  0.975761  1
  O  O27  1  0.868343  0.482035  0.975761  1
