# generated using pymatgen
data_Cs4Li2HoErSb4
_symmetry_space_group_name_H-M   'P 1'
_cell_length_a   11.55704414
_cell_length_b   11.55704468
_cell_length_c   7.31745900
_cell_angle_alpha   90.00000000
_cell_angle_beta   90.00000000
_cell_angle_gamma   101.32461043
_symmetry_Int_Tables_number   1
_chemical_formula_structural   Cs4Li2HoErSb4
_chemical_formula_sum   'Cs8 Li4 Ho2 Er2 Sb8'
_cell_volume   958.32965287
_cell_formula_units_Z   2
loop_
 _symmetry_equiv_pos_site_id
 _symmetry_equiv_pos_as_xyz
  1  'x, y, z'
loop_
 _atom_site_type_symbol
 _atom_site_label
 _atom_site_symmetry_multiplicity
 _atom_site_fract_x
 _atom_site_fract_y
 _atom_site_fract_z
 _atom_site_occupancy
  Cs  Cs0  1  0.572046  0.927954  0.750000  1
  Cs  Cs1  1  0.927954  0.572046  0.250000  1
  Cs  Cs2  1  0.428550  0.071450  0.250000  1
  Cs  Cs3  1  0.071450  0.428550  0.750000  1
  Cs  Cs4  1  0.677520  0.322958  0.783069  1
  Cs  Cs5  1  0.822480  0.177042  0.283069  1
  Cs  Cs6  1  0.322958  0.677520  0.216931  1
  Cs  Cs7  1  0.177042  0.822480  0.716931  1
  Li  Li8  1  0.620789  0.620789  0.000000  1
  Li  Li9  1  0.879211  0.879211  0.500000  1
  Li  Li10  1  0.379788  0.379788  0.000000  1
  Li  Li11  1  0.120212  0.120212  0.500000  1
  Ho  Ho12  1  0.129934  0.129934  0.000000  1
  Ho  Ho13  1  0.370066  0.370066  0.500000  1
  Er  Er14  1  0.870235  0.870235  0.000000  1
  Er  Er15  1  0.629765  0.629765  0.500000  1
  Sb  Sb16  1  0.339722  0.160278  0.750000  1
  Sb  Sb17  1  0.160278  0.339722  0.250000  1
  Sb  Sb18  1  0.661026  0.838974  0.250000  1
  Sb  Sb19  1  0.838974  0.661026  0.750000  1
  Sb  Sb20  1  0.911091  0.088179  0.763686  1
  Sb  Sb21  1  0.588909  0.411821  0.263686  1
  Sb  Sb22  1  0.088179  0.911091  0.236314  1
  Sb  Sb23  1  0.411821  0.588909  0.736314  1
