# generated using pymatgen
data_ErPa7Al8(ReRh)4
_symmetry_space_group_name_H-M   'P 1'
_cell_length_a   4.19439800
_cell_length_b   6.92537202
_cell_length_c   15.88023032
_cell_angle_alpha   90.85328802
_cell_angle_beta   90.00000000
_cell_angle_gamma   90.00000000
_symmetry_Int_Tables_number   1
_chemical_formula_structural   ErPa7Al8(ReRh)4
_chemical_formula_sum   'Er1 Pa7 Al8 Re4 Rh4'
_cell_volume   461.23406949
_cell_formula_units_Z   1
loop_
 _symmetry_equiv_pos_site_id
 _symmetry_equiv_pos_as_xyz
  1  'x, y, z'
loop_
 _atom_site_type_symbol
 _atom_site_label
 _atom_site_symmetry_multiplicity
 _atom_site_fract_x
 _atom_site_fract_y
 _atom_site_fract_z
 _atom_site_occupancy
  Er  Er0  1  0.250000  0.149372  0.937935  1
  Pa  Pa1  1  0.250000  0.514057  0.778635  1
  Pa  Pa2  1  0.750000  0.485137  0.222360  1
  Pa  Pa3  1  0.750000  0.987998  0.278980  1
  Pa  Pa4  1  0.250000  0.017263  0.721557  1
  Pa  Pa5  1  0.250000  0.644935  0.563024  1
  Pa  Pa6  1  0.750000  0.359318  0.437551  1
  Pa  Pa7  1  0.750000  0.844993  0.064207  1
  Al  Al8  1  0.250000  0.651123  0.352253  1
  Al  Al9  1  0.750000  0.351728  0.645430  1
  Al  Al10  1  0.750000  0.852554  0.852675  1
  Al  Al11  1  0.250000  0.150848  0.148771  1
  Al  Al12  1  0.250000  0.500652  0.062972  1
  Al  Al13  1  0.750000  0.484201  0.937859  1
  Al  Al14  1  0.750000  0.992714  0.561431  1
  Al  Al15  1  0.250000  0.005229  0.437813  1
  Re  Re16  1  0.250000  0.772708  0.185599  1
  Re  Re17  1  0.750000  0.236468  0.805808  1
  Re  Re18  1  0.750000  0.734273  0.685913  1
  Re  Re19  1  0.250000  0.268671  0.316424  1
  Rh  Rh20  1  0.250000  0.723286  0.932560  1
  Rh  Rh21  1  0.750000  0.271724  0.073804  1
  Rh  Rh22  1  0.750000  0.774974  0.427445  1
  Rh  Rh23  1  0.250000  0.225770  0.568993  1
