# generated using pymatgen
data_Ta4Ti8Si3As
_symmetry_space_group_name_H-M   'P 1'
_cell_length_a   10.17714436
_cell_length_b   10.14510745
_cell_length_c   5.11674600
_cell_angle_alpha   90.00000000
_cell_angle_beta   90.00000000
_cell_angle_gamma   90.13028221
_symmetry_Int_Tables_number   1
_chemical_formula_structural   Ta4Ti8Si3As
_chemical_formula_sum   'Ta8 Ti16 Si6 As2'
_cell_volume   528.29356655
_cell_formula_units_Z   2
loop_
 _symmetry_equiv_pos_site_id
 _symmetry_equiv_pos_as_xyz
  1  'x, y, z'
loop_
 _atom_site_type_symbol
 _atom_site_label
 _atom_site_symmetry_multiplicity
 _atom_site_fract_x
 _atom_site_fract_y
 _atom_site_fract_z
 _atom_site_occupancy
  Ta  Ta0  1  0.893504  0.581125  0.037274  1
  Ta  Ta1  1  0.106496  0.418875  0.037274  1
  Ta  Ta2  1  0.914386  0.396350  0.526118  1
  Ta  Ta3  1  0.085614  0.603650  0.526118  1
  Ta  Ta4  1  0.605112  0.916058  0.468577  1
  Ta  Ta5  1  0.394888  0.083942  0.468577  1
  Ta  Ta6  1  0.583481  0.106210  0.967276  1
  Ta  Ta7  1  0.416519  0.893790  0.967276  1
  Ti  Ti8  1  0.854127  0.028444  0.719062  1
  Ti  Ti9  1  0.145873  0.971556  0.719062  1
  Ti  Ti10  1  0.471675  0.356254  0.216395  1
  Ti  Ti11  1  0.528325  0.643746  0.216395  1
  Ti  Ti12  1  0.644147  0.471832  0.783506  1
  Ti  Ti13  1  0.355853  0.528168  0.783506  1
  Ti  Ti14  1  0.027794  0.141320  0.280482  1
  Ti  Ti15  1  0.972206  0.858680  0.280482  1
  Ti  Ti16  1  0.286617  0.181817  0.993643  1
  Ti  Ti17  1  0.713383  0.818183  0.993643  1
  Ti  Ti18  1  0.318760  0.784115  0.492301  1
  Ti  Ti19  1  0.681240  0.215885  0.492301  1
  Ti  Ti20  1  0.217183  0.317854  0.505722  1
  Ti  Ti21  1  0.782817  0.682146  0.505722  1
  Ti  Ti22  1  0.182825  0.714362  0.009538  1
  Ti  Ti23  1  0.817175  0.285638  0.009538  1
  Si  Si24  1  0.796369  0.040082  0.214453  1
  Si  Si25  1  0.203631  0.959918  0.214453  1
  Si  Si26  1  0.460194  0.297971  0.712136  1
  Si  Si27  1  0.539806  0.702029  0.712136  1
  Si  Si28  1  0.701066  0.460078  0.288088  1
  Si  Si29  1  0.298934  0.539922  0.288088  1
  As  As30  1  0.039873  0.202787  0.785432  1
  As  As31  1  0.960127  0.797213  0.785432  1
