# generated using pymatgen
data_TbCe2(ZnPt)3
_symmetry_space_group_name_H-M   'P 1'
_cell_length_a   7.40289000
_cell_length_b   7.41407634
_cell_length_c   3.85890500
_cell_angle_alpha   90.00000000
_cell_angle_beta   90.00000000
_cell_angle_gamma   119.95009301
_symmetry_Int_Tables_number   1
_chemical_formula_structural   TbCe2(ZnPt)3
_chemical_formula_sum   'Tb1 Ce2 Zn3 Pt3'
_cell_volume   183.51486712
_cell_formula_units_Z   1
loop_
 _symmetry_equiv_pos_site_id
 _symmetry_equiv_pos_as_xyz
  1  'x, y, z'
loop_
 _atom_site_type_symbol
 _atom_site_label
 _atom_site_symmetry_multiplicity
 _atom_site_fract_x
 _atom_site_fract_y
 _atom_site_fract_z
 _atom_site_occupancy
  Tb  Tb0  1  0.404765  0.000000  0.500000  1
  Ce  Ce1  1  0.592587  0.592362  0.500000  1
  Ce  Ce2  1  0.000225  0.407638  0.500000  1
  Zn  Zn3  1  0.005740  0.755890  0.000000  1
  Zn  Zn4  1  0.745434  0.000000  0.000000  1
  Zn  Zn5  1  0.249850  0.244110  0.000000  1
  Pt  Pt6  1  0.997650  0.000000  0.500000  1
  Pt  Pt7  1  0.671593  0.339437  0.000000  1
  Pt  Pt8  1  0.332155  0.660563  0.000000  1
