# generated using pymatgen
data_Zr12Mn3Si12Pt
_symmetry_space_group_name_H-M   'P 1'
_cell_length_a   3.84537500
_cell_length_b   10.48222112
_cell_length_c   11.82345819
_cell_angle_alpha   90.05214201
_cell_angle_beta   90.00000485
_cell_angle_gamma   90.00000000
_symmetry_Int_Tables_number   1
_chemical_formula_structural   Zr12Mn3Si12Pt
_chemical_formula_sum   'Zr12 Mn3 Si12 Pt1'
_cell_volume   476.58059511
_cell_formula_units_Z   1
loop_
 _symmetry_equiv_pos_site_id
 _symmetry_equiv_pos_as_xyz
  1  'x, y, z'
loop_
 _atom_site_type_symbol
 _atom_site_label
 _atom_site_symmetry_multiplicity
 _atom_site_fract_x
 _atom_site_fract_y
 _atom_site_fract_z
 _atom_site_occupancy
  Zr  Zr0  1  0.250000  0.877814  0.023951  1
  Zr  Zr1  1  0.250000  0.623297  0.520239  1
  Zr  Zr2  1  0.750001  0.123034  0.979795  1
  Zr  Zr3  1  0.750001  0.377706  0.478805  1
  Zr  Zr4  1  0.250000  0.928666  0.596801  1
  Zr  Zr5  1  0.250000  0.571540  0.100950  1
  Zr  Zr6  1  0.750001  0.071871  0.400008  1
  Zr  Zr7  1  0.750000  0.428355  0.899861  1
  Zr  Zr8  1  0.250000  0.655834  0.800680  1
  Zr  Zr9  1  0.250000  0.838754  0.300532  1
  Zr  Zr10  1  0.750000  0.337986  0.200057  1
  Zr  Zr11  1  0.750000  0.162164  0.699167  1
  Mn  Mn12  1  0.249999  0.383006  0.679452  1
  Mn  Mn13  1  0.250001  0.118273  0.179563  1
  Mn  Mn14  1  0.749997  0.618138  0.321041  1
  Si  Si15  1  0.250000  0.022416  0.826670  1
  Si  Si16  1  0.249998  0.483293  0.325182  1
  Si  Si17  1  0.749999  0.983264  0.174895  1
  Si  Si18  1  0.750000  0.515836  0.674583  1
  Si  Si19  1  0.250000  0.253550  0.842259  1
  Si  Si20  1  0.250001  0.248159  0.343018  1
  Si  Si21  1  0.750000  0.747867  0.157355  1
  Si  Si22  1  0.750000  0.747805  0.654335  1
  Si  Si23  1  0.250000  0.195318  0.541408  1
  Si  Si24  1  0.250000  0.306514  0.041567  1
  Si  Si25  1  0.750000  0.806416  0.458085  1
  Si  Si26  1  0.750000  0.689102  0.960711  1
  Pt  Pt27  1  0.750000  0.884025  0.819028  1
