# generated using pymatgen
data_Hf18Ti2Fe2Mo5Pd
_symmetry_space_group_name_H-M   'P 1'
_cell_length_a   8.44090700
_cell_length_b   8.66702379
_cell_length_c   8.67955474
_cell_angle_alpha   119.95465911
_cell_angle_beta   90.00000000
_cell_angle_gamma   90.00000000
_symmetry_Int_Tables_number   1
_chemical_formula_structural   Hf18Ti2Fe2Mo5Pd
_chemical_formula_sum   'Hf18 Ti2 Fe2 Mo5 Pd1'
_cell_volume   550.15545459
_cell_formula_units_Z   1
loop_
 _symmetry_equiv_pos_site_id
 _symmetry_equiv_pos_as_xyz
  1  'x, y, z'
loop_
 _atom_site_type_symbol
 _atom_site_label
 _atom_site_symmetry_multiplicity
 _atom_site_fract_x
 _atom_site_fract_y
 _atom_site_fract_z
 _atom_site_occupancy
  Hf  Hf0  1  0.558832  0.797613  0.595226  1
  Hf  Hf1  1  0.558225  0.795166  0.201617  1
  Hf  Hf2  1  0.558227  0.406453  0.201617  1
  Hf  Hf3  1  0.437262  0.204113  0.408231  1
  Hf  Hf4  1  0.441576  0.201340  0.797863  1
  Hf  Hf5  1  0.441578  0.596521  0.797865  1
  Hf  Hf6  1  0.062738  0.204113  0.408231  1
  Hf  Hf7  1  0.058424  0.201340  0.797863  1
  Hf  Hf8  1  0.058422  0.596521  0.797865  1
  Hf  Hf9  1  0.941168  0.797613  0.595226  1
  Hf  Hf10  1  0.941775  0.795166  0.201617  1
  Hf  Hf11  1  0.941773  0.406453  0.201617  1
  Hf  Hf12  1  0.750000  0.458345  0.916693  1
  Hf  Hf13  1  0.750000  0.461738  0.546349  1
  Hf  Hf14  1  0.750000  0.084601  0.546345  1
  Hf  Hf15  1  0.250000  0.540404  0.080811  1
  Hf  Hf16  1  0.250000  0.541034  0.457385  1
  Hf  Hf17  1  0.250000  0.916354  0.457386  1
  Ti  Ti18  1  0.499986  0.000711  0.001425  1
  Ti  Ti19  1  0.000014  0.000711  0.001425  1
  Fe  Fe20  1  0.750000  0.665621  0.331296  1
  Fe  Fe21  1  0.250000  0.332229  0.664360  1
  Mo  Mo22  1  0.750000  0.112896  0.881829  1
  Mo  Mo23  1  0.750000  0.768929  0.881823  1
  Mo  Mo24  1  0.250000  0.885219  0.770439  1
  Mo  Mo25  1  0.250000  0.887392  0.116049  1
  Mo  Mo26  1  0.250000  0.228659  0.116051  1
  Pd  Pd27  1  0.750000  0.112743  0.225494  1
