# generated using pymatgen
data_Er2Tm10Os3Ru
_symmetry_space_group_name_H-M   'P 1'
_cell_length_a   7.34140486
_cell_length_b   8.93522700
_cell_length_c   6.23909801
_cell_angle_alpha   90.00000000
_cell_angle_beta   89.91913837
_cell_angle_gamma   90.00000000
_symmetry_Int_Tables_number   1
_chemical_formula_structural   Er2Tm10Os3Ru
_chemical_formula_sum   'Er2 Tm10 Os3 Ru1'
_cell_volume   409.26644630
_cell_formula_units_Z   1
loop_
 _symmetry_equiv_pos_site_id
 _symmetry_equiv_pos_as_xyz
  1  'x, y, z'
loop_
 _atom_site_type_symbol
 _atom_site_label
 _atom_site_symmetry_multiplicity
 _atom_site_fract_x
 _atom_site_fract_y
 _atom_site_fract_z
 _atom_site_occupancy
  Er  Er0  1  0.040882  0.250000  0.629534  1
  Er  Er1  1  0.539739  0.250000  0.868765  1
  Tm  Tm2  1  0.960206  0.750000  0.369999  1
  Tm  Tm3  1  0.460339  0.750000  0.130311  1
  Tm  Tm4  1  0.174219  0.061927  0.165948  1
  Tm  Tm5  1  0.825248  0.937239  0.832796  1
  Tm  Tm6  1  0.324776  0.936058  0.668036  1
  Tm  Tm7  1  0.825248  0.562761  0.832796  1
  Tm  Tm8  1  0.675039  0.062387  0.333550  1
  Tm  Tm9  1  0.174219  0.438073  0.165948  1
  Tm  Tm10  1  0.675039  0.437613  0.333550  1
  Tm  Tm11  1  0.324776  0.563942  0.668036  1
  Os  Os12  1  0.616996  0.750000  0.538375  1
  Os  Os13  1  0.117373  0.750000  0.961518  1
  Os  Os14  1  0.882710  0.250000  0.039481  1
  Ru  Ru15  1  0.383191  0.250000  0.461356  1
