# generated using pymatgen
data_SrCo2Si2O7
_symmetry_space_group_name_H-M   'P 1'
_cell_length_a   7.64226952
_cell_length_b   7.64227006
_cell_length_c   6.47468600
_cell_angle_alpha   90.00000000
_cell_angle_beta   90.00000000
_cell_angle_gamma   117.91669114
_symmetry_Int_Tables_number   1
_chemical_formula_structural   SrCo2Si2O7
_chemical_formula_sum   'Sr2 Co4 Si4 O14'
_cell_volume   334.14390131
_cell_formula_units_Z   2
loop_
 _symmetry_equiv_pos_site_id
 _symmetry_equiv_pos_as_xyz
  1  'x, y, z'
loop_
 _atom_site_type_symbol
 _atom_site_label
 _atom_site_symmetry_multiplicity
 _atom_site_fract_x
 _atom_site_fract_y
 _atom_site_fract_z
 _atom_site_occupancy
  Sr  Sr0  1  0.228565  0.228565  0.250000  1
  Sr  Sr1  1  0.771435  0.771435  0.750000  1
  Co  Co2  1  0.282438  0.717562  0.500000  1
  Co  Co3  1  0.717562  0.282438  0.500000  1
  Co  Co4  1  0.282438  0.717562  0.000000  1
  Co  Co5  1  0.717562  0.282438  0.000000  1
  Si  Si6  1  0.081023  0.313061  0.750000  1
  Si  Si7  1  0.313061  0.081023  0.750000  1
  Si  Si8  1  0.686939  0.918977  0.250000  1
  Si  Si9  1  0.918977  0.686939  0.250000  1
  O  O10  1  0.770352  0.161183  0.250000  1
  O  O11  1  0.818900  0.570289  0.463213  1
  O  O12  1  0.838817  0.229648  0.750000  1
  O  O13  1  0.818900  0.570289  0.036787  1
  O  O14  1  0.229648  0.838817  0.750000  1
  O  O15  1  0.100285  0.100285  0.750000  1
  O  O16  1  0.181100  0.429711  0.536787  1
  O  O17  1  0.570289  0.818900  0.463213  1
  O  O18  1  0.181100  0.429711  0.963213  1
  O  O19  1  0.429711  0.181100  0.963213  1
  O  O20  1  0.899715  0.899715  0.250000  1
  O  O21  1  0.570289  0.818900  0.036787  1
  O  O22  1  0.429711  0.181100  0.536787  1
  O  O23  1  0.161183  0.770352  0.250000  1
