# generated using pymatgen
data_CeHo7SiPd24
_symmetry_space_group_name_H-M   'P 1'
_cell_length_a   8.32324861
_cell_length_b   8.32324861
_cell_length_c   8.32324861
_cell_angle_alpha   89.96893598
_cell_angle_beta   89.96893598
_cell_angle_gamma   89.96893598
_symmetry_Int_Tables_number   1
_chemical_formula_structural   CeHo7SiPd24
_chemical_formula_sum   'Ce1 Ho7 Si1 Pd24'
_cell_volume   576.60500735
_cell_formula_units_Z   1
loop_
 _symmetry_equiv_pos_site_id
 _symmetry_equiv_pos_as_xyz
  1  'x, y, z'
loop_
 _atom_site_type_symbol
 _atom_site_label
 _atom_site_symmetry_multiplicity
 _atom_site_fract_x
 _atom_site_fract_y
 _atom_site_fract_z
 _atom_site_occupancy
  Ce  Ce0  1  0.254932  0.254932  0.254932  1
  Ho  Ho1  1  0.746010  0.746010  0.746010  1
  Ho  Ho2  1  0.746028  0.746028  0.253997  1
  Ho  Ho3  1  0.746028  0.253997  0.746028  1
  Ho  Ho4  1  0.253865  0.253865  0.746385  1
  Ho  Ho5  1  0.253865  0.746385  0.253865  1
  Ho  Ho6  1  0.253997  0.746028  0.746028  1
  Ho  Ho7  1  0.746385  0.253865  0.253865  1
  Si  Si8  1  0.999748  0.999748  0.999748  1
  Pd  Pd9  1  0.257399  0.499774  0.000299  1
  Pd  Pd10  1  0.742639  0.499999  0.999905  1
  Pd  Pd11  1  0.000299  0.257399  0.499774  1
  Pd  Pd12  1  0.499774  0.257399  0.000299  1
  Pd  Pd13  1  0.999905  0.742639  0.499999  1
  Pd  Pd14  1  0.499999  0.742639  0.999905  1
  Pd  Pd15  1  0.499774  0.000299  0.257399  1
  Pd  Pd16  1  0.257399  0.000299  0.499774  1
  Pd  Pd17  1  0.499999  0.999905  0.742639  1
  Pd  Pd18  1  0.742639  0.999905  0.499999  1
  Pd  Pd19  1  0.000299  0.499774  0.257399  1
  Pd  Pd20  1  0.999905  0.499999  0.742639  1
  Pd  Pd21  1  0.252329  0.499762  0.499762  1
  Pd  Pd22  1  0.747697  0.500047  0.500047  1
  Pd  Pd23  1  0.499762  0.252329  0.499762  1
  Pd  Pd24  1  0.500047  0.747697  0.500047  1
  Pd  Pd25  1  0.499762  0.499762  0.252329  1
  Pd  Pd26  1  0.500047  0.500047  0.747697  1
  Pd  Pd27  1  0.280316  0.999637  0.999637  1
  Pd  Pd28  1  0.720094  0.999892  0.999892  1
  Pd  Pd29  1  0.999637  0.280316  0.999637  1
  Pd  Pd30  1  0.999892  0.720094  0.999892  1
  Pd  Pd31  1  0.999637  0.999637  0.280316  1
  Pd  Pd32  1  0.999892  0.999892  0.720094  1
