# generated using pymatgen
data_Pr2Dy2TcB12Ru
_symmetry_space_group_name_H-M   'P 1'
_cell_length_a   3.74717000
_cell_length_b   9.25649239
_cell_length_c   11.72511812
_cell_angle_alpha   89.84745184
_cell_angle_beta   90.00000000
_cell_angle_gamma   90.00000000
_symmetry_Int_Tables_number   1
_chemical_formula_structural   Pr2Dy2TcB12Ru
_chemical_formula_sum   'Pr4 Dy4 Tc2 B24 Ru2'
_cell_volume   406.69190848
_cell_formula_units_Z   2
loop_
 _symmetry_equiv_pos_site_id
 _symmetry_equiv_pos_as_xyz
  1  'x, y, z'
loop_
 _atom_site_type_symbol
 _atom_site_label
 _atom_site_symmetry_multiplicity
 _atom_site_fract_x
 _atom_site_fract_y
 _atom_site_fract_z
 _atom_site_occupancy
  Pr  Pr0  1  0.000000  0.324476  0.415271  1
  Pr  Pr1  1  0.000000  0.675524  0.584729  1
  Pr  Pr2  1  0.000000  0.821888  0.086575  1
  Pr  Pr3  1  0.000000  0.178112  0.913425  1
  Dy  Dy4  1  0.000000  0.941889  0.369728  1
  Dy  Dy5  1  0.000000  0.058111  0.630272  1
  Dy  Dy6  1  0.000000  0.443438  0.130740  1
  Dy  Dy7  1  0.000000  0.556562  0.869260  1
  Tc  Tc8  1  0.000000  0.639800  0.318578  1
  Tc  Tc9  1  0.000000  0.360200  0.681422  1
  B  B10  1  0.500000  0.555576  0.429798  1
  B  B11  1  0.500000  0.444424  0.570202  1
  B  B12  1  0.500000  0.056522  0.070527  1
  B  B13  1  0.500000  0.943478  0.929473  1
  B  B14  1  0.500000  0.749276  0.415823  1
  B  B15  1  0.500000  0.250724  0.584177  1
  B  B16  1  0.500000  0.249532  0.084044  1
  B  B17  1  0.500000  0.750468  0.915956  1
  B  B18  1  0.500000  0.790048  0.266320  1
  B  B19  1  0.500000  0.209952  0.733680  1
  B  B20  1  0.500000  0.289358  0.233260  1
  B  B21  1  0.500000  0.710642  0.766740  1
  B  B22  1  0.500000  0.630149  0.186219  1
  B  B23  1  0.500000  0.369851  0.813781  1
  B  B24  1  0.500000  0.129680  0.313051  1
  B  B25  1  0.500000  0.870320  0.686949  1
  B  B26  1  0.500000  0.985628  0.213093  1
  B  B27  1  0.500000  0.014372  0.786907  1
  B  B28  1  0.500000  0.485414  0.286393  1
  B  B29  1  0.500000  0.514586  0.713607  1
  B  B30  1  0.500000  0.598834  0.026956  1
  B  B31  1  0.500000  0.401166  0.973044  1
  B  B32  1  0.500000  0.098046  0.472975  1
  B  B33  1  0.500000  0.901954  0.527025  1
  Ru  Ru34  1  0.000000  0.139174  0.180597  1
  Ru  Ru35  1  0.000000  0.860826  0.819403  1
