# generated using pymatgen
data_Hf18VRe6P2W
_symmetry_space_group_name_H-M   'P 1'
_cell_length_a   8.57803600
_cell_length_b   8.57803592
_cell_length_c   8.54963900
_cell_angle_alpha   90.00000000
_cell_angle_beta   90.00000000
_cell_angle_gamma   120.00000030
_symmetry_Int_Tables_number   1
_chemical_formula_structural   Hf18VRe6P2W
_chemical_formula_sum   'Hf18 V1 Re6 P2 W1'
_cell_volume   544.82136874
_cell_formula_units_Z   1
loop_
 _symmetry_equiv_pos_site_id
 _symmetry_equiv_pos_as_xyz
  1  'x, y, z'
loop_
 _atom_site_type_symbol
 _atom_site_label
 _atom_site_symmetry_multiplicity
 _atom_site_fract_x
 _atom_site_fract_y
 _atom_site_fract_z
 _atom_site_occupancy
  Hf  Hf0  1  0.195571  0.804429  0.451291  1
  Hf  Hf1  1  0.195571  0.391141  0.451291  1
  Hf  Hf2  1  0.608859  0.804429  0.451291  1
  Hf  Hf3  1  0.804429  0.195571  0.548709  1
  Hf  Hf4  1  0.804429  0.608859  0.548709  1
  Hf  Hf5  1  0.391141  0.195571  0.548709  1
  Hf  Hf6  1  0.803537  0.196463  0.950546  1
  Hf  Hf7  1  0.803537  0.607076  0.950546  1
  Hf  Hf8  1  0.392924  0.196463  0.950546  1
  Hf  Hf9  1  0.196463  0.803537  0.049454  1
  Hf  Hf10  1  0.196463  0.392924  0.049454  1
  Hf  Hf11  1  0.607076  0.803537  0.049454  1
  Hf  Hf12  1  0.539417  0.460583  0.249198  1
  Hf  Hf13  1  0.539417  0.078836  0.249198  1
  Hf  Hf14  1  0.921164  0.460583  0.249198  1
  Hf  Hf15  1  0.460583  0.539417  0.750802  1
  Hf  Hf16  1  0.460583  0.921164  0.750802  1
  Hf  Hf17  1  0.078836  0.539417  0.750802  1
  V  V18  1  0.000000  0.000000  0.500000  1
  Re  Re19  1  0.890673  0.109327  0.253424  1
  Re  Re20  1  0.890673  0.781345  0.253424  1
  Re  Re21  1  0.218655  0.109327  0.253424  1
  Re  Re22  1  0.109327  0.890673  0.746576  1
  Re  Re23  1  0.109327  0.218655  0.746576  1
  Re  Re24  1  0.781345  0.890673  0.746576  1
  P  P25  1  0.333333  0.666667  0.251247  1
  P  P26  1  0.666667  0.333333  0.748753  1
  W  W27  1  0.000000  0.000000  0.000000  1
