# generated using pymatgen
data_Y6Er10MgHg3Ir4
_symmetry_space_group_name_H-M   'P 1'
_cell_length_a   9.57567286
_cell_length_b   9.57206472
_cell_length_c   9.57197200
_cell_angle_alpha   60.00070886
_cell_angle_beta   60.01290601
_cell_angle_gamma   60.01336150
_symmetry_Int_Tables_number   1
_chemical_formula_structural   Y6Er10MgHg3Ir4
_chemical_formula_sum   'Y6 Er10 Mg1 Hg3 Ir4'
_cell_volume   620.51153958
_cell_formula_units_Z   1
loop_
 _symmetry_equiv_pos_site_id
 _symmetry_equiv_pos_as_xyz
  1  'x, y, z'
loop_
 _atom_site_type_symbol
 _atom_site_label
 _atom_site_symmetry_multiplicity
 _atom_site_fract_x
 _atom_site_fract_y
 _atom_site_fract_z
 _atom_site_occupancy
  Y  Y0  1  0.186172  0.812499  0.812499  1
  Y  Y1  1  0.811461  0.187821  0.187818  1
  Y  Y2  1  0.811478  0.187808  0.812894  1
  Y  Y3  1  0.186169  0.812501  0.188836  1
  Y  Y4  1  0.811466  0.812894  0.187819  1
  Y  Y5  1  0.186165  0.188838  0.812496  1
  Er  Er6  1  0.600176  0.598241  0.598239  1
  Er  Er7  1  0.600170  0.598240  0.203358  1
  Er  Er8  1  0.600173  0.203353  0.598244  1
  Er  Er9  1  0.193809  0.602057  0.602070  1
  Er  Er10  1  0.059852  0.440015  0.440006  1
  Er  Er11  1  0.436497  0.062693  0.062693  1
  Er  Er12  1  0.436494  0.062691  0.438122  1
  Er  Er13  1  0.059851  0.440011  0.060115  1
  Er  Er14  1  0.436498  0.438129  0.062681  1
  Er  Er15  1  0.059858  0.060118  0.440009  1
  Mg  Mg16  1  0.536161  0.821279  0.821279  1
  Hg  Hg17  1  0.830867  0.836104  0.836106  1
  Hg  Hg18  1  0.830866  0.836104  0.496930  1
  Hg  Hg19  1  0.830862  0.496933  0.836101  1
  Ir  Ir20  1  0.390172  0.393123  0.393127  1
  Ir  Ir21  1  0.390172  0.393125  0.823576  1
  Ir  Ir22  1  0.390175  0.823574  0.393128  1
  Ir  Ir23  1  0.824437  0.391851  0.391855  1
