# generated using pymatgen
data_Ho10Er6MgHg3Rh4
_symmetry_space_group_name_H-M   'P 1'
_cell_length_a   9.57061965
_cell_length_b   9.55838005
_cell_length_c   9.55838100
_cell_angle_alpha   60.00000018
_cell_angle_beta   60.04229591
_cell_angle_gamma   60.04230117
_symmetry_Int_Tables_number   1
_chemical_formula_structural   Ho10Er6MgHg3Rh4
_chemical_formula_sum   'Ho10 Er6 Mg1 Hg3 Rh4'
_cell_volume   618.68709752
_cell_formula_units_Z   1
loop_
 _symmetry_equiv_pos_site_id
 _symmetry_equiv_pos_as_xyz
  1  'x, y, z'
loop_
 _atom_site_type_symbol
 _atom_site_label
 _atom_site_symmetry_multiplicity
 _atom_site_fract_x
 _atom_site_fract_y
 _atom_site_fract_z
 _atom_site_occupancy
  Ho  Ho0  1  0.934012  0.564352  0.564352  1
  Ho  Ho1  1  0.563362  0.936129  0.936129  1
  Ho  Ho2  1  0.563362  0.936129  0.564380  1
  Ho  Ho3  1  0.934012  0.564352  0.937283  1
  Ho  Ho4  1  0.563362  0.564380  0.936129  1
  Ho  Ho5  1  0.934012  0.937283  0.564352  1
  Ho  Ho6  1  0.351444  0.348982  0.348982  1
  Ho  Ho7  1  0.351444  0.348982  0.950592  1
  Ho  Ho8  1  0.351444  0.950592  0.348982  1
  Ho  Ho9  1  0.941559  0.352813  0.352813  1
  Er  Er10  1  0.810952  0.189068  0.189068  1
  Er  Er11  1  0.185839  0.813467  0.813467  1
  Er  Er12  1  0.185839  0.813467  0.187226  1
  Er  Er13  1  0.810952  0.189068  0.810914  1
  Er  Er14  1  0.185839  0.187226  0.813467  1
  Er  Er15  1  0.810952  0.810914  0.189068  1
  Mg  Mg16  1  0.281412  0.572863  0.572863  1
  Hg  Hg17  1  0.581332  0.585952  0.585952  1
  Hg  Hg18  1  0.581332  0.585952  0.246766  1
  Hg  Hg19  1  0.581332  0.246766  0.585952  1
  Rh  Rh20  1  0.141137  0.143677  0.143677  1
  Rh  Rh21  1  0.141137  0.143677  0.571509  1
  Rh  Rh22  1  0.141137  0.571509  0.143677  1
  Rh  Rh23  1  0.572801  0.142400  0.142400  1
