# generated using pymatgen
data_Ho6Er6Ga2Co3Ni
_symmetry_space_group_name_H-M   'P 1'
_cell_length_a   8.21551304
_cell_length_b   8.21687902
_cell_length_c   8.21551364
_cell_angle_alpha   112.44569927
_cell_angle_beta   109.43238871
_cell_angle_gamma   106.58198914
_symmetry_Int_Tables_number   1
_chemical_formula_structural   Ho6Er6Ga2Co3Ni
_chemical_formula_sum   'Ho6 Er6 Ga2 Co3 Ni1'
_cell_volume   425.84440992
_cell_formula_units_Z   1
loop_
 _symmetry_equiv_pos_site_id
 _symmetry_equiv_pos_as_xyz
  1  'x, y, z'
loop_
 _atom_site_type_symbol
 _atom_site_label
 _atom_site_symmetry_multiplicity
 _atom_site_fract_x
 _atom_site_fract_y
 _atom_site_fract_z
 _atom_site_occupancy
  Ho  Ho0  1  0.041286  0.738417  0.302785  1
  Ho  Ho1  1  0.957313  0.260625  0.696666  1
  Ho  Ho2  1  0.563961  0.260625  0.303312  1
  Ho  Ho3  1  0.435632  0.738417  0.697131  1
  Ho  Ho4  1  0.674242  0.862597  0.188354  1
  Ho  Ho5  1  0.330737  0.520986  0.190249  1
  Er  Er6  1  0.330897  0.140805  0.809910  1
  Er  Er7  1  0.674063  0.485866  0.811804  1
  Er  Er8  1  0.179191  0.219066  0.401590  1
  Er  Er9  1  0.817477  0.219066  0.039875  1
  Er  Er10  1  0.178887  0.777677  0.959905  1
  Er  Er11  1  0.817773  0.777677  0.598789  1
  Ga  Ga12  1  0.999518  0.499543  0.500025  1
  Ga  Ga13  1  0.499312  0.999472  0.500160  1
  Co  Co14  1  0.661298  0.498283  0.162619  1
  Co  Co15  1  0.335664  0.498283  0.836985  1
  Co  Co16  1  0.884155  0.884104  0.999948  1
  Ni  Ni17  1  0.118597  0.118490  0.999893  1
