# generated using pymatgen
data_Yb2MgCdPt2
_symmetry_space_group_name_H-M   'P 1'
_cell_length_a   4.21115500
_cell_length_b   7.25045200
_cell_length_c   8.56681500
_cell_angle_alpha   90.00000000
_cell_angle_beta   90.00000000
_cell_angle_gamma   90.00000000
_symmetry_Int_Tables_number   1
_chemical_formula_structural   Yb2MgCdPt2
_chemical_formula_sum   'Yb4 Mg2 Cd2 Pt4'
_cell_volume   261.56865364
_cell_formula_units_Z   2
loop_
 _symmetry_equiv_pos_site_id
 _symmetry_equiv_pos_as_xyz
  1  'x, y, z'
loop_
 _atom_site_type_symbol
 _atom_site_label
 _atom_site_symmetry_multiplicity
 _atom_site_fract_x
 _atom_site_fract_y
 _atom_site_fract_z
 _atom_site_occupancy
  Yb  Yb0  1  0.250000  0.037031  0.324268  1
  Yb  Yb1  1  0.250000  0.537031  0.175732  1
  Yb  Yb2  1  0.750000  0.966109  0.677056  1
  Yb  Yb3  1  0.750000  0.466109  0.822944  1
  Mg  Mg4  1  0.250000  0.136935  0.937483  1
  Mg  Mg5  1  0.250000  0.636935  0.562517  1
  Cd  Cd6  1  0.750000  0.856825  0.065243  1
  Cd  Cd7  1  0.750000  0.356825  0.434757  1
  Pt  Pt8  1  0.250000  0.260172  0.638343  1
  Pt  Pt9  1  0.250000  0.760172  0.861657  1
  Pt  Pt10  1  0.750000  0.742929  0.380509  1
  Pt  Pt11  1  0.750000  0.242929  0.119491  1
