# generated using pymatgen
data_Sc4Al2Pt7Rh3
_symmetry_space_group_name_H-M   'P 1'
_cell_length_a   4.15521700
_cell_length_b   5.56027013
_cell_length_c   10.96432125
_cell_angle_alpha   90.02472216
_cell_angle_beta   90.00000000
_cell_angle_gamma   90.00000000
_symmetry_Int_Tables_number   1
_chemical_formula_structural   Sc4Al2Pt7Rh3
_chemical_formula_sum   'Sc4 Al2 Pt7 Rh3'
_cell_volume   253.32106873
_cell_formula_units_Z   1
loop_
 _symmetry_equiv_pos_site_id
 _symmetry_equiv_pos_as_xyz
  1  'x, y, z'
loop_
 _atom_site_type_symbol
 _atom_site_label
 _atom_site_symmetry_multiplicity
 _atom_site_fract_x
 _atom_site_fract_y
 _atom_site_fract_z
 _atom_site_occupancy
  Sc  Sc0  1  0.500000  0.190347  0.635582  1
  Sc  Sc1  1  0.500000  0.810408  0.361273  1
  Sc  Sc2  1  0.500000  0.689670  0.860084  1
  Sc  Sc3  1  0.500000  0.311831  0.142457  1
  Al  Al4  1  0.000000  0.500600  0.499437  1
  Al  Al5  1  0.000000  0.997326  0.001909  1
  Pt  Pt6  1  0.500000  0.193128  0.894084  1
  Pt  Pt7  1  0.000000  0.443323  0.743016  1
  Pt  Pt8  1  0.000000  0.557445  0.256193  1
  Pt  Pt9  1  0.000000  0.942861  0.755736  1
  Pt  Pt10  1  0.000000  0.056825  0.243193  1
  Pt  Pt11  1  0.000000  0.502210  0.999888  1
  Pt  Pt12  1  0.000000  0.999834  0.499680  1
  Rh  Rh13  1  0.500000  0.305322  0.393077  1
  Rh  Rh14  1  0.500000  0.695103  0.607681  1
  Rh  Rh15  1  0.500000  0.803766  0.106710  1
