# generated using pymatgen
data_K3La(SbAu)4
_symmetry_space_group_name_H-M   'P 1'
_cell_length_a   4.69500500
_cell_length_b   4.69500473
_cell_length_c   20.14433500
_cell_angle_alpha   90.00000000
_cell_angle_beta   90.00000000
_cell_angle_gamma   120.00000895
_symmetry_Int_Tables_number   1
_chemical_formula_structural   K3La(SbAu)4
_chemical_formula_sum   'K3 La1 Sb4 Au4'
_cell_volume   384.55248388
_cell_formula_units_Z   1
loop_
 _symmetry_equiv_pos_site_id
 _symmetry_equiv_pos_as_xyz
  1  'x, y, z'
loop_
 _atom_site_type_symbol
 _atom_site_label
 _atom_site_symmetry_multiplicity
 _atom_site_fract_x
 _atom_site_fract_y
 _atom_site_fract_z
 _atom_site_occupancy
  K  K0  1  0.000000  0.000000  0.500000  1
  K  K1  1  0.000000  0.000000  0.239327  1
  K  K2  1  0.000000  0.000000  0.760673  1
  La  La3  1  0.000000  0.000000  0.000000  1
  Sb  Sb4  1  0.333333  0.666667  0.367895  1
  Sb  Sb5  1  0.666667  0.333333  0.632105  1
  Sb  Sb6  1  0.666667  0.333333  0.896898  1
  Sb  Sb7  1  0.333333  0.666667  0.103102  1
  Au  Au8  1  0.666667  0.333333  0.367530  1
  Au  Au9  1  0.333333  0.666667  0.632470  1
  Au  Au10  1  0.333333  0.666667  0.904810  1
  Au  Au11  1  0.666667  0.333333  0.095190  1
