# generated using pymatgen
data_Nd5SmCd23Te
_symmetry_space_group_name_H-M   'P 1'
_cell_length_a   10.12763725
_cell_length_b   10.13829282
_cell_length_c   10.13829300
_cell_angle_alpha   59.93047306
_cell_angle_beta   60.03476430
_cell_angle_gamma   60.03476443
_symmetry_Int_Tables_number   1
_chemical_formula_structural   Nd5SmCd23Te
_chemical_formula_sum   'Nd5 Sm1 Cd23 Te1'
_cell_volume   736.07464073
_cell_formula_units_Z   1
loop_
 _symmetry_equiv_pos_site_id
 _symmetry_equiv_pos_as_xyz
  1  'x, y, z'
loop_
 _atom_site_type_symbol
 _atom_site_label
 _atom_site_symmetry_multiplicity
 _atom_site_fract_x
 _atom_site_fract_y
 _atom_site_fract_z
 _atom_site_occupancy
  Nd  Nd0  1  0.781096  0.781244  0.218904  1
  Nd  Nd1  1  0.218756  0.781244  0.218904  1
  Nd  Nd2  1  0.782790  0.217210  0.217210  1
  Nd  Nd3  1  0.218756  0.218904  0.781244  1
  Nd  Nd4  1  0.781096  0.218904  0.781244  1
  Sm  Sm5  1  0.217491  0.782509  0.782509  1
  Cd  Cd6  1  0.835652  0.834680  0.494016  1
  Cd  Cd7  1  0.835652  0.494016  0.834680  1
  Cd  Cd8  1  0.491700  0.835879  0.835879  1
  Cd  Cd9  1  0.836541  0.835879  0.835879  1
  Cd  Cd10  1  0.164121  0.163459  0.508300  1
  Cd  Cd11  1  0.164121  0.508300  0.163459  1
  Cd  Cd12  1  0.505984  0.164348  0.164348  1
  Cd  Cd13  1  0.165320  0.164348  0.164348  1
  Cd  Cd14  1  0.623967  0.623434  0.128632  1
  Cd  Cd15  1  0.623967  0.128632  0.623434  1
  Cd  Cd16  1  0.130133  0.624337  0.624337  1
  Cd  Cd17  1  0.621193  0.624337  0.624337  1
  Cd  Cd18  1  0.375663  0.378807  0.869867  1
  Cd  Cd19  1  0.375663  0.869867  0.378807  1
  Cd  Cd20  1  0.871368  0.376033  0.376033  1
  Cd  Cd21  1  0.376566  0.376033  0.376033  1
  Cd  Cd22  1  0.000070  0.999930  0.500080  1
  Cd  Cd23  1  0.499920  0.999930  0.500080  1
  Cd  Cd24  1  0.000231  0.499769  0.499769  1
  Cd  Cd25  1  0.499920  0.500080  0.999930  1
  Cd  Cd26  1  0.000070  0.500080  0.999930  1
  Cd  Cd27  1  0.500231  0.999769  0.999769  1
  Cd  Cd28  1  0.500825  0.499175  0.499175  1
  Te  Te29  1  0.001134  0.998866  0.998866  1
