# generated using pymatgen
data_Ti3CrTc2P3
_symmetry_space_group_name_H-M   'P 1'
_cell_length_a   6.57511516
_cell_length_b   6.57511646
_cell_length_c   3.27070700
_cell_angle_alpha   90.00000000
_cell_angle_beta   90.00000000
_cell_angle_gamma   120.41519871
_symmetry_Int_Tables_number   1
_chemical_formula_structural   Ti3CrTc2P3
_chemical_formula_sum   'Ti3 Cr1 Tc2 P3'
_cell_volume   121.94017953
_cell_formula_units_Z   1
loop_
 _symmetry_equiv_pos_site_id
 _symmetry_equiv_pos_as_xyz
  1  'x, y, z'
loop_
 _atom_site_type_symbol
 _atom_site_label
 _atom_site_symmetry_multiplicity
 _atom_site_fract_x
 _atom_site_fract_y
 _atom_site_fract_z
 _atom_site_occupancy
  Ti  Ti0  1  0.412127  0.412127  0.500000  1
  Ti  Ti1  1  0.595946  0.994190  0.500000  1
  Ti  Ti2  1  0.994190  0.595946  0.500000  1
  Cr  Cr3  1  0.744616  0.744616  0.000000  1
  Tc  Tc4  1  0.001170  0.255421  0.000000  1
  Tc  Tc5  1  0.255421  0.001170  0.000000  1
  P  P6  1  0.669175  0.340306  0.000000  1
  P  P7  1  0.340306  0.669175  0.000000  1
  P  P8  1  0.987050  0.987050  0.500000  1
