# generated using pymatgen
data_TbNd8Sc11Sn16
_symmetry_space_group_name_H-M   'P 1'
_cell_length_a   7.89818870
_cell_length_b   8.08438873
_cell_length_c   15.18517900
_cell_angle_alpha   90.15046169
_cell_angle_beta   90.04739956
_cell_angle_gamma   90.11334892
_symmetry_Int_Tables_number   1
_chemical_formula_structural   TbNd8Sc11Sn16
_chemical_formula_sum   'Tb1 Nd8 Sc11 Sn16'
_cell_volume   969.59889411
_cell_formula_units_Z   1
loop_
 _symmetry_equiv_pos_site_id
 _symmetry_equiv_pos_as_xyz
  1  'x, y, z'
loop_
 _atom_site_type_symbol
 _atom_site_label
 _atom_site_symmetry_multiplicity
 _atom_site_fract_x
 _atom_site_fract_y
 _atom_site_fract_z
 _atom_site_occupancy
  Tb  Tb0  1  0.848535  0.664992  0.876737  1
  Nd  Nd1  1  0.511330  0.326089  0.903479  1
  Nd  Nd2  1  0.011789  0.173579  0.593325  1
  Nd  Nd3  1  0.489498  0.673754  0.404900  1
  Nd  Nd4  1  0.989627  0.825016  0.097862  1
  Nd  Nd5  1  0.490155  0.672755  0.097256  1
  Nd  Nd6  1  0.989127  0.826403  0.403995  1
  Nd  Nd7  1  0.509911  0.324416  0.594037  1
  Nd  Nd8  1  0.010311  0.175060  0.904403  1
  Sc  Sc9  1  0.348084  0.835044  0.872250  1
  Sc  Sc10  1  0.848258  0.663553  0.625400  1
  Sc  Sc11  1  0.651687  0.162808  0.373788  1
  Sc  Sc12  1  0.151689  0.336914  0.126911  1
  Sc  Sc13  1  0.649101  0.162960  0.130155  1
  Sc  Sc14  1  0.151395  0.336224  0.373685  1
  Sc  Sc15  1  0.348465  0.838884  0.623324  1
  Sc  Sc16  1  0.181475  0.505018  0.749022  1
  Sc  Sc17  1  0.679819  0.995920  0.748017  1
  Sc  Sc18  1  0.819033  0.493861  0.251427  1
  Sc  Sc19  1  0.318866  0.005480  0.250316  1
  Sn  Sn20  1  0.318848  0.044202  0.043264  1
  Sn  Sn21  1  0.819911  0.455582  0.456720  1
  Sn  Sn22  1  0.683064  0.954781  0.542276  1
  Sn  Sn23  1  0.191885  0.543713  0.958564  1
  Sn  Sn24  1  0.674163  0.963428  0.959782  1
  Sn  Sn25  1  0.179908  0.544800  0.542538  1
  Sn  Sn26  1  0.318558  0.044898  0.455271  1
  Sn  Sn27  1  0.816696  0.449819  0.048446  1
  Sn  Sn28  1  0.540678  0.632470  0.745344  1
  Sn  Sn29  1  0.047271  0.872301  0.746688  1
  Sn  Sn30  1  0.454598  0.367913  0.252009  1
  Sn  Sn31  1  0.956119  0.132129  0.250433  1
  Sn  Sn32  1  0.319191  0.141667  0.748700  1
  Sn  Sn33  1  0.818836  0.355127  0.747483  1
  Sn  Sn34  1  0.680888  0.858362  0.251442  1
  Sn  Sn35  1  0.181236  0.640079  0.250753  1
