# generated using pymatgen
data_Th8Sc11Si16Ag
_symmetry_space_group_name_H-M   'P 1'
_cell_length_a   7.18969200
_cell_length_b   7.47200164
_cell_length_c   14.28483800
_cell_angle_alpha   90.00000000
_cell_angle_beta   90.00000000
_cell_angle_gamma   89.89046691
_symmetry_Int_Tables_number   1
_chemical_formula_structural   Th8Sc11Si16Ag
_chemical_formula_sum   'Th8 Sc11 Si16 Ag1'
_cell_volume   767.39995671
_cell_formula_units_Z   1
loop_
 _symmetry_equiv_pos_site_id
 _symmetry_equiv_pos_as_xyz
  1  'x, y, z'
loop_
 _atom_site_type_symbol
 _atom_site_label
 _atom_site_symmetry_multiplicity
 _atom_site_fract_x
 _atom_site_fract_y
 _atom_site_fract_z
 _atom_site_occupancy
  Th  Th0  1  0.007762  0.171815  0.096317  1
  Th  Th1  1  0.994142  0.821249  0.900138  1
  Th  Th2  1  0.484959  0.671302  0.899750  1
  Th  Th3  1  0.994142  0.821249  0.599862  1
  Th  Th4  1  0.507633  0.326537  0.096647  1
  Th  Th5  1  0.007762  0.171815  0.403683  1
  Th  Th6  1  0.507633  0.326537  0.403353  1
  Th  Th7  1  0.484959  0.671302  0.600250  1
  Sc  Sc8  1  0.837966  0.497439  0.250000  1
  Sc  Sc9  1  0.338848  0.002305  0.250000  1
  Sc  Sc10  1  0.659746  0.000447  0.750000  1
  Sc  Sc11  1  0.327491  0.183922  0.624274  1
  Sc  Sc12  1  0.667769  0.824706  0.375938  1
  Sc  Sc13  1  0.168617  0.678063  0.374338  1
  Sc  Sc14  1  0.667769  0.824706  0.124062  1
  Sc  Sc15  1  0.841513  0.325199  0.624802  1
  Sc  Sc16  1  0.327491  0.183922  0.875726  1
  Sc  Sc17  1  0.841513  0.325199  0.875198  1
  Sc  Sc18  1  0.168617  0.678063  0.125662  1
  Si  Si19  1  0.032956  0.111061  0.750000  1
  Si  Si20  1  0.964991  0.876692  0.250000  1
  Si  Si21  1  0.467810  0.621610  0.250000  1
  Si  Si22  1  0.546948  0.374963  0.750000  1
  Si  Si23  1  0.293228  0.896750  0.750000  1
  Si  Si24  1  0.711161  0.124651  0.250000  1
  Si  Si25  1  0.210207  0.376114  0.250000  1
  Si  Si26  1  0.777560  0.623100  0.750000  1
  Si  Si27  1  0.161172  0.461121  0.530459  1
  Si  Si28  1  0.840914  0.537110  0.461171  1
  Si  Si29  1  0.341007  0.962542  0.462772  1
  Si  Si30  1  0.840914  0.537110  0.038829  1
  Si  Si31  1  0.660463  0.034240  0.541293  1
  Si  Si32  1  0.161172  0.461121  0.969541  1
  Si  Si33  1  0.660463  0.034240  0.958707  1
  Si  Si34  1  0.341007  0.962542  0.037228  1
  Ag  Ag35  1  0.151694  0.499255  0.750000  1
