# generated using pymatgen
data_Eu(PN2)2
_symmetry_space_group_name_H-M   'P 1'
_cell_length_a   10.08306500
_cell_length_b   10.08306500
_cell_length_c   10.08306500
_cell_angle_alpha   90.00000000
_cell_angle_beta   90.00000000
_cell_angle_gamma   90.00000000
_symmetry_Int_Tables_number   1
_chemical_formula_structural   Eu(PN2)2
_chemical_formula_sum   'Eu12 P24 N48'
_cell_volume   1025.12706696
_cell_formula_units_Z   12
loop_
 _symmetry_equiv_pos_site_id
 _symmetry_equiv_pos_as_xyz
  1  'x, y, z'
loop_
 _atom_site_type_symbol
 _atom_site_label
 _atom_site_symmetry_multiplicity
 _atom_site_fract_x
 _atom_site_fract_y
 _atom_site_fract_z
 _atom_site_occupancy
  Eu  Eu0  1  0.370181  0.129819  0.870181  1
  Eu  Eu1  1  0.129819  0.870181  0.370181  1
  Eu  Eu2  1  0.870181  0.370181  0.129819  1
  Eu  Eu3  1  0.629819  0.629819  0.629819  1
  Eu  Eu4  1  0.629819  0.870181  0.129819  1
  Eu  Eu5  1  0.870181  0.129819  0.629819  1
  Eu  Eu6  1  0.129819  0.629819  0.870181  1
  Eu  Eu7  1  0.370181  0.370181  0.370181  1
  Eu  Eu8  1  0.000000  0.500000  0.500000  1
  Eu  Eu9  1  0.500000  0.500000  0.000000  1
  Eu  Eu10  1  0.500000  0.000000  0.500000  1
  Eu  Eu11  1  0.000000  0.000000  0.000000  1
  P  P12  1  0.687020  0.340122  0.387401  1
  P  P13  1  0.187020  0.159878  0.612599  1
  P  P14  1  0.312980  0.840122  0.112599  1
  P  P15  1  0.159878  0.612599  0.187020  1
  P  P16  1  0.112599  0.312980  0.840122  1
  P  P17  1  0.612599  0.187020  0.159878  1
  P  P18  1  0.340122  0.387401  0.687020  1
  P  P19  1  0.387401  0.687020  0.340122  1
  P  P20  1  0.840122  0.112599  0.312980  1
  P  P21  1  0.659878  0.887401  0.812980  1
  P  P22  1  0.887401  0.812980  0.659878  1
  P  P23  1  0.812980  0.659878  0.887401  1
  P  P24  1  0.312980  0.659878  0.612599  1
  P  P25  1  0.812980  0.840122  0.387401  1
  P  P26  1  0.687020  0.159878  0.887401  1
  P  P27  1  0.840122  0.387401  0.812980  1
  P  P28  1  0.887401  0.687020  0.159878  1
  P  P29  1  0.387401  0.812980  0.840122  1
  P  P30  1  0.659878  0.612599  0.312980  1
  P  P31  1  0.612599  0.312980  0.659878  1
  P  P32  1  0.159878  0.887401  0.687020  1
  P  P33  1  0.340122  0.112599  0.187020  1
  P  P34  1  0.112599  0.187020  0.340122  1
  P  P35  1  0.187020  0.340122  0.112599  1
  N  N36  1  0.719844  0.498740  0.413301  1
  N  N37  1  0.219844  0.001260  0.586699  1
  N  N38  1  0.280156  0.998740  0.086699  1
  N  N39  1  0.001260  0.586699  0.219844  1
  N  N40  1  0.086699  0.280156  0.998740  1
  N  N41  1  0.586699  0.219844  0.001260  1
  N  N42  1  0.498740  0.413301  0.719844  1
  N  N43  1  0.413301  0.719844  0.498740  1
  N  N44  1  0.998740  0.086699  0.280156  1
  N  N45  1  0.501260  0.913301  0.780156  1
  N  N46  1  0.913301  0.780156  0.501260  1
  N  N47  1  0.780156  0.501260  0.913301  1
  N  N48  1  0.280156  0.501260  0.586699  1
  N  N49  1  0.780156  0.998740  0.413301  1
  N  N50  1  0.719844  0.001260  0.913301  1
  N  N51  1  0.998740  0.413301  0.780156  1
  N  N52  1  0.913301  0.719844  0.001260  1
  N  N53  1  0.413301  0.780156  0.998740  1
  N  N54  1  0.501260  0.586699  0.280156  1
  N  N55  1  0.586699  0.280156  0.501260  1
  N  N56  1  0.171346  0.740501  0.614723  1
  N  N57  1  0.001260  0.913301  0.719844  1
  N  N58  1  0.086699  0.219844  0.498740  1
  N  N59  1  0.219844  0.498740  0.086699  1
  N  N60  1  0.828654  0.259499  0.385277  1
  N  N61  1  0.328654  0.240501  0.614723  1
  N  N62  1  0.171346  0.759499  0.114723  1
  N  N63  1  0.240501  0.614723  0.328654  1
  N  N64  1  0.114723  0.171346  0.759499  1
  N  N65  1  0.614723  0.328654  0.240501  1
  N  N66  1  0.259499  0.385277  0.828654  1
  N  N67  1  0.385277  0.828654  0.259499  1
  N  N68  1  0.759499  0.114723  0.171346  1
  N  N69  1  0.740501  0.885277  0.671346  1
  N  N70  1  0.885277  0.671346  0.740501  1
  N  N71  1  0.671346  0.740501  0.885277  1
  N  N72  1  0.328654  0.259499  0.114723  1
  N  N73  1  0.114723  0.328654  0.259499  1
  N  N74  1  0.259499  0.114723  0.328654  1
  N  N75  1  0.240501  0.885277  0.828654  1
  N  N76  1  0.614723  0.171346  0.740501  1
  N  N77  1  0.740501  0.614723  0.171346  1
  N  N78  1  0.385277  0.671346  0.759499  1
  N  N79  1  0.885277  0.828654  0.240501  1
  N  N80  1  0.759499  0.385277  0.671346  1
  N  N81  1  0.828654  0.240501  0.885277  1
  N  N82  1  0.671346  0.759499  0.385277  1
  N  N83  1  0.498740  0.086699  0.219844  1
