# generated using pymatgen
data_Ce2MnAl20Ru3
_symmetry_space_group_name_H-M   'P 1'
_cell_length_a   6.84816269
_cell_length_b   6.85747155
_cell_length_c   9.12692860
_cell_angle_alpha   89.86020054
_cell_angle_beta   89.95831860
_cell_angle_gamma   97.21168417
_symmetry_Int_Tables_number   1
_chemical_formula_structural   Ce2MnAl20Ru3
_chemical_formula_sum   'Ce2 Mn1 Al20 Ru3'
_cell_volume   425.21825052
_cell_formula_units_Z   1
loop_
 _symmetry_equiv_pos_site_id
 _symmetry_equiv_pos_as_xyz
  1  'x, y, z'
loop_
 _atom_site_type_symbol
 _atom_site_label
 _atom_site_symmetry_multiplicity
 _atom_site_fract_x
 _atom_site_fract_y
 _atom_site_fract_z
 _atom_site_occupancy
  Ce  Ce0  1  0.873438  0.122363  0.752563  1
  Ce  Ce1  1  0.126562  0.877637  0.247437  1
  Mn  Mn2  1  0.500000  0.000000  0.000000  1
  Al  Al3  1  0.587640  0.863138  0.246927  1
  Al  Al4  1  0.778894  0.520825  0.250152  1
  Al  Al5  1  0.163740  0.842394  0.900110  1
  Al  Al6  1  0.412360  0.136862  0.753073  1
  Al  Al7  1  0.621023  0.373723  0.949709  1
  Al  Al8  1  0.841033  0.159360  0.398997  1
  Al  Al9  1  0.769664  0.775776  0.998901  1
  Al  Al10  1  0.861201  0.589830  0.750324  1
  Al  Al11  1  0.836260  0.157606  0.099890  1
  Al  Al12  1  0.221106  0.479175  0.749848  1
  Al  Al13  1  0.158967  0.840640  0.601003  1
  Al  Al14  1  0.773760  0.774198  0.499228  1
  Al  Al15  1  0.480116  0.219773  0.247561  1
  Al  Al16  1  0.622518  0.377054  0.551349  1
  Al  Al17  1  0.226240  0.225802  0.500772  1
  Al  Al18  1  0.377482  0.622946  0.448651  1
  Al  Al19  1  0.138799  0.410170  0.249676  1
  Al  Al20  1  0.519884  0.780227  0.752439  1
  Al  Al21  1  0.378977  0.626277  0.050291  1
  Al  Al22  1  0.230336  0.224224  0.001099  1
  Ru  Ru23  1  0.500000  0.000000  0.500000  1
  Ru  Ru24  1  0.000000  0.500000  0.000000  1
  Ru  Ru25  1  0.000000  0.500000  0.500000  1
