# generated using pymatgen
data_Y10HgBi5
_symmetry_space_group_name_H-M   'P 1'
_cell_length_a   6.52754800
_cell_length_b   9.14329365
_cell_length_c   9.10778612
_cell_angle_alpha   120.12904613
_cell_angle_beta   89.99994733
_cell_angle_gamma   90.00010164
_symmetry_Int_Tables_number   1
_chemical_formula_structural   Y10HgBi5
_chemical_formula_sum   'Y10 Hg1 Bi5'
_cell_volume   470.14301738
_cell_formula_units_Z   1
loop_
 _symmetry_equiv_pos_site_id
 _symmetry_equiv_pos_as_xyz
  1  'x, y, z'
loop_
 _atom_site_type_symbol
 _atom_site_label
 _atom_site_symmetry_multiplicity
 _atom_site_fract_x
 _atom_site_fract_y
 _atom_site_fract_z
 _atom_site_occupancy
  Y  Y0  1  0.499571  0.341524  0.676614  1
  Y  Y1  1  0.499571  0.664909  0.323386  1
  Y  Y2  1  0.000428  0.664910  0.323386  1
  Y  Y3  1  0.000428  0.341523  0.676614  1
  Y  Y4  1  0.750001  0.244808  0.000000  1
  Y  Y5  1  0.750001  0.755962  0.766671  1
  Y  Y6  1  0.750001  0.989291  0.233329  1
  Y  Y7  1  0.250000  0.757319  0.000000  1
  Y  Y8  1  0.250000  0.241692  0.241051  1
  Y  Y9  1  0.250000  0.000641  0.758949  1
  Hg  Hg10  1  0.749999  0.606864  0.000000  1
  Bi  Bi11  1  0.750000  0.388853  0.390644  1
  Bi  Bi12  1  0.750000  0.998208  0.609356  1
  Bi  Bi13  1  0.249998  0.389230  0.000000  1
  Bi  Bi14  1  0.250001  0.610277  0.606289  1
  Bi  Bi15  1  0.250001  0.003990  0.393711  1
