# generated using pymatgen
data_La3Dy2Er3(CdIr)2
_symmetry_space_group_name_H-M   'P 1'
_cell_length_a   9.78953525
_cell_length_b   9.78953527
_cell_length_c   9.78953500
_cell_angle_alpha   59.99999754
_cell_angle_beta   59.99999746
_cell_angle_gamma   60.00000033
_symmetry_Int_Tables_number   1
_chemical_formula_structural   La3Dy2Er3(CdIr)2
_chemical_formula_sum   'La6 Dy4 Er6 Cd4 Ir4'
_cell_volume   663.39348208
_cell_formula_units_Z   2
loop_
 _symmetry_equiv_pos_site_id
 _symmetry_equiv_pos_as_xyz
  1  'x, y, z'
loop_
 _atom_site_type_symbol
 _atom_site_label
 _atom_site_symmetry_multiplicity
 _atom_site_fract_x
 _atom_site_fract_y
 _atom_site_fract_z
 _atom_site_occupancy
  La  La0  1  0.192469  0.807531  0.807531  1
  La  La1  1  0.807531  0.192469  0.192469  1
  La  La2  1  0.807531  0.192469  0.807531  1
  La  La3  1  0.192469  0.807531  0.192469  1
  La  La4  1  0.807531  0.807531  0.192469  1
  La  La5  1  0.192469  0.192469  0.807531  1
  Dy  Dy6  1  0.596537  0.596537  0.596537  1
  Dy  Dy7  1  0.596537  0.596537  0.210389  1
  Dy  Dy8  1  0.596537  0.210389  0.596537  1
  Dy  Dy9  1  0.210389  0.596537  0.596537  1
  Er  Er10  1  0.063774  0.436226  0.436226  1
  Er  Er11  1  0.436226  0.063774  0.063774  1
  Er  Er12  1  0.436226  0.063774  0.436226  1
  Er  Er13  1  0.063774  0.436226  0.063774  1
  Er  Er14  1  0.436226  0.436226  0.063774  1
  Er  Er15  1  0.063774  0.063774  0.436226  1
  Cd  Cd16  1  0.828553  0.828553  0.828553  1
  Cd  Cd17  1  0.828553  0.828553  0.514338  1
  Cd  Cd18  1  0.828553  0.514338  0.828553  1
  Cd  Cd19  1  0.514338  0.828553  0.828553  1
  Ir  Ir20  1  0.390754  0.390754  0.390754  1
  Ir  Ir21  1  0.390754  0.390754  0.827738  1
  Ir  Ir22  1  0.390754  0.827738  0.390754  1
  Ir  Ir23  1  0.827738  0.390754  0.390754  1
