# generated using pymatgen
data_Ba2H9W
_symmetry_space_group_name_H-M   'P 1'
_cell_length_a   9.60040900
_cell_length_b   9.60040831
_cell_length_c   5.41352800
_cell_angle_alpha   90.00000000
_cell_angle_beta   90.00000000
_cell_angle_gamma   120.00000581
_symmetry_Int_Tables_number   1
_chemical_formula_structural   Ba2H9W
_chemical_formula_sum   'Ba6 H27 W3'
_cell_volume   432.10613600
_cell_formula_units_Z   3
loop_
 _symmetry_equiv_pos_site_id
 _symmetry_equiv_pos_as_xyz
  1  'x, y, z'
loop_
 _atom_site_type_symbol
 _atom_site_label
 _atom_site_symmetry_multiplicity
 _atom_site_fract_x
 _atom_site_fract_y
 _atom_site_fract_z
 _atom_site_occupancy
  Ba  Ba0  1  0.000000  0.265826  0.500000  1
  Ba  Ba1  1  0.734174  0.734174  0.500000  1
  Ba  Ba2  1  0.265826  0.000000  0.500000  1
  Ba  Ba3  1  0.000000  0.601572  0.000000  1
  Ba  Ba4  1  0.398428  0.398428  0.000000  1
  Ba  Ba5  1  0.601572  0.000000  0.000000  1
  H  H6  1  0.782185  0.309834  0.743428  1
  H  H7  1  0.690166  0.472351  0.743428  1
  H  H8  1  0.527649  0.217815  0.743428  1
  H  H9  1  0.217815  0.527649  0.256572  1
  H  H10  1  0.527649  0.217815  0.256572  1
  H  H11  1  0.782185  0.309834  0.256572  1
  H  H12  1  0.690166  0.472351  0.256572  1
  H  H13  1  0.309834  0.782185  0.743428  1
  H  H14  1  0.472351  0.690166  0.743428  1
  H  H15  1  0.188236  0.000000  0.000000  1
  H  H16  1  0.811764  0.811764  0.000000  1
  H  H17  1  0.000000  0.188236  0.000000  1
  H  H18  1  0.863241  0.000000  0.230770  1
  H  H19  1  0.136759  0.136759  0.769230  1
  H  H20  1  0.000000  0.863241  0.769230  1
  H  H21  1  0.000000  0.863241  0.230770  1
  H  H22  1  0.136759  0.136759  0.230770  1
  H  H23  1  0.863241  0.000000  0.769230  1
  H  H24  1  0.135354  0.635478  0.500000  1
  H  H25  1  0.500124  0.864646  0.500000  1
  H  H26  1  0.364522  0.499876  0.500000  1
  H  H27  1  0.499876  0.364522  0.500000  1
  H  H28  1  0.864646  0.500124  0.500000  1
  H  H29  1  0.635478  0.135354  0.500000  1
  H  H30  1  0.217815  0.527649  0.743428  1
  H  H31  1  0.309834  0.782185  0.256572  1
  H  H32  1  0.472351  0.690166  0.256572  1
  W  W33  1  0.666667  0.333333  0.500000  1
  W  W34  1  0.333333  0.666667  0.500000  1
  W  W35  1  0.000000  0.000000  0.000000  1
