# generated using pymatgen
data_BeV2(Fe2Si)3
_symmetry_space_group_name_H-M   'P 1'
_cell_length_a   3.92707700
_cell_length_b   5.56391400
_cell_length_c   11.73165100
_cell_angle_alpha   90.00000000
_cell_angle_beta   89.99985868
_cell_angle_gamma   90.00000000
_symmetry_Int_Tables_number   1
_chemical_formula_structural   BeV2(Fe2Si)3
_chemical_formula_sum   'Be2 V4 Fe12 Si6'
_cell_volume   256.33562056
_cell_formula_units_Z   2
loop_
 _symmetry_equiv_pos_site_id
 _symmetry_equiv_pos_as_xyz
  1  'x, y, z'
loop_
 _atom_site_type_symbol
 _atom_site_label
 _atom_site_symmetry_multiplicity
 _atom_site_fract_x
 _atom_site_fract_y
 _atom_site_fract_z
 _atom_site_occupancy
  Be  Be0  1  0.000111  0.000000  0.670244  1
  Be  Be1  1  0.500131  0.500001  0.829711  1
  V  V2  1  0.000001  0.000000  0.989153  1
  V  V3  1  0.499910  0.500001  0.162161  1
  V  V4  1  0.999909  0.000000  0.337831  1
  V  V5  1  0.499994  0.500001  0.510906  1
  Fe  Fe6  1  0.500003  0.251565  0.998807  1
  Fe  Fe7  1  0.500003  0.748435  0.998807  1
  Fe  Fe8  1  0.999923  0.251487  0.166931  1
  Fe  Fe9  1  0.999923  0.748512  0.166931  1
  Fe  Fe10  1  0.499923  0.248526  0.333025  1
  Fe  Fe11  1  0.499923  0.751476  0.333025  1
  Fe  Fe12  1  0.999996  0.248458  0.501218  1
  Fe  Fe13  1  0.999996  0.751541  0.501218  1
  Fe  Fe14  1  0.500070  0.248961  0.668304  1
  Fe  Fe15  1  0.500070  0.751041  0.668304  1
  Fe  Fe16  1  0.000082  0.251092  0.831709  1
  Fe  Fe17  1  0.000082  0.748907  0.831709  1
  Si  Si18  1  0.999991  0.500001  0.991663  1
  Si  Si19  1  0.499917  0.000000  0.163319  1
  Si  Si20  1  0.999915  0.500001  0.336640  1
  Si  Si21  1  0.499984  0.000000  0.508388  1
  Si  Si22  1  0.000062  0.500001  0.671726  1
  Si  Si23  1  0.500077  0.000000  0.828272  1
