# generated using pymatgen
data_NdLuBeCoSi4
_symmetry_space_group_name_H-M   'P 1'
_cell_length_a   8.47910570
_cell_length_b   8.47910546
_cell_length_c   3.94236600
_cell_angle_alpha   90.00000000
_cell_angle_beta   90.00000000
_cell_angle_gamma   152.48462887
_symmetry_Int_Tables_number   1
_chemical_formula_structural   NdLuBeCoSi4
_chemical_formula_sum   'Nd1 Lu1 Be1 Co1 Si4'
_cell_volume   130.94423087
_cell_formula_units_Z   1
loop_
 _symmetry_equiv_pos_site_id
 _symmetry_equiv_pos_as_xyz
  1  'x, y, z'
loop_
 _atom_site_type_symbol
 _atom_site_label
 _atom_site_symmetry_multiplicity
 _atom_site_fract_x
 _atom_site_fract_y
 _atom_site_fract_z
 _atom_site_occupancy
  Nd  Nd0  1  0.111811  0.888189  0.250000  1
  Lu  Lu1  1  0.896703  0.103297  0.750000  1
  Be  Be2  1  0.672635  0.327365  0.750000  1
  Co  Co3  1  0.319533  0.680467  0.250000  1
  Si  Si4  1  0.755932  0.244068  0.250000  1
  Si  Si5  1  0.253839  0.746161  0.750000  1
  Si  Si6  1  0.535866  0.464134  0.750000  1
  Si  Si7  1  0.453679  0.546321  0.250000  1
