# generated using pymatgen
data_Y3Er5Be3Si12Rh
_symmetry_space_group_name_H-M   'P 1'
_cell_length_a   7.92487054
_cell_length_b   7.92487021
_cell_length_c   8.01441909
_cell_angle_alpha   89.97423546
_cell_angle_beta   90.02576405
_cell_angle_gamma   120.02618017
_symmetry_Int_Tables_number   1
_chemical_formula_structural   Y3Er5Be3Si12Rh
_chemical_formula_sum   'Y3 Er5 Be3 Si12 Rh1'
_cell_volume   435.78504849
_cell_formula_units_Z   1
loop_
 _symmetry_equiv_pos_site_id
 _symmetry_equiv_pos_as_xyz
  1  'x, y, z'
loop_
 _atom_site_type_symbol
 _atom_site_label
 _atom_site_symmetry_multiplicity
 _atom_site_fract_x
 _atom_site_fract_y
 _atom_site_fract_z
 _atom_site_occupancy
  Y  Y0  1  0.999835  0.000165  0.248080  1
  Y  Y1  1  0.999815  0.000185  0.751992  1
  Y  Y2  1  0.500689  0.499311  0.248430  1
  Er  Er3  1  0.500217  0.000480  0.248915  1
  Er  Er4  1  0.999520  0.499783  0.248915  1
  Er  Er5  1  0.500920  0.499080  0.751146  1
  Er  Er6  1  0.998334  0.499196  0.751129  1
  Er  Er7  1  0.500804  0.001666  0.751129  1
  Be  Be8  1  0.667028  0.332972  0.500393  1
  Be  Be9  1  0.666973  0.333027  0.999241  1
  Be  Be10  1  0.333233  0.666767  0.998294  1
  Si  Si11  1  0.828797  0.171203  0.499882  1
  Si  Si12  1  0.829451  0.658398  0.500409  1
  Si  Si13  1  0.341602  0.170549  0.500409  1
  Si  Si14  1  0.826522  0.173478  0.000080  1
  Si  Si15  1  0.827340  0.653772  0.999442  1
  Si  Si16  1  0.346228  0.172660  0.999442  1
  Si  Si17  1  0.173149  0.826851  0.999808  1
  Si  Si18  1  0.654293  0.827584  0.999350  1
  Si  Si19  1  0.172416  0.345707  0.999350  1
  Si  Si20  1  0.168323  0.831677  0.499906  1
  Si  Si21  1  0.663547  0.832235  0.500589  1
  Si  Si22  1  0.167765  0.336453  0.500589  1
  Rh  Rh23  1  0.333202  0.666798  0.503084  1
