# generated using pymatgen
data_PrErReB6
_symmetry_space_group_name_H-M   'P 1'
_cell_length_a   3.72872500
_cell_length_b   9.24413600
_cell_length_c   11.72376400
_cell_angle_alpha   90.00000000
_cell_angle_beta   90.00000000
_cell_angle_gamma   90.00000000
_symmetry_Int_Tables_number   1
_chemical_formula_structural   PrErReB6
_chemical_formula_sum   'Pr4 Er4 Re4 B24'
_cell_volume   404.10455731
_cell_formula_units_Z   4
loop_
 _symmetry_equiv_pos_site_id
 _symmetry_equiv_pos_as_xyz
  1  'x, y, z'
loop_
 _atom_site_type_symbol
 _atom_site_label
 _atom_site_symmetry_multiplicity
 _atom_site_fract_x
 _atom_site_fract_y
 _atom_site_fract_z
 _atom_site_occupancy
  Pr  Pr0  1  0.000000  0.322504  0.414169  1
  Pr  Pr1  1  0.000000  0.677496  0.585831  1
  Pr  Pr2  1  0.000000  0.822504  0.085831  1
  Pr  Pr3  1  0.000000  0.177496  0.914169  1
  Er  Er4  1  0.000000  0.943117  0.369246  1
  Er  Er5  1  0.000000  0.056883  0.630754  1
  Er  Er6  1  0.000000  0.443117  0.130754  1
  Er  Er7  1  0.000000  0.556883  0.869246  1
  Re  Re8  1  0.000000  0.639966  0.318861  1
  Re  Re9  1  0.000000  0.360034  0.681139  1
  Re  Re10  1  0.000000  0.139966  0.181139  1
  Re  Re11  1  0.000000  0.860034  0.818861  1
  B  B12  1  0.500000  0.555586  0.429900  1
  B  B13  1  0.500000  0.444414  0.570100  1
  B  B14  1  0.500000  0.055586  0.070100  1
  B  B15  1  0.500000  0.944414  0.929900  1
  B  B16  1  0.500000  0.750526  0.415607  1
  B  B17  1  0.500000  0.249474  0.584393  1
  B  B18  1  0.500000  0.250526  0.084393  1
  B  B19  1  0.500000  0.749474  0.915607  1
  B  B20  1  0.500000  0.791722  0.266478  1
  B  B21  1  0.500000  0.208278  0.733522  1
  B  B22  1  0.500000  0.291722  0.233522  1
  B  B23  1  0.500000  0.708278  0.766478  1
  B  B24  1  0.500000  0.629426  0.186661  1
  B  B25  1  0.500000  0.370574  0.813339  1
  B  B26  1  0.500000  0.129426  0.313339  1
  B  B27  1  0.500000  0.870574  0.686661  1
  B  B28  1  0.500000  0.984271  0.213563  1
  B  B29  1  0.500000  0.015729  0.786437  1
  B  B30  1  0.500000  0.484271  0.286437  1
  B  B31  1  0.500000  0.515729  0.713563  1
  B  B32  1  0.500000  0.595259  0.026300  1
  B  B33  1  0.500000  0.404741  0.973700  1
  B  B34  1  0.500000  0.095259  0.473700  1
  B  B35  1  0.500000  0.904741  0.526300  1
