# generated using pymatgen
data_Cs2Pa3Cl7O5
_symmetry_space_group_name_H-M   'P 1'
_cell_length_a   10.49851911
_cell_length_b   10.49851784
_cell_length_c   12.07138435
_cell_angle_alpha   72.32458698
_cell_angle_beta   72.32458819
_cell_angle_gamma   54.50636469
_symmetry_Int_Tables_number   1
_chemical_formula_structural   Cs2Pa3Cl7O5
_chemical_formula_sum   'Cs4 Pa6 Cl14 O10'
_cell_volume   1018.12346004
_cell_formula_units_Z   2
loop_
 _symmetry_equiv_pos_site_id
 _symmetry_equiv_pos_as_xyz
  1  'x, y, z'
loop_
 _atom_site_type_symbol
 _atom_site_label
 _atom_site_symmetry_multiplicity
 _atom_site_fract_x
 _atom_site_fract_y
 _atom_site_fract_z
 _atom_site_occupancy
  Cs  Cs0  1  0.746478  0.822580  0.859786  1
  Cs  Cs1  1  0.177420  0.253522  0.640214  1
  Cs  Cs2  1  0.253522  0.177420  0.140214  1
  Cs  Cs3  1  0.822580  0.746478  0.359786  1
  Pa  Pa4  1  0.214130  0.789686  0.539976  1
  Pa  Pa5  1  0.210314  0.785870  0.960024  1
  Pa  Pa6  1  0.785870  0.210314  0.460024  1
  Pa  Pa7  1  0.789686  0.214130  0.039976  1
  Pa  Pa8  1  0.440204  0.559796  0.250000  1
  Pa  Pa9  1  0.559796  0.440204  0.750000  1
  Cl  Cl10  1  0.052148  0.648849  0.619402  1
  Cl  Cl11  1  0.351151  0.947852  0.880598  1
  Cl  Cl12  1  0.947852  0.351151  0.380598  1
  Cl  Cl13  1  0.648849  0.052148  0.119402  1
  Cl  Cl14  1  0.358875  0.946730  0.460368  1
  Cl  Cl15  1  0.053270  0.641125  0.039632  1
  Cl  Cl16  1  0.641125  0.053270  0.539632  1
  Cl  Cl17  1  0.946730  0.358875  0.960368  1
  Cl  Cl18  1  0.280320  0.416625  0.330187  1
  Cl  Cl19  1  0.583375  0.719680  0.169813  1
  Cl  Cl20  1  0.719680  0.583375  0.669813  1
  Cl  Cl21  1  0.416625  0.280320  0.830187  1
  Cl  Cl22  1  0.082164  0.917836  0.750000  1
  Cl  Cl23  1  0.917836  0.082164  0.250000  1
  O  O24  1  0.291666  0.709633  0.379051  1
  O  O25  1  0.290367  0.708334  0.120949  1
  O  O26  1  0.708334  0.290367  0.620949  1
  O  O27  1  0.709633  0.291666  0.879051  1
  O  O28  1  0.397609  0.603041  0.624659  1
  O  O29  1  0.396959  0.602391  0.875341  1
  O  O30  1  0.602391  0.396959  0.375341  1
  O  O31  1  0.603041  0.397609  0.124659  1
  O  O32  1  0.000000  0.000000  0.500000  1
  O  O33  1  0.000000  0.000000  0.000000  1
