# generated using pymatgen
data_Gd2Hg3(TeCl4)2
_symmetry_space_group_name_H-M   'P 1'
_cell_length_a   9.98403499
_cell_length_b   9.98406991
_cell_length_c   13.34816727
_cell_angle_alpha   75.65478615
_cell_angle_beta   75.65426972
_cell_angle_gamma   44.92347127
_symmetry_Int_Tables_number   1
_chemical_formula_structural   Gd2Hg3(TeCl4)2
_chemical_formula_sum   'Gd4 Hg6 Te4 Cl16'
_cell_volume   905.19285074
_cell_formula_units_Z   2
loop_
 _symmetry_equiv_pos_site_id
 _symmetry_equiv_pos_as_xyz
  1  'x, y, z'
loop_
 _atom_site_type_symbol
 _atom_site_label
 _atom_site_symmetry_multiplicity
 _atom_site_fract_x
 _atom_site_fract_y
 _atom_site_fract_z
 _atom_site_occupancy
  Gd  Gd0  1  0.215072  0.734471  0.929232  1
  Gd  Gd1  1  0.265519  0.784951  0.570761  1
  Gd  Gd2  1  0.784928  0.265529  0.070768  1
  Gd  Gd3  1  0.734481  0.215049  0.429239  1
  Hg  Hg4  1  0.500000  0.000000  0.000000  1
  Hg  Hg5  1  0.000000  0.500000  0.500000  1
  Hg  Hg6  1  0.250562  0.237794  0.755345  1
  Hg  Hg7  1  0.762207  0.749437  0.744657  1
  Hg  Hg8  1  0.749438  0.762206  0.244655  1
  Hg  Hg9  1  0.237793  0.250563  0.255343  1
  Te  Te10  1  0.585514  0.087955  0.802262  1
  Te  Te11  1  0.912044  0.414487  0.697739  1
  Te  Te12  1  0.414486  0.912045  0.197738  1
  Te  Te13  1  0.087956  0.585513  0.302261  1
  Cl  Cl14  1  0.453458  0.365699  0.029014  1
  Cl  Cl15  1  0.634293  0.546550  0.470975  1
  Cl  Cl16  1  0.546542  0.634301  0.970986  1
  Cl  Cl17  1  0.365707  0.453450  0.529025  1
  Cl  Cl18  1  0.181172  0.638292  0.762940  1
  Cl  Cl19  1  0.361715  0.818825  0.737058  1
  Cl  Cl20  1  0.818828  0.361708  0.237060  1
  Cl  Cl21  1  0.638285  0.181175  0.262942  1
  Cl  Cl22  1  0.955326  0.716584  0.018652  1
  Cl  Cl23  1  0.283424  0.044682  0.481344  1
  Cl  Cl24  1  0.044674  0.283416  0.981348  1
  Cl  Cl25  1  0.716576  0.955318  0.518656  1
  Cl  Cl26  1  0.103514  0.891291  0.111678  1
  Cl  Cl27  1  0.108716  0.896473  0.388327  1
  Cl  Cl28  1  0.896486  0.108709  0.888322  1
  Cl  Cl29  1  0.891284  0.103527  0.611673  1
