# generated using pymatgen
data_Ho10OsRu3
_symmetry_space_group_name_H-M   'P 1'
_cell_length_a   6.31093975
_cell_length_b   7.27658702
_cell_length_c   8.43122580
_cell_angle_alpha   96.82053870
_cell_angle_beta   112.08551644
_cell_angle_gamma   89.87998953
_symmetry_Int_Tables_number   1
_chemical_formula_structural   Ho10OsRu3
_chemical_formula_sum   'Ho10 Os1 Ru3'
_cell_volume   355.84950239
_cell_formula_units_Z   1
loop_
 _symmetry_equiv_pos_site_id
 _symmetry_equiv_pos_as_xyz
  1  'x, y, z'
loop_
 _atom_site_type_symbol
 _atom_site_label
 _atom_site_symmetry_multiplicity
 _atom_site_fract_x
 _atom_site_fract_y
 _atom_site_fract_z
 _atom_site_occupancy
  Ho  Ho0  1  0.978524  0.916049  0.186224  1
  Ho  Ho1  1  0.792050  0.584514  0.814752  1
  Ho  Ho2  1  0.021680  0.084856  0.813890  1
  Ho  Ho3  1  0.208838  0.415579  0.186537  1
  Ho  Ho4  1  0.641086  0.814552  0.434309  1
  Ho  Ho5  1  0.204575  0.684323  0.564373  1
  Ho  Ho6  1  0.359639  0.185120  0.565305  1
  Ho  Ho7  1  0.793888  0.315188  0.434793  1
  Ho  Ho8  1  0.420677  0.749283  0.000387  1
  Ho  Ho9  1  0.580408  0.250736  0.000374  1
  Os  Os10  1  0.821889  0.576559  0.219723  1
  Ru  Ru11  1  0.603091  0.924635  0.779093  1
  Ru  Ru12  1  0.176696  0.423128  0.779614  1
  Ru  Ru13  1  0.396958  0.075478  0.220627  1
