# generated using pymatgen
data_Ac5(BN3)2
_symmetry_space_group_name_H-M   'P 1'
_cell_length_a   6.76775666
_cell_length_b   6.76775612
_cell_length_c   9.32665416
_cell_angle_alpha   75.45345401
_cell_angle_beta   75.45345731
_cell_angle_gamma   33.26700090
_symmetry_Int_Tables_number   1
_chemical_formula_structural   Ac5(BN3)2
_chemical_formula_sum   'Ac5 B2 N6'
_cell_volume   226.13406848
_cell_formula_units_Z   1
loop_
 _symmetry_equiv_pos_site_id
 _symmetry_equiv_pos_as_xyz
  1  'x, y, z'
loop_
 _atom_site_type_symbol
 _atom_site_label
 _atom_site_symmetry_multiplicity
 _atom_site_fract_x
 _atom_site_fract_y
 _atom_site_fract_z
 _atom_site_occupancy
  Ac  Ac0  1  0.624181  0.624181  0.625328  1
  Ac  Ac1  1  0.308217  0.308217  0.817099  1
  Ac  Ac2  1  0.000000  0.000000  0.000000  1
  Ac  Ac3  1  0.691783  0.691783  0.182901  1
  Ac  Ac4  1  0.375819  0.375819  0.374672  1
  B  B5  1  0.054186  0.054186  0.411797  1
  B  B6  1  0.945814  0.945814  0.588203  1
  N  N7  1  0.025697  0.025697  0.267853  1
  N  N8  1  0.343925  0.343925  0.078463  1
  N  N9  1  0.832407  0.832407  0.581529  1
  N  N10  1  0.974303  0.974303  0.732147  1
  N  N11  1  0.656075  0.656075  0.921537  1
  N  N12  1  0.167593  0.167593  0.418471  1
