# generated using pymatgen
data_CaLaZn5Si3
_symmetry_space_group_name_H-M   'P 1'
_cell_length_a   4.21889200
_cell_length_b   4.21889200
_cell_length_c   10.45838700
_cell_angle_alpha   90.00000000
_cell_angle_beta   90.00000000
_cell_angle_gamma   90.00000000
_symmetry_Int_Tables_number   1
_chemical_formula_structural   CaLaZn5Si3
_chemical_formula_sum   'Ca1 La1 Zn5 Si3'
_cell_volume   186.14935007
_cell_formula_units_Z   1
loop_
 _symmetry_equiv_pos_site_id
 _symmetry_equiv_pos_as_xyz
  1  'x, y, z'
loop_
 _atom_site_type_symbol
 _atom_site_label
 _atom_site_symmetry_multiplicity
 _atom_site_fract_x
 _atom_site_fract_y
 _atom_site_fract_z
 _atom_site_occupancy
  Ca  Ca0  1  0.000000  0.000000  0.996926  1
  La  La1  1  0.500000  0.500000  0.501313  1
  Zn  Zn2  1  0.000000  0.500000  0.250595  1
  Zn  Zn3  1  0.500000  0.000000  0.750084  1
  Zn  Zn4  1  0.500000  0.000000  0.250595  1
  Zn  Zn5  1  0.000000  0.500000  0.750084  1
  Zn  Zn6  1  0.500000  0.500000  0.114968  1
  Si  Si7  1  0.000000  0.000000  0.613230  1
  Si  Si8  1  0.000000  0.000000  0.388202  1
  Si  Si9  1  0.500000  0.500000  0.884005  1
