# generated using pymatgen
data_Tm6Zn17PIr6
_symmetry_space_group_name_H-M   'P 1'
_cell_length_a   8.96147901
_cell_length_b   8.96201690
_cell_length_c   8.96164000
_cell_angle_alpha   59.99588397
_cell_angle_beta   59.99868961
_cell_angle_gamma   59.99282793
_symmetry_Int_Tables_number   1
_chemical_formula_structural   Tm6Zn17PIr6
_chemical_formula_sum   'Tm6 Zn17 P1 Ir6'
_cell_volume   508.88141558
_cell_formula_units_Z   1
loop_
 _symmetry_equiv_pos_site_id
 _symmetry_equiv_pos_as_xyz
  1  'x, y, z'
loop_
 _atom_site_type_symbol
 _atom_site_label
 _atom_site_symmetry_multiplicity
 _atom_site_fract_x
 _atom_site_fract_y
 _atom_site_fract_z
 _atom_site_occupancy
  Tm  Tm0  1  0.717828  0.282178  0.282159  1
  Tm  Tm1  1  0.717828  0.282159  0.717854  1
  Tm  Tm2  1  0.717817  0.717825  0.282162  1
  Tm  Tm3  1  0.282172  0.717822  0.717841  1
  Tm  Tm4  1  0.282172  0.717841  0.282146  1
  Tm  Tm5  1  0.282183  0.282175  0.717838  1
  Zn  Zn6  1  0.625790  0.124736  0.124742  1
  Zn  Zn7  1  0.124749  0.625804  0.124731  1
  Zn  Zn8  1  0.124755  0.124736  0.625727  1
  Zn  Zn9  1  0.124734  0.124710  0.124780  1
  Zn  Zn10  1  0.374210  0.875264  0.875258  1
  Zn  Zn11  1  0.875251  0.374196  0.875269  1
  Zn  Zn12  1  0.875245  0.875264  0.374273  1
  Zn  Zn13  1  0.875266  0.875290  0.875220  1
  Zn  Zn14  1  0.000000  0.000000  0.000000  1
  Zn  Zn15  1  0.004077  0.331957  0.331998  1
  Zn  Zn16  1  0.331980  0.004052  0.331995  1
  Zn  Zn17  1  0.332002  0.331973  0.004060  1
  Zn  Zn18  1  0.331980  0.331961  0.331993  1
  Zn  Zn19  1  0.995923  0.668043  0.668002  1
  Zn  Zn20  1  0.668020  0.995948  0.668005  1
  Zn  Zn21  1  0.667998  0.668027  0.995940  1
  Zn  Zn22  1  0.668020  0.668039  0.668007  1
  P  P23  1  0.500000  0.500000  0.500000  1
  Ir  Ir24  1  0.500000  0.000000  0.000000  1
  Ir  Ir25  1  0.500000  0.000000  0.500000  1
  Ir  Ir26  1  0.500000  0.500000  0.000000  1
  Ir  Ir27  1  0.000000  0.500000  0.500000  1
  Ir  Ir28  1  0.000000  0.500000  0.000000  1
  Ir  Ir29  1  0.000000  0.000000  0.500000  1
