# generated using pymatgen
data_Er7Tm3Sn5Sb
_symmetry_space_group_name_H-M   'P 1'
_cell_length_a   8.86143151
_cell_length_b   8.85870116
_cell_length_c   6.43919902
_cell_angle_alpha   89.99137347
_cell_angle_beta   90.00219136
_cell_angle_gamma   119.71441125
_symmetry_Int_Tables_number   1
_chemical_formula_structural   Er7Tm3Sn5Sb
_chemical_formula_sum   'Er7 Tm3 Sn5 Sb1'
_cell_volume   439.01467355
_cell_formula_units_Z   1
loop_
 _symmetry_equiv_pos_site_id
 _symmetry_equiv_pos_as_xyz
  1  'x, y, z'
loop_
 _atom_site_type_symbol
 _atom_site_label
 _atom_site_symmetry_multiplicity
 _atom_site_fract_x
 _atom_site_fract_y
 _atom_site_fract_z
 _atom_site_occupancy
  Er  Er0  1  0.997501  0.762496  0.749838  1
  Er  Er1  1  0.000660  0.237281  0.250142  1
  Er  Er2  1  0.761169  0.760384  0.250113  1
  Er  Er3  1  0.762907  0.999978  0.749959  1
  Er  Er4  1  0.238658  0.241565  0.749998  1
  Er  Er5  1  0.237343  0.999680  0.250090  1
  Er  Er6  1  0.332453  0.666440  0.999963  1
  Tm  Tm7  1  0.332610  0.666447  0.499664  1
  Tm  Tm8  1  0.668820  0.333297  0.000435  1
  Tm  Tm9  1  0.668350  0.333054  0.499647  1
  Sn  Sn10  1  0.394299  0.392843  0.250324  1
  Sn  Sn11  1  0.001030  0.604763  0.251111  1
  Sn  Sn12  1  0.999469  0.396270  0.749200  1
  Sn  Sn13  1  0.605963  0.605642  0.749433  1
  Sn  Sn14  1  0.605599  0.999954  0.250455  1
  Sb  Sb15  1  0.393171  0.999906  0.749628  1
