# generated using pymatgen
data_Tc(BW)2
_symmetry_space_group_name_H-M   'P 1'
_cell_length_a   3.11646000
_cell_length_b   7.53664100
_cell_length_c   9.68303400
_cell_angle_alpha   90.00000000
_cell_angle_beta   90.00000000
_cell_angle_gamma   90.00000000
_symmetry_Int_Tables_number   1
_chemical_formula_structural   Tc(BW)2
_chemical_formula_sum   'Tc4 B8 W8'
_cell_volume   227.43161874
_cell_formula_units_Z   4
loop_
 _symmetry_equiv_pos_site_id
 _symmetry_equiv_pos_as_xyz
  1  'x, y, z'
loop_
 _atom_site_type_symbol
 _atom_site_label
 _atom_site_symmetry_multiplicity
 _atom_site_fract_x
 _atom_site_fract_y
 _atom_site_fract_z
 _atom_site_occupancy
  Tc  Tc0  1  0.500000  0.623758  0.394799  1
  Tc  Tc1  1  0.500000  0.376242  0.605201  1
  Tc  Tc2  1  0.000000  0.876242  0.894799  1
  Tc  Tc3  1  0.000000  0.123758  0.105201  1
  B  B4  1  0.500000  0.115356  0.460065  1
  B  B5  1  0.500000  0.884644  0.539935  1
  B  B6  1  0.000000  0.384644  0.960065  1
  B  B7  1  0.000000  0.615356  0.039935  1
  B  B8  1  0.500000  0.124249  0.267271  1
  B  B9  1  0.500000  0.875751  0.732729  1
  B  B10  1  0.000000  0.375751  0.767271  1
  B  B11  1  0.000000  0.624249  0.232729  1
  W  W12  1  0.500000  0.812046  0.129901  1
  W  W13  1  0.500000  0.187954  0.870099  1
  W  W14  1  0.000000  0.687954  0.629901  1
  W  W15  1  0.000000  0.312046  0.370099  1
  W  W16  1  0.500000  0.576888  0.861142  1
  W  W17  1  0.500000  0.423112  0.138858  1
  W  W18  1  0.000000  0.923112  0.361142  1
  W  W19  1  0.000000  0.076888  0.638858  1
