# generated using pymatgen
data_Hf5Sn(B2Ru5)2
_symmetry_space_group_name_H-M   'P 1'
_cell_length_a   9.52183200
_cell_length_b   9.52183200
_cell_length_c   3.11238200
_cell_angle_alpha   90.00000000
_cell_angle_beta   90.00000000
_cell_angle_gamma   90.00000000
_symmetry_Int_Tables_number   1
_chemical_formula_structural   Hf5Sn(B2Ru5)2
_chemical_formula_sum   'Hf5 Sn1 B4 Ru10'
_cell_volume   282.18499993
_cell_formula_units_Z   1
loop_
 _symmetry_equiv_pos_site_id
 _symmetry_equiv_pos_as_xyz
  1  'x, y, z'
loop_
 _atom_site_type_symbol
 _atom_site_label
 _atom_site_symmetry_multiplicity
 _atom_site_fract_x
 _atom_site_fract_y
 _atom_site_fract_z
 _atom_site_occupancy
  Hf  Hf0  1  0.826098  0.676641  0.000000  1
  Hf  Hf1  1  0.173902  0.323359  0.000000  1
  Hf  Hf2  1  0.323359  0.826098  0.000000  1
  Hf  Hf3  1  0.676641  0.173902  0.000000  1
  Hf  Hf4  1  0.000000  0.000000  0.000000  1
  Sn  Sn5  1  0.500000  0.500000  0.000000  1
  B  B6  1  0.622313  0.879473  0.000000  1
  B  B7  1  0.377687  0.120527  0.000000  1
  B  B8  1  0.120527  0.622313  0.000000  1
  B  B9  1  0.879473  0.377687  0.000000  1
  Ru  Ru10  1  0.571532  0.720601  0.500000  1
  Ru  Ru11  1  0.428468  0.279399  0.500000  1
  Ru  Ru12  1  0.071032  0.778818  0.500000  1
  Ru  Ru13  1  0.928968  0.221182  0.500000  1
  Ru  Ru14  1  0.279399  0.571532  0.500000  1
  Ru  Ru15  1  0.720601  0.428468  0.500000  1
  Ru  Ru16  1  0.221182  0.071032  0.500000  1
  Ru  Ru17  1  0.778818  0.928968  0.500000  1
  Ru  Ru18  1  0.500000  0.000000  0.500000  1
  Ru  Ru19  1  0.000000  0.500000  0.500000  1
