# generated using pymatgen
data_Ca7CeMgCdSn6
_symmetry_space_group_name_H-M   'P 1'
_cell_length_a   9.22586153
_cell_length_b   9.21935010
_cell_length_c   9.22008176
_cell_angle_alpha   96.63578976
_cell_angle_beta   96.08136081
_cell_angle_gamma   141.16762364
_symmetry_Int_Tables_number   1
_chemical_formula_structural   Ca7CeMgCdSn6
_chemical_formula_sum   'Ca7 Ce1 Mg1 Cd1 Sn6'
_cell_volume   463.64642142
_cell_formula_units_Z   1
loop_
 _symmetry_equiv_pos_site_id
 _symmetry_equiv_pos_as_xyz
  1  'x, y, z'
loop_
 _atom_site_type_symbol
 _atom_site_label
 _atom_site_symmetry_multiplicity
 _atom_site_fract_x
 _atom_site_fract_y
 _atom_site_fract_z
 _atom_site_occupancy
  Ca  Ca0  1  0.916999  0.782843  0.700176  1
  Ca  Ca1  1  0.781085  0.081811  0.862989  1
  Ca  Ca2  1  0.414363  0.716628  0.130791  1
  Ca  Ca3  1  0.215494  0.916602  0.132043  1
  Ca  Ca4  1  0.579848  0.283699  0.864112  1
  Ca  Ca5  1  0.718566  0.578264  0.296449  1
  Ca  Ca6  1  0.286359  0.421287  0.707805  1
  Ce  Ce7  1  0.086238  0.220354  0.305052  1
  Mg  Mg8  1  0.751927  0.250536  0.502139  1
  Cd  Cd9  1  0.251219  0.749654  0.501720  1
  Sn  Sn10  1  0.149970  0.651973  0.805578  1
  Sn  Sn11  1  0.849742  0.341868  0.194962  1
  Sn  Sn12  1  0.343189  0.152740  0.493309  1
  Sn  Sn13  1  0.652986  0.843355  0.492954  1
  Sn  Sn14  1  0.246661  0.249782  0.004889  1
  Sn  Sn15  1  0.755354  0.758604  0.005032  1
