# generated using pymatgen
data_Ta3GaFeSiC
_symmetry_space_group_name_H-M   'P 1'
_cell_length_a   8.12664383
_cell_length_b   8.12664350
_cell_length_c   8.12664323
_cell_angle_alpha   59.93237202
_cell_angle_beta   59.93237108
_cell_angle_gamma   59.93237544
_symmetry_Int_Tables_number   1
_chemical_formula_structural   Ta3GaFeSiC
_chemical_formula_sum   'Ta12 Ga4 Fe4 Si4 C4'
_cell_volume   378.92385195
_cell_formula_units_Z   4
loop_
 _symmetry_equiv_pos_site_id
 _symmetry_equiv_pos_as_xyz
  1  'x, y, z'
loop_
 _atom_site_type_symbol
 _atom_site_label
 _atom_site_symmetry_multiplicity
 _atom_site_fract_x
 _atom_site_fract_y
 _atom_site_fract_z
 _atom_site_occupancy
  Ta  Ta0  1  0.553413  0.946342  0.553413  1
  Ta  Ta1  1  0.307442  0.692547  0.692547  1
  Ta  Ta2  1  0.697590  0.306627  0.306627  1
  Ta  Ta3  1  0.306627  0.697590  0.306627  1
  Ta  Ta4  1  0.692547  0.692547  0.307442  1
  Ta  Ta5  1  0.306627  0.306627  0.697590  1
  Ta  Ta6  1  0.553413  0.553413  0.946342  1
  Ta  Ta7  1  0.946342  0.553413  0.553413  1
  Ta  Ta8  1  0.559370  0.944481  0.944481  1
  Ta  Ta9  1  0.944481  0.944481  0.559370  1
  Ta  Ta10  1  0.692547  0.307442  0.692547  1
  Ta  Ta11  1  0.944481  0.559370  0.944481  1
  Ga  Ga12  1  0.917828  0.249697  0.917828  1
  Ga  Ga13  1  0.917828  0.917828  0.249697  1
  Ga  Ga14  1  0.249697  0.917828  0.917828  1
  Ga  Ga15  1  0.334212  0.334212  0.334212  1
  Fe  Fe16  1  0.132360  0.132360  0.132360  1
  Fe  Fe17  1  0.618372  0.120396  0.120396  1
  Fe  Fe18  1  0.120396  0.618372  0.120396  1
  Fe  Fe19  1  0.120396  0.120396  0.618372  1
  Si  Si20  1  0.916864  0.916864  0.916864  1
  Si  Si21  1  0.999912  0.334029  0.334029  1
  Si  Si22  1  0.334029  0.999912  0.334029  1
  Si  Si23  1  0.334029  0.334029  0.999912  1
  C  C24  1  0.625779  0.625779  0.625779  1
  C  C25  1  0.123253  0.625082  0.625082  1
  C  C26  1  0.625082  0.123253  0.625082  1
  C  C27  1  0.625082  0.625082  0.123253  1
