# generated using pymatgen
data_Ba8TiAlV2O16
_symmetry_space_group_name_H-M   'P 1'
_cell_length_a   7.74832113
_cell_length_b   6.17692626
_cell_length_c   11.91416171
_cell_angle_alpha   62.49850032
_cell_angle_beta   90.14397919
_cell_angle_gamma   89.85468813
_symmetry_Int_Tables_number   1
_chemical_formula_structural   Ba8TiAlV2O16
_chemical_formula_sum   'Ba8 Ti1 Al1 V2 O16'
_cell_volume   505.77968569
_cell_formula_units_Z   1
loop_
 _symmetry_equiv_pos_site_id
 _symmetry_equiv_pos_as_xyz
  1  'x, y, z'
loop_
 _atom_site_type_symbol
 _atom_site_label
 _atom_site_symmetry_multiplicity
 _atom_site_fract_x
 _atom_site_fract_y
 _atom_site_fract_z
 _atom_site_occupancy
  Ba  Ba0  1  0.513098  0.035605  0.194489  1
  Ba  Ba1  1  0.991325  0.975429  0.300204  1
  Ba  Ba2  1  0.509799  0.985384  0.802483  1
  Ba  Ba3  1  0.988984  0.033089  0.696696  1
  Ba  Ba4  1  0.162568  0.315457  0.917096  1
  Ba  Ba5  1  0.661389  0.676244  0.593059  1
  Ba  Ba6  1  0.840000  0.693683  0.062225  1
  Ba  Ba7  1  0.342844  0.302595  0.436486  1
  Ti  Ti8  1  0.217841  0.662852  0.579889  1
  Al  Al9  1  0.724444  0.337423  0.921208  1
  V  V10  1  0.279078  0.655978  0.082607  1
  V  V11  1  0.777703  0.343223  0.415097  1
  O  O12  1  0.765630  0.657434  0.824742  1
  O  O13  1  0.259057  0.334466  0.679479  1
  O  O14  1  0.233134  0.347421  0.175641  1
  O  O15  1  0.738911  0.665133  0.310323  1
  O  O16  1  0.832868  0.152363  0.861493  1
  O  O17  1  0.322702  0.851852  0.642677  1
  O  O18  1  0.180327  0.841825  0.138731  1
  O  O19  1  0.669966  0.128792  0.372541  1
  O  O20  1  0.819967  0.252951  0.074642  1
  O  O21  1  0.308979  0.755192  0.422369  1
  O  O22  1  0.192472  0.750752  0.930413  1
  O  O23  1  0.673118  0.264588  0.569102  1
  O  O24  1  0.007136  0.286966  0.421058  1
  O  O25  1  0.499101  0.699397  0.075580  1
  O  O26  1  0.988724  0.727088  0.565252  1
  O  O27  1  0.498835  0.266820  0.934422  1
