# generated using pymatgen
data_Yb2Ga3Pt4
_symmetry_space_group_name_H-M   'P 1'
_cell_length_a   8.12430148
_cell_length_b   8.12430090
_cell_length_c   7.54734200
_cell_angle_alpha   90.00000000
_cell_angle_beta   90.00000000
_cell_angle_gamma   139.24284841
_symmetry_Int_Tables_number   1
_chemical_formula_structural   Yb2Ga3Pt4
_chemical_formula_sum   'Yb4 Ga6 Pt8'
_cell_volume   325.22381011
_cell_formula_units_Z   2
loop_
 _symmetry_equiv_pos_site_id
 _symmetry_equiv_pos_as_xyz
  1  'x, y, z'
loop_
 _atom_site_type_symbol
 _atom_site_label
 _atom_site_symmetry_multiplicity
 _atom_site_fract_x
 _atom_site_fract_y
 _atom_site_fract_z
 _atom_site_occupancy
  Yb  Yb0  1  0.106286  0.893714  0.413128  1
  Yb  Yb1  1  0.893714  0.106286  0.586872  1
  Yb  Yb2  1  0.393714  0.606286  0.913128  1
  Yb  Yb3  1  0.606286  0.393714  0.086872  1
  Ga  Ga4  1  0.000000  0.000000  0.000000  1
  Ga  Ga5  1  0.500000  0.500000  0.500000  1
  Ga  Ga6  1  0.017983  0.482017  0.250000  1
  Ga  Ga7  1  0.482017  0.017983  0.750000  1
  Ga  Ga8  1  0.982017  0.517983  0.750000  1
  Ga  Ga9  1  0.517983  0.982017  0.250000  1
  Pt  Pt10  1  0.188030  0.311970  0.250000  1
  Pt  Pt11  1  0.311970  0.188030  0.750000  1
  Pt  Pt12  1  0.811970  0.688030  0.750000  1
  Pt  Pt13  1  0.688030  0.811970  0.250000  1
  Pt  Pt14  1  0.181389  0.818611  0.023890  1
  Pt  Pt15  1  0.818611  0.181389  0.976110  1
  Pt  Pt16  1  0.318611  0.681389  0.523890  1
  Pt  Pt17  1  0.681389  0.318611  0.476110  1
