# generated using pymatgen
data_AcTlAg4
_symmetry_space_group_name_H-M   'P 1'
_cell_length_a   5.81468928
_cell_length_b   5.81468897
_cell_length_c   5.81469100
_cell_angle_alpha   60.00000550
_cell_angle_beta   60.00000728
_cell_angle_gamma   60.00000636
_symmetry_Int_Tables_number   1
_chemical_formula_structural   AcTlAg4
_chemical_formula_sum   'Ac1 Tl1 Ag4'
_cell_volume   139.01597398
_cell_formula_units_Z   1
loop_
 _symmetry_equiv_pos_site_id
 _symmetry_equiv_pos_as_xyz
  1  'x, y, z'
loop_
 _atom_site_type_symbol
 _atom_site_label
 _atom_site_symmetry_multiplicity
 _atom_site_fract_x
 _atom_site_fract_y
 _atom_site_fract_z
 _atom_site_occupancy
  Ac  Ac0  1  0.000000  0.000000  0.000000  1
  Tl  Tl1  1  0.250000  0.250000  0.250000  1
  Ag  Ag2  1  0.624468  0.624468  0.126595  1
  Ag  Ag3  1  0.624468  0.126595  0.624468  1
  Ag  Ag4  1  0.126595  0.624468  0.624468  1
  Ag  Ag5  1  0.624468  0.624468  0.624468  1
