# generated using pymatgen
data_TbPrEr6(CdIr)2
_symmetry_space_group_name_H-M   'P 1'
_cell_length_a   9.63370797
_cell_length_b   9.62109395
_cell_length_c   9.61956265
_cell_angle_alpha   60.09202043
_cell_angle_beta   59.96186471
_cell_angle_gamma   59.94610843
_symmetry_Int_Tables_number   1
_chemical_formula_structural   TbPrEr6(CdIr)2
_chemical_formula_sum   'Tb2 Pr2 Er12 Cd4 Ir4'
_cell_volume   630.45855577
_cell_formula_units_Z   2
loop_
 _symmetry_equiv_pos_site_id
 _symmetry_equiv_pos_as_xyz
  1  'x, y, z'
loop_
 _atom_site_type_symbol
 _atom_site_label
 _atom_site_symmetry_multiplicity
 _atom_site_fract_x
 _atom_site_fract_y
 _atom_site_fract_z
 _atom_site_occupancy
  Tb  Tb0  1  0.559585  0.940415  0.559585  1
  Tb  Tb1  1  0.940415  0.559585  0.940415  1
  Pr  Pr2  1  0.566099  0.566099  0.933901  1
  Pr  Pr3  1  0.933901  0.933901  0.566099  1
  Er  Er4  1  0.351606  0.347806  0.345511  1
  Er  Er5  1  0.347806  0.351606  0.955077  1
  Er  Er6  1  0.345511  0.955077  0.351606  1
  Er  Er7  1  0.955077  0.345511  0.347806  1
  Er  Er8  1  0.813048  0.186952  0.186952  1
  Er  Er9  1  0.186952  0.813048  0.813048  1
  Er  Er10  1  0.188940  0.811060  0.188940  1
  Er  Er11  1  0.811060  0.188940  0.811060  1
  Er  Er12  1  0.190058  0.190058  0.809942  1
  Er  Er13  1  0.809942  0.809942  0.190058  1
  Er  Er14  1  0.945588  0.554412  0.554412  1
  Er  Er15  1  0.554412  0.945588  0.945588  1
  Cd  Cd16  1  0.581728  0.581435  0.577607  1
  Cd  Cd17  1  0.581435  0.581728  0.259230  1
  Cd  Cd18  1  0.577607  0.259230  0.581728  1
  Cd  Cd19  1  0.259230  0.577607  0.581435  1
  Ir  Ir20  1  0.145988  0.141768  0.136712  1
  Ir  Ir21  1  0.141768  0.145988  0.575531  1
  Ir  Ir22  1  0.136712  0.575531  0.145988  1
  Ir  Ir23  1  0.575531  0.136712  0.141768  1
