# generated using pymatgen
data_Zr6Mn3Fe12Si7Ni
_symmetry_space_group_name_H-M   'P 1'
_cell_length_a   8.13741076
_cell_length_b   8.13257301
_cell_length_c   8.12452394
_cell_angle_alpha   60.08775835
_cell_angle_beta   60.07302435
_cell_angle_gamma   60.06759900
_symmetry_Int_Tables_number   1
_chemical_formula_structural   Zr6Mn3Fe12Si7Ni
_chemical_formula_sum   'Zr6 Mn3 Fe12 Si7 Ni1'
_cell_volume   380.84274739
_cell_formula_units_Z   1
loop_
 _symmetry_equiv_pos_site_id
 _symmetry_equiv_pos_as_xyz
  1  'x, y, z'
loop_
 _atom_site_type_symbol
 _atom_site_label
 _atom_site_symmetry_multiplicity
 _atom_site_fract_x
 _atom_site_fract_y
 _atom_site_fract_z
 _atom_site_occupancy
  Zr  Zr0  1  0.790326  0.206489  0.788610  1
  Zr  Zr1  1  0.795907  0.797022  0.204373  1
  Zr  Zr2  1  0.208052  0.793120  0.789721  1
  Zr  Zr3  1  0.208849  0.201292  0.796663  1
  Zr  Zr4  1  0.798610  0.197751  0.208721  1
  Zr  Zr5  1  0.200181  0.800807  0.201977  1
  Mn  Mn6  1  0.177016  0.178700  0.178121  1
  Mn  Mn7  1  0.618660  0.623183  0.139806  1
  Mn  Mn8  1  0.378152  0.381505  0.379780  1
  Fe  Fe9  1  0.175801  0.473386  0.177261  1
  Fe  Fe10  1  0.174865  0.177350  0.474582  1
  Fe  Fe11  1  0.135591  0.621737  0.616502  1
  Fe  Fe12  1  0.620002  0.132406  0.620594  1
  Fe  Fe13  1  0.823769  0.822790  0.824524  1
  Fe  Fe14  1  0.863978  0.381251  0.371314  1
  Fe  Fe15  1  0.375106  0.376736  0.869452  1
  Fe  Fe16  1  0.380440  0.864299  0.372594  1
  Fe  Fe17  1  0.529956  0.822527  0.824546  1
  Fe  Fe18  1  0.622163  0.626346  0.621220  1
  Fe  Fe19  1  0.823561  0.822795  0.530268  1
  Fe  Fe20  1  0.473251  0.177585  0.176463  1
  Si  Si21  1  0.003197  0.502945  0.996016  1
  Si  Si22  1  0.501126  0.497981  0.514879  1
  Si  Si23  1  0.497845  0.501801  0.996047  1
  Si  Si24  1  0.499384  0.997521  0.499153  1
  Si  Si25  1  0.995879  0.502255  0.498551  1
  Si  Si26  1  0.000514  0.999396  0.500762  1
  Si  Si27  1  0.500314  0.002887  0.998303  1
  Ni  Ni28  1  0.827505  0.516140  0.829198  1
