# generated using pymatgen
data_Tm4HgPd3Pb2
_symmetry_space_group_name_H-M   'P 1'
_cell_length_a   8.03883043
_cell_length_b   8.03883043
_cell_length_c   3.57300800
_cell_angle_alpha   90.00000000
_cell_angle_beta   90.00000000
_cell_angle_gamma   89.43292927
_symmetry_Int_Tables_number   1
_chemical_formula_structural   Tm4HgPd3Pb2
_chemical_formula_sum   'Tm4 Hg1 Pd3 Pb2'
_cell_volume   230.88645366
_cell_formula_units_Z   1
loop_
 _symmetry_equiv_pos_site_id
 _symmetry_equiv_pos_as_xyz
  1  'x, y, z'
loop_
 _atom_site_type_symbol
 _atom_site_label
 _atom_site_symmetry_multiplicity
 _atom_site_fract_x
 _atom_site_fract_y
 _atom_site_fract_z
 _atom_site_occupancy
  Tm  Tm0  1  0.328991  0.828991  0.500000  1
  Tm  Tm1  1  0.651573  0.151573  0.500000  1
  Tm  Tm2  1  0.190702  0.336750  0.500000  1
  Tm  Tm3  1  0.836750  0.690702  0.500000  1
  Hg  Hg4  1  0.874231  0.374231  0.000000  1
  Pd  Pd5  1  0.621794  0.870455  0.000000  1
  Pd  Pd6  1  0.370455  0.121794  0.000000  1
  Pd  Pd7  1  0.124580  0.624580  0.000000  1
  Pb  Pb8  1  0.496628  0.504296  0.000000  1
  Pb  Pb9  1  0.004296  0.996628  0.000000  1
