# generated using pymatgen
data_K2ZrFe(MoO4)4
_symmetry_space_group_name_H-M   'P 1'
_cell_length_a   9.42009509
_cell_length_b   9.42009509
_cell_length_c   10.19190016
_cell_angle_alpha   57.36305241
_cell_angle_beta   57.36305241
_cell_angle_gamma   36.36754505
_symmetry_Int_Tables_number   1
_chemical_formula_structural   K2ZrFe(MoO4)4
_chemical_formula_sum   'K2 Zr1 Fe1 Mo4 O16'
_cell_volume   441.50017297
_cell_formula_units_Z   1
loop_
 _symmetry_equiv_pos_site_id
 _symmetry_equiv_pos_as_xyz
  1  'x, y, z'
loop_
 _atom_site_type_symbol
 _atom_site_label
 _atom_site_symmetry_multiplicity
 _atom_site_fract_x
 _atom_site_fract_y
 _atom_site_fract_z
 _atom_site_occupancy
  K  K0  1  0.242758  0.242758  0.746344  1
  K  K1  1  0.757242  0.757242  0.253656  1
  Zr  Zr2  1  0.500000  0.500000  0.500000  1
  Fe  Fe3  1  0.000000  0.000000  0.000000  1
  Mo  Mo4  1  0.126888  0.126888  0.202923  1
  Mo  Mo5  1  0.624556  0.624556  0.712168  1
  Mo  Mo6  1  0.873112  0.873112  0.797077  1
  Mo  Mo7  1  0.375444  0.375444  0.287832  1
  O  O8  1  0.245130  0.245130  0.082013  1
  O  O9  1  0.743774  0.743774  0.596324  1
  O  O10  1  0.754870  0.754870  0.917987  1
  O  O11  1  0.256226  0.256226  0.403676  1
  O  O12  1  0.341809  0.832609  0.329089  1
  O  O13  1  0.837559  0.336256  0.832337  1
  O  O14  1  0.832609  0.341809  0.329089  1
  O  O15  1  0.336256  0.837559  0.832337  1
  O  O16  1  0.088460  0.088460  0.076353  1
  O  O17  1  0.585034  0.585034  0.577996  1
  O  O18  1  0.658191  0.167391  0.670911  1
  O  O19  1  0.162441  0.663744  0.167663  1
  O  O20  1  0.167391  0.658191  0.670911  1
  O  O21  1  0.663744  0.162441  0.167663  1
  O  O22  1  0.911540  0.911540  0.923647  1
  O  O23  1  0.414966  0.414966  0.422004  1
