# generated using pymatgen
data_Tb16Ni3Hg4Rh
_symmetry_space_group_name_H-M   'P 1'
_cell_length_a   9.60529409
_cell_length_b   9.60529449
_cell_length_c   9.60529345
_cell_angle_alpha   59.93313098
_cell_angle_beta   59.93313168
_cell_angle_gamma   59.93313124
_symmetry_Int_Tables_number   1
_chemical_formula_structural   Tb16Ni3Hg4Rh
_chemical_formula_sum   'Tb16 Ni3 Hg4 Rh1'
_cell_volume   625.68794656
_cell_formula_units_Z   1
loop_
 _symmetry_equiv_pos_site_id
 _symmetry_equiv_pos_as_xyz
  1  'x, y, z'
loop_
 _atom_site_type_symbol
 _atom_site_label
 _atom_site_symmetry_multiplicity
 _atom_site_fract_x
 _atom_site_fract_y
 _atom_site_fract_z
 _atom_site_occupancy
  Tb  Tb0  1  0.348228  0.348228  0.348228  1
  Tb  Tb1  1  0.352733  0.352733  0.947814  1
  Tb  Tb2  1  0.352733  0.947814  0.352733  1
  Tb  Tb3  1  0.947814  0.352733  0.352733  1
  Tb  Tb4  1  0.808782  0.189725  0.189725  1
  Tb  Tb5  1  0.188508  0.810897  0.810897  1
  Tb  Tb6  1  0.189725  0.808782  0.189725  1
  Tb  Tb7  1  0.810897  0.188508  0.810897  1
  Tb  Tb8  1  0.189725  0.189725  0.808782  1
  Tb  Tb9  1  0.810897  0.810897  0.188508  1
  Tb  Tb10  1  0.937349  0.564109  0.564109  1
  Tb  Tb11  1  0.561521  0.936898  0.936898  1
  Tb  Tb12  1  0.564109  0.937349  0.564109  1
  Tb  Tb13  1  0.936898  0.561521  0.936898  1
  Tb  Tb14  1  0.564109  0.564109  0.937349  1
  Tb  Tb15  1  0.936898  0.936898  0.561521  1
  Ni  Ni16  1  0.142594  0.142594  0.572641  1
  Ni  Ni17  1  0.142594  0.572641  0.142594  1
  Ni  Ni18  1  0.572641  0.142594  0.142594  1
  Hg  Hg19  1  0.584699  0.584699  0.584699  1
  Hg  Hg20  1  0.584588  0.584588  0.244196  1
  Hg  Hg21  1  0.584588  0.244196  0.584588  1
  Hg  Hg22  1  0.244196  0.584588  0.584588  1
  Rh  Rh23  1  0.143172  0.143172  0.143172  1
