# generated using pymatgen
data_TiZnB4Ru5
_symmetry_space_group_name_H-M   'P 1'
_cell_length_a   2.94458200
_cell_length_b   8.38633770
_cell_length_c   10.05196762
_cell_angle_alpha   91.55776189
_cell_angle_beta   90.00000000
_cell_angle_gamma   90.00000000
_symmetry_Int_Tables_number   1
_chemical_formula_structural   TiZnB4Ru5
_chemical_formula_sum   'Ti2 Zn2 B8 Ru10'
_cell_volume   248.13415471
_cell_formula_units_Z   2
loop_
 _symmetry_equiv_pos_site_id
 _symmetry_equiv_pos_as_xyz
  1  'x, y, z'
loop_
 _atom_site_type_symbol
 _atom_site_label
 _atom_site_symmetry_multiplicity
 _atom_site_fract_x
 _atom_site_fract_y
 _atom_site_fract_z
 _atom_site_occupancy
  Ti  Ti0  1  0.500000  0.651234  0.816060  1
  Ti  Ti1  1  0.500000  0.348766  0.183940  1
  Zn  Zn2  1  0.500000  0.147436  0.679542  1
  Zn  Zn3  1  0.500000  0.852564  0.320458  1
  B  B4  1  0.500000  0.853815  0.601737  1
  B  B5  1  0.500000  0.146185  0.398263  1
  B  B6  1  0.500000  0.348792  0.895764  1
  B  B7  1  0.500000  0.651208  0.104236  1
  B  B8  1  0.500000  0.960013  0.912286  1
  B  B9  1  0.500000  0.039987  0.087714  1
  B  B10  1  0.500000  0.460756  0.588508  1
  B  B11  1  0.500000  0.539244  0.411492  1
  Ru  Ru12  1  0.000000  0.394031  0.736400  1
  Ru  Ru13  1  0.000000  0.605969  0.263600  1
  Ru  Ru14  1  0.000000  0.897360  0.763633  1
  Ru  Ru15  1  0.000000  0.102640  0.236367  1
  Ru  Ru16  1  0.000000  0.000000  0.500000  1
  Ru  Ru17  1  0.000000  0.500000  0.000000  1
  Ru  Ru18  1  0.000000  0.656588  0.554797  1
  Ru  Ru19  1  0.000000  0.343412  0.445203  1
  Ru  Ru20  1  0.000000  0.161670  0.956085  1
  Ru  Ru21  1  0.000000  0.838330  0.043915  1
