# generated using pymatgen
data_Dy7Lu5In2FeTc2
_symmetry_space_group_name_H-M   'P 1'
_cell_length_a   8.35518602
_cell_length_b   8.34784583
_cell_length_c   8.35518658
_cell_angle_alpha   108.65182935
_cell_angle_beta   108.77521264
_cell_angle_gamma   111.03410605
_symmetry_Int_Tables_number   1
_chemical_formula_structural   Dy7Lu5In2FeTc2
_chemical_formula_sum   'Dy7 Lu5 In2 Fe1 Tc2'
_cell_volume   448.15723738
_cell_formula_units_Z   1
loop_
 _symmetry_equiv_pos_site_id
 _symmetry_equiv_pos_as_xyz
  1  'x, y, z'
loop_
 _atom_site_type_symbol
 _atom_site_label
 _atom_site_symmetry_multiplicity
 _atom_site_fract_x
 _atom_site_fract_y
 _atom_site_fract_z
 _atom_site_occupancy
  Dy  Dy0  1  0.302039  0.303365  0.608590  1
  Dy  Dy1  1  0.694561  0.694997  0.390204  1
  Dy  Dy2  1  0.694775  0.303365  0.001326  1
  Dy  Dy3  1  0.304792  0.694997  0.000435  1
  Dy  Dy4  1  0.190258  0.431178  0.240920  1
  Dy  Dy5  1  0.805813  0.568129  0.762317  1
  Dy  Dy6  1  0.191341  0.949630  0.758290  1
  Lu  Lu7  1  0.948889  0.188605  0.759506  1
  Lu  Lu8  1  0.806858  0.043022  0.236162  1
  Lu  Lu9  1  0.044421  0.809868  0.236415  1
  Lu  Lu10  1  0.429098  0.188605  0.239715  1
  Lu  Lu11  1  0.573454  0.809868  0.765448  1
  In  In12  1  0.996595  0.495715  0.499120  1
  In  In13  1  0.498520  0.998644  0.500124  1
  Fe  Fe14  1  0.630986  0.631660  0.000674  1
  Tc  Tc15  1  0.387404  0.387563  0.000158  1
  Tc  Tc16  1  0.000193  0.000788  0.000595  1
