# generated using pymatgen
data_Co4Mo12PdPt3N4
_symmetry_space_group_name_H-M   'P 1'
_cell_length_a   6.75965068
_cell_length_b   6.75659559
_cell_length_c   6.76962368
_cell_angle_alpha   89.87898159
_cell_angle_beta   90.03277374
_cell_angle_gamma   89.84310990
_symmetry_Int_Tables_number   1
_chemical_formula_structural   Co4Mo12PdPt3N4
_chemical_formula_sum   'Co4 Mo12 Pd1 Pt3 N4'
_cell_volume   309.18188201
_cell_formula_units_Z   1
loop_
 _symmetry_equiv_pos_site_id
 _symmetry_equiv_pos_as_xyz
  1  'x, y, z'
loop_
 _atom_site_type_symbol
 _atom_site_label
 _atom_site_symmetry_multiplicity
 _atom_site_fract_x
 _atom_site_fract_y
 _atom_site_fract_z
 _atom_site_occupancy
  Co  Co0  1  0.197674  0.182667  0.178911  1
  Co  Co1  1  0.315221  0.821543  0.696307  1
  Co  Co2  1  0.430117  0.054142  0.941003  1
  Co  Co3  1  0.810580  0.692678  0.309696  1
  Mo  Mo4  1  0.620896  0.712658  0.956741  1
  Mo  Mo5  1  0.455305  0.878607  0.295253  1
  Mo  Mo6  1  0.698618  0.947596  0.624645  1
  Mo  Mo7  1  0.537540  0.368002  0.202923  1
  Mo  Mo8  1  0.371192  0.193504  0.548825  1
  Mo  Mo9  1  0.193500  0.540014  0.372465  1
  Mo  Mo10  1  0.875563  0.303441  0.452991  1
  Mo  Mo11  1  0.057506  0.123242  0.804539  1
  Mo  Mo12  1  0.299288  0.452921  0.873008  1
  Mo  Mo13  1  0.132686  0.806352  0.040785  1
  Mo  Mo14  1  0.796564  0.044083  0.125709  1
  Mo  Mo15  1  0.960262  0.629821  0.695741  1
  Pd  Pd16  1  0.679573  0.303336  0.816348  1
  Pt  Pt17  1  0.558403  0.570895  0.557243  1
  Pt  Pt18  1  0.066839  0.935798  0.433948  1
  Pt  Pt19  1  0.942091  0.439183  0.070187  1
  N  N20  1  0.373585  0.623288  0.125658  1
  N  N21  1  0.876639  0.877163  0.873495  1
  N  N22  1  0.123942  0.373381  0.624962  1
  N  N23  1  0.626416  0.125688  0.378618  1
