# generated using pymatgen
data_OsRuI26
_symmetry_space_group_name_H-M   'P 1'
_cell_length_a   12.23432451
_cell_length_b   10.86715193
_cell_length_c   14.71081737
_cell_angle_alpha   116.74119222
_cell_angle_beta   90.63449993
_cell_angle_gamma   106.26604924
_symmetry_Int_Tables_number   1
_chemical_formula_structural   OsRuI26
_chemical_formula_sum   'Os1 Ru1 I26'
_cell_volume   1655.15787394
_cell_formula_units_Z   1
loop_
 _symmetry_equiv_pos_site_id
 _symmetry_equiv_pos_as_xyz
  1  'x, y, z'
loop_
 _atom_site_type_symbol
 _atom_site_label
 _atom_site_symmetry_multiplicity
 _atom_site_fract_x
 _atom_site_fract_y
 _atom_site_fract_z
 _atom_site_occupancy
  Os  Os0  1  0.662044  0.121812  0.070186  1
  Ru  Ru1  1  0.335297  0.877322  0.928317  1
  I  I2  1  0.366293  0.665363  0.963895  1
  I  I3  1  0.630995  0.331209  0.033455  1
  I  I4  1  0.571471  0.810791  0.394752  1
  I  I5  1  0.430102  0.192641  0.611702  1
  I  I6  1  0.722110  0.681886  0.996603  1
  I  I7  1  0.276933  0.318235  0.002256  1
  I  I8  1  0.689640  0.946307  0.141279  1
  I  I9  1  0.303747  0.052340  0.856876  1
  I  I10  1  0.443694  0.086756  0.118303  1
  I  I11  1  0.553787  0.911605  0.881517  1
  I  I12  1  0.237469  0.673154  0.728188  1
  I  I13  1  0.764042  0.329112  0.268146  1
  I  I14  1  0.128229  0.837203  0.985426  1
  I  I15  1  0.870135  0.157881  0.013773  1
  I  I16  1  0.106273  0.070049  0.197701  1
  I  I17  1  0.895154  0.921970  0.802883  1
  I  I18  1  0.272539  0.911364  0.461913  1
  I  I19  1  0.730060  0.092619  0.541731  1
  I  I20  1  0.330568  0.431074  0.665460  1
  I  I21  1  0.671172  0.571746  0.334480  1
  I  I22  1  0.866859  0.391328  0.696407  1
  I  I23  1  0.134645  0.615915  0.304767  1
  I  I24  1  0.946859  0.729173  0.616029  1
  I  I25  1  0.056551  0.267194  0.383823  1
  I  I26  1  0.248233  0.639717  0.131341  1
  I  I27  1  0.755099  0.364236  0.868791  1
