# generated using pymatgen
data_Er4CrOs7
_symmetry_space_group_name_H-M   'P 1'
_cell_length_a   5.22264758
_cell_length_b   5.22264835
_cell_length_c   8.79147300
_cell_angle_alpha   90.00000000
_cell_angle_beta   90.00000000
_cell_angle_gamma   117.62616150
_symmetry_Int_Tables_number   1
_chemical_formula_structural   Er4CrOs7
_chemical_formula_sum   'Er4 Cr1 Os7'
_cell_volume   212.45792008
_cell_formula_units_Z   1
loop_
 _symmetry_equiv_pos_site_id
 _symmetry_equiv_pos_as_xyz
  1  'x, y, z'
loop_
 _atom_site_type_symbol
 _atom_site_label
 _atom_site_symmetry_multiplicity
 _atom_site_fract_x
 _atom_site_fract_y
 _atom_site_fract_z
 _atom_site_occupancy
  Er  Er0  1  0.331513  0.668487  0.434822  1
  Er  Er1  1  0.667926  0.332074  0.564318  1
  Er  Er2  1  0.667926  0.332074  0.935682  1
  Er  Er3  1  0.331513  0.668487  0.065178  1
  Cr  Cr4  1  0.830817  0.169183  0.250000  1
  Os  Os5  1  0.994832  0.005168  0.496325  1
  Os  Os6  1  0.994832  0.005168  0.003675  1
  Os  Os7  1  0.827452  0.649716  0.250000  1
  Os  Os8  1  0.350284  0.172548  0.250000  1
  Os  Os9  1  0.172307  0.827693  0.750000  1
  Os  Os10  1  0.173005  0.342405  0.750000  1
  Os  Os11  1  0.657595  0.826995  0.750000  1
