# generated using pymatgen
data_Re6Se7I4
_symmetry_space_group_name_H-M   'P 1'
_cell_length_a   12.55172329
_cell_length_b   12.55172340
_cell_length_c   12.55172327
_cell_angle_alpha   49.40396488
_cell_angle_beta   49.40396575
_cell_angle_gamma   49.40396040
_symmetry_Int_Tables_number   1
_chemical_formula_structural   Re6Se7I4
_chemical_formula_sum   'Re12 Se14 I8'
_cell_volume   1047.80830676
_cell_formula_units_Z   2
loop_
 _symmetry_equiv_pos_site_id
 _symmetry_equiv_pos_as_xyz
  1  'x, y, z'
loop_
 _atom_site_type_symbol
 _atom_site_label
 _atom_site_symmetry_multiplicity
 _atom_site_fract_x
 _atom_site_fract_y
 _atom_site_fract_z
 _atom_site_occupancy
  Re  Re0  1  0.519002  0.395009  0.686021  1
  Re  Re1  1  0.395009  0.686021  0.519002  1
  Re  Re2  1  0.686021  0.519002  0.395009  1
  Re  Re3  1  0.186021  0.895009  0.019002  1
  Re  Re4  1  0.895009  0.019002  0.186021  1
  Re  Re5  1  0.019002  0.186021  0.895009  1
  Re  Re6  1  0.482404  0.607004  0.313726  1
  Re  Re7  1  0.607004  0.313726  0.482404  1
  Re  Re8  1  0.313726  0.482404  0.607004  1
  Re  Re9  1  0.813726  0.107004  0.982404  1
  Re  Re10  1  0.107004  0.982404  0.813726  1
  Re  Re11  1  0.982404  0.813726  0.107004  1
  Se  Se12  1  0.796198  0.238037  0.558746  1
  Se  Se13  1  0.238037  0.558746  0.796198  1
  Se  Se14  1  0.558746  0.796198  0.238037  1
  Se  Se15  1  0.058746  0.738037  0.296198  1
  Se  Se16  1  0.738037  0.296198  0.058746  1
  Se  Se17  1  0.296198  0.058746  0.738037  1
  Se  Se18  1  0.204261  0.763954  0.440553  1
  Se  Se19  1  0.763954  0.440553  0.204261  1
  Se  Se20  1  0.440553  0.204261  0.763954  1
  Se  Se21  1  0.940553  0.263954  0.704261  1
  Se  Se22  1  0.263954  0.704261  0.940553  1
  Se  Se23  1  0.704261  0.940553  0.263954  1
  Se  Se24  1  0.594787  0.594787  0.594787  1
  Se  Se25  1  0.094787  0.094787  0.094787  1
  I  I26  1  0.973581  0.526037  0.253349  1
  I  I27  1  0.526037  0.253349  0.973581  1
  I  I28  1  0.253349  0.973581  0.526037  1
  I  I29  1  0.753349  0.026037  0.473581  1
  I  I30  1  0.026037  0.473581  0.753349  1
  I  I31  1  0.473581  0.753349  0.026037  1
  I  I32  1  0.397293  0.397293  0.397293  1
  I  I33  1  0.897293  0.897293  0.897293  1
