# generated using pymatgen
data_Y5Er7Th4(MgCo)4
_symmetry_space_group_name_H-M   'P 1'
_cell_length_a   9.62626472
_cell_length_b   9.60937342
_cell_length_c   9.60937405
_cell_angle_alpha   59.90951996
_cell_angle_beta   59.94184218
_cell_angle_gamma   59.94184425
_symmetry_Int_Tables_number   1
_chemical_formula_structural   Y5Er7Th4(MgCo)4
_chemical_formula_sum   'Y5 Er7 Th4 Mg4 Co4'
_cell_volume   627.55720586
_cell_formula_units_Z   1
loop_
 _symmetry_equiv_pos_site_id
 _symmetry_equiv_pos_as_xyz
  1  'x, y, z'
loop_
 _atom_site_type_symbol
 _atom_site_label
 _atom_site_symmetry_multiplicity
 _atom_site_fract_x
 _atom_site_fract_y
 _atom_site_fract_z
 _atom_site_occupancy
  Y  Y0  1  0.563539  0.936461  0.936461  1
  Y  Y1  1  0.564587  0.936196  0.563724  1
  Y  Y2  1  0.935493  0.563724  0.936196  1
  Y  Y3  1  0.564587  0.563724  0.936196  1
  Y  Y4  1  0.935493  0.936196  0.563724  1
  Er  Er5  1  0.813569  0.186431  0.186431  1
  Er  Er6  1  0.185258  0.814742  0.814742  1
  Er  Er7  1  0.185699  0.813602  0.186325  1
  Er  Er8  1  0.814374  0.186325  0.813602  1
  Er  Er9  1  0.185699  0.186325  0.813602  1
  Er  Er10  1  0.814374  0.813602  0.186325  1
  Er  Er11  1  0.936108  0.563892  0.563892  1
  Th  Th12  1  0.343631  0.344714  0.344714  1
  Th  Th13  1  0.344355  0.344723  0.966567  1
  Th  Th14  1  0.344355  0.966567  0.344723  1
  Th  Th15  1  0.966941  0.344714  0.344714  1
  Mg  Mg16  1  0.580503  0.579547  0.579547  1
  Mg  Mg17  1  0.580201  0.579287  0.260309  1
  Mg  Mg18  1  0.580201  0.260309  0.579287  1
  Mg  Mg19  1  0.260402  0.579547  0.579547  1
  Co  Co20  1  0.145209  0.144569  0.144569  1
  Co  Co21  1  0.144883  0.144832  0.565401  1
  Co  Co22  1  0.144883  0.565401  0.144832  1
  Co  Co23  1  0.565653  0.144569  0.144569  1
