# generated using pymatgen
data_LiNdAgPt3
_symmetry_space_group_name_H-M   'P 1'
_cell_length_a   5.23162479
_cell_length_b   5.23162343
_cell_length_c   5.23162396
_cell_angle_alpha   62.97582733
_cell_angle_beta   62.97583900
_cell_angle_gamma   62.97582234
_symmetry_Int_Tables_number   1
_chemical_formula_structural   LiNdAgPt3
_chemical_formula_sum   'Li1 Nd1 Ag1 Pt3'
_cell_volume   107.94021957
_cell_formula_units_Z   1
loop_
 _symmetry_equiv_pos_site_id
 _symmetry_equiv_pos_as_xyz
  1  'x, y, z'
loop_
 _atom_site_type_symbol
 _atom_site_label
 _atom_site_symmetry_multiplicity
 _atom_site_fract_x
 _atom_site_fract_y
 _atom_site_fract_z
 _atom_site_occupancy
  Li  Li0  1  0.622081  0.622081  0.622081  1
  Nd  Nd1  1  0.004374  0.004374  0.004374  1
  Ag  Ag2  1  0.253339  0.253339  0.253339  1
  Pt  Pt3  1  0.622599  0.622599  0.125006  1
  Pt  Pt4  1  0.622599  0.125006  0.622599  1
  Pt  Pt5  1  0.125006  0.622599  0.622599  1
