# generated using pymatgen
data_Er8MgInRuRh
_symmetry_space_group_name_H-M   'P 1'
_cell_length_a   9.57115059
_cell_length_b   9.58073183
_cell_length_c   9.58073150
_cell_angle_alpha   60.29234999
_cell_angle_beta   60.03307774
_cell_angle_gamma   60.03308001
_symmetry_Int_Tables_number   1
_chemical_formula_structural   Er8MgInRuRh
_chemical_formula_sum   'Er16 Mg2 In2 Ru2 Rh2'
_cell_volume   622.89492963
_cell_formula_units_Z   2
loop_
 _symmetry_equiv_pos_site_id
 _symmetry_equiv_pos_as_xyz
  1  'x, y, z'
loop_
 _atom_site_type_symbol
 _atom_site_label
 _atom_site_symmetry_multiplicity
 _atom_site_fract_x
 _atom_site_fract_y
 _atom_site_fract_z
 _atom_site_occupancy
  Er  Er0  1  0.186914  0.192541  0.810134  1
  Er  Er1  1  0.439307  0.060693  0.060693  1
  Er  Er2  1  0.438714  0.062594  0.435524  1
  Er  Er3  1  0.063168  0.435524  0.062594  1
  Er  Er4  1  0.653733  0.045653  0.646882  1
  Er  Er5  1  0.187142  0.812858  0.812858  1
  Er  Er6  1  0.063168  0.062594  0.435524  1
  Er  Er7  1  0.807761  0.192239  0.192239  1
  Er  Er8  1  0.810411  0.810134  0.192541  1
  Er  Er9  1  0.653733  0.646882  0.045653  1
  Er  Er10  1  0.654442  0.653719  0.653719  1
  Er  Er11  1  0.061580  0.438420  0.438420  1
  Er  Er12  1  0.038120  0.653719  0.653719  1
  Er  Er13  1  0.810411  0.192541  0.810134  1
  Er  Er14  1  0.438714  0.435524  0.062594  1
  Er  Er15  1  0.186914  0.810134  0.192541  1
  Mg  Mg16  1  0.423173  0.732507  0.421146  1
  Mg  Mg17  1  0.423173  0.421146  0.732507  1
  In  In18  1  0.747529  0.418000  0.418000  1
  In  In19  1  0.416471  0.418000  0.418000  1
  Ru  Ru20  1  0.859185  0.422939  0.858691  1
  Ru  Ru21  1  0.859185  0.858691  0.422939  1
  Rh  Rh22  1  0.421790  0.861473  0.861473  1
  Rh  Rh23  1  0.855262  0.861473  0.861473  1
