# generated using pymatgen
data_YbGdNi2(BN)2
_symmetry_space_group_name_H-M   'P 1'
_cell_length_a   3.50714500
_cell_length_b   3.50714500
_cell_length_c   7.52477600
_cell_angle_alpha   90.00077280
_cell_angle_beta   89.99922720
_cell_angle_gamma   90.00006535
_symmetry_Int_Tables_number   1
_chemical_formula_structural   YbGdNi2(BN)2
_chemical_formula_sum   'Yb1 Gd1 Ni2 B2 N2'
_cell_volume   92.55524181
_cell_formula_units_Z   1
loop_
 _symmetry_equiv_pos_site_id
 _symmetry_equiv_pos_as_xyz
  1  'x, y, z'
loop_
 _atom_site_type_symbol
 _atom_site_label
 _atom_site_symmetry_multiplicity
 _atom_site_fract_x
 _atom_site_fract_y
 _atom_site_fract_z
 _atom_site_occupancy
  Yb  Yb0  1  0.000000  0.500001  0.831180  1
  Gd  Gd1  1  0.500000  0.000001  0.161334  1
  Ni  Ni2  1  0.000001  0.000000  0.500776  1
  Ni  Ni3  1  0.500001  0.500000  0.500776  1
  B  B4  1  0.999999  0.500002  0.342363  1
  B  B5  1  0.500001  0.000000  0.663875  1
  N  N6  1  0.000002  0.499999  0.149896  1
  N  N7  1  0.500000  0.000001  0.849800  1
