# generated using pymatgen
data_Cs3Rb(Ga3Se5)4
_symmetry_space_group_name_H-M   'P 1'
_cell_length_a   13.65941486
_cell_length_b   7.66647798
_cell_length_c   11.20121699
_cell_angle_alpha   76.42169224
_cell_angle_beta   89.86777824
_cell_angle_gamma   90.06190970
_symmetry_Int_Tables_number   1
_chemical_formula_structural   Cs3Rb(Ga3Se5)4
_chemical_formula_sum   'Cs3 Rb1 Ga12 Se20'
_cell_volume   1140.19733606
_cell_formula_units_Z   1
loop_
 _symmetry_equiv_pos_site_id
 _symmetry_equiv_pos_as_xyz
  1  'x, y, z'
loop_
 _atom_site_type_symbol
 _atom_site_label
 _atom_site_symmetry_multiplicity
 _atom_site_fract_x
 _atom_site_fract_y
 _atom_site_fract_z
 _atom_site_occupancy
  Cs  Cs0  1  0.613994  0.835092  0.396643  1
  Cs  Cs1  1  0.113593  0.164640  0.103222  1
  Cs  Cs2  1  0.386239  0.164835  0.603443  1
  Rb  Rb3  1  0.882137  0.833841  0.892194  1
  Ga  Ga4  1  0.922317  0.797596  0.402499  1
  Ga  Ga5  1  0.578178  0.797442  0.901671  1
  Ga  Ga6  1  0.422361  0.202833  0.098046  1
  Ga  Ga7  1  0.398237  0.561717  0.805935  1
  Ga  Ga8  1  0.101742  0.561587  0.306044  1
  Ga  Ga9  1  0.337269  0.709227  0.124278  1
  Ga  Ga10  1  0.602623  0.439037  0.193542  1
  Ga  Ga11  1  0.077479  0.202082  0.598280  1
  Ga  Ga12  1  0.663132  0.290924  0.875952  1
  Ga  Ga13  1  0.898449  0.438471  0.694410  1
  Ga  Ga14  1  0.162355  0.709318  0.624484  1
  Ga  Ga15  1  0.837358  0.290674  0.376223  1
  Se  Se16  1  0.832833  0.720200  0.590835  1
  Se  Se17  1  0.104547  0.814214  0.410038  1
  Se  Se18  1  0.669660  0.719989  0.087523  1
  Se  Se19  1  0.395957  0.814501  0.909875  1
  Se  Se20  1  0.332438  0.280251  0.910797  1
  Se  Se21  1  0.663888  0.344100  0.400835  1
  Se  Se22  1  0.580115  0.574248  0.767144  1
  Se  Se23  1  0.604547  0.185932  0.090145  1
  Se  Se24  1  0.895205  0.185532  0.590798  1
  Se  Se25  1  0.636828  0.064936  0.759883  1
  Se  Se26  1  0.364590  0.934876  0.240316  1
  Se  Se27  1  0.167613  0.280266  0.410709  1
  Se  Se28  1  0.079969  0.424948  0.732900  1
  Se  Se29  1  0.920096  0.574825  0.267463  1
  Se  Se30  1  0.864651  0.064933  0.260236  1
  Se  Se31  1  0.132401  0.933130  0.741690  1
  Se  Se32  1  0.836543  0.344504  0.901647  1
  Se  Se33  1  0.335834  0.656913  0.599006  1
  Se  Se34  1  0.420795  0.426347  0.232455  1
  Se  Se35  1  0.164027  0.656039  0.098840  1
