# generated using pymatgen
data_Y15Ho(TmIr3)4
_symmetry_space_group_name_H-M   'P 1'
_cell_length_a   10.90319529
_cell_length_b   10.90448107
_cell_length_c   6.36233414
_cell_angle_alpha   90.00336415
_cell_angle_beta   89.97649272
_cell_angle_gamma   89.98771499
_symmetry_Int_Tables_number   1
_chemical_formula_structural   Y15Ho(TmIr3)4
_chemical_formula_sum   'Y15 Ho1 Tm4 Ir12'
_cell_volume   756.44127875
_cell_formula_units_Z   1
loop_
 _symmetry_equiv_pos_site_id
 _symmetry_equiv_pos_as_xyz
  1  'x, y, z'
loop_
 _atom_site_type_symbol
 _atom_site_label
 _atom_site_symmetry_multiplicity
 _atom_site_fract_x
 _atom_site_fract_y
 _atom_site_fract_z
 _atom_site_occupancy
  Y  Y0  1  0.290464  0.912474  0.877377  1
  Y  Y1  1  0.709445  0.087571  0.877521  1
  Y  Y2  1  0.709526  0.912347  0.377458  1
  Y  Y3  1  0.587646  0.790579  0.877494  1
  Y  Y4  1  0.587491  0.209493  0.377469  1
  Y  Y5  1  0.412288  0.790645  0.377510  1
  Y  Y6  1  0.412217  0.209439  0.877401  1
  Y  Y7  1  0.209505  0.412287  0.622520  1
  Y  Y8  1  0.209512  0.587658  0.122617  1
  Y  Y9  1  0.790494  0.412334  0.122518  1
  Y  Y10  1  0.790505  0.587653  0.622548  1
  Y  Y11  1  0.912354  0.709507  0.122580  1
  Y  Y12  1  0.912325  0.290495  0.622604  1
  Y  Y13  1  0.087649  0.709468  0.622488  1
  Y  Y14  1  0.087843  0.290267  0.122616  1
  Ho  Ho15  1  0.291161  0.087513  0.378062  1
  Tm  Tm16  1  0.000195  0.000093  0.499897  1
  Tm  Tm17  1  0.000012  0.000043  0.999961  1
  Tm  Tm18  1  0.499964  0.499977  0.000049  1
  Tm  Tm19  1  0.499997  0.499998  0.499967  1
  Ir  Ir20  1  0.848616  0.151411  0.249989  1
  Ir  Ir21  1  0.848635  0.848624  0.750043  1
  Ir  Ir22  1  0.151829  0.151215  0.748772  1
  Ir  Ir23  1  0.151694  0.849056  0.250250  1
  Ir  Ir24  1  0.651378  0.348580  0.750001  1
  Ir  Ir25  1  0.651380  0.651395  0.249978  1
  Ir  Ir26  1  0.348480  0.347971  0.250351  1
  Ir  Ir27  1  0.348587  0.651412  0.750011  1
  Ir  Ir28  1  0.499424  0.000244  0.123582  1
  Ir  Ir29  1  0.499364  0.000275  0.622210  1
  Ir  Ir30  1  0.000008  0.500006  0.877078  1
  Ir  Ir31  1  0.000011  0.499970  0.377078  1
