# generated using pymatgen
data_Ti2CrSi12Mo17
_symmetry_space_group_name_H-M   'P 1'
_cell_length_a   4.87442105
_cell_length_b   7.28043259
_cell_length_c   13.71878600
_cell_angle_alpha   90.00000000
_cell_angle_beta   90.00000000
_cell_angle_gamma   109.58044944
_symmetry_Int_Tables_number   1
_chemical_formula_structural   Ti2CrSi12Mo17
_chemical_formula_sum   'Ti2 Cr1 Si12 Mo17'
_cell_volume   458.69714486
_cell_formula_units_Z   1
loop_
 _symmetry_equiv_pos_site_id
 _symmetry_equiv_pos_as_xyz
  1  'x, y, z'
loop_
 _atom_site_type_symbol
 _atom_site_label
 _atom_site_symmetry_multiplicity
 _atom_site_fract_x
 _atom_site_fract_y
 _atom_site_fract_z
 _atom_site_occupancy
  Ti  Ti0  1  0.000172  0.500214  0.250000  1
  Ti  Ti1  1  0.498021  0.500368  0.750000  1
  Cr  Cr2  1  0.999426  0.499801  0.750000  1
  Si  Si3  1  0.249906  0.999748  0.999353  1
  Si  Si4  1  0.750036  0.999581  0.501357  1
  Si  Si5  1  0.750036  0.999581  0.998643  1
  Si  Si6  1  0.249906  0.999748  0.500647  1
  Si  Si7  1  0.749066  0.500093  0.083262  1
  Si  Si8  1  0.235071  0.499958  0.587732  1
  Si  Si9  1  0.749066  0.500093  0.416738  1
  Si  Si10  1  0.235071  0.499958  0.912268  1
  Si  Si11  1  0.418935  0.834110  0.250000  1
  Si  Si12  1  0.925293  0.823752  0.750000  1
  Si  Si13  1  0.085629  0.166691  0.250000  1
  Si  Si14  1  0.602856  0.176894  0.750000  1
  Mo  Mo15  1  0.927674  0.852205  0.349583  1
  Mo  Mo16  1  0.427692  0.853489  0.846515  1
  Mo  Mo17  1  0.577339  0.148304  0.149776  1
  Mo  Mo18  1  0.075201  0.146866  0.652872  1
  Mo  Mo19  1  0.148644  0.302218  0.072306  1
  Mo  Mo20  1  0.648027  0.302226  0.574560  1
  Mo  Mo21  1  0.348693  0.697209  0.427581  1
  Mo  Mo22  1  0.847556  0.697456  0.925499  1
  Mo  Mo23  1  0.348693  0.697209  0.072419  1
  Mo  Mo24  1  0.847556  0.697456  0.574501  1
  Mo  Mo25  1  0.148644  0.302218  0.427694  1
  Mo  Mo26  1  0.648027  0.302226  0.925440  1
  Mo  Mo27  1  0.577339  0.148304  0.350224  1
  Mo  Mo28  1  0.075201  0.146866  0.847128  1
  Mo  Mo29  1  0.927674  0.852205  0.150417  1
  Mo  Mo30  1  0.427692  0.853489  0.653485  1
  Mo  Mo31  1  0.499852  0.499467  0.250000  1
