# generated using pymatgen
data_Y12Fe4AgBi
_symmetry_space_group_name_H-M   'P 1'
_cell_length_a   8.44816338
_cell_length_b   8.44816362
_cell_length_c   8.44816230
_cell_angle_alpha   110.52006566
_cell_angle_beta   111.24683140
_cell_angle_gamma   106.68309995
_symmetry_Int_Tables_number   1
_chemical_formula_structural   Y12Fe4AgBi
_chemical_formula_sum   'Y12 Fe4 Ag1 Bi1'
_cell_volume   463.31821848
_cell_formula_units_Z   1
loop_
 _symmetry_equiv_pos_site_id
 _symmetry_equiv_pos_as_xyz
  1  'x, y, z'
loop_
 _atom_site_type_symbol
 _atom_site_label
 _atom_site_symmetry_multiplicity
 _atom_site_fract_x
 _atom_site_fract_y
 _atom_site_fract_z
 _atom_site_occupancy
  Y  Y0  1  0.289164  0.186885  0.476049  1
  Y  Y1  1  0.710836  0.813115  0.523951  1
  Y  Y2  1  0.289164  0.813115  0.102279  1
  Y  Y3  1  0.710836  0.186885  0.897721  1
  Y  Y4  1  0.611369  0.308688  0.302682  1
  Y  Y5  1  0.388631  0.691312  0.697318  1
  Y  Y6  1  0.006006  0.308688  0.697318  1
  Y  Y7  1  0.993994  0.691312  0.302682  1
  Y  Y8  1  0.217419  0.427312  0.209894  1
  Y  Y9  1  0.782581  0.572688  0.790106  1
  Y  Y10  1  0.217419  0.007525  0.790106  1
  Y  Y11  1  0.782581  0.992475  0.209894  1
  Fe  Fe12  1  0.000000  0.388608  0.388608  1
  Fe  Fe13  1  0.000000  0.611392  0.611392  1
  Fe  Fe14  1  0.394313  0.894313  0.500000  1
  Fe  Fe15  1  0.605687  0.105687  0.500000  1
  Ag  Ag16  1  0.000000  0.000000  0.000000  1
  Bi  Bi17  1  0.500000  0.500000  0.000000  1
