# generated using pymatgen
data_Ca9PrSi5Pb
_symmetry_space_group_name_H-M   'P 1'
_cell_length_a   7.71883585
_cell_length_b   7.71035498
_cell_length_c   9.28760646
_cell_angle_alpha   114.33384380
_cell_angle_beta   114.53788118
_cell_angle_gamma   90.16819786
_symmetry_Int_Tables_number   1
_chemical_formula_structural   Ca9PrSi5Pb
_chemical_formula_sum   'Ca9 Pr1 Si5 Pb1'
_cell_volume   447.94352602
_cell_formula_units_Z   1
loop_
 _symmetry_equiv_pos_site_id
 _symmetry_equiv_pos_as_xyz
  1  'x, y, z'
loop_
 _atom_site_type_symbol
 _atom_site_label
 _atom_site_symmetry_multiplicity
 _atom_site_fract_x
 _atom_site_fract_y
 _atom_site_fract_z
 _atom_site_occupancy
  Ca  Ca0  1  0.506290  0.512266  0.018483  1
  Ca  Ca1  1  0.996534  0.991121  0.987987  1
  Ca  Ca2  1  0.974408  0.823727  0.281064  1
  Ca  Ca3  1  0.305761  0.456176  0.280697  1
  Ca  Ca4  1  0.824506  0.306456  0.278951  1
  Ca  Ca5  1  0.453237  0.970750  0.277139  1
  Ca  Ca6  1  0.045338  0.192823  0.720322  1
  Ca  Ca7  1  0.674656  0.531468  0.720754  1
  Ca  Ca8  1  0.192775  0.674367  0.718791  1
  Pr  Pr9  1  0.531809  0.050389  0.723955  1
  Si  Si10  1  0.251540  0.245189  0.501882  1
  Si  Si11  1  0.612883  0.888043  0.998496  1
  Si  Si12  1  0.388613  0.114801  0.999952  1
  Si  Si13  1  0.881859  0.382032  0.992861  1
  Si  Si14  1  0.110851  0.611457  0.998981  1
  Pb  Pb15  1  0.748940  0.748935  0.499686  1
