# generated using pymatgen
data_HoTm4(In2Au)2
_symmetry_space_group_name_H-M   'P 1'
_cell_length_a   3.61184700
_cell_length_b   8.17754900
_cell_length_c   18.33275900
_cell_angle_alpha   90.00000000
_cell_angle_beta   90.00000000
_cell_angle_gamma   90.00000000
_symmetry_Int_Tables_number   1
_chemical_formula_structural   HoTm4(In2Au)2
_chemical_formula_sum   'Ho2 Tm8 In8 Au4'
_cell_volume   541.47739321
_cell_formula_units_Z   2
loop_
 _symmetry_equiv_pos_site_id
 _symmetry_equiv_pos_as_xyz
  1  'x, y, z'
loop_
 _atom_site_type_symbol
 _atom_site_label
 _atom_site_symmetry_multiplicity
 _atom_site_fract_x
 _atom_site_fract_y
 _atom_site_fract_z
 _atom_site_occupancy
  Ho  Ho0  1  0.000000  0.000000  0.000000  1
  Ho  Ho1  1  0.000000  0.500000  0.500000  1
  Tm  Tm2  1  0.000000  0.120826  0.419851  1
  Tm  Tm3  1  0.000000  0.879174  0.580149  1
  Tm  Tm4  1  0.000000  0.379174  0.919851  1
  Tm  Tm5  1  0.000000  0.620826  0.080149  1
  Tm  Tm6  1  0.000000  0.239599  0.217743  1
  Tm  Tm7  1  0.000000  0.760401  0.782257  1
  Tm  Tm8  1  0.000000  0.260401  0.717743  1
  Tm  Tm9  1  0.000000  0.739599  0.282257  1
  In  In10  1  0.500000  0.422444  0.353518  1
  In  In11  1  0.500000  0.577556  0.646482  1
  In  In12  1  0.500000  0.077556  0.853518  1
  In  In13  1  0.500000  0.922444  0.146482  1
  In  In14  1  0.500000  0.291722  0.065673  1
  In  In15  1  0.500000  0.708278  0.934327  1
  In  In16  1  0.500000  0.208278  0.565673  1
  In  In17  1  0.500000  0.791722  0.434327  1
  Au  Au18  1  0.500000  0.028521  0.303069  1
  Au  Au19  1  0.500000  0.971479  0.696931  1
  Au  Au20  1  0.500000  0.471479  0.803069  1
  Au  Au21  1  0.500000  0.528521  0.196931  1
