# generated using pymatgen
data_Be3Fe3C
_symmetry_space_group_name_H-M   'P 1'
_cell_length_a   6.96439576
_cell_length_b   6.96439609
_cell_length_c   6.96439600
_cell_angle_alpha   59.99999091
_cell_angle_beta   59.99998935
_cell_angle_gamma   59.99999172
_symmetry_Int_Tables_number   1
_chemical_formula_structural   Be3Fe3C
_chemical_formula_sum   'Be12 Fe12 C4'
_cell_volume   238.85551470
_cell_formula_units_Z   4
loop_
 _symmetry_equiv_pos_site_id
 _symmetry_equiv_pos_as_xyz
  1  'x, y, z'
loop_
 _atom_site_type_symbol
 _atom_site_label
 _atom_site_symmetry_multiplicity
 _atom_site_fract_x
 _atom_site_fract_y
 _atom_site_fract_z
 _atom_site_occupancy
  Be  Be0  1  0.625000  0.625000  0.125000  1
  Be  Be1  1  0.625000  0.125000  0.625000  1
  Be  Be2  1  0.125000  0.625000  0.625000  1
  Be  Be3  1  0.625000  0.625000  0.625000  1
  Be  Be4  1  0.416245  0.416245  0.751266  1
  Be  Be5  1  0.416245  0.751266  0.416245  1
  Be  Be6  1  0.751266  0.416245  0.416245  1
  Be  Be7  1  0.416245  0.416245  0.416245  1
  Be  Be8  1  0.833755  0.833755  0.498734  1
  Be  Be9  1  0.833755  0.498734  0.833755  1
  Be  Be10  1  0.498734  0.833755  0.833755  1
  Be  Be11  1  0.833755  0.833755  0.833755  1
  Fe  Fe12  1  0.045700  0.045700  0.454300  1
  Fe  Fe13  1  0.454300  0.045700  0.454300  1
  Fe  Fe14  1  0.045700  0.454300  0.454300  1
  Fe  Fe15  1  0.454300  0.454300  0.045700  1
  Fe  Fe16  1  0.045700  0.454300  0.045700  1
  Fe  Fe17  1  0.454300  0.045700  0.045700  1
  Fe  Fe18  1  0.204300  0.204300  0.795700  1
  Fe  Fe19  1  0.795700  0.204300  0.795700  1
  Fe  Fe20  1  0.204300  0.795700  0.795700  1
  Fe  Fe21  1  0.795700  0.795700  0.204300  1
  Fe  Fe22  1  0.204300  0.795700  0.204300  1
  Fe  Fe23  1  0.795700  0.204300  0.204300  1
  C  C24  1  0.125000  0.125000  0.625000  1
  C  C25  1  0.125000  0.625000  0.125000  1
  C  C26  1  0.625000  0.125000  0.125000  1
  C  C27  1  0.125000  0.125000  0.125000  1
