# generated using pymatgen
data_Nd3Be(PPd4)5
_symmetry_space_group_name_H-M   'P 1'
_cell_length_a   8.74776636
_cell_length_b   8.69729100
_cell_length_c   8.69729032
_cell_angle_alpha   60.38432879
_cell_angle_beta   59.80783444
_cell_angle_gamma   59.80783577
_symmetry_Int_Tables_number   1
_chemical_formula_structural   Nd3Be(PPd4)5
_chemical_formula_sum   'Nd3 Be1 P5 Pd20'
_cell_volume   467.86517082
_cell_formula_units_Z   1
loop_
 _symmetry_equiv_pos_site_id
 _symmetry_equiv_pos_as_xyz
  1  'x, y, z'
loop_
 _atom_site_type_symbol
 _atom_site_label
 _atom_site_symmetry_multiplicity
 _atom_site_fract_x
 _atom_site_fract_y
 _atom_site_fract_z
 _atom_site_occupancy
  Nd  Nd0  1  0.249768  0.250232  0.250232  1
  Nd  Nd1  1  0.749768  0.750232  0.750232  1
  Nd  Nd2  1  0.996111  0.003889  0.003889  1
  Be  Be3  1  0.731603  0.268397  0.268397  1
  P  P4  1  0.262711  0.737289  0.737289  1
  P  P5  1  0.265235  0.734765  0.263538  1
  P  P6  1  0.736462  0.263538  0.734765  1
  P  P7  1  0.265235  0.263538  0.734765  1
  P  P8  1  0.736462  0.734765  0.263538  1
  Pd  Pd9  1  0.388534  0.384213  0.384213  1
  Pd  Pd10  1  0.614299  0.613727  0.613727  1
  Pd  Pd11  1  0.386273  0.385701  0.841753  1
  Pd  Pd12  1  0.386273  0.841753  0.385701  1
  Pd  Pd13  1  0.615787  0.611466  0.156960  1
  Pd  Pd14  1  0.615787  0.156960  0.611466  1
  Pd  Pd15  1  0.843040  0.384213  0.384213  1
  Pd  Pd16  1  0.158247  0.613727  0.613727  1
  Pd  Pd17  1  0.345076  0.000827  0.000827  1
  Pd  Pd18  1  0.653270  0.000827  0.000827  1
  Pd  Pd19  1  0.999173  0.346730  0.654924  1
  Pd  Pd20  1  0.999173  0.654924  0.346730  1
  Pd  Pd21  1  0.996214  0.344381  0.003786  1
  Pd  Pd22  1  0.655619  0.003786  0.344381  1
  Pd  Pd23  1  0.001050  0.652025  0.998950  1
  Pd  Pd24  1  0.347975  0.998950  0.652025  1
  Pd  Pd25  1  0.996214  0.003786  0.344381  1
  Pd  Pd26  1  0.001050  0.998950  0.652025  1
  Pd  Pd27  1  0.655619  0.344381  0.003786  1
  Pd  Pd28  1  0.347975  0.652025  0.998950  1
