# generated using pymatgen
data_Tb13TmLu2(InRh)4
_symmetry_space_group_name_H-M   'P 1'
_cell_length_a   9.66518973
_cell_length_b   9.64907188
_cell_length_c   9.65331310
_cell_angle_alpha   60.07817867
_cell_angle_beta   59.99638991
_cell_angle_gamma   59.90129031
_symmetry_Int_Tables_number   1
_chemical_formula_structural   Tb13TmLu2(InRh)4
_chemical_formula_sum   'Tb13 Tm1 Lu2 In4 Rh4'
_cell_volume   636.46715923
_cell_formula_units_Z   1
loop_
 _symmetry_equiv_pos_site_id
 _symmetry_equiv_pos_as_xyz
  1  'x, y, z'
loop_
 _atom_site_type_symbol
 _atom_site_label
 _atom_site_symmetry_multiplicity
 _atom_site_fract_x
 _atom_site_fract_y
 _atom_site_fract_z
 _atom_site_occupancy
  Tb  Tb0  1  0.648458  0.050979  0.650919  1
  Tb  Tb1  1  0.061008  0.062268  0.439512  1
  Tb  Tb2  1  0.438823  0.436593  0.061633  1
  Tb  Tb3  1  0.650470  0.648926  0.651168  1
  Tb  Tb4  1  0.812461  0.188659  0.186161  1
  Tb  Tb5  1  0.187524  0.813992  0.811168  1
  Tb  Tb6  1  0.050161  0.648217  0.651068  1
  Tb  Tb7  1  0.438909  0.062257  0.060869  1
  Tb  Tb8  1  0.437686  0.061540  0.439126  1
  Tb  Tb9  1  0.062059  0.437041  0.062294  1
  Tb  Tb10  1  0.650632  0.650133  0.048456  1
  Tb  Tb11  1  0.188917  0.812389  0.187504  1
  Tb  Tb12  1  0.060746  0.436553  0.440329  1
  Tm  Tm13  1  0.810595  0.812198  0.188062  1
  Lu  Lu14  1  0.812796  0.188456  0.811696  1
  Lu  Lu15  1  0.187700  0.188797  0.810982  1
  In  In16  1  0.417404  0.417012  0.417328  1
  In  In17  1  0.417701  0.417202  0.747979  1
  In  In18  1  0.417613  0.748288  0.417162  1
  In  In19  1  0.748165  0.417394  0.417458  1
  Rh  Rh20  1  0.860377  0.423887  0.856220  1
  Rh  Rh21  1  0.856493  0.859896  0.859486  1
  Rh  Rh22  1  0.857359  0.856746  0.426316  1
  Rh  Rh23  1  0.425943  0.860580  0.857107  1
