# generated using pymatgen
data_Tb9Nd11(Bi2Os)4
_symmetry_space_group_name_H-M   'P 1'
_cell_length_a   8.20106800
_cell_length_b   9.20906500
_cell_length_c   12.77313800
_cell_angle_alpha   90.00000000
_cell_angle_beta   89.99927103
_cell_angle_gamma   90.00000000
_symmetry_Int_Tables_number   1
_chemical_formula_structural   Tb9Nd11(Bi2Os)4
_chemical_formula_sum   'Tb9 Nd11 Bi8 Os4'
_cell_volume   964.68062376
_cell_formula_units_Z   1
loop_
 _symmetry_equiv_pos_site_id
 _symmetry_equiv_pos_as_xyz
  1  'x, y, z'
loop_
 _atom_site_type_symbol
 _atom_site_label
 _atom_site_symmetry_multiplicity
 _atom_site_fract_x
 _atom_site_fract_y
 _atom_site_fract_z
 _atom_site_occupancy
  Tb  Tb0  1  0.562620  0.750000  0.003717  1
  Tb  Tb1  1  0.672060  0.040486  0.566868  1
  Tb  Tb2  1  0.328825  0.960212  0.433516  1
  Tb  Tb3  1  0.172235  0.959291  0.933489  1
  Tb  Tb4  1  0.328825  0.539788  0.433516  1
  Tb  Tb5  1  0.826759  0.039005  0.066248  1
  Tb  Tb6  1  0.672060  0.459514  0.566868  1
  Tb  Tb7  1  0.826759  0.460995  0.066248  1
  Tb  Tb8  1  0.172235  0.540709  0.933489  1
  Nd  Nd9  1  0.847414  0.750000  0.793105  1
  Nd  Nd10  1  0.153686  0.250000  0.207282  1
  Nd  Nd11  1  0.348507  0.250000  0.708738  1
  Nd  Nd12  1  0.653119  0.750000  0.290931  1
  Nd  Nd13  1  0.378047  0.750000  0.690840  1
  Nd  Nd14  1  0.621623  0.250000  0.308906  1
  Nd  Nd15  1  0.877634  0.250000  0.810063  1
  Nd  Nd16  1  0.121352  0.750000  0.189503  1
  Nd  Nd17  1  0.937036  0.750000  0.503846  1
  Nd  Nd18  1  0.061896  0.250000  0.496328  1
  Nd  Nd19  1  0.437846  0.250000  0.996153  1
  Bi  Bi20  1  0.568803  0.497258  0.830899  1
  Bi  Bi21  1  0.432075  0.507859  0.169535  1
  Bi  Bi22  1  0.069819  0.505576  0.672115  1
  Bi  Bi23  1  0.432075  0.992141  0.169535  1
  Bi  Bi24  1  0.930786  0.494694  0.327830  1
  Bi  Bi25  1  0.568803  0.002742  0.830899  1
  Bi  Bi26  1  0.930786  0.005306  0.327830  1
  Bi  Bi27  1  0.069819  0.994424  0.672115  1
  Os  Os28  1  0.571630  0.750000  0.507861  1
  Os  Os29  1  0.427370  0.250000  0.491897  1
  Os  Os30  1  0.072837  0.250000  0.991759  1
  Os  Os31  1  0.924657  0.750000  0.008072  1
