# generated using pymatgen
data_Hf6Pa2In4Pd3Pt5
_symmetry_space_group_name_H-M   'P 1'
_cell_length_a   7.52028570
_cell_length_b   7.52163068
_cell_length_c   7.04933784
_cell_angle_alpha   90.10081161
_cell_angle_beta   89.97750131
_cell_angle_gamma   91.82292256
_symmetry_Int_Tables_number   1
_chemical_formula_structural   Hf6Pa2In4Pd3Pt5
_chemical_formula_sum   'Hf6 Pa2 In4 Pd3 Pt5'
_cell_volume   398.54202824
_cell_formula_units_Z   1
loop_
 _symmetry_equiv_pos_site_id
 _symmetry_equiv_pos_as_xyz
  1  'x, y, z'
loop_
 _atom_site_type_symbol
 _atom_site_label
 _atom_site_symmetry_multiplicity
 _atom_site_fract_x
 _atom_site_fract_y
 _atom_site_fract_z
 _atom_site_occupancy
  Hf  Hf0  1  0.648160  0.351997  0.500657  1
  Hf  Hf1  1  0.353493  0.646381  0.498310  1
  Hf  Hf2  1  0.686739  0.313197  0.000160  1
  Hf  Hf3  1  0.315172  0.684627  0.003436  1
  Hf  Hf4  1  0.810531  0.813164  0.500632  1
  Hf  Hf5  1  0.186970  0.189284  0.496388  1
  Pa  Pa6  1  0.140744  0.142585  0.001660  1
  Pa  Pa7  1  0.857316  0.859301  0.999083  1
  In  In8  1  0.500760  0.998337  0.259175  1
  In  In9  1  0.496655  0.001474  0.741217  1
  In  In10  1  0.997757  0.501203  0.259112  1
  In  In11  1  0.002860  0.501477  0.741167  1
  Pd  Pd12  1  0.634101  0.633817  0.209401  1
  Pd  Pd13  1  0.365628  0.365861  0.790455  1
  Pd  Pd14  1  0.136677  0.863410  0.703613  1
  Pt  Pt15  1  0.370451  0.370432  0.215621  1
  Pt  Pt16  1  0.629551  0.629994  0.784215  1
  Pt  Pt17  1  0.865716  0.134271  0.707010  1
  Pt  Pt18  1  0.864046  0.135912  0.294292  1
  Pt  Pt19  1  0.136672  0.863276  0.294394  1
