# generated using pymatgen
data_Ta11NbCr4(Ga2C)4
_symmetry_space_group_name_H-M   'P 1'
_cell_length_a   8.26622656
_cell_length_b   8.27555528
_cell_length_c   8.26622578
_cell_angle_alpha   59.96266961
_cell_angle_beta   59.96598160
_cell_angle_gamma   59.96266661
_symmetry_Int_Tables_number   1
_chemical_formula_structural   Ta11NbCr4(Ga2C)4
_chemical_formula_sum   'Ta11 Nb1 Cr4 Ga8 C4'
_cell_volume   399.52114589
_cell_formula_units_Z   1
loop_
 _symmetry_equiv_pos_site_id
 _symmetry_equiv_pos_as_xyz
  1  'x, y, z'
loop_
 _atom_site_type_symbol
 _atom_site_label
 _atom_site_symmetry_multiplicity
 _atom_site_fract_x
 _atom_site_fract_y
 _atom_site_fract_z
 _atom_site_occupancy
  Ta  Ta0  1  0.304401  0.695476  0.695852  1
  Ta  Ta1  1  0.695852  0.304271  0.304401  1
  Ta  Ta2  1  0.304101  0.695899  0.304101  1
  Ta  Ta3  1  0.695852  0.695476  0.304401  1
  Ta  Ta4  1  0.304401  0.304271  0.695852  1
  Ta  Ta5  1  0.554061  0.553874  0.945945  1
  Ta  Ta6  1  0.945945  0.553874  0.554061  1
  Ta  Ta7  1  0.554061  0.946120  0.945945  1
  Ta  Ta8  1  0.945945  0.946120  0.554061  1
  Ta  Ta9  1  0.696158  0.303842  0.696158  1
  Ta  Ta10  1  0.945795  0.554205  0.945795  1
  Nb  Nb11  1  0.553506  0.946494  0.553506  1
  Cr  Cr12  1  0.125020  0.125092  0.125020  1
  Cr  Cr13  1  0.625134  0.125537  0.123793  1
  Cr  Cr14  1  0.125020  0.624868  0.125020  1
  Cr  Cr15  1  0.123793  0.125537  0.625134  1
  Ga  Ga16  1  0.913439  0.913089  0.913439  1
  Ga  Ga17  1  0.990075  0.336724  0.336475  1
  Ga  Ga18  1  0.336680  0.989905  0.336680  1
  Ga  Ga19  1  0.336475  0.336724  0.990075  1
  Ga  Ga20  1  0.913439  0.260034  0.913439  1
  Ga  Ga21  1  0.913411  0.913311  0.259968  1
  Ga  Ga22  1  0.259968  0.913311  0.913411  1
  Ga  Ga23  1  0.336680  0.336734  0.336680  1
  C  C24  1  0.625384  0.623285  0.625384  1
  C  C25  1  0.124958  0.624991  0.625061  1
  C  C26  1  0.625384  0.125946  0.625384  1
  C  C27  1  0.625061  0.624991  0.124958  1
