# generated using pymatgen
data_HfTi4Re17Tc7
_symmetry_space_group_name_H-M   'P 1'
_cell_length_a   8.38487088
_cell_length_b   8.38486981
_cell_length_c   8.37598607
_cell_angle_alpha   109.48417095
_cell_angle_beta   109.48417098
_cell_angle_gamma   109.55338853
_symmetry_Int_Tables_number   1
_chemical_formula_structural   HfTi4Re17Tc7
_chemical_formula_sum   'Hf1 Ti4 Re17 Tc7'
_cell_volume   452.71618638
_cell_formula_units_Z   1
loop_
 _symmetry_equiv_pos_site_id
 _symmetry_equiv_pos_as_xyz
  1  'x, y, z'
loop_
 _atom_site_type_symbol
 _atom_site_label
 _atom_site_symmetry_multiplicity
 _atom_site_fract_x
 _atom_site_fract_y
 _atom_site_fract_z
 _atom_site_occupancy
  Hf  Hf0  1  0.999592  0.999592  0.999806  1
  Ti  Ti1  1  0.627795  0.999561  0.999741  1
  Ti  Ti2  1  0.999561  0.627795  0.999741  1
  Ti  Ti3  1  0.000899  0.000899  0.629507  1
  Ti  Ti4  1  0.370396  0.370396  0.370870  1
  Re  Re5  1  0.000913  0.681654  0.400431  1
  Re  Re6  1  0.681654  0.000913  0.400431  1
  Re  Re7  1  0.599524  0.599524  0.280108  1
  Re  Re8  1  0.280739  0.600701  0.599965  1
  Re  Re9  1  0.600701  0.280739  0.599965  1
  Re  Re10  1  0.377178  0.194867  0.000678  1
  Re  Re11  1  0.181153  0.805971  0.805328  1
  Re  Re12  1  0.375867  0.000494  0.194485  1
  Re  Re13  1  0.194867  0.377178  0.000678  1
  Re  Re14  1  0.000494  0.375867  0.194485  1
  Re  Re15  1  0.805971  0.181153  0.805328  1
  Re  Re16  1  0.805828  0.805828  0.181828  1
  Re  Re17  1  0.000850  0.194273  0.377807  1
  Re  Re18  1  0.194273  0.000850  0.377807  1
  Re  Re19  1  0.622113  0.622113  0.815869  1
  Re  Re20  1  0.815914  0.622474  0.622065  1
  Re  Re21  1  0.622474  0.815914  0.622065  1
  Tc  Tc22  1  0.400547  0.682790  0.000345  1
  Tc  Tc23  1  0.718734  0.317679  0.317144  1
  Tc  Tc24  1  0.401599  0.001734  0.683432  1
  Tc  Tc25  1  0.682790  0.400547  0.000345  1
  Tc  Tc26  1  0.001734  0.401599  0.683432  1
  Tc  Tc27  1  0.317679  0.718734  0.317144  1
  Tc  Tc28  1  0.318162  0.318162  0.719177  1
