# generated using pymatgen
data_La17Nd3(Bi2Os)4
_symmetry_space_group_name_H-M   'P 1'
_cell_length_a   8.53022796
_cell_length_b   9.26505000
_cell_length_c   12.85337600
_cell_angle_alpha   90.00000000
_cell_angle_beta   89.63619587
_cell_angle_gamma   90.00000000
_symmetry_Int_Tables_number   1
_chemical_formula_structural   La17Nd3(Bi2Os)4
_chemical_formula_sum   'La17 Nd3 Bi8 Os4'
_cell_volume   1015.82024015
_cell_formula_units_Z   1
loop_
 _symmetry_equiv_pos_site_id
 _symmetry_equiv_pos_as_xyz
  1  'x, y, z'
loop_
 _atom_site_type_symbol
 _atom_site_label
 _atom_site_symmetry_multiplicity
 _atom_site_fract_x
 _atom_site_fract_y
 _atom_site_fract_z
 _atom_site_occupancy
  La  La0  1  0.843677  0.750000  0.796491  1
  La  La1  1  0.158565  0.250000  0.203897  1
  La  La2  1  0.344372  0.250000  0.706555  1
  La  La3  1  0.658315  0.750000  0.293072  1
  La  La4  1  0.375426  0.750000  0.696821  1
  La  La5  1  0.623197  0.250000  0.302992  1
  La  La6  1  0.875154  0.250000  0.805365  1
  La  La7  1  0.124135  0.750000  0.195144  1
  La  La8  1  0.939828  0.750000  0.503641  1
  La  La9  1  0.675658  0.038865  0.565561  1
  La  La10  1  0.323166  0.962245  0.433903  1
  La  La11  1  0.177186  0.963140  0.933550  1
  La  La12  1  0.323166  0.537755  0.433903  1
  La  La13  1  0.823063  0.037097  0.066636  1
  La  La14  1  0.675658  0.461135  0.565561  1
  La  La15  1  0.823063  0.462903  0.066636  1
  La  La16  1  0.177186  0.536860  0.933550  1
  Nd  Nd17  1  0.056947  0.250000  0.498264  1
  Nd  Nd18  1  0.446914  0.250000  0.998337  1
  Nd  Nd19  1  0.552924  0.750000  0.000689  1
  Bi  Bi20  1  0.571324  0.491386  0.829924  1
  Bi  Bi21  1  0.429646  0.509471  0.169601  1
  Bi  Bi22  1  0.071404  0.506576  0.671119  1
  Bi  Bi23  1  0.429646  0.990529  0.169601  1
  Bi  Bi24  1  0.929716  0.489681  0.329136  1
  Bi  Bi25  1  0.571324  0.008614  0.829924  1
  Bi  Bi26  1  0.929716  0.010319  0.329136  1
  Bi  Bi27  1  0.071404  0.993424  0.671119  1
  Os  Os28  1  0.580034  0.750000  0.513672  1
  Os  Os29  1  0.418461  0.250000  0.485840  1
  Os  Os30  1  0.085059  0.250000  0.985123  1
  Os  Os31  1  0.914663  0.750000  0.015234  1
