# generated using pymatgen
data_Lu20ZnBi11
_symmetry_space_group_name_H-M   'P 1'
_cell_length_a   8.08016772
_cell_length_b   9.36609100
_cell_length_c   11.75961379
_cell_angle_alpha   90.00000000
_cell_angle_beta   89.73392023
_cell_angle_gamma   90.00000000
_symmetry_Int_Tables_number   1
_chemical_formula_structural   Lu20ZnBi11
_chemical_formula_sum   'Lu20 Zn1 Bi11'
_cell_volume   889.95310860
_cell_formula_units_Z   1
loop_
 _symmetry_equiv_pos_site_id
 _symmetry_equiv_pos_as_xyz
  1  'x, y, z'
loop_
 _atom_site_type_symbol
 _atom_site_label
 _atom_site_symmetry_multiplicity
 _atom_site_fract_x
 _atom_site_fract_y
 _atom_site_fract_z
 _atom_site_occupancy
  Lu  Lu0  1  0.036765  0.250000  0.507829  1
  Lu  Lu1  1  0.981693  0.750000  0.490747  1
  Lu  Lu2  1  0.476280  0.750000  0.010140  1
  Lu  Lu3  1  0.525366  0.250000  0.989968  1
  Lu  Lu4  1  0.354874  0.250000  0.295646  1
  Lu  Lu5  1  0.649450  0.750000  0.717464  1
  Lu  Lu6  1  0.150381  0.750000  0.780835  1
  Lu  Lu7  1  0.852123  0.250000  0.216613  1
  Lu  Lu8  1  0.194510  0.250000  0.778429  1
  Lu  Lu9  1  0.807818  0.750000  0.216029  1
  Lu  Lu10  1  0.312276  0.750000  0.282538  1
  Lu  Lu11  1  0.674049  0.250000  0.708858  1
  Lu  Lu12  1  0.193577  0.067856  0.061380  1
  Lu  Lu13  1  0.806661  0.932765  0.940962  1
  Lu  Lu14  1  0.309550  0.952151  0.558195  1
  Lu  Lu15  1  0.806661  0.567235  0.940962  1
  Lu  Lu16  1  0.683436  0.073580  0.445999  1
  Lu  Lu17  1  0.193577  0.432144  0.061380  1
  Lu  Lu18  1  0.683436  0.426420  0.445999  1
  Lu  Lu19  1  0.309550  0.547849  0.558195  1
  Zn  Zn20  1  0.407035  0.250000  0.539033  1
  Bi  Bi21  1  0.596470  0.750000  0.457677  1
  Bi  Bi22  1  0.097025  0.750000  0.042813  1
  Bi  Bi23  1  0.905280  0.250000  0.953232  1
  Bi  Bi24  1  0.060023  0.001501  0.322699  1
  Bi  Bi25  1  0.936684  0.998557  0.676465  1
  Bi  Bi26  1  0.437046  0.996957  0.824523  1
  Bi  Bi27  1  0.936684  0.501443  0.676465  1
  Bi  Bi28  1  0.562325  0.003981  0.175852  1
  Bi  Bi29  1  0.060023  0.498499  0.322699  1
  Bi  Bi30  1  0.562325  0.496019  0.175852  1
  Bi  Bi31  1  0.437046  0.503043  0.824523  1
