# generated using pymatgen
data_Ho4Tm16Bi7Sb5
_symmetry_space_group_name_H-M   'P 1'
_cell_length_a   8.11143712
_cell_length_b   9.33359402
_cell_length_c   11.85389295
_cell_angle_alpha   90.05542355
_cell_angle_beta   89.91088083
_cell_angle_gamma   89.92671091
_symmetry_Int_Tables_number   1
_chemical_formula_structural   Ho4Tm16Bi7Sb5
_chemical_formula_sum   'Ho4 Tm16 Bi7 Sb5'
_cell_volume   897.44249174
_cell_formula_units_Z   1
loop_
 _symmetry_equiv_pos_site_id
 _symmetry_equiv_pos_as_xyz
  1  'x, y, z'
loop_
 _atom_site_type_symbol
 _atom_site_label
 _atom_site_symmetry_multiplicity
 _atom_site_fract_x
 _atom_site_fract_y
 _atom_site_fract_z
 _atom_site_occupancy
  Ho  Ho0  1  0.320124  0.246680  0.217979  1
  Ho  Ho1  1  0.813468  0.245380  0.283967  1
  Ho  Ho2  1  0.683044  0.750133  0.783254  1
  Ho  Ho3  1  0.182180  0.749893  0.716687  1
  Tm  Tm4  1  0.357604  0.754166  0.216061  1
  Tm  Tm5  1  0.848918  0.753493  0.286142  1
  Tm  Tm6  1  0.647212  0.250203  0.785174  1
  Tm  Tm7  1  0.146445  0.249971  0.714625  1
  Tm  Tm8  1  0.688168  0.565407  0.058803  1
  Tm  Tm9  1  0.190631  0.936218  0.440423  1
  Tm  Tm10  1  0.311576  0.064631  0.941354  1
  Tm  Tm11  1  0.811085  0.434616  0.558094  1
  Tm  Tm12  1  0.311856  0.435130  0.941518  1
  Tm  Tm13  1  0.810418  0.064176  0.556396  1
  Tm  Tm14  1  0.686240  0.935507  0.061574  1
  Tm  Tm15  1  0.189395  0.564967  0.440813  1
  Tm  Tm16  1  0.474778  0.247288  0.486869  1
  Tm  Tm17  1  0.973182  0.249991  0.011799  1
  Tm  Tm18  1  0.527661  0.752651  0.509394  1
  Tm  Tm19  1  0.025477  0.750295  0.988610  1
  Bi  Bi20  1  0.066056  0.504590  0.175065  1
  Bi  Bi21  1  0.434517  0.495621  0.672990  1
  Bi  Bi22  1  0.933873  0.004528  0.825371  1
  Bi  Bi23  1  0.434004  0.004493  0.674641  1
  Bi  Bi24  1  0.934190  0.495422  0.825542  1
  Bi  Bi25  1  0.565735  0.504237  0.325510  1
  Bi  Bi26  1  0.066275  0.995420  0.174084  1
  Sb  Sb27  1  0.404574  0.749995  0.959587  1
  Sb  Sb28  1  0.906098  0.749717  0.540754  1
  Sb  Sb29  1  0.595157  0.250151  0.040651  1
  Sb  Sb30  1  0.094767  0.250135  0.458895  1
  Sb  Sb31  1  0.565293  0.994896  0.327374  1
