# generated using pymatgen
data_Dy3Er5(FeB6)4
_symmetry_space_group_name_H-M   'P 1'
_cell_length_a   3.53882500
_cell_length_b   9.06618200
_cell_length_c   11.43324700
_cell_angle_alpha   90.00049985
_cell_angle_beta   90.00000000
_cell_angle_gamma   90.00000000
_symmetry_Int_Tables_number   1
_chemical_formula_structural   Dy3Er5(FeB6)4
_chemical_formula_sum   'Dy3 Er5 Fe4 B24'
_cell_volume   366.82008399
_cell_formula_units_Z   1
loop_
 _symmetry_equiv_pos_site_id
 _symmetry_equiv_pos_as_xyz
  1  'x, y, z'
loop_
 _atom_site_type_symbol
 _atom_site_label
 _atom_site_symmetry_multiplicity
 _atom_site_fract_x
 _atom_site_fract_y
 _atom_site_fract_z
 _atom_site_occupancy
  Dy  Dy0  1  0.000000  0.324091  0.414316  1
  Dy  Dy1  1  0.000000  0.675830  0.585725  1
  Dy  Dy2  1  0.000000  0.824284  0.085524  1
  Er  Er3  1  0.000000  0.175960  0.914599  1
  Er  Er4  1  0.000000  0.943115  0.370577  1
  Er  Er5  1  0.000000  0.056777  0.629658  1
  Er  Er6  1  0.000000  0.443083  0.129215  1
  Er  Er7  1  0.000000  0.556553  0.870589  1
  Fe  Fe8  1  0.000000  0.639084  0.319569  1
  Fe  Fe9  1  0.000000  0.361420  0.680086  1
  Fe  Fe10  1  0.000000  0.138297  0.179570  1
  Fe  Fe11  1  0.000000  0.861911  0.820552  1
  B  B12  1  0.500000  0.554561  0.431552  1
  B  B13  1  0.500000  0.445325  0.568440  1
  B  B14  1  0.500000  0.054718  0.067872  1
  B  B15  1  0.500000  0.946044  0.931840  1
  B  B16  1  0.500000  0.746906  0.418185  1
  B  B17  1  0.500000  0.253006  0.581957  1
  B  B18  1  0.500000  0.246710  0.081169  1
  B  B19  1  0.500000  0.753309  0.918328  1
  B  B20  1  0.500000  0.789610  0.266290  1
  B  B21  1  0.500000  0.210075  0.734054  1
  B  B22  1  0.500000  0.289431  0.233295  1
  B  B23  1  0.500000  0.710543  0.766609  1
  B  B24  1  0.500000  0.632074  0.185555  1
  B  B25  1  0.500000  0.367392  0.814606  1
  B  B26  1  0.500000  0.132118  0.314238  1
  B  B27  1  0.500000  0.868070  0.685960  1
  B  B28  1  0.500000  0.986265  0.211824  1
  B  B29  1  0.500000  0.014526  0.788356  1
  B  B30  1  0.500000  0.486098  0.287834  1
  B  B31  1  0.500000  0.513660  0.712179  1
  B  B32  1  0.500000  0.608550  0.029618  1
  B  B33  1  0.500000  0.390569  0.970087  1
  B  B34  1  0.500000  0.108105  0.470520  1
  B  B35  1  0.500000  0.891928  0.529649  1
