# generated using pymatgen
data_Hf6Ga6IrPtRh4
_symmetry_space_group_name_H-M   'P 1'
_cell_length_a   7.18588600
_cell_length_b   7.18588442
_cell_length_c   6.88000500
_cell_angle_alpha   90.00000000
_cell_angle_beta   90.00000000
_cell_angle_gamma   120.00000727
_symmetry_Int_Tables_number   1
_chemical_formula_structural   Hf6Ga6IrPtRh4
_chemical_formula_sum   'Hf6 Ga6 Ir1 Pt1 Rh4'
_cell_volume   307.66628276
_cell_formula_units_Z   1
loop_
 _symmetry_equiv_pos_site_id
 _symmetry_equiv_pos_as_xyz
  1  'x, y, z'
loop_
 _atom_site_type_symbol
 _atom_site_label
 _atom_site_symmetry_multiplicity
 _atom_site_fract_x
 _atom_site_fract_y
 _atom_site_fract_z
 _atom_site_occupancy
  Hf  Hf0  1  0.402284  0.392067  0.248851  1
  Hf  Hf1  1  0.602270  0.998320  0.751409  1
  Hf  Hf2  1  0.396050  0.397730  0.751409  1
  Hf  Hf3  1  0.001680  0.603950  0.751409  1
  Hf  Hf4  1  0.989784  0.597716  0.248851  1
  Hf  Hf5  1  0.607933  0.010216  0.248851  1
  Ga  Ga6  1  0.274026  0.998111  0.999996  1
  Ga  Ga7  1  0.259994  0.002151  0.499964  1
  Ga  Ga8  1  0.997849  0.257844  0.499964  1
  Ga  Ga9  1  0.001889  0.275915  0.999996  1
  Ga  Ga10  1  0.724085  0.725974  0.999996  1
  Ga  Ga11  1  0.742156  0.740006  0.499964  1
  Ir  Ir12  1  0.666667  0.333333  0.507880  1
  Pt  Pt13  1  0.333333  0.666667  0.491734  1
  Rh  Rh14  1  0.000000  0.000000  0.766712  1
  Rh  Rh15  1  0.666667  0.333333  0.991492  1
  Rh  Rh16  1  0.333333  0.666667  0.008426  1
  Rh  Rh17  1  0.000000  0.000000  0.233094  1
