# generated using pymatgen
data_Nd6NbCo16P12W
_symmetry_space_group_name_H-M   'P 1'
_cell_length_a   3.78511800
_cell_length_b   10.75363600
_cell_length_c   12.49238800
_cell_angle_alpha   90.00000000
_cell_angle_beta   90.00000000
_cell_angle_gamma   90.00000000
_symmetry_Int_Tables_number   1
_chemical_formula_structural   Nd6NbCo16P12W
_chemical_formula_sum   'Nd6 Nb1 Co16 P12 W1'
_cell_volume   508.48742768
_cell_formula_units_Z   1
loop_
 _symmetry_equiv_pos_site_id
 _symmetry_equiv_pos_as_xyz
  1  'x, y, z'
loop_
 _atom_site_type_symbol
 _atom_site_label
 _atom_site_symmetry_multiplicity
 _atom_site_fract_x
 _atom_site_fract_y
 _atom_site_fract_z
 _atom_site_occupancy
  Nd  Nd0  1  0.000000  0.500000  0.524121  1
  Nd  Nd1  1  0.500000  0.000000  0.473916  1
  Nd  Nd2  1  0.500000  0.819020  0.205223  1
  Nd  Nd3  1  0.500000  0.180980  0.205223  1
  Nd  Nd4  1  0.000000  0.680199  0.794576  1
  Nd  Nd5  1  0.000000  0.319801  0.794576  1
  Nb  Nb6  1  0.000000  0.000000  0.846613  1
  Co  Co7  1  0.500000  0.500000  0.702915  1
  Co  Co8  1  0.000000  0.000000  0.296787  1
  Co  Co9  1  0.000000  0.500000  0.989074  1
  Co  Co10  1  0.500000  0.000000  0.013421  1
  Co  Co11  1  0.500000  0.334529  0.993590  1
  Co  Co12  1  0.500000  0.665471  0.993590  1
  Co  Co13  1  0.000000  0.169280  0.008866  1
  Co  Co14  1  0.000000  0.830720  0.008866  1
  Co  Co15  1  0.500000  0.296141  0.430889  1
  Co  Co16  1  0.500000  0.703859  0.430889  1
  Co  Co17  1  0.000000  0.204715  0.567907  1
  Co  Co18  1  0.000000  0.795285  0.567907  1
  Co  Co19  1  0.500000  0.879578  0.705853  1
  Co  Co20  1  0.500000  0.120422  0.705853  1
  Co  Co21  1  0.000000  0.619064  0.291396  1
  Co  Co22  1  0.000000  0.380936  0.291396  1
  P  P23  1  0.500000  0.500000  0.885454  1
  P  P24  1  0.000000  0.000000  0.114259  1
  P  P25  1  0.500000  0.500000  0.345930  1
  P  P26  1  0.000000  0.000000  0.649164  1
  P  P27  1  0.500000  0.307177  0.613589  1
  P  P28  1  0.500000  0.692823  0.613589  1
  P  P29  1  0.000000  0.193977  0.385348  1
  P  P30  1  0.000000  0.806023  0.385348  1
  P  P31  1  0.500000  0.842418  0.897932  1
  P  P32  1  0.500000  0.157582  0.897932  1
  P  P33  1  0.000000  0.653085  0.106323  1
  P  P34  1  0.000000  0.346915  0.106323  1
  W  W35  1  0.500000  0.500000  0.155363  1
