# generated using pymatgen
data_HfZr8(CuP2)2
_symmetry_space_group_name_H-M   'P 1'
_cell_length_a   12.12631300
_cell_length_b   12.12651400
_cell_length_c   3.69467900
_cell_angle_alpha   90.00000000
_cell_angle_beta   90.00000000
_cell_angle_gamma   90.00000000
_symmetry_Int_Tables_number   1
_chemical_formula_structural   HfZr8(CuP2)2
_chemical_formula_sum   'Hf2 Zr16 Cu4 P8'
_cell_volume   543.30219360
_cell_formula_units_Z   2
loop_
 _symmetry_equiv_pos_site_id
 _symmetry_equiv_pos_as_xyz
  1  'x, y, z'
loop_
 _atom_site_type_symbol
 _atom_site_label
 _atom_site_symmetry_multiplicity
 _atom_site_fract_x
 _atom_site_fract_y
 _atom_site_fract_z
 _atom_site_occupancy
  Hf  Hf0  1  0.095776  0.404269  0.000000  1
  Hf  Hf1  1  0.404224  0.904269  0.000000  1
  Zr  Zr2  1  0.000039  0.000168  0.000000  1
  Zr  Zr3  1  0.499961  0.500168  0.000000  1
  Zr  Zr4  1  0.100685  0.180206  0.500000  1
  Zr  Zr5  1  0.180297  0.899205  0.500000  1
  Zr  Zr6  1  0.820199  0.100636  0.500000  1
  Zr  Zr7  1  0.899320  0.820115  0.500000  1
  Zr  Zr8  1  0.399315  0.680206  0.500000  1
  Zr  Zr9  1  0.600680  0.320115  0.500000  1
  Zr  Zr10  1  0.679801  0.600636  0.500000  1
  Zr  Zr11  1  0.319703  0.399205  0.500000  1
  Zr  Zr12  1  0.595353  0.095397  0.000000  1
  Zr  Zr13  1  0.904647  0.595397  0.000000  1
  Zr  Zr14  1  0.382367  0.116715  0.500000  1
  Zr  Zr15  1  0.117633  0.616715  0.500000  1
  Zr  Zr16  1  0.883391  0.382458  0.500000  1
  Zr  Zr17  1  0.616609  0.882458  0.500000  1
  Cu  Cu18  1  0.254377  0.245535  0.000000  1
  Cu  Cu19  1  0.245623  0.745535  0.000000  1
  Cu  Cu20  1  0.755050  0.254985  0.000000  1
  Cu  Cu21  1  0.744950  0.754985  0.000000  1
  P  P22  1  0.225455  0.053879  0.000000  1
  P  P23  1  0.054403  0.775056  0.000000  1
  P  P24  1  0.946369  0.225532  0.000000  1
  P  P25  1  0.774977  0.945844  0.000000  1
  P  P26  1  0.274545  0.553879  0.000000  1
  P  P27  1  0.725023  0.445844  0.000000  1
  P  P28  1  0.553631  0.725532  0.000000  1
  P  P29  1  0.445597  0.275056  0.000000  1
