# generated using pymatgen
data_Ce2Al20IrRu2Rh
_symmetry_space_group_name_H-M   'P 1'
_cell_length_a   6.87405418
_cell_length_b   6.87222344
_cell_length_c   9.17803008
_cell_angle_alpha   90.14223254
_cell_angle_beta   90.23330247
_cell_angle_gamma   97.39325023
_symmetry_Int_Tables_number   1
_chemical_formula_structural   Ce2Al20IrRu2Rh
_chemical_formula_sum   'Ce2 Al20 Ir1 Ru2 Rh1'
_cell_volume   429.96037082
_cell_formula_units_Z   1
loop_
 _symmetry_equiv_pos_site_id
 _symmetry_equiv_pos_as_xyz
  1  'x, y, z'
loop_
 _atom_site_type_symbol
 _atom_site_label
 _atom_site_symmetry_multiplicity
 _atom_site_fract_x
 _atom_site_fract_y
 _atom_site_fract_z
 _atom_site_occupancy
  Ce  Ce0  1  0.878001  0.123573  0.749837  1
  Ce  Ce1  1  0.121999  0.876427  0.250163  1
  Al  Al2  1  0.590632  0.859127  0.250338  1
  Al  Al3  1  0.776258  0.518659  0.247962  1
  Al  Al4  1  0.157375  0.840956  0.897278  1
  Al  Al5  1  0.409368  0.140873  0.749662  1
  Al  Al6  1  0.623572  0.378606  0.948733  1
  Al  Al7  1  0.840967  0.156426  0.397332  1
  Al  Al8  1  0.777189  0.776540  0.000746  1
  Al  Al9  1  0.859313  0.592254  0.750881  1
  Al  Al10  1  0.842625  0.159044  0.102722  1
  Al  Al11  1  0.223742  0.481341  0.752038  1
  Al  Al12  1  0.159033  0.843574  0.602668  1
  Al  Al13  1  0.776733  0.778877  0.500676  1
  Al  Al14  1  0.480732  0.224000  0.252689  1
  Al  Al15  1  0.621297  0.376261  0.550575  1
  Al  Al16  1  0.223267  0.221123  0.499324  1
  Al  Al17  1  0.378703  0.623739  0.449425  1
  Al  Al18  1  0.140687  0.407746  0.249119  1
  Al  Al19  1  0.519268  0.776000  0.747311  1
  Al  Al20  1  0.376428  0.621394  0.051267  1
  Al  Al21  1  0.222811  0.223460  0.999254  1
  Ir  Ir22  1  0.000000  0.500000  0.500000  1
  Ru  Ru23  1  0.500000  0.000000  0.500000  1
  Ru  Ru24  1  0.000000  0.500000  0.000000  1
  Rh  Rh25  1  0.500000  0.000000  0.000000  1
