# generated using pymatgen
data_PaSnBr6
_symmetry_space_group_name_H-M   'P 1'
_cell_length_a   7.49851700
_cell_length_b   7.49851793
_cell_length_c   22.84598100
_cell_angle_alpha   90.00000000
_cell_angle_beta   90.00000000
_cell_angle_gamma   120.00000030
_symmetry_Int_Tables_number   1
_chemical_formula_structural   PaSnBr6
_chemical_formula_sum   'Pa3 Sn3 Br18'
_cell_volume   1112.47755213
_cell_formula_units_Z   3
loop_
 _symmetry_equiv_pos_site_id
 _symmetry_equiv_pos_as_xyz
  1  'x, y, z'
loop_
 _atom_site_type_symbol
 _atom_site_label
 _atom_site_symmetry_multiplicity
 _atom_site_fract_x
 _atom_site_fract_y
 _atom_site_fract_z
 _atom_site_occupancy
  Pa  Pa0  1  0.222196  0.444393  0.166667  1
  Pa  Pa1  1  0.555607  0.777804  0.500000  1
  Pa  Pa2  1  0.222196  0.777804  0.833333  1
  Sn  Sn3  1  0.555399  0.110797  0.166667  1
  Sn  Sn4  1  0.889203  0.444601  0.500000  1
  Sn  Sn5  1  0.555399  0.444601  0.833333  1
  Br  Br6  1  0.525987  0.766985  0.762974  1
  Br  Br7  1  0.907678  0.766918  0.903776  1
  Br  Br8  1  0.525858  0.092212  0.903812  1
  Br  Br9  1  0.859241  0.766918  0.429557  1
  Br  Br10  1  0.240996  0.474013  0.429640  1
  Br  Br11  1  0.907678  0.140759  0.096224  1
  Br  Br12  1  0.525987  0.759004  0.237026  1
  Br  Br13  1  0.907788  0.474142  0.762854  1
  Br  Br14  1  0.233015  0.474013  0.903693  1
  Br  Br15  1  0.566353  0.474142  0.570479  1
  Br  Br16  1  0.859241  0.092322  0.570443  1
  Br  Br17  1  0.240996  0.766985  0.570360  1
  Br  Br18  1  0.233082  0.140759  0.237109  1
  Br  Br19  1  0.566353  0.092212  0.429521  1
  Br  Br20  1  0.907788  0.433647  0.237146  1
  Br  Br21  1  0.525858  0.433647  0.096188  1
  Br  Br22  1  0.233082  0.092322  0.762891  1
  Br  Br23  1  0.233015  0.759004  0.096307  1
