# generated using pymatgen
data_Nd3Pa(Al8Pt3)3
_symmetry_space_group_name_H-M   'P 1'
_cell_length_a   7.58815447
_cell_length_b   7.60182475
_cell_length_c   13.24068332
_cell_angle_alpha   84.49753010
_cell_angle_beta   78.96760729
_cell_angle_gamma   59.91516783
_symmetry_Int_Tables_number   1
_chemical_formula_structural   Nd3Pa(Al8Pt3)3
_chemical_formula_sum   'Nd3 Pa1 Al24 Pt9'
_cell_volume   648.66720729
_cell_formula_units_Z   1
loop_
 _symmetry_equiv_pos_site_id
 _symmetry_equiv_pos_as_xyz
  1  'x, y, z'
loop_
 _atom_site_type_symbol
 _atom_site_label
 _atom_site_symmetry_multiplicity
 _atom_site_fract_x
 _atom_site_fract_y
 _atom_site_fract_z
 _atom_site_occupancy
  Nd  Nd0  1  0.606132  0.832037  0.190956  1
  Nd  Nd1  1  0.733390  0.498417  0.808975  1
  Nd  Nd2  1  0.266907  0.501513  0.191090  1
  Pa  Pa3  1  0.396225  0.168273  0.803343  1
  Al  Al4  1  0.684255  0.835124  0.944501  1
  Al  Al5  1  0.314228  0.166392  0.052225  1
  Al  Al6  1  0.146585  0.833167  0.560670  1
  Al  Al7  1  0.854216  0.167028  0.438740  1
  Al  Al8  1  0.481213  0.166646  0.558175  1
  Al  Al9  1  0.519321  0.832480  0.441485  1
  Al  Al10  1  0.215440  0.165410  0.334442  1
  Al  Al11  1  0.786643  0.832363  0.667359  1
  Al  Al12  1  0.437672  0.509672  0.667605  1
  Al  Al13  1  0.561548  0.492755  0.333665  1
  Al  Al14  1  0.108983  0.158889  0.665945  1
  Al  Al15  1  0.888326  0.840501  0.335008  1
  Al  Al16  1  0.350688  0.499867  0.944491  1
  Al  Al17  1  0.650026  0.498228  0.054515  1
  Al  Al18  1  0.016271  0.166126  0.954707  1
  Al  Al19  1  0.985107  0.834495  0.044506  1
  Al  Al20  1  0.185468  0.500542  0.441602  1
  Al  Al21  1  0.813860  0.500151  0.558450  1
  Al  Al22  1  0.735959  0.163822  0.184222  1
  Al  Al23  1  0.261565  0.840581  0.816868  1
  Al  Al24  1  0.065458  0.630911  0.815445  1
  Al  Al25  1  0.938756  0.366949  0.185511  1
  Al  Al26  1  0.855773  0.037501  0.816319  1
  Al  Al27  1  0.142143  0.960758  0.184615  1
  Pt  Pt28  1  0.122200  0.491129  0.639414  1
  Pt  Pt29  1  0.878841  0.506008  0.363437  1
  Pt  Pt30  1  0.657680  0.171501  0.998598  1
  Pt  Pt31  1  0.342662  0.828753  0.998828  1
  Pt  Pt32  1  0.538390  0.166721  0.363719  1
  Pt  Pt33  1  0.461113  0.834949  0.639178  1
  Pt  Pt34  1  0.778397  0.173797  0.638307  1
  Pt  Pt35  1  0.218434  0.826727  0.364486  1
  Pt  Pt36  1  0.000125  0.499816  0.998602  1
