# generated using pymatgen
data_Y2Tm2Al24Pd7Au2
_symmetry_space_group_name_H-M   'P 1'
_cell_length_a   7.57681327
_cell_length_b   7.57984321
_cell_length_c   13.16124635
_cell_angle_alpha   84.52098741
_cell_angle_beta   100.98071163
_cell_angle_gamma   119.83537458
_symmetry_Int_Tables_number   1
_chemical_formula_structural   Y2Tm2Al24Pd7Au2
_chemical_formula_sum   'Y2 Tm2 Al24 Pd7 Au2'
_cell_volume   643.67601310
_cell_formula_units_Z   1
loop_
 _symmetry_equiv_pos_site_id
 _symmetry_equiv_pos_as_xyz
  1  'x, y, z'
loop_
 _atom_site_type_symbol
 _atom_site_label
 _atom_site_symmetry_multiplicity
 _atom_site_fract_x
 _atom_site_fract_y
 _atom_site_fract_z
 _atom_site_occupancy
  Y  Y0  1  0.438363  0.830272  0.809401  1
  Y  Y1  1  0.561637  0.169728  0.190599  1
  Tm  Tm2  1  0.767632  0.501618  0.809460  1
  Tm  Tm3  1  0.232368  0.498382  0.190540  1
  Al  Al4  1  0.483201  0.166271  0.944538  1
  Al  Al5  1  0.516799  0.833729  0.055462  1
  Al  Al6  1  0.016129  0.161128  0.562415  1
  Al  Al7  1  0.983871  0.838872  0.437585  1
  Al  Al8  1  0.352940  0.839903  0.559885  1
  Al  Al9  1  0.647060  0.160097  0.440115  1
  Al  Al10  1  0.615682  0.839700  0.325773  1
  Al  Al11  1  0.384318  0.160300  0.674227  1
  Al  Al12  1  0.052542  0.493067  0.674644  1
  Al  Al13  1  0.947458  0.506933  0.325356  1
  Al  Al14  1  0.737262  0.845701  0.672711  1
  Al  Al15  1  0.262738  0.154299  0.327289  1
  Al  Al16  1  0.146882  0.500804  0.944640  1
  Al  Al17  1  0.853118  0.499196  0.055360  1
  Al  Al18  1  0.817721  0.832213  0.954618  1
  Al  Al19  1  0.182279  0.167787  0.045382  1
  Al  Al20  1  0.304787  0.500195  0.436758  1
  Al  Al21  1  0.695213  0.499805  0.563242  1
  Al  Al22  1  0.103948  0.835193  0.183463  1
  Al  Al23  1  0.896052  0.164807  0.816537  1
  Al  Al24  1  0.305836  0.365320  0.818143  1
  Al  Al25  1  0.694164  0.634680  0.181857  1
  Al  Al26  1  0.102078  0.956036  0.816244  1
  Al  Al27  1  0.897922  0.043964  0.183756  1
  Pd  Pd28  1  0.170977  0.827994  0.999756  1
  Pd  Pd29  1  0.829023  0.172006  0.000244  1
  Pd  Pd30  1  0.294901  0.832402  0.362480  1
  Pd  Pd31  1  0.705099  0.167598  0.637520  1
  Pd  Pd32  1  0.045073  0.824429  0.637045  1
  Pd  Pd33  1  0.954927  0.175571  0.362955  1
  Pd  Pd34  1  0.500000  0.500000  0.000000  1
  Au  Au35  1  0.389655  0.508642  0.637935  1
  Au  Au36  1  0.610345  0.491358  0.362065  1
