# generated using pymatgen
data_Tm4CoB16Ru15
_symmetry_space_group_name_H-M   'P 1'
_cell_length_a   9.16092632
_cell_length_b   7.45247761
_cell_length_c   7.45087429
_cell_angle_alpha   89.85545955
_cell_angle_beta   113.78742903
_cell_angle_gamma   114.23198484
_symmetry_Int_Tables_number   1
_chemical_formula_structural   Tm4CoB16Ru15
_chemical_formula_sum   'Tm4 Co1 B16 Ru15'
_cell_volume   416.27794901
_cell_formula_units_Z   1
loop_
 _symmetry_equiv_pos_site_id
 _symmetry_equiv_pos_as_xyz
  1  'x, y, z'
loop_
 _atom_site_type_symbol
 _atom_site_label
 _atom_site_symmetry_multiplicity
 _atom_site_fract_x
 _atom_site_fract_y
 _atom_site_fract_z
 _atom_site_occupancy
  Tm  Tm0  1  0.750216  0.874575  0.124424  1
  Tm  Tm1  1  0.247774  0.625017  0.371513  1
  Tm  Tm2  1  0.752182  0.374703  0.634509  1
  Tm  Tm3  1  0.248752  0.124164  0.876801  1
  Co  Co4  1  0.875239  0.547417  0.038667  1
  B  B5  1  0.913128  0.291560  0.066033  1
  B  B6  1  0.413538  0.567246  0.123865  1
  B  B7  1  0.085556  0.209972  0.153833  1
  B  B8  1  0.586118  0.157244  0.209732  1
  B  B9  1  0.409471  0.063843  0.284913  1
  B  B10  1  0.917636  0.629280  0.337625  1
  B  B11  1  0.586477  0.654648  0.372745  1
  B  B12  1  0.088453  0.877158  0.438232  1
  B  B13  1  0.914141  0.124304  0.567182  1
  B  B14  1  0.416767  0.345422  0.625936  1
  B  B15  1  0.087155  0.374913  0.655798  1
  B  B16  1  0.587915  0.935923  0.710886  1
  B  B17  1  0.414965  0.848389  0.790338  1
  B  B18  1  0.905467  0.780240  0.850280  1
  B  B19  1  0.594557  0.439775  0.877344  1
  B  B20  1  0.079485  0.704759  0.934990  1
  Ru  Ru21  1  0.370762  0.835706  0.050950  1
  Ru  Ru22  1  0.119944  0.939891  0.164123  1
  Ru  Ru23  1  0.631737  0.466473  0.176710  1
  Ru  Ru24  1  0.373528  0.333874  0.318497  1
  Ru  Ru25  1  0.874745  0.324819  0.335623  1
  Ru  Ru26  1  0.627510  0.964858  0.445971  1
  Ru  Ru27  1  0.128158  0.179905  0.464231  1
  Ru  Ru28  1  0.873440  0.819726  0.538411  1
  Ru  Ru29  1  0.373906  0.036430  0.552074  1
  Ru  Ru30  1  0.126085  0.678576  0.664158  1
  Ru  Ru31  1  0.621332  0.663586  0.673212  1
  Ru  Ru32  1  0.374493  0.537418  0.821394  1
  Ru  Ru33  1  0.873115  0.049346  0.836086  1
  Ru  Ru34  1  0.630517  0.171621  0.948865  1
  Ru  Ru35  1  0.125738  0.447221  0.964047  1
