# generated using pymatgen
data_U(NbCl6)5
_symmetry_space_group_name_H-M   'P 1'
_cell_length_a   6.53572596
_cell_length_b   13.89303299
_cell_length_c   13.88957147
_cell_angle_alpha   86.50558024
_cell_angle_beta   90.50394374
_cell_angle_gamma   90.64011858
_symmetry_Int_Tables_number   1
_chemical_formula_structural   U(NbCl6)5
_chemical_formula_sum   'U1 Nb5 Cl30'
_cell_volume   1258.72272338
_cell_formula_units_Z   1
loop_
 _symmetry_equiv_pos_site_id
 _symmetry_equiv_pos_as_xyz
  1  'x, y, z'
loop_
 _atom_site_type_symbol
 _atom_site_label
 _atom_site_symmetry_multiplicity
 _atom_site_fract_x
 _atom_site_fract_y
 _atom_site_fract_z
 _atom_site_occupancy
  U  U0  1  0.525755  0.438026  0.228363  1
  Nb  Nb1  1  0.999020  0.893415  0.105566  1
  Nb  Nb2  1  0.525505  0.220402  0.445600  1
  Nb  Nb3  1  0.475455  0.771478  0.561420  1
  Nb  Nb4  1  0.473068  0.561398  0.773739  1
  Nb  Nb5  1  0.001129  0.105362  0.895282  1
  Cl  Cl6  1  0.796831  0.187337  0.999271  1
  Cl  Cl7  1  0.203615  0.047389  0.046701  1
  Cl  Cl8  1  0.751595  0.472911  0.087822  1
  Cl  Cl9  1  0.297830  0.337777  0.130228  1
  Cl  Cl10  1  0.773974  0.767577  0.128133  1
  Cl  Cl11  1  0.797709  0.999909  0.186730  1
  Cl  Cl12  1  0.301751  0.578862  0.193486  1
  Cl  Cl13  1  0.225707  0.871703  0.231426  1
  Cl  Cl14  1  0.732761  0.278309  0.289650  1
  Cl  Cl15  1  0.316211  0.145287  0.336458  1
  Cl  Cl16  1  0.754389  0.535818  0.328584  1
  Cl  Cl17  1  0.317613  0.376277  0.387851  1
  Cl  Cl18  1  0.695821  0.795608  0.434941  1
  Cl  Cl19  1  0.739562  0.093070  0.472488  1
  Cl  Cl20  1  0.262982  0.667308  0.479784  1
  Cl  Cl21  1  0.734507  0.329892  0.520440  1
  Cl  Cl22  1  0.252242  0.897436  0.540177  1
  Cl  Cl23  1  0.310924  0.193690  0.573104  1
  Cl  Cl24  1  0.673894  0.620266  0.619530  1
  Cl  Cl25  1  0.264165  0.480619  0.666819  1
  Cl  Cl26  1  0.684310  0.853894  0.666817  1
  Cl  Cl27  1  0.274780  0.713268  0.714494  1
  Cl  Cl28  1  0.773354  0.126556  0.769376  1
  Cl  Cl29  1  0.695237  0.435476  0.795095  1
  Cl  Cl30  1  0.202058  0.999969  0.812952  1
  Cl  Cl31  1  0.226775  0.231472  0.871225  1
  Cl  Cl32  1  0.686380  0.666852  0.852750  1
  Cl  Cl33  1  0.252843  0.538589  0.899758  1
  Cl  Cl34  1  0.796123  0.952715  0.953767  1
  Cl  Cl35  1  0.204124  0.814083  0.000175  1
