# generated using pymatgen
data_YbZr3(Al8Pt3)3
_symmetry_space_group_name_H-M   'P 1'
_cell_length_a   7.49817199
_cell_length_b   7.49462131
_cell_length_c   13.00331969
_cell_angle_alpha   84.47123582
_cell_angle_beta   101.07548478
_cell_angle_gamma   119.93506458
_symmetry_Int_Tables_number   1
_chemical_formula_structural   YbZr3(Al8Pt3)3
_chemical_formula_sum   'Yb1 Zr3 Al24 Pt9'
_cell_volume   621.45353413
_cell_formula_units_Z   1
loop_
 _symmetry_equiv_pos_site_id
 _symmetry_equiv_pos_as_xyz
  1  'x, y, z'
loop_
 _atom_site_type_symbol
 _atom_site_label
 _atom_site_symmetry_multiplicity
 _atom_site_fract_x
 _atom_site_fract_y
 _atom_site_fract_z
 _atom_site_occupancy
  Yb  Yb0  1  0.232189  0.498594  0.191552  1
  Zr  Zr1  1  0.438453  0.831514  0.810086  1
  Zr  Zr2  1  0.561824  0.168307  0.189763  1
  Zr  Zr3  1  0.768284  0.501007  0.809792  1
  Al  Al4  1  0.484011  0.166342  0.940754  1
  Al  Al5  1  0.517034  0.835208  0.056351  1
  Al  Al6  1  0.021272  0.167510  0.563048  1
  Al  Al7  1  0.978808  0.832973  0.437068  1
  Al  Al8  1  0.353055  0.832788  0.561003  1
  Al  Al9  1  0.646911  0.166746  0.438910  1
  Al  Al10  1  0.614696  0.835823  0.326837  1
  Al  Al11  1  0.386522  0.165325  0.676780  1
  Al  Al12  1  0.057989  0.495135  0.676608  1
  Al  Al13  1  0.942209  0.503979  0.326831  1
  Al  Al14  1  0.729971  0.838029  0.675040  1
  Al  Al15  1  0.271662  0.161849  0.327740  1
  Al  Al16  1  0.146584  0.502623  0.941028  1
  Al  Al17  1  0.850540  0.496637  0.056266  1
  Al  Al18  1  0.812893  0.830002  0.948390  1
  Al  Al19  1  0.185995  0.168065  0.048346  1
  Al  Al20  1  0.313658  0.500625  0.439761  1
  Al  Al21  1  0.686403  0.499797  0.560786  1
  Al  Al22  1  0.109120  0.843861  0.183123  1
  Al  Al23  1  0.891439  0.164158  0.816109  1
  Al  Al24  1  0.313096  0.374583  0.815077  1
  Al  Al25  1  0.693847  0.624740  0.184298  1
  Al  Al26  1  0.102833  0.953135  0.815939  1
  Al  Al27  1  0.889323  0.040450  0.183928  1
  Pt  Pt28  1  0.389633  0.509852  0.639330  1
  Pt  Pt29  1  0.613150  0.492090  0.361831  1
  Pt  Pt30  1  0.170453  0.827272  0.998292  1
  Pt  Pt31  1  0.827949  0.171414  0.998840  1
  Pt  Pt32  1  0.295697  0.834039  0.362221  1
  Pt  Pt33  1  0.702689  0.166467  0.638784  1
  Pt  Pt34  1  0.045737  0.823361  0.638169  1
  Pt  Pt35  1  0.954217  0.174556  0.363161  1
  Pt  Pt36  1  0.499853  0.501144  0.998160  1
