# generated using pymatgen
data_RbSbCO5
_symmetry_space_group_name_H-M   'P 1'
_cell_length_a   6.73759000
_cell_length_b   6.73758950
_cell_length_c   6.04066000
_cell_angle_alpha   90.00000000
_cell_angle_beta   90.00000000
_cell_angle_gamma   107.83174095
_symmetry_Int_Tables_number   1
_chemical_formula_structural   RbSbCO5
_chemical_formula_sum   'Rb2 Sb2 C2 O10'
_cell_volume   261.04307203
_cell_formula_units_Z   2
loop_
 _symmetry_equiv_pos_site_id
 _symmetry_equiv_pos_as_xyz
  1  'x, y, z'
loop_
 _atom_site_type_symbol
 _atom_site_label
 _atom_site_symmetry_multiplicity
 _atom_site_fract_x
 _atom_site_fract_y
 _atom_site_fract_z
 _atom_site_occupancy
  Rb  Rb0  1  0.389004  0.610996  0.250000  1
  Rb  Rb1  1  0.610996  0.389004  0.750000  1
  Sb  Sb2  1  0.000000  0.000000  0.000000  1
  Sb  Sb3  1  0.000000  0.000000  0.500000  1
  C  C4  1  0.753265  0.246735  0.250000  1
  C  C5  1  0.246735  0.753265  0.750000  1
  O  O6  1  0.639597  0.360403  0.250000  1
  O  O7  1  0.360403  0.639597  0.750000  1
  O  O8  1  0.812652  0.187348  0.056969  1
  O  O9  1  0.187348  0.812652  0.943031  1
  O  O10  1  0.187348  0.812652  0.556969  1
  O  O11  1  0.812652  0.187348  0.443031  1
  O  O12  1  0.853684  0.815418  0.250000  1
  O  O13  1  0.146316  0.184582  0.750000  1
  O  O14  1  0.184582  0.146316  0.250000  1
  O  O15  1  0.815418  0.853684  0.750000  1
