# generated using pymatgen
data_Pr3Ti3(SO4)2
_symmetry_space_group_name_H-M   'P 1'
_cell_length_a   9.80267532
_cell_length_b   3.95394000
_cell_length_c   13.60566444
_cell_angle_alpha   90.00000000
_cell_angle_beta   112.06065423
_cell_angle_gamma   90.00000000
_symmetry_Int_Tables_number   1
_chemical_formula_structural   Pr3Ti3(SO4)2
_chemical_formula_sum   'Pr6 Ti6 S4 O16'
_cell_volume   488.73593774
_cell_formula_units_Z   2
loop_
 _symmetry_equiv_pos_site_id
 _symmetry_equiv_pos_as_xyz
  1  'x, y, z'
loop_
 _atom_site_type_symbol
 _atom_site_label
 _atom_site_symmetry_multiplicity
 _atom_site_fract_x
 _atom_site_fract_y
 _atom_site_fract_z
 _atom_site_occupancy
  Pr  Pr0  1  0.946728  0.250000  0.341995  1
  Pr  Pr1  1  0.053272  0.750000  0.658006  1
  Pr  Pr2  1  0.594151  0.750000  0.417291  1
  Pr  Pr3  1  0.405850  0.250000  0.582709  1
  Pr  Pr4  1  0.413545  0.750000  0.090895  1
  Pr  Pr5  1  0.586454  0.250000  0.909105  1
  Ti  Ti6  1  0.321544  0.250000  0.269522  1
  Ti  Ti7  1  0.678455  0.750000  0.730477  1
  Ti  Ti8  1  0.820312  0.750000  0.101142  1
  Ti  Ti9  1  0.179688  0.250000  0.898858  1
  Ti  Ti10  1  0.042628  0.250000  0.093512  1
  Ti  Ti11  1  0.957372  0.750000  0.906487  1
  S  S12  1  0.843651  0.250000  0.516673  1
  S  S13  1  0.156348  0.750000  0.483327  1
  S  S14  1  0.603679  0.250000  0.251773  1
  S  S15  1  0.396322  0.750000  0.748227  1
  O  O16  1  0.443663  0.250000  0.416579  1
  O  O17  1  0.556337  0.750000  0.583421  1
  O  O18  1  0.825069  0.250000  0.074541  1
  O  O19  1  0.174930  0.750000  0.925459  1
  O  O20  1  0.875130  0.750000  0.243545  1
  O  O21  1  0.124870  0.250000  0.756455  1
  O  O22  1  0.123674  0.250000  0.248338  1
  O  O23  1  0.876327  0.750000  0.751662  1
  O  O24  1  0.614388  0.750000  0.029739  1
  O  O25  1  0.385612  0.250000  0.970260  1
  O  O26  1  0.009618  0.750000  0.071701  1
  O  O27  1  0.990382  0.250000  0.928298  1
  O  O28  1  0.250489  0.250000  0.110367  1
  O  O29  1  0.749510  0.750000  0.889633  1
  O  O30  1  0.359451  0.750000  0.265184  1
  O  O31  1  0.640547  0.250000  0.734816  1
