# generated using pymatgen
data_ScNb(SnRu2)2
_symmetry_space_group_name_H-M   'P 1'
_cell_length_a   4.54692101
_cell_length_b   6.40490100
_cell_length_c   13.58778601
_cell_angle_alpha   90.00000000
_cell_angle_beta   90.00100076
_cell_angle_gamma   90.00000000
_symmetry_Int_Tables_number   1
_chemical_formula_structural   ScNb(SnRu2)2
_chemical_formula_sum   'Sc3 Nb3 Sn6 Ru12'
_cell_volume   395.71136997
_cell_formula_units_Z   3
loop_
 _symmetry_equiv_pos_site_id
 _symmetry_equiv_pos_as_xyz
  1  'x, y, z'
loop_
 _atom_site_type_symbol
 _atom_site_label
 _atom_site_symmetry_multiplicity
 _atom_site_fract_x
 _atom_site_fract_y
 _atom_site_fract_z
 _atom_site_occupancy
  Sc  Sc0  1  0.999998  0.000000  0.001884  1
  Sc  Sc1  1  0.499964  0.500001  0.166676  1
  Sc  Sc2  1  0.999943  0.000000  0.331453  1
  Nb  Nb3  1  0.499996  0.500001  0.495954  1
  Nb  Nb4  1  0.000077  0.000000  0.666665  1
  Nb  Nb5  1  0.500048  0.500001  0.837368  1
  Sn  Sn6  1  0.000006  0.500001  0.003458  1
  Sn  Sn7  1  0.499879  0.000000  0.166688  1
  Sn  Sn8  1  0.999950  0.500001  0.329861  1
  Sn  Sn9  1  0.500000  0.000000  0.498598  1
  Sn  Sn10  1  0.000099  0.500001  0.666682  1
  Sn  Sn11  1  0.500039  0.000000  0.834720  1
  Ru  Ru12  1  0.499995  0.254479  0.995266  1
  Ru  Ru13  1  0.499995  0.745522  0.995266  1
  Ru  Ru14  1  0.999977  0.248212  0.166667  1
  Ru  Ru15  1  0.999977  0.751788  0.166667  1
  Ru  Ru16  1  0.499952  0.254468  0.338059  1
  Ru  Ru17  1  0.499952  0.745531  0.338059  1
  Ru  Ru18  1  0.999994  0.253956  0.504436  1
  Ru  Ru19  1  0.999994  0.746044  0.504436  1
  Ru  Ru20  1  0.500050  0.247635  0.666676  1
  Ru  Ru21  1  0.500050  0.752364  0.666676  1
  Ru  Ru22  1  0.000033  0.253969  0.828894  1
  Ru  Ru23  1  0.000033  0.746031  0.828894  1
