# generated using pymatgen
data_K2Rb7Y3Si12(O16F)2
_symmetry_space_group_name_H-M   'P 1'
_cell_length_a   6.93545453
_cell_length_b   11.52128611
_cell_length_c   11.53353900
_cell_angle_alpha   92.13656859
_cell_angle_beta   89.74344488
_cell_angle_gamma   99.55296966
_symmetry_Int_Tables_number   1
_chemical_formula_structural   K2Rb7Y3Si12(O16F)2
_chemical_formula_sum   'K2 Rb7 Y3 Si12 O32 F2'
_cell_volume   908.17828496
_cell_formula_units_Z   1
loop_
 _symmetry_equiv_pos_site_id
 _symmetry_equiv_pos_as_xyz
  1  'x, y, z'
loop_
 _atom_site_type_symbol
 _atom_site_label
 _atom_site_symmetry_multiplicity
 _atom_site_fract_x
 _atom_site_fract_y
 _atom_site_fract_z
 _atom_site_occupancy
  K  K0  1  0.021265  0.669556  0.509479  1
  K  K1  1  0.978735  0.330444  0.490521  1
  Rb  Rb2  1  0.260734  0.389821  0.016638  1
  Rb  Rb3  1  0.739266  0.610179  0.983362  1
  Rb  Rb4  1  0.168241  0.193686  0.776068  1
  Rb  Rb5  1  0.831759  0.806314  0.223932  1
  Rb  Rb6  1  0.159095  0.155642  0.214324  1
  Rb  Rb7  1  0.840905  0.844358  0.785676  1
  Rb  Rb8  1  0.500000  0.000000  0.000000  1
  Y  Y9  1  0.000000  0.000000  0.500000  1
  Y  Y10  1  0.488457  0.510502  0.338104  1
  Y  Y11  1  0.511543  0.489498  0.661896  1
  Si  Si12  1  0.558995  0.766573  0.508965  1
  Si  Si13  1  0.441005  0.233427  0.491035  1
  Si  Si14  1  0.338627  0.866116  0.311198  1
  Si  Si15  1  0.661373  0.133884  0.688802  1
  Si  Si16  1  0.655328  0.092813  0.305099  1
  Si  Si17  1  0.344672  0.907187  0.694901  1
  Si  Si18  1  0.693120  0.305994  0.159034  1
  Si  Si19  1  0.306880  0.694006  0.840966  1
  Si  Si20  1  0.987096  0.511832  0.259635  1
  Si  Si21  1  0.012904  0.488168  0.740365  1
  Si  Si22  1  0.286679  0.668697  0.122494  1
  Si  Si23  1  0.713321  0.331303  0.877506  1
  O  O24  1  0.532885  0.623560  0.513727  1
  O  O25  1  0.467115  0.376440  0.486273  1
  O  O26  1  0.488726  0.791277  0.374341  1
  O  O27  1  0.511274  0.208723  0.625659  1
  O  O28  1  0.392439  0.812158  0.594669  1
  O  O29  1  0.607561  0.187842  0.405331  1
  O  O30  1  0.775515  0.836220  0.535462  1
  O  O31  1  0.224485  0.163780  0.464538  1
  O  O32  1  0.148342  0.878752  0.384883  1
  O  O33  1  0.851658  0.121248  0.615117  1
  O  O34  1  0.280374  0.800154  0.182843  1
  O  O35  1  0.719626  0.199846  0.817157  1
  O  O36  1  0.459157  0.995266  0.273609  1
  O  O37  1  0.540843  0.004734  0.726391  1
  O  O38  1  0.694899  0.165276  0.183029  1
  O  O39  1  0.305101  0.834724  0.816971  1
  O  O40  1  0.840249  0.035164  0.337905  1
  O  O41  1  0.159751  0.964836  0.662095  1
  O  O42  1  0.908670  0.374476  0.207438  1
  O  O43  1  0.091330  0.625524  0.792562  1
  O  O44  1  0.698480  0.314694  0.017587  1
  O  O45  1  0.301520  0.685306  0.982413  1
  O  O46  1  0.509250  0.354856  0.215194  1
  O  O47  1  0.490750  0.645144  0.784806  1
  O  O48  1  0.164134  0.505974  0.348086  1
  O  O49  1  0.835866  0.494026  0.651914  1
  O  O50  1  0.810684  0.568522  0.316782  1
  O  O51  1  0.189316  0.431478  0.683218  1
  O  O52  1  0.067755  0.587419  0.142018  1
  O  O53  1  0.932245  0.412581  0.857982  1
  O  O54  1  0.459171  0.606046  0.168495  1
  O  O55  1  0.540829  0.393954  0.831505  1
  F  F56  1  0.242635  0.154128  0.993569  1
  F  F57  1  0.757365  0.845872  0.006431  1
