# generated using pymatgen
data_La4Co33W
_symmetry_space_group_name_H-M   'P 1'
_cell_length_a   6.33068178
_cell_length_b   6.33068048
_cell_length_c   12.79578953
_cell_angle_alpha   83.10040133
_cell_angle_beta   83.10040341
_cell_angle_gamma   83.05738945
_symmetry_Int_Tables_number   1
_chemical_formula_structural   La4Co33W
_chemical_formula_sum   'La4 Co33 W1'
_cell_volume   502.46649318
_cell_formula_units_Z   1
loop_
 _symmetry_equiv_pos_site_id
 _symmetry_equiv_pos_as_xyz
  1  'x, y, z'
loop_
 _atom_site_type_symbol
 _atom_site_label
 _atom_site_symmetry_multiplicity
 _atom_site_fract_x
 _atom_site_fract_y
 _atom_site_fract_z
 _atom_site_occupancy
  La  La0  1  0.356661  0.356661  0.677707  1
  La  La1  1  0.345013  0.345013  0.172047  1
  La  La2  1  0.655213  0.655213  0.827842  1
  La  La3  1  0.654614  0.654614  0.324813  1
  Co  Co4  1  0.717252  0.285468  0.998682  1
  Co  Co5  1  0.710987  0.289662  0.497244  1
  Co  Co6  1  0.285965  0.000073  0.858103  1
  Co  Co7  1  0.284012  0.997066  0.357112  1
  Co  Co8  1  0.993477  0.712242  0.645856  1
  Co  Co9  1  0.998470  0.716116  0.143084  1
  Co  Co10  1  0.712242  0.993477  0.645856  1
  Co  Co11  1  0.716116  0.998470  0.143084  1
  Co  Co12  1  0.000073  0.285965  0.858103  1
  Co  Co13  1  0.997066  0.284012  0.357112  1
  Co  Co14  1  0.285468  0.717252  0.998682  1
  Co  Co15  1  0.289662  0.710987  0.497244  1
  Co  Co16  1  0.997902  0.997902  0.755070  1
  Co  Co17  1  0.999663  0.999663  0.249022  1
  Co  Co18  1  0.002508  0.502906  0.499543  1
  Co  Co19  1  0.002110  0.498682  0.000560  1
  Co  Co20  1  0.498682  0.002110  0.000560  1
  Co  Co21  1  0.502906  0.002508  0.499543  1
  Co  Co22  1  0.657558  0.657558  0.569072  1
  Co  Co23  1  0.657503  0.657503  0.066748  1
  Co  Co24  1  0.657227  0.146020  0.830684  1
  Co  Co25  1  0.653811  0.144249  0.328818  1
  Co  Co26  1  0.146020  0.657227  0.830684  1
  Co  Co27  1  0.144249  0.653811  0.328818  1
  Co  Co28  1  0.343625  0.343625  0.927374  1
  Co  Co29  1  0.342757  0.342757  0.425892  1
  Co  Co30  1  0.341358  0.862101  0.671119  1
  Co  Co31  1  0.340069  0.851174  0.173395  1
  Co  Co32  1  0.862101  0.341358  0.671119  1
  Co  Co33  1  0.851174  0.340069  0.173395  1
  Co  Co34  1  0.099260  0.099260  0.043254  1
  Co  Co35  1  0.903101  0.903101  0.952928  1
  Co  Co36  1  0.901793  0.901793  0.449070  1
  W  W37  1  0.092327  0.092327  0.550761  1
