# generated using pymatgen
data_Dy2HoErMnRu7
_symmetry_space_group_name_H-M   'P 1'
_cell_length_a   5.33404502
_cell_length_b   5.33242245
_cell_length_c   8.67599000
_cell_angle_alpha   90.00000000
_cell_angle_beta   89.99455405
_cell_angle_gamma   60.01005215
_symmetry_Int_Tables_number   1
_chemical_formula_structural   Dy2HoErMnRu7
_chemical_formula_sum   'Dy2 Ho1 Er1 Mn1 Ru7'
_cell_volume   213.73462292
_cell_formula_units_Z   1
loop_
 _symmetry_equiv_pos_site_id
 _symmetry_equiv_pos_as_xyz
  1  'x, y, z'
loop_
 _atom_site_type_symbol
 _atom_site_label
 _atom_site_symmetry_multiplicity
 _atom_site_fract_x
 _atom_site_fract_y
 _atom_site_fract_z
 _atom_site_occupancy
  Dy  Dy0  1  0.333247  0.333377  0.565186  1
  Dy  Dy1  1  0.666753  0.666623  0.434814  1
  Ho  Ho2  1  0.666693  0.666654  0.067878  1
  Er  Er3  1  0.333307  0.333346  0.932122  1
  Mn  Mn4  1  0.000000  0.000000  0.000000  1
  Ru  Ru5  1  0.000000  0.000000  0.500000  1
  Ru  Ru6  1  0.828847  0.342262  0.754534  1
  Ru  Ru7  1  0.342432  0.828784  0.754480  1
  Ru  Ru8  1  0.828847  0.828892  0.754534  1
  Ru  Ru9  1  0.171153  0.657738  0.245466  1
  Ru  Ru10  1  0.657568  0.171216  0.245520  1
  Ru  Ru11  1  0.171153  0.171108  0.245466  1
