# generated using pymatgen
data_Rb6YHoBr12
_symmetry_space_group_name_H-M   'P 1'
_cell_length_a   9.99876000
_cell_length_b   10.00106008
_cell_length_c   8.30133300
_cell_angle_alpha   90.00000000
_cell_angle_beta   90.00000000
_cell_angle_gamma   89.99286170
_symmetry_Int_Tables_number   1
_chemical_formula_structural   Rb6YHoBr12
_chemical_formula_sum   'Rb6 Y1 Ho1 Br12'
_cell_volume   830.11834669
_cell_formula_units_Z   1
loop_
 _symmetry_equiv_pos_site_id
 _symmetry_equiv_pos_as_xyz
  1  'x, y, z'
loop_
 _atom_site_type_symbol
 _atom_site_label
 _atom_site_symmetry_multiplicity
 _atom_site_fract_x
 _atom_site_fract_y
 _atom_site_fract_z
 _atom_site_occupancy
  Rb  Rb0  1  0.000000  0.000000  0.500000  1
  Rb  Rb1  1  0.000000  0.000000  0.000000  1
  Rb  Rb2  1  0.230296  0.550171  0.500000  1
  Rb  Rb3  1  0.769704  0.449829  0.500000  1
  Rb  Rb4  1  0.451574  0.228936  0.000000  1
  Rb  Rb5  1  0.548426  0.771064  0.000000  1
  Y  Y6  1  0.000000  0.500000  0.000000  1
  Ho  Ho7  1  0.500000  0.000000  0.500000  1
  Br  Br8  1  0.695500  0.033226  0.741697  1
  Br  Br9  1  0.304500  0.966774  0.741697  1
  Br  Br10  1  0.967937  0.696072  0.242991  1
  Br  Br11  1  0.032063  0.303928  0.242991  1
  Br  Br12  1  0.304500  0.966774  0.258303  1
  Br  Br13  1  0.695500  0.033226  0.258303  1
  Br  Br14  1  0.032063  0.303928  0.757009  1
  Br  Br15  1  0.967937  0.696072  0.757009  1
  Br  Br16  1  0.539815  0.721940  0.500000  1
  Br  Br17  1  0.460185  0.278060  0.500000  1
  Br  Br18  1  0.278952  0.538933  0.000000  1
  Br  Br19  1  0.721048  0.461067  0.000000  1
