# generated using pymatgen
data_Er3Tm7(In2Ni)4
_symmetry_space_group_name_H-M   'P 1'
_cell_length_a   3.55767000
_cell_length_b   7.95978610
_cell_length_c   17.82356223
_cell_angle_alpha   89.98176009
_cell_angle_beta   90.00000000
_cell_angle_gamma   90.00000000
_symmetry_Int_Tables_number   1
_chemical_formula_structural   Er3Tm7(In2Ni)4
_chemical_formula_sum   'Er3 Tm7 In8 Ni4'
_cell_volume   504.73281789
_cell_formula_units_Z   1
loop_
 _symmetry_equiv_pos_site_id
 _symmetry_equiv_pos_as_xyz
  1  'x, y, z'
loop_
 _atom_site_type_symbol
 _atom_site_label
 _atom_site_symmetry_multiplicity
 _atom_site_fract_x
 _atom_site_fract_y
 _atom_site_fract_z
 _atom_site_occupancy
  Er  Er0  1  0.000000  0.500013  0.500010  1
  Er  Er1  1  0.000000  0.000018  0.999981  1
  Er  Er2  1  0.000000  0.746357  0.277845  1
  Tm  Tm3  1  0.000000  0.253521  0.722173  1
  Tm  Tm4  1  0.000000  0.753563  0.777823  1
  Tm  Tm5  1  0.000000  0.246433  0.222166  1
  Tm  Tm6  1  0.000000  0.616911  0.088402  1
  Tm  Tm7  1  0.000000  0.383073  0.911509  1
  Tm  Tm8  1  0.000000  0.883068  0.588504  1
  Tm  Tm9  1  0.000000  0.117006  0.411588  1
  In  In10  1  0.500000  0.705439  0.930942  1
  In  In11  1  0.500000  0.294514  0.068986  1
  In  In12  1  0.500000  0.794583  0.431091  1
  In  In13  1  0.500000  0.205410  0.569075  1
  In  In14  1  0.500000  0.572532  0.651678  1
  In  In15  1  0.500000  0.427292  0.348398  1
  In  In16  1  0.500000  0.927659  0.151520  1
  In  In17  1  0.500000  0.072511  0.848345  1
  Ni  Ni18  1  0.500000  0.524264  0.195536  1
  Ni  Ni19  1  0.500000  0.475490  0.804385  1
  Ni  Ni20  1  0.500000  0.975493  0.695633  1
  Ni  Ni21  1  0.500000  0.024848  0.304411  1
