# generated using pymatgen
data_TbU3Ta2(NbN4)2
_symmetry_space_group_name_H-M   'P 1'
_cell_length_a   3.26424400
_cell_length_b   5.68190042
_cell_length_c   10.96340103
_cell_angle_alpha   90.08359046
_cell_angle_beta   90.00000000
_cell_angle_gamma   90.00000000
_symmetry_Int_Tables_number   1
_chemical_formula_structural   TbU3Ta2(NbN4)2
_chemical_formula_sum   'Tb1 U3 Ta2 Nb2 N8'
_cell_volume   203.33918155
_cell_formula_units_Z   1
loop_
 _symmetry_equiv_pos_site_id
 _symmetry_equiv_pos_as_xyz
  1  'x, y, z'
loop_
 _atom_site_type_symbol
 _atom_site_label
 _atom_site_symmetry_multiplicity
 _atom_site_fract_x
 _atom_site_fract_y
 _atom_site_fract_z
 _atom_site_occupancy
  Tb  Tb0  1  0.250000  0.579677  0.855633  1
  U  U1  1  0.750000  0.424780  0.139929  1
  U  U2  1  0.750000  0.923320  0.357004  1
  U  U3  1  0.250000  0.081271  0.643724  1
  Ta  Ta4  1  0.750000  0.073720  0.900703  1
  Ta  Ta5  1  0.750000  0.577373  0.602286  1
  Nb  Nb6  1  0.250000  0.921523  0.100949  1
  Nb  Nb7  1  0.250000  0.423618  0.399876  1
  N  N8  1  0.250000  0.659402  0.245748  1
  N  N9  1  0.750000  0.330433  0.751685  1
  N  N10  1  0.750000  0.843117  0.742695  1
  N  N11  1  0.250000  0.159769  0.255652  1
  N  N12  1  0.250000  0.763278  0.507668  1
  N  N13  1  0.750000  0.237759  0.497822  1
  N  N14  1  0.750000  0.739025  0.003062  1
  N  N15  1  0.250000  0.261932  0.995567  1
