# generated using pymatgen
data_Na3Li(NpBr6)2
_symmetry_space_group_name_H-M   'P 1'
_cell_length_a   7.30110500
_cell_length_b   7.30110526
_cell_length_c   13.37706200
_cell_angle_alpha   90.00000000
_cell_angle_beta   90.00000000
_cell_angle_gamma   119.99999427
_symmetry_Int_Tables_number   1
_chemical_formula_structural   Na3Li(NpBr6)2
_chemical_formula_sum   'Na3 Li1 Np2 Br12'
_cell_volume   617.54498745
_cell_formula_units_Z   1
loop_
 _symmetry_equiv_pos_site_id
 _symmetry_equiv_pos_as_xyz
  1  'x, y, z'
loop_
 _atom_site_type_symbol
 _atom_site_label
 _atom_site_symmetry_multiplicity
 _atom_site_fract_x
 _atom_site_fract_y
 _atom_site_fract_z
 _atom_site_occupancy
  Na  Na0  1  0.000000  0.000000  0.750000  1
  Na  Na1  1  0.666667  0.333333  0.750000  1
  Na  Na2  1  0.333333  0.666667  0.250000  1
  Li  Li3  1  0.000000  0.000000  0.250000  1
  Np  Np4  1  0.333333  0.666667  0.750000  1
  Np  Np5  1  0.666667  0.333333  0.250000  1
  Br  Br6  1  0.023956  0.356852  0.629506  1
  Br  Br7  1  0.332897  0.976044  0.629506  1
  Br  Br8  1  0.643148  0.667103  0.629506  1
  Br  Br9  1  0.643148  0.976044  0.870494  1
  Br  Br10  1  0.332897  0.356852  0.870494  1
  Br  Br11  1  0.023956  0.667103  0.870494  1
  Br  Br12  1  0.975632  0.315319  0.134361  1
  Br  Br13  1  0.339686  0.024368  0.134361  1
  Br  Br14  1  0.684681  0.660314  0.134361  1
  Br  Br15  1  0.684681  0.024368  0.365639  1
  Br  Br16  1  0.339686  0.315319  0.365639  1
  Br  Br17  1  0.975632  0.660314  0.365639  1
