# generated using pymatgen
data_TbPr7(SBr6)2
_symmetry_space_group_name_H-M   'P 1'
_cell_length_a   4.12745100
_cell_length_b   13.54275948
_cell_length_c   14.29066730
_cell_angle_alpha   90.46965148
_cell_angle_beta   90.00000000
_cell_angle_gamma   90.00000000
_symmetry_Int_Tables_number   1
_chemical_formula_structural   TbPr7(SBr6)2
_chemical_formula_sum   'Tb1 Pr7 S2 Br12'
_cell_volume   798.77968265
_cell_formula_units_Z   1
loop_
 _symmetry_equiv_pos_site_id
 _symmetry_equiv_pos_as_xyz
  1  'x, y, z'
loop_
 _atom_site_type_symbol
 _atom_site_label
 _atom_site_symmetry_multiplicity
 _atom_site_fract_x
 _atom_site_fract_y
 _atom_site_fract_z
 _atom_site_occupancy
  Tb  Tb0  1  0.500000  0.382961  0.843553  1
  Pr  Pr1  1  0.500000  0.117945  0.343056  1
  Pr  Pr2  1  0.500000  0.882764  0.657433  1
  Pr  Pr3  1  0.500000  0.616647  0.155706  1
  Pr  Pr4  1  0.000000  0.116070  0.578053  1
  Pr  Pr5  1  0.000000  0.885424  0.423443  1
  Pr  Pr6  1  0.000000  0.614916  0.923827  1
  Pr  Pr7  1  0.000000  0.385716  0.076726  1
  S  S8  1  0.500000  0.000956  0.500634  1
  S  S9  1  0.500000  0.497090  0.995967  1
  Br  Br10  1  0.500000  0.244406  0.160461  1
  Br  Br11  1  0.500000  0.754656  0.838061  1
  Br  Br12  1  0.500000  0.744078  0.337243  1
  Br  Br13  1  0.500000  0.258175  0.667802  1
  Br  Br14  1  0.000000  0.261154  0.415590  1
  Br  Br15  1  0.000000  0.739015  0.585192  1
  Br  Br16  1  0.000000  0.760174  0.085954  1
  Br  Br17  1  0.000000  0.248136  0.905910  1
  Br  Br18  1  0.000000  0.997589  0.239077  1
  Br  Br19  1  0.000000  0.003012  0.761741  1
  Br  Br20  1  0.000000  0.498597  0.260523  1
  Br  Br21  1  0.000000  0.490520  0.744048  1
