# generated using pymatgen
data_YEr3TlPd4Pb
_symmetry_space_group_name_H-M   'P 1'
_cell_length_a   7.85730225
_cell_length_b   7.85530306
_cell_length_c   3.63374100
_cell_angle_alpha   90.00000000
_cell_angle_beta   90.00000000
_cell_angle_gamma   89.63109407
_symmetry_Int_Tables_number   1
_chemical_formula_structural   YEr3TlPd4Pb
_chemical_formula_sum   'Y1 Er3 Tl1 Pd4 Pb1'
_cell_volume   224.27526149
_cell_formula_units_Z   1
loop_
 _symmetry_equiv_pos_site_id
 _symmetry_equiv_pos_as_xyz
  1  'x, y, z'
loop_
 _atom_site_type_symbol
 _atom_site_label
 _atom_site_symmetry_multiplicity
 _atom_site_fract_x
 _atom_site_fract_y
 _atom_site_fract_z
 _atom_site_occupancy
  Y  Y0  1  0.674684  0.168892  0.500000  1
  Er  Er1  1  0.168702  0.326051  0.500000  1
  Er  Er2  1  0.832140  0.674713  0.500000  1
  Er  Er3  1  0.325570  0.831881  0.500000  1
  Tl  Tl4  1  0.999143  0.999888  0.000000  1
  Pd  Pd5  1  0.370143  0.123219  0.000000  1
  Pd  Pd6  1  0.126719  0.628297  0.000000  1
  Pd  Pd7  1  0.624792  0.871178  0.000000  1
  Pd  Pd8  1  0.878250  0.376329  0.000000  1
  Pb  Pb9  1  0.499857  0.499551  0.000000  1
