# generated using pymatgen
data_Sc8Ti2V10Si15P
_symmetry_space_group_name_H-M   'P 1'
_cell_length_a   6.66755739
_cell_length_b   6.65551365
_cell_length_c   12.31255242
_cell_angle_alpha   89.98036149
_cell_angle_beta   89.99495635
_cell_angle_gamma   90.00240204
_symmetry_Int_Tables_number   1
_chemical_formula_structural   Sc8Ti2V10Si15P
_chemical_formula_sum   'Sc8 Ti2 V10 Si15 P1'
_cell_volume   546.38202758
_cell_formula_units_Z   1
loop_
 _symmetry_equiv_pos_site_id
 _symmetry_equiv_pos_as_xyz
  1  'x, y, z'
loop_
 _atom_site_type_symbol
 _atom_site_label
 _atom_site_symmetry_multiplicity
 _atom_site_fract_x
 _atom_site_fract_y
 _atom_site_fract_z
 _atom_site_occupancy
  Sc  Sc0  1  0.002750  0.665224  0.029448  1
  Sc  Sc1  1  0.836552  0.500380  0.280813  1
  Sc  Sc2  1  0.160812  0.498751  0.779868  1
  Sc  Sc3  1  0.502003  0.837620  0.719698  1
  Sc  Sc4  1  0.497817  0.160335  0.218417  1
  Sc  Sc5  1  0.998065  0.337526  0.530950  1
  Sc  Sc6  1  0.659195  0.001075  0.970013  1
  Sc  Sc7  1  0.338388  0.999130  0.470404  1
  Ti  Ti8  1  0.331381  0.328526  0.000156  1
  Ti  Ti9  1  0.169502  0.833295  0.248235  1
  V  V10  1  0.831455  0.167965  0.749312  1
  V  V11  1  0.668634  0.667898  0.500668  1
  V  V12  1  0.010330  0.154004  0.125123  1
  V  V13  1  0.343485  0.507340  0.377565  1
  V  V14  1  0.658551  0.492906  0.876411  1
  V  V15  1  0.507886  0.342993  0.623079  1
  V  V16  1  0.490457  0.661611  0.122595  1
  V  V17  1  0.991889  0.843293  0.627154  1
  V  V18  1  0.157963  0.006461  0.875629  1
  V  V19  1  0.842344  0.992920  0.374232  1
  Si  Si20  1  0.543459  0.793670  0.315541  1
  Si  Si21  1  0.461930  0.205824  0.811959  1
  Si  Si22  1  0.793972  0.540471  0.685730  1
  Si  Si23  1  0.205096  0.458128  0.187262  1
  Si  Si24  1  0.706034  0.040065  0.564439  1
  Si  Si25  1  0.955874  0.294073  0.934727  1
  Si  Si26  1  0.039082  0.705428  0.437160  1
  Si  Si27  1  0.706564  0.371530  0.070875  1
  Si  Si28  1  0.129901  0.205977  0.320861  1
  Si  Si29  1  0.869546  0.798399  0.820385  1
  Si  Si30  1  0.202681  0.129500  0.680773  1
  Si  Si31  1  0.794115  0.869452  0.180082  1
  Si  Si32  1  0.296834  0.630268  0.570101  1
  Si  Si33  1  0.370837  0.702691  0.928021  1
  Si  Si34  1  0.630111  0.296599  0.429929  1
  P  P35  1  0.294505  0.958672  0.062386  1
