# generated using pymatgen
data_Ho8TaPt24
_symmetry_space_group_name_H-M   'P 1'
_cell_length_a   8.41118500
_cell_length_b   8.41118500
_cell_length_c   8.41118500
_cell_angle_alpha   90.00000000
_cell_angle_beta   90.00000000
_cell_angle_gamma   90.00000000
_symmetry_Int_Tables_number   1
_chemical_formula_structural   Ho8TaPt24
_chemical_formula_sum   'Ho8 Ta1 Pt24'
_cell_volume   595.07479483
_cell_formula_units_Z   1
loop_
 _symmetry_equiv_pos_site_id
 _symmetry_equiv_pos_as_xyz
  1  'x, y, z'
loop_
 _atom_site_type_symbol
 _atom_site_label
 _atom_site_symmetry_multiplicity
 _atom_site_fract_x
 _atom_site_fract_y
 _atom_site_fract_z
 _atom_site_occupancy
  Ho  Ho0  1  0.251786  0.251786  0.251786  1
  Ho  Ho1  1  0.748214  0.748214  0.748214  1
  Ho  Ho2  1  0.748214  0.748214  0.251786  1
  Ho  Ho3  1  0.748214  0.251786  0.748214  1
  Ho  Ho4  1  0.251786  0.251786  0.748214  1
  Ho  Ho5  1  0.251786  0.748214  0.251786  1
  Ho  Ho6  1  0.251786  0.748214  0.748214  1
  Ho  Ho7  1  0.748214  0.251786  0.251786  1
  Ta  Ta8  1  0.000000  0.000000  0.000000  1
  Pt  Pt9  1  0.265528  0.500000  0.000000  1
  Pt  Pt10  1  0.734472  0.500000  0.000000  1
  Pt  Pt11  1  0.000000  0.265528  0.500000  1
  Pt  Pt12  1  0.500000  0.265528  0.000000  1
  Pt  Pt13  1  0.000000  0.734472  0.500000  1
  Pt  Pt14  1  0.500000  0.734472  0.000000  1
  Pt  Pt15  1  0.500000  0.000000  0.265528  1
  Pt  Pt16  1  0.265528  0.000000  0.500000  1
  Pt  Pt17  1  0.500000  0.000000  0.734472  1
  Pt  Pt18  1  0.734472  0.000000  0.500000  1
  Pt  Pt19  1  0.000000  0.500000  0.265528  1
  Pt  Pt20  1  0.000000  0.500000  0.734472  1
  Pt  Pt21  1  0.255190  0.500000  0.500000  1
  Pt  Pt22  1  0.744810  0.500000  0.500000  1
  Pt  Pt23  1  0.500000  0.255190  0.500000  1
  Pt  Pt24  1  0.500000  0.744810  0.500000  1
  Pt  Pt25  1  0.500000  0.500000  0.255190  1
  Pt  Pt26  1  0.500000  0.500000  0.744810  1
  Pt  Pt27  1  0.305802  0.000000  0.000000  1
  Pt  Pt28  1  0.694198  0.000000  0.000000  1
  Pt  Pt29  1  0.000000  0.305802  0.000000  1
  Pt  Pt30  1  0.000000  0.694198  0.000000  1
  Pt  Pt31  1  0.000000  0.000000  0.305802  1
  Pt  Pt32  1  0.000000  0.000000  0.694198  1
