# generated using pymatgen
data_Li4Th3Sn4
_symmetry_space_group_name_H-M   'P 1'
_cell_length_a   4.73639914
_cell_length_b   7.23188914
_cell_length_c   8.75719151
_cell_angle_alpha   114.38783959
_cell_angle_beta   105.68980468
_cell_angle_gamma   89.99999975
_symmetry_Int_Tables_number   1
_chemical_formula_structural   Li4Th3Sn4
_chemical_formula_sum   'Li4 Th3 Sn4'
_cell_volume   260.87517814
_cell_formula_units_Z   1
loop_
 _symmetry_equiv_pos_site_id
 _symmetry_equiv_pos_as_xyz
  1  'x, y, z'
loop_
 _atom_site_type_symbol
 _atom_site_label
 _atom_site_symmetry_multiplicity
 _atom_site_fract_x
 _atom_site_fract_y
 _atom_site_fract_z
 _atom_site_occupancy
  Li  Li0  1  0.328901  0.013751  0.657799  1
  Li  Li1  1  0.671099  0.986249  0.342201  1
  Li  Li2  1  0.328901  0.644049  0.657799  1
  Li  Li3  1  0.671099  0.355951  0.342201  1
  Th  Th4  1  0.874890  0.374890  0.749780  1
  Th  Th5  1  0.125110  0.625110  0.250220  1
  Th  Th6  1  0.000000  0.000000  0.000000  1
  Sn  Sn7  1  0.216622  0.216622  0.433242  1
  Sn  Sn8  1  0.783378  0.783378  0.566758  1
  Sn  Sn9  1  0.500000  0.294500  0.000000  1
  Sn  Sn10  1  0.500000  0.705500  0.000000  1
