# generated using pymatgen
data_TbHo3(SiAu2)8
_symmetry_space_group_name_H-M   'P 1'
_cell_length_a   4.41117800
_cell_length_b   4.41117800
_cell_length_c   26.96332100
_cell_angle_alpha   90.00000000
_cell_angle_beta   90.00000000
_cell_angle_gamma   90.00000000
_symmetry_Int_Tables_number   1
_chemical_formula_structural   TbHo3(SiAu2)8
_chemical_formula_sum   'Tb1 Ho3 Si8 Au16'
_cell_volume   524.66554838
_cell_formula_units_Z   1
loop_
 _symmetry_equiv_pos_site_id
 _symmetry_equiv_pos_as_xyz
  1  'x, y, z'
loop_
 _atom_site_type_symbol
 _atom_site_label
 _atom_site_symmetry_multiplicity
 _atom_site_fract_x
 _atom_site_fract_y
 _atom_site_fract_z
 _atom_site_occupancy
  Tb  Tb0  1  0.500000  0.500000  0.500000  1
  Ho  Ho1  1  0.000000  0.500000  0.749508  1
  Ho  Ho2  1  0.500000  0.000000  0.250492  1
  Ho  Ho3  1  0.500000  0.500000  0.000000  1
  Si  Si4  1  0.000000  0.000000  0.956853  1
  Si  Si5  1  0.000000  0.000000  0.456892  1
  Si  Si6  1  0.500000  0.000000  0.792682  1
  Si  Si7  1  0.500000  0.000000  0.706207  1
  Si  Si8  1  0.000000  0.500000  0.207318  1
  Si  Si9  1  0.000000  0.500000  0.293793  1
  Si  Si10  1  0.000000  0.000000  0.043147  1
  Si  Si11  1  0.000000  0.000000  0.543108  1
  Au  Au12  1  0.500000  0.000000  0.085934  1
  Au  Au13  1  0.500000  0.500000  0.663280  1
  Au  Au14  1  0.500000  0.500000  0.835941  1
  Au  Au15  1  0.000000  0.500000  0.085273  1
  Au  Au16  1  0.500000  0.000000  0.914727  1
  Au  Au17  1  0.000000  0.000000  0.664541  1
  Au  Au18  1  0.000000  0.500000  0.414959  1
  Au  Au19  1  0.500000  0.500000  0.336720  1
  Au  Au20  1  0.500000  0.000000  0.414301  1
  Au  Au21  1  0.000000  0.000000  0.335459  1
  Au  Au22  1  0.000000  0.000000  0.165385  1
  Au  Au23  1  0.500000  0.000000  0.585041  1
  Au  Au24  1  0.000000  0.000000  0.834615  1
  Au  Au25  1  0.500000  0.500000  0.164059  1
  Au  Au26  1  0.000000  0.500000  0.585699  1
  Au  Au27  1  0.000000  0.500000  0.914066  1
