# generated using pymatgen
data_Ho4In(Si2Os)2
_symmetry_space_group_name_H-M   'P 1'
_cell_length_a   4.23639121
_cell_length_b   7.05590985
_cell_length_c   8.08423200
_cell_angle_alpha   106.68664008
_cell_angle_beta   105.18970021
_cell_angle_gamma   90.00000197
_symmetry_Int_Tables_number   1
_chemical_formula_structural   Ho4In(Si2Os)2
_chemical_formula_sum   'Ho4 In1 Si4 Os2'
_cell_volume   222.64662686
_cell_formula_units_Z   1
loop_
 _symmetry_equiv_pos_site_id
 _symmetry_equiv_pos_as_xyz
  1  'x, y, z'
loop_
 _atom_site_type_symbol
 _atom_site_label
 _atom_site_symmetry_multiplicity
 _atom_site_fract_x
 _atom_site_fract_y
 _atom_site_fract_z
 _atom_site_occupancy
  Ho  Ho0  1  0.586406  0.384271  0.172815  1
  Ho  Ho1  1  0.652137  0.932809  0.304276  1
  Ho  Ho2  1  0.347862  0.067192  0.695724  1
  Ho  Ho3  1  0.413593  0.615730  0.827184  1
  In  In4  1  0.000000  0.000000  0.000000  1
  Si  Si5  1  0.064856  0.649517  0.129713  1
  Si  Si6  1  0.207594  0.273209  0.415187  1
  Si  Si7  1  0.792405  0.726792  0.584813  1
  Si  Si8  1  0.935142  0.350482  0.870287  1
  Os  Os9  1  0.218531  0.629673  0.437061  1
  Os  Os10  1  0.781468  0.370328  0.562939  1
