# generated using pymatgen
data_TbUSeN2
_symmetry_space_group_name_H-M   'P 1'
_cell_length_a   3.85403800
_cell_length_b   3.85403729
_cell_length_c   6.90718100
_cell_angle_alpha   90.00000000
_cell_angle_beta   90.00000000
_cell_angle_gamma   120.00000606
_symmetry_Int_Tables_number   1
_chemical_formula_structural   TbUSeN2
_chemical_formula_sum   'Tb1 U1 Se1 N2'
_cell_volume   88.85121012
_cell_formula_units_Z   1
loop_
 _symmetry_equiv_pos_site_id
 _symmetry_equiv_pos_as_xyz
  1  'x, y, z'
loop_
 _atom_site_type_symbol
 _atom_site_label
 _atom_site_symmetry_multiplicity
 _atom_site_fract_x
 _atom_site_fract_y
 _atom_site_fract_z
 _atom_site_occupancy
  Tb  Tb0  1  0.666667  0.333333  0.711048  1
  U  U1  1  0.333333  0.666667  0.309608  1
  Se  Se2  1  0.000000  0.000000  0.010907  1
  N  N3  1  0.333333  0.666667  0.608348  1
  N  N4  1  0.666667  0.333333  0.360089  1
