# generated using pymatgen
data_Tb4Mg(Ga2Pt)10
_symmetry_space_group_name_H-M   'P 1'
_cell_length_a   4.16514791
_cell_length_b   11.13373711
_cell_length_c   13.69177061
_cell_angle_alpha   81.75811496
_cell_angle_beta   81.25110525
_cell_angle_gamma   79.21928235
_symmetry_Int_Tables_number   1
_chemical_formula_structural   Tb4Mg(Ga2Pt)10
_chemical_formula_sum   'Tb4 Mg1 Ga20 Pt10'
_cell_volume   612.14152759
_cell_formula_units_Z   1
loop_
 _symmetry_equiv_pos_site_id
 _symmetry_equiv_pos_as_xyz
  1  'x, y, z'
loop_
 _atom_site_type_symbol
 _atom_site_label
 _atom_site_symmetry_multiplicity
 _atom_site_fract_x
 _atom_site_fract_y
 _atom_site_fract_z
 _atom_site_occupancy
  Tb  Tb0  1  0.125302  0.085934  0.663462  1
  Tb  Tb1  1  0.874698  0.914066  0.336538  1
  Tb  Tb2  1  0.773136  0.632508  0.821219  1
  Tb  Tb3  1  0.226864  0.367492  0.178781  1
  Mg  Mg4  1  0.500000  0.500000  0.500000  1
  Ga  Ga5  1  0.009801  0.069720  0.910681  1
  Ga  Ga6  1  0.990199  0.930280  0.089319  1
  Ga  Ga7  1  0.064578  0.672470  0.198376  1
  Ga  Ga8  1  0.935422  0.327530  0.801624  1
  Ga  Ga9  1  0.110002  0.328951  0.451044  1
  Ga  Ga10  1  0.889998  0.671049  0.548956  1
  Ga  Ga11  1  0.202180  0.603916  0.991722  1
  Ga  Ga12  1  0.797820  0.396084  0.008278  1
  Ga  Ga13  1  0.257646  0.782227  0.702481  1
  Ga  Ga14  1  0.742354  0.217773  0.297519  1
  Ga  Ga15  1  0.302714  0.899005  0.495566  1
  Ga  Ga16  1  0.697286  0.100995  0.504434  1
  Ga  Ga17  1  0.384793  0.524530  0.705886  1
  Ga  Ga18  1  0.615207  0.475470  0.294114  1
  Ga  Ga19  1  0.397736  0.203858  0.000671  1
  Ga  Ga20  1  0.602264  0.796142  0.999329  1
  Ga  Ga21  1  0.543667  0.278956  0.633712  1
  Ga  Ga22  1  0.456333  0.721044  0.366288  1
  Ga  Ga23  1  0.635026  0.936486  0.793463  1
  Ga  Ga24  1  0.364974  0.063514  0.206537  1
  Pt  Pt25  1  0.025403  0.569118  0.380075  1
  Pt  Pt26  1  0.974597  0.430882  0.619925  1
  Pt  Pt27  1  0.137583  0.835523  0.889311  1
  Pt  Pt28  1  0.862417  0.164477  0.110689  1
  Pt  Pt29  1  0.243336  0.123500  0.389826  1
  Pt  Pt30  1  0.756664  0.876500  0.610174  1
  Pt  Pt31  1  0.345204  0.417728  0.891865  1
  Pt  Pt32  1  0.654796  0.582272  0.108135  1
  Pt  Pt33  1  0.505488  0.170854  0.818171  1
  Pt  Pt34  1  0.494512  0.829146  0.181829  1
