# generated using pymatgen
data_Na7Sn(SO4)6
_symmetry_space_group_name_H-M   'P 1'
_cell_length_a   8.73166690
_cell_length_b   8.73166736
_cell_length_c   8.73166766
_cell_angle_alpha   109.00491357
_cell_angle_beta   109.00491612
_cell_angle_gamma   109.00491162
_symmetry_Int_Tables_number   1
_chemical_formula_structural   Na7Sn(SO4)6
_chemical_formula_sum   'Na7 Sn1 S6 O24'
_cell_volume   521.13121202
_cell_formula_units_Z   1
loop_
 _symmetry_equiv_pos_site_id
 _symmetry_equiv_pos_as_xyz
  1  'x, y, z'
loop_
 _atom_site_type_symbol
 _atom_site_label
 _atom_site_symmetry_multiplicity
 _atom_site_fract_x
 _atom_site_fract_y
 _atom_site_fract_z
 _atom_site_occupancy
  Na  Na0  1  0.500000  0.500000  0.500000  1
  Na  Na1  1  0.654248  0.158007  0.316179  1
  Na  Na2  1  0.316179  0.654248  0.158007  1
  Na  Na3  1  0.158007  0.316179  0.654248  1
  Na  Na4  1  0.345752  0.841993  0.683821  1
  Na  Na5  1  0.683821  0.345752  0.841993  1
  Na  Na6  1  0.841993  0.683821  0.345752  1
  Sn  Sn7  1  0.000000  0.000000  0.000000  1
  S  S8  1  0.258243  0.034813  0.401883  1
  S  S9  1  0.401883  0.258243  0.034813  1
  S  S10  1  0.034813  0.401883  0.258243  1
  S  S11  1  0.741757  0.965187  0.598117  1
  S  S12  1  0.598117  0.741757  0.965187  1
  S  S13  1  0.965187  0.598117  0.741757  1
  O  O14  1  0.082031  0.525000  0.820529  1
  O  O15  1  0.820529  0.082031  0.525000  1
  O  O16  1  0.525000  0.820529  0.082031  1
  O  O17  1  0.917969  0.475000  0.179471  1
  O  O18  1  0.179471  0.917969  0.475000  1
  O  O19  1  0.475000  0.179471  0.917969  1
  O  O20  1  0.031449  0.688316  0.643557  1
  O  O21  1  0.643557  0.031449  0.688316  1
  O  O22  1  0.688316  0.643557  0.031449  1
  O  O23  1  0.968551  0.311684  0.356443  1
  O  O24  1  0.356443  0.968551  0.311684  1
  O  O25  1  0.311684  0.356443  0.968551  1
  O  O26  1  0.027736  0.261806  0.090212  1
  O  O27  1  0.090212  0.027736  0.261806  1
  O  O28  1  0.548458  0.376274  0.231591  1
  O  O29  1  0.376274  0.231591  0.548458  1
  O  O30  1  0.231591  0.548458  0.376274  1
  O  O31  1  0.451542  0.623726  0.768409  1
  O  O32  1  0.623726  0.768409  0.451542  1
  O  O33  1  0.768409  0.451542  0.623726  1
  O  O34  1  0.738194  0.909788  0.972264  1
  O  O35  1  0.909788  0.972264  0.738194  1
  O  O36  1  0.972264  0.738194  0.909788  1
  O  O37  1  0.261806  0.090212  0.027736  1
