# generated using pymatgen
data_Dy4Al16Si2Os3Pd2Pt
_symmetry_space_group_name_H-M   'P 1'
_cell_length_a   7.57933821
_cell_length_b   7.57934851
_cell_length_c   9.38113000
_cell_angle_alpha   90.07321339
_cell_angle_beta   90.07334200
_cell_angle_gamma   119.49265034
_symmetry_Int_Tables_number   1
_chemical_formula_structural   Dy4Al16Si2Os3Pd2Pt
_chemical_formula_sum   'Dy4 Al16 Si2 Os3 Pd2 Pt1'
_cell_volume   469.07815574
_cell_formula_units_Z   1
loop_
 _symmetry_equiv_pos_site_id
 _symmetry_equiv_pos_as_xyz
  1  'x, y, z'
loop_
 _atom_site_type_symbol
 _atom_site_label
 _atom_site_symmetry_multiplicity
 _atom_site_fract_x
 _atom_site_fract_y
 _atom_site_fract_z
 _atom_site_occupancy
  Dy  Dy0  1  0.994624  0.676335  0.248500  1
  Dy  Dy1  1  0.005104  0.323348  0.751069  1
  Dy  Dy2  1  0.676652  0.994897  0.248932  1
  Dy  Dy3  1  0.323662  0.005374  0.751498  1
  Al  Al4  1  0.997081  0.332257  0.076665  1
  Al  Al5  1  0.994262  0.661502  0.922706  1
  Al  Al6  1  0.997559  0.668691  0.579727  1
  Al  Al7  1  0.331308  0.002440  0.420273  1
  Al  Al8  1  0.001723  0.332842  0.421610  1
  Al  Al9  1  0.667163  0.998280  0.578392  1
  Al  Al10  1  0.667742  0.002919  0.923335  1
  Al  Al11  1  0.338498  0.005737  0.077294  1
  Al  Al12  1  0.331467  0.332170  0.558893  1
  Al  Al13  1  0.667829  0.668533  0.441106  1
  Al  Al14  1  0.670499  0.664003  0.052350  1
  Al  Al15  1  0.335997  0.329501  0.947650  1
  Al  Al16  1  0.337020  0.547045  0.249736  1
  Al  Al17  1  0.661504  0.450712  0.753064  1
  Al  Al18  1  0.549286  0.338495  0.246936  1
  Al  Al19  1  0.452956  0.662980  0.750263  1
  Si  Si20  1  0.125132  0.126397  0.249773  1
  Si  Si21  1  0.873603  0.874868  0.750227  1
  Os  Os22  1  0.672124  0.327873  0.000000  1
  Os  Os23  1  0.000636  0.999366  0.000000  1
  Os  Os24  1  0.999493  0.000507  0.499999  1
  Pd  Pd25  1  0.327093  0.672909  0.500001  1
  Pd  Pd26  1  0.671765  0.328234  0.499999  1
  Pt  Pt27  1  0.328211  0.671789  0.000000  1
