# generated using pymatgen
data_Er8Ta11Si16Ir
_symmetry_space_group_name_H-M   'P 1'
_cell_length_a   6.99889891
_cell_length_b   6.99889872
_cell_length_c   12.90090868
_cell_angle_alpha   90.22222870
_cell_angle_beta   89.77777263
_cell_angle_gamma   89.62749547
_symmetry_Int_Tables_number   1
_chemical_formula_structural   Er8Ta11Si16Ir
_chemical_formula_sum   'Er8 Ta11 Si16 Ir1'
_cell_volume   631.92272858
_cell_formula_units_Z   1
loop_
 _symmetry_equiv_pos_site_id
 _symmetry_equiv_pos_as_xyz
  1  'x, y, z'
loop_
 _atom_site_type_symbol
 _atom_site_label
 _atom_site_symmetry_multiplicity
 _atom_site_fract_x
 _atom_site_fract_y
 _atom_site_fract_z
 _atom_site_occupancy
  Er  Er0  1  0.341375  0.004187  0.468427  1
  Er  Er1  1  0.494957  0.841795  0.719692  1
  Er  Er2  1  0.501529  0.158161  0.216927  1
  Er  Er3  1  0.841795  0.494957  0.280308  1
  Er  Er4  1  0.158161  0.501529  0.783073  1
  Er  Er5  1  0.656458  0.996929  0.968904  1
  Er  Er6  1  0.004187  0.341375  0.531573  1
  Er  Er7  1  0.996929  0.656458  0.031096  1
  Ta  Ta8  1  0.174349  0.828538  0.247362  1
  Ta  Ta9  1  0.828538  0.174349  0.752638  1
  Ta  Ta10  1  0.671336  0.671336  0.500000  1
  Ta  Ta11  1  0.148929  0.001664  0.875045  1
  Ta  Ta12  1  0.495704  0.658761  0.124471  1
  Ta  Ta13  1  0.504338  0.348126  0.626238  1
  Ta  Ta14  1  0.658761  0.495704  0.875529  1
  Ta  Ta15  1  0.348126  0.504338  0.373762  1
  Ta  Ta16  1  0.848778  0.994837  0.373856  1
  Ta  Ta17  1  0.001664  0.148929  0.124955  1
  Ta  Ta18  1  0.994837  0.848778  0.626144  1
  Si  Si19  1  0.202754  0.136949  0.683033  1
  Si  Si20  1  0.367465  0.701714  0.932478  1
  Si  Si21  1  0.636201  0.296567  0.432075  1
  Si  Si22  1  0.701714  0.367465  0.067522  1
  Si  Si23  1  0.296567  0.636201  0.567925  1
  Si  Si24  1  0.796052  0.864184  0.182291  1
  Si  Si25  1  0.136949  0.202754  0.316967  1
  Si  Si26  1  0.864184  0.796052  0.817709  1
  Si  Si27  1  0.290997  0.954834  0.061556  1
  Si  Si28  1  0.545647  0.795882  0.314082  1
  Si  Si29  1  0.449174  0.207579  0.817795  1
  Si  Si30  1  0.795882  0.545647  0.685918  1
  Si  Si31  1  0.207579  0.449174  0.182205  1
  Si  Si32  1  0.704758  0.045703  0.564934  1
  Si  Si33  1  0.954834  0.290997  0.938444  1
  Si  Si34  1  0.045703  0.704758  0.435066  1
  Ir  Ir35  1  0.332793  0.332793  0.000000  1
