# generated using pymatgen
data_TbU7(B6Mo)4
_symmetry_space_group_name_H-M   'P 1'
_cell_length_a   3.69829900
_cell_length_b   9.27847828
_cell_length_c   11.37008534
_cell_angle_alpha   89.97202460
_cell_angle_beta   90.00000000
_cell_angle_gamma   90.00000000
_symmetry_Int_Tables_number   1
_chemical_formula_structural   TbU7(B6Mo)4
_chemical_formula_sum   'Tb1 U7 B24 Mo4'
_cell_volume   390.15973527
_cell_formula_units_Z   1
loop_
 _symmetry_equiv_pos_site_id
 _symmetry_equiv_pos_as_xyz
  1  'x, y, z'
loop_
 _atom_site_type_symbol
 _atom_site_label
 _atom_site_symmetry_multiplicity
 _atom_site_fract_x
 _atom_site_fract_y
 _atom_site_fract_z
 _atom_site_occupancy
  Tb  Tb0  1  0.000000  0.335341  0.408025  1
  U  U1  1  0.000000  0.664389  0.592207  1
  U  U2  1  0.000000  0.834795  0.092534  1
  U  U3  1  0.000000  0.165139  0.907594  1
  U  U4  1  0.000000  0.956329  0.394563  1
  U  U5  1  0.000000  0.044365  0.605104  1
  U  U6  1  0.000000  0.456311  0.105143  1
  U  U7  1  0.000000  0.543710  0.894882  1
  B  B8  1  0.500000  0.553102  0.433454  1
  B  B9  1  0.500000  0.451284  0.569100  1
  B  B10  1  0.500000  0.049480  0.066365  1
  B  B11  1  0.500000  0.949908  0.932795  1
  B  B12  1  0.500000  0.743288  0.424683  1
  B  B13  1  0.500000  0.255434  0.577244  1
  B  B14  1  0.500000  0.243496  0.075679  1
  B  B15  1  0.500000  0.756655  0.924128  1
  B  B16  1  0.500000  0.803993  0.272723  1
  B  B17  1  0.500000  0.196253  0.727734  1
  B  B18  1  0.500000  0.302720  0.225051  1
  B  B19  1  0.500000  0.696201  0.772474  1
  B  B20  1  0.500000  0.644653  0.187497  1
  B  B21  1  0.500000  0.355205  0.812823  1
  B  B22  1  0.500000  0.142673  0.311640  1
  B  B23  1  0.500000  0.855119  0.687630  1
  B  B24  1  0.500000  0.985704  0.217950  1
  B  B25  1  0.500000  0.014180  0.781467  1
  B  B26  1  0.500000  0.487971  0.280042  1
  B  B27  1  0.500000  0.515114  0.718327  1
  B  B28  1  0.500000  0.642656  0.039305  1
  B  B29  1  0.500000  0.358028  0.960788  1
  B  B30  1  0.500000  0.137624  0.461705  1
  B  B31  1  0.500000  0.857475  0.539827  1
  Mo  Mo32  1  0.000000  0.648537  0.319054  1
  Mo  Mo33  1  0.000000  0.355110  0.682793  1
  Mo  Mo34  1  0.000000  0.142894  0.177346  1
  Mo  Mo35  1  0.000000  0.854868  0.820325  1
