# generated using pymatgen
data_PrHoReB6
_symmetry_space_group_name_H-M   'P 1'
_cell_length_a   3.73764700
_cell_length_b   9.26129400
_cell_length_c   11.73580500
_cell_angle_alpha   90.00000000
_cell_angle_beta   90.00000000
_cell_angle_gamma   90.00000000
_symmetry_Int_Tables_number   1
_chemical_formula_structural   PrHoReB6
_chemical_formula_sum   'Pr4 Ho4 Re4 B24'
_cell_volume   406.24014461
_cell_formula_units_Z   4
loop_
 _symmetry_equiv_pos_site_id
 _symmetry_equiv_pos_as_xyz
  1  'x, y, z'
loop_
 _atom_site_type_symbol
 _atom_site_label
 _atom_site_symmetry_multiplicity
 _atom_site_fract_x
 _atom_site_fract_y
 _atom_site_fract_z
 _atom_site_occupancy
  Pr  Pr0  1  0.000000  0.322777  0.414380  1
  Pr  Pr1  1  0.000000  0.677223  0.585620  1
  Pr  Pr2  1  0.000000  0.822777  0.085620  1
  Pr  Pr3  1  0.000000  0.177223  0.914380  1
  Ho  Ho4  1  0.000000  0.943146  0.369203  1
  Ho  Ho5  1  0.000000  0.056854  0.630797  1
  Ho  Ho6  1  0.000000  0.443146  0.130797  1
  Ho  Ho7  1  0.000000  0.556854  0.869203  1
  Re  Re8  1  0.000000  0.639894  0.318926  1
  Re  Re9  1  0.000000  0.360106  0.681074  1
  Re  Re10  1  0.000000  0.139894  0.181074  1
  Re  Re11  1  0.000000  0.860106  0.818926  1
  B  B12  1  0.500000  0.555727  0.429668  1
  B  B13  1  0.500000  0.444273  0.570332  1
  B  B14  1  0.500000  0.055727  0.070332  1
  B  B15  1  0.500000  0.944273  0.929668  1
  B  B16  1  0.500000  0.750127  0.415282  1
  B  B17  1  0.500000  0.249873  0.584718  1
  B  B18  1  0.500000  0.250127  0.084718  1
  B  B19  1  0.500000  0.749873  0.915282  1
  B  B20  1  0.500000  0.791701  0.266181  1
  B  B21  1  0.500000  0.208299  0.733819  1
  B  B22  1  0.500000  0.291701  0.233819  1
  B  B23  1  0.500000  0.708299  0.766181  1
  B  B24  1  0.500000  0.629792  0.186489  1
  B  B25  1  0.500000  0.370208  0.813511  1
  B  B26  1  0.500000  0.129792  0.313511  1
  B  B27  1  0.500000  0.870208  0.686489  1
  B  B28  1  0.500000  0.984664  0.213560  1
  B  B29  1  0.500000  0.015336  0.786440  1
  B  B30  1  0.500000  0.484664  0.286440  1
  B  B31  1  0.500000  0.515336  0.713560  1
  B  B32  1  0.500000  0.595547  0.026273  1
  B  B33  1  0.500000  0.404453  0.973727  1
  B  B34  1  0.500000  0.095547  0.473727  1
  B  B35  1  0.500000  0.904453  0.526273  1
