# generated using pymatgen
data_SmPa3(Ni2Sn)2
_symmetry_space_group_name_H-M   'P 1'
_cell_length_a   7.44481971
_cell_length_b   7.44481925
_cell_length_c   3.60734300
_cell_angle_alpha   90.00000000
_cell_angle_beta   90.00000000
_cell_angle_gamma   91.16120999
_symmetry_Int_Tables_number   1
_chemical_formula_structural   SmPa3(Ni2Sn)2
_chemical_formula_sum   'Sm1 Pa3 Ni4 Sn2'
_cell_volume   199.89714096
_cell_formula_units_Z   1
loop_
 _symmetry_equiv_pos_site_id
 _symmetry_equiv_pos_as_xyz
  1  'x, y, z'
loop_
 _atom_site_type_symbol
 _atom_site_label
 _atom_site_symmetry_multiplicity
 _atom_site_fract_x
 _atom_site_fract_y
 _atom_site_fract_z
 _atom_site_occupancy
  Sm  Sm0  1  0.826223  0.673777  0.500000  1
  Pa  Pa1  1  0.674293  0.174010  0.500000  1
  Pa  Pa2  1  0.325990  0.825707  0.500000  1
  Pa  Pa3  1  0.172737  0.327263  0.500000  1
  Ni  Ni4  1  0.882910  0.358612  0.000000  1
  Ni  Ni5  1  0.141388  0.617090  0.000000  1
  Ni  Ni6  1  0.368312  0.131688  0.000000  1
  Ni  Ni7  1  0.607000  0.893000  0.000000  1
  Sn  Sn8  1  0.503986  0.502839  0.000000  1
  Sn  Sn9  1  0.997161  0.996014  0.000000  1
