# generated using pymatgen
data_TbYb2Pr17Ir12
_symmetry_space_group_name_H-M   'P 1'
_cell_length_a   11.31619400
_cell_length_b   11.31619400
_cell_length_c   6.56439700
_cell_angle_alpha   90.00000000
_cell_angle_beta   90.00000000
_cell_angle_gamma   90.00000000
_symmetry_Int_Tables_number   1
_chemical_formula_structural   TbYb2Pr17Ir12
_chemical_formula_sum   'Tb1 Yb2 Pr17 Ir12'
_cell_volume   840.61204131
_cell_formula_units_Z   1
loop_
 _symmetry_equiv_pos_site_id
 _symmetry_equiv_pos_as_xyz
  1  'x, y, z'
loop_
 _atom_site_type_symbol
 _atom_site_label
 _atom_site_symmetry_multiplicity
 _atom_site_fract_x
 _atom_site_fract_y
 _atom_site_fract_z
 _atom_site_occupancy
  Tb  Tb0  1  0.000000  0.000000  0.000000  1
  Yb  Yb1  1  0.000000  0.000000  0.500000  1
  Yb  Yb2  1  0.500000  0.500000  0.000000  1
  Pr  Pr3  1  0.285761  0.088195  0.385193  1
  Pr  Pr4  1  0.289759  0.911777  0.884942  1
  Pr  Pr5  1  0.710241  0.088223  0.884942  1
  Pr  Pr6  1  0.714239  0.911805  0.385193  1
  Pr  Pr7  1  0.588717  0.787739  0.885339  1
  Pr  Pr8  1  0.588457  0.207977  0.384396  1
  Pr  Pr9  1  0.411543  0.792023  0.384396  1
  Pr  Pr10  1  0.411283  0.212261  0.885339  1
  Pr  Pr11  1  0.207977  0.411543  0.615604  1
  Pr  Pr12  1  0.212261  0.588717  0.114661  1
  Pr  Pr13  1  0.787739  0.411283  0.114661  1
  Pr  Pr14  1  0.792023  0.588457  0.615604  1
  Pr  Pr15  1  0.911777  0.710241  0.115058  1
  Pr  Pr16  1  0.911805  0.285761  0.614807  1
  Pr  Pr17  1  0.088195  0.714239  0.614807  1
  Pr  Pr18  1  0.088223  0.289759  0.115058  1
  Pr  Pr19  1  0.500000  0.500000  0.500000  1
  Ir  Ir20  1  0.849564  0.152198  0.242978  1
  Ir  Ir21  1  0.847802  0.849564  0.757022  1
  Ir  Ir22  1  0.152198  0.150436  0.757022  1
  Ir  Ir23  1  0.150436  0.847802  0.242978  1
  Ir  Ir24  1  0.655123  0.345982  0.746222  1
  Ir  Ir25  1  0.654018  0.655123  0.253778  1
  Ir  Ir26  1  0.345982  0.344877  0.253778  1
  Ir  Ir27  1  0.344877  0.654018  0.746222  1
  Ir  Ir28  1  0.500000  0.000000  0.116692  1
  Ir  Ir29  1  0.500000  0.000000  0.616190  1
  Ir  Ir30  1  0.000000  0.500000  0.883308  1
  Ir  Ir31  1  0.000000  0.500000  0.383810  1
