# generated using pymatgen
data_DyMnNbB6
_symmetry_space_group_name_H-M   'P 1'
_cell_length_a   3.43415600
_cell_length_b   8.90288400
_cell_length_c   11.27188100
_cell_angle_alpha   90.00000000
_cell_angle_beta   90.00000000
_cell_angle_gamma   90.00000000
_symmetry_Int_Tables_number   1
_chemical_formula_structural   DyMnNbB6
_chemical_formula_sum   'Dy4 Mn4 Nb4 B24'
_cell_volume   344.62527803
_cell_formula_units_Z   4
loop_
 _symmetry_equiv_pos_site_id
 _symmetry_equiv_pos_as_xyz
  1  'x, y, z'
loop_
 _atom_site_type_symbol
 _atom_site_label
 _atom_site_symmetry_multiplicity
 _atom_site_fract_x
 _atom_site_fract_y
 _atom_site_fract_z
 _atom_site_occupancy
  Dy  Dy0  1  0.000000  0.823158  0.086064  1
  Dy  Dy1  1  0.000000  0.176842  0.913936  1
  Dy  Dy2  1  0.000000  0.323158  0.413936  1
  Dy  Dy3  1  0.000000  0.676842  0.586064  1
  Mn  Mn4  1  0.000000  0.144319  0.183037  1
  Mn  Mn5  1  0.000000  0.855681  0.816963  1
  Mn  Mn6  1  0.000000  0.644319  0.316963  1
  Mn  Mn7  1  0.000000  0.355681  0.683037  1
  Nb  Nb8  1  0.000000  0.444448  0.128298  1
  Nb  Nb9  1  0.000000  0.555552  0.871702  1
  Nb  Nb10  1  0.000000  0.944448  0.371702  1
  Nb  Nb11  1  0.000000  0.055552  0.628298  1
  B  B12  1  0.500000  0.055096  0.068088  1
  B  B13  1  0.500000  0.944904  0.931912  1
  B  B14  1  0.500000  0.555096  0.431912  1
  B  B15  1  0.500000  0.444904  0.568088  1
  B  B16  1  0.500000  0.252017  0.083721  1
  B  B17  1  0.500000  0.747983  0.916279  1
  B  B18  1  0.500000  0.752017  0.416279  1
  B  B19  1  0.500000  0.247983  0.583721  1
  B  B20  1  0.500000  0.295852  0.236180  1
  B  B21  1  0.500000  0.704148  0.763820  1
  B  B22  1  0.500000  0.795852  0.263820  1
  B  B23  1  0.500000  0.204148  0.736180  1
  B  B24  1  0.500000  0.130055  0.316841  1
  B  B25  1  0.500000  0.869945  0.683159  1
  B  B26  1  0.500000  0.630055  0.183159  1
  B  B27  1  0.500000  0.369945  0.816841  1
  B  B28  1  0.500000  0.483805  0.286960  1
  B  B29  1  0.500000  0.516195  0.713040  1
  B  B30  1  0.500000  0.983805  0.213040  1
  B  B31  1  0.500000  0.016195  0.786960  1
  B  B32  1  0.500000  0.099784  0.473605  1
  B  B33  1  0.500000  0.900216  0.526395  1
  B  B34  1  0.500000  0.599784  0.026395  1
  B  B35  1  0.500000  0.400216  0.973605  1
