# generated using pymatgen
data_CaNd4(RuO6)2
_symmetry_space_group_name_H-M   'P 1'
_cell_length_a   7.05679129
_cell_length_b   7.05679263
_cell_length_c   7.74418598
_cell_angle_alpha   73.96121084
_cell_angle_beta   73.96120970
_cell_angle_gamma   49.50423667
_symmetry_Int_Tables_number   1
_chemical_formula_structural   CaNd4(RuO6)2
_chemical_formula_sum   'Ca1 Nd4 Ru2 O12'
_cell_volume   279.36496528
_cell_formula_units_Z   1
loop_
 _symmetry_equiv_pos_site_id
 _symmetry_equiv_pos_as_xyz
  1  'x, y, z'
loop_
 _atom_site_type_symbol
 _atom_site_label
 _atom_site_symmetry_multiplicity
 _atom_site_fract_x
 _atom_site_fract_y
 _atom_site_fract_z
 _atom_site_occupancy
  Ca  Ca0  1  0.000000  0.000000  0.500000  1
  Nd  Nd1  1  0.304329  0.304329  0.361721  1
  Nd  Nd2  1  0.695671  0.695671  0.638279  1
  Nd  Nd3  1  0.687095  0.687095  0.176375  1
  Nd  Nd4  1  0.312905  0.312905  0.823625  1
  Ru  Ru5  1  0.774021  0.225979  0.000000  1
  Ru  Ru6  1  0.225979  0.774021  0.000000  1
  O  O7  1  0.096016  0.590351  0.579310  1
  O  O8  1  0.998651  0.998651  0.188845  1
  O  O9  1  0.409649  0.903984  0.420690  1
  O  O10  1  0.499177  0.499177  0.163782  1
  O  O11  1  0.091920  0.591101  0.077577  1
  O  O12  1  0.903984  0.409649  0.420690  1
  O  O13  1  0.001349  0.001349  0.811155  1
  O  O14  1  0.590351  0.096015  0.579310  1
  O  O15  1  0.500823  0.500823  0.836218  1
  O  O16  1  0.591101  0.091920  0.077577  1
  O  O17  1  0.408899  0.908080  0.922423  1
  O  O18  1  0.908080  0.408899  0.922423  1
