# generated using pymatgen
data_Y13Ho3(TlPt)4
_symmetry_space_group_name_H-M   'P 1'
_cell_length_a   9.75632809
_cell_length_b   9.76575979
_cell_length_c   9.76573900
_cell_angle_alpha   59.82728522
_cell_angle_beta   59.76390308
_cell_angle_gamma   59.76377508
_symmetry_Int_Tables_number   1
_chemical_formula_structural   Y13Ho3(TlPt)4
_chemical_formula_sum   'Y13 Ho3 Tl4 Pt4'
_cell_volume   654.72214275
_cell_formula_units_Z   1
loop_
 _symmetry_equiv_pos_site_id
 _symmetry_equiv_pos_as_xyz
  1  'x, y, z'
loop_
 _atom_site_type_symbol
 _atom_site_label
 _atom_site_symmetry_multiplicity
 _atom_site_fract_x
 _atom_site_fract_y
 _atom_site_fract_z
 _atom_site_occupancy
  Y  Y0  1  0.944882  0.351205  0.351186  1
  Y  Y1  1  0.811531  0.189447  0.189423  1
  Y  Y2  1  0.191854  0.809476  0.809479  1
  Y  Y3  1  0.189808  0.811062  0.190039  1
  Y  Y4  1  0.810090  0.191098  0.810075  1
  Y  Y5  1  0.189797  0.190038  0.811085  1
  Y  Y6  1  0.810093  0.810055  0.191112  1
  Y  Y7  1  0.936574  0.562401  0.562398  1
  Y  Y8  1  0.559799  0.939993  0.939975  1
  Y  Y9  1  0.561478  0.937237  0.561774  1
  Y  Y10  1  0.939523  0.560758  0.939171  1
  Y  Y11  1  0.561460  0.561764  0.937254  1
  Y  Y12  1  0.939529  0.939196  0.560736  1
  Ho  Ho13  1  0.349534  0.349711  0.349711  1
  Ho  Ho14  1  0.350201  0.350267  0.947632  1
  Ho  Ho15  1  0.350231  0.947603  0.350263  1
  Tl  Tl16  1  0.586942  0.587280  0.587288  1
  Tl  Tl17  1  0.585220  0.585583  0.242632  1
  Tl  Tl18  1  0.585226  0.242628  0.585579  1
  Tl  Tl19  1  0.243160  0.585298  0.585290  1
  Pt  Pt20  1  0.145722  0.142927  0.142928  1
  Pt  Pt21  1  0.144020  0.141839  0.570233  1
  Pt  Pt22  1  0.144025  0.570230  0.141826  1
  Pt  Pt23  1  0.569302  0.142907  0.142911  1
