# generated using pymatgen
data_PrHo2Ga2Co9B4
_symmetry_space_group_name_H-M   'P 1'
_cell_length_a   5.16676800
_cell_length_b   5.16501538
_cell_length_c   9.57115500
_cell_angle_alpha   89.99999585
_cell_angle_beta   90.00002973
_cell_angle_gamma   120.00134316
_symmetry_Int_Tables_number   1
_chemical_formula_structural   PrHo2Ga2Co9B4
_chemical_formula_sum   'Pr1 Ho2 Ga2 Co9 B4'
_cell_volume   221.19722956
_cell_formula_units_Z   1
loop_
 _symmetry_equiv_pos_site_id
 _symmetry_equiv_pos_as_xyz
  1  'x, y, z'
loop_
 _atom_site_type_symbol
 _atom_site_label
 _atom_site_symmetry_multiplicity
 _atom_site_fract_x
 _atom_site_fract_y
 _atom_site_fract_z
 _atom_site_occupancy
  Pr  Pr0  1  0.999985  0.000001  0.999919  1
  Ho  Ho1  1  0.999992  0.999997  0.341693  1
  Ho  Ho2  1  0.000000  0.000004  0.658401  1
  Ga  Ga3  1  0.333720  0.666900  0.999932  1
  Ga  Ga4  1  0.666257  0.333098  0.999933  1
  Co  Co5  1  0.499997  0.000000  0.500009  1
  Co  Co6  1  0.499996  0.500000  0.500013  1
  Co  Co7  1  0.999996  0.499999  0.500013  1
  Co  Co8  1  0.499994  0.000000  0.209996  1
  Co  Co9  1  0.499993  0.500000  0.209982  1
  Co  Co10  1  0.999993  0.499999  0.209899  1
  Co  Co11  1  0.499998  0.000000  0.789993  1
  Co  Co12  1  0.499998  0.500001  0.789987  1
  Co  Co13  1  0.999997  0.499999  0.790035  1
  B  B14  1  0.333292  0.666651  0.350716  1
  B  B15  1  0.666697  0.333349  0.350717  1
  B  B16  1  0.666686  0.333345  0.649381  1
  B  B17  1  0.333307  0.666655  0.649381  1
