# generated using pymatgen
data_Zr10CuPb6S
_symmetry_space_group_name_H-M   'P 1'
_cell_length_a   8.74850700
_cell_length_b   8.74850735
_cell_length_c   5.98382300
_cell_angle_alpha   90.00000000
_cell_angle_beta   90.00000000
_cell_angle_gamma   119.99999490
_symmetry_Int_Tables_number   1
_chemical_formula_structural   Zr10CuPb6S
_chemical_formula_sum   'Zr10 Cu1 Pb6 S1'
_cell_volume   396.62245413
_cell_formula_units_Z   1
loop_
 _symmetry_equiv_pos_site_id
 _symmetry_equiv_pos_as_xyz
  1  'x, y, z'
loop_
 _atom_site_type_symbol
 _atom_site_label
 _atom_site_symmetry_multiplicity
 _atom_site_fract_x
 _atom_site_fract_y
 _atom_site_fract_z
 _atom_site_occupancy
  Zr  Zr0  1  0.666667  0.333333  0.500000  1
  Zr  Zr1  1  0.333333  0.666667  0.500000  1
  Zr  Zr2  1  0.333333  0.666667  0.000000  1
  Zr  Zr3  1  0.666667  0.333333  0.000000  1
  Zr  Zr4  1  0.747407  0.747407  0.259852  1
  Zr  Zr5  1  0.252593  0.000000  0.259852  1
  Zr  Zr6  1  0.000000  0.252593  0.259852  1
  Zr  Zr7  1  0.252593  0.252593  0.740148  1
  Zr  Zr8  1  0.747407  0.000000  0.740148  1
  Zr  Zr9  1  0.000000  0.747407  0.740148  1
  Cu  Cu10  1  0.000000  0.000000  0.000000  1
  Pb  Pb11  1  0.392821  0.392821  0.244712  1
  Pb  Pb12  1  0.607179  0.000000  0.244712  1
  Pb  Pb13  1  0.000000  0.607179  0.244712  1
  Pb  Pb14  1  0.607179  0.607179  0.755288  1
  Pb  Pb15  1  0.392821  0.000000  0.755288  1
  Pb  Pb16  1  0.000000  0.392821  0.755288  1
  S  S17  1  0.000000  0.000000  0.500000  1
