# generated using pymatgen
data_Ho8Tm2(InBi)3
_symmetry_space_group_name_H-M   'P 1'
_cell_length_a   6.52772500
_cell_length_b   9.01734833
_cell_length_c   9.01822800
_cell_angle_alpha   119.99676850
_cell_angle_beta   89.99947954
_cell_angle_gamma   90.00103029
_symmetry_Int_Tables_number   1
_chemical_formula_structural   Ho8Tm2(InBi)3
_chemical_formula_sum   'Ho8 Tm2 In3 Bi3'
_cell_volume   459.73405960
_cell_formula_units_Z   1
loop_
 _symmetry_equiv_pos_site_id
 _symmetry_equiv_pos_as_xyz
  1  'x, y, z'
loop_
 _atom_site_type_symbol
 _atom_site_label
 _atom_site_symmetry_multiplicity
 _atom_site_fract_x
 _atom_site_fract_y
 _atom_site_fract_z
 _atom_site_occupancy
  Ho  Ho0  1  0.492778  0.333337  0.666660  1
  Ho  Ho1  1  0.492778  0.666676  0.333340  1
  Ho  Ho2  1  0.750201  0.236286  0.000000  1
  Ho  Ho3  1  0.750197  0.763494  0.763583  1
  Ho  Ho4  1  0.750197  0.999911  0.236417  1
  Ho  Ho5  1  0.249830  0.762137  0.000000  1
  Ho  Ho6  1  0.249825  0.238076  0.237982  1
  Ho  Ho7  1  0.249825  0.000093  0.762018  1
  Tm  Tm8  1  0.007453  0.666673  0.333343  1
  Tm  Tm9  1  0.007453  0.333331  0.666657  1
  In  In10  1  0.249416  0.393813  0.000000  1
  In  In11  1  0.249422  0.606338  0.606320  1
  In  In12  1  0.249422  0.000018  0.393680  1
  Bi  Bi13  1  0.750403  0.603708  0.000000  1
  Bi  Bi14  1  0.750398  0.396132  0.396155  1
  Bi  Bi15  1  0.750398  0.999979  0.603845  1
