# generated using pymatgen
data_Na2Fe3Co9P7
_symmetry_space_group_name_H-M   'P 1'
_cell_length_a   3.56993900
_cell_length_b   8.94696527
_cell_length_c   8.94696600
_cell_angle_alpha   120.00000270
_cell_angle_beta   90.00000000
_cell_angle_gamma   90.00000000
_symmetry_Int_Tables_number   1
_chemical_formula_structural   Na2Fe3Co9P7
_chemical_formula_sum   'Na2 Fe3 Co9 P7'
_cell_volume   247.48162198
_cell_formula_units_Z   1
loop_
 _symmetry_equiv_pos_site_id
 _symmetry_equiv_pos_as_xyz
  1  'x, y, z'
loop_
 _atom_site_type_symbol
 _atom_site_label
 _atom_site_symmetry_multiplicity
 _atom_site_fract_x
 _atom_site_fract_y
 _atom_site_fract_z
 _atom_site_occupancy
  Na  Na0  1  0.000000  0.666667  0.333333  1
  Na  Na1  1  0.500000  0.333333  0.666667  1
  Fe  Fe2  1  0.500000  0.782809  0.906465  1
  Fe  Fe3  1  0.500000  0.123656  0.217191  1
  Fe  Fe4  1  0.500000  0.093535  0.876344  1
  Co  Co5  1  0.000000  0.566771  0.941472  1
  Co  Co6  1  0.000000  0.374701  0.433229  1
  Co  Co7  1  0.000000  0.058528  0.625299  1
  Co  Co8  1  0.000000  0.881427  0.156580  1
  Co  Co9  1  0.000000  0.275152  0.118573  1
  Co  Co10  1  0.000000  0.843420  0.724848  1
  Co  Co11  1  0.500000  0.951834  0.385745  1
  Co  Co12  1  0.500000  0.433911  0.048166  1
  Co  Co13  1  0.500000  0.614255  0.566089  1
  P  P14  1  0.000000  0.000000  0.000000  1
  P  P15  1  0.500000  0.710036  0.112818  1
  P  P16  1  0.500000  0.402782  0.289964  1
  P  P17  1  0.500000  0.887182  0.597218  1
  P  P18  1  0.000000  0.591295  0.706668  1
  P  P19  1  0.000000  0.115374  0.408705  1
  P  P20  1  0.000000  0.293332  0.884626  1
