# generated using pymatgen
data_Ba4SiI3
_symmetry_space_group_name_H-M   'P 1'
_cell_length_a   16.54691874
_cell_length_b   15.78536472
_cell_length_c   8.85799818
_cell_angle_alpha   78.89961042
_cell_angle_beta   69.41122190
_cell_angle_gamma   30.64193826
_symmetry_Int_Tables_number   1
_chemical_formula_structural   Ba4SiI3
_chemical_formula_sum   'Ba12 Si3 I9'
_cell_volume   1074.15419325
_cell_formula_units_Z   3
loop_
 _symmetry_equiv_pos_site_id
 _symmetry_equiv_pos_as_xyz
  1  'x, y, z'
loop_
 _atom_site_type_symbol
 _atom_site_label
 _atom_site_symmetry_multiplicity
 _atom_site_fract_x
 _atom_site_fract_y
 _atom_site_fract_z
 _atom_site_occupancy
  Ba  Ba0  1  0.396382  0.935453  0.559100  1
  Ba  Ba1  1  0.588264  0.091820  0.371505  1
  Ba  Ba2  1  0.322673  0.860544  0.181435  1
  Ba  Ba3  1  0.935453  0.396382  0.109065  1
  Ba  Ba4  1  0.460378  0.040279  0.038080  1
  Ba  Ba5  1  0.860544  0.322673  0.635347  1
  Ba  Ba6  1  0.091820  0.588264  0.948411  1
  Ba  Ba7  1  0.659391  0.157403  0.879243  1
  Ba  Ba8  1  0.769358  0.216557  0.230392  1
  Ba  Ba9  1  0.216557  0.769358  0.783692  1
  Ba  Ba10  1  0.157403  0.659391  0.303961  1
  Ba  Ba11  1  0.040279  0.460378  0.461263  1
  Si  Si12  1  0.919292  0.919292  0.080708  1
  Si  Si13  1  0.164570  0.164570  0.335430  1
  Si  Si14  1  0.333246  0.333246  0.166754  1
  I  I15  1  0.084455  0.084455  0.915545  1
  I  I16  1  0.669555  0.669555  0.830445  1
  I  I17  1  0.749168  0.749168  0.250832  1
  I  I18  1  0.251676  0.251676  0.748324  1
  I  I19  1  0.578186  0.578186  0.421814  1
  I  I20  1  0.997434  0.997434  0.502566  1
  I  I21  1  0.828310  0.828310  0.671690  1
  I  I22  1  0.419694  0.419694  0.580306  1
  I  I23  1  0.505913  0.505913  0.994087  1
