# generated using pymatgen
data_La16Cd4TcIr2Ru
_symmetry_space_group_name_H-M   'P 1'
_cell_length_a   10.07068589
_cell_length_b   10.06920730
_cell_length_c   10.11287923
_cell_angle_alpha   60.14275124
_cell_angle_beta   60.17261602
_cell_angle_gamma   60.00485047
_symmetry_Int_Tables_number   1
_chemical_formula_structural   La16Cd4TcIr2Ru
_chemical_formula_sum   'La16 Cd4 Tc1 Ir2 Ru1'
_cell_volume   726.87725647
_cell_formula_units_Z   1
loop_
 _symmetry_equiv_pos_site_id
 _symmetry_equiv_pos_as_xyz
  1  'x, y, z'
loop_
 _atom_site_type_symbol
 _atom_site_label
 _atom_site_symmetry_multiplicity
 _atom_site_fract_x
 _atom_site_fract_y
 _atom_site_fract_z
 _atom_site_occupancy
  La  La0  1  0.903636  0.903863  0.903938  1
  La  La1  1  0.442563  0.436611  0.061046  1
  La  La2  1  0.060889  0.060546  0.442857  1
  La  La3  1  0.442563  0.059781  0.061046  1
  La  La4  1  0.309790  0.690459  0.309291  1
  La  La5  1  0.689675  0.690517  0.309338  1
  La  La6  1  0.689675  0.310470  0.309338  1
  La  La7  1  0.289868  0.903477  0.903179  1
  La  La8  1  0.903636  0.288563  0.903938  1
  La  La9  1  0.308595  0.692335  0.689664  1
  La  La10  1  0.902946  0.903502  0.290051  1
  La  La11  1  0.059076  0.440589  0.059748  1
  La  La12  1  0.308595  0.309407  0.689664  1
  La  La13  1  0.060889  0.435707  0.442857  1
  La  La14  1  0.437530  0.061603  0.439263  1
  La  La15  1  0.691553  0.309316  0.689817  1
  Cd  Cd16  1  0.670689  0.671001  0.987307  1
  Cd  Cd17  1  0.987171  0.671115  0.670598  1
  Cd  Cd18  1  0.671174  0.986665  0.670877  1
  Cd  Cd19  1  0.671174  0.671284  0.670877  1
  Tc  Tc20  1  0.115621  0.113939  0.656501  1
  Ir  Ir21  1  0.110963  0.109324  0.112148  1
  Ir  Ir22  1  0.110963  0.667563  0.112148  1
  Ru  Ru23  1  0.660766  0.112364  0.114503  1
