# generated using pymatgen
data_Tb3DyAl6(Ga2Ir)6
_symmetry_space_group_name_H-M   'P 1'
_cell_length_a   7.57330979
_cell_length_b   7.57145591
_cell_length_c   9.54441100
_cell_angle_alpha   90.16531607
_cell_angle_beta   89.93550445
_cell_angle_gamma   119.70033885
_symmetry_Int_Tables_number   1
_chemical_formula_structural   Tb3DyAl6(Ga2Ir)6
_chemical_formula_sum   'Tb3 Dy1 Al6 Ga12 Ir6'
_cell_volume   475.38616167
_cell_formula_units_Z   1
loop_
 _symmetry_equiv_pos_site_id
 _symmetry_equiv_pos_as_xyz
  1  'x, y, z'
loop_
 _atom_site_type_symbol
 _atom_site_label
 _atom_site_symmetry_multiplicity
 _atom_site_fract_x
 _atom_site_fract_y
 _atom_site_fract_z
 _atom_site_occupancy
  Tb  Tb0  1  0.001075  0.332876  0.748773  1
  Tb  Tb1  1  0.671351  0.000664  0.254964  1
  Tb  Tb2  1  0.328650  0.999335  0.745036  1
  Dy  Dy3  1  0.998929  0.667123  0.251229  1
  Al  Al4  1  0.664134  0.997621  0.928357  1
  Al  Al5  1  0.335847  0.002361  0.071651  1
  Al  Al6  1  0.332573  0.332639  0.552485  1
  Al  Al7  1  0.667443  0.667361  0.447506  1
  Al  Al8  1  0.667968  0.667362  0.053942  1
  Al  Al9  1  0.332048  0.332638  0.946067  1
  Ga  Ga10  1  0.128253  0.125047  0.249270  1
  Ga  Ga11  1  0.871737  0.874932  0.750730  1
  Ga  Ga12  1  0.998547  0.333249  0.077816  1
  Ga  Ga13  1  0.001455  0.666773  0.922207  1
  Ga  Ga14  1  0.998080  0.664585  0.579536  1
  Ga  Ga15  1  0.335026  0.000396  0.418080  1
  Ga  Ga16  1  0.001923  0.335439  0.420440  1
  Ga  Ga17  1  0.664950  0.999580  0.581912  1
  Ga  Ga18  1  0.345429  0.549973  0.249900  1
  Ga  Ga19  1  0.654560  0.450035  0.750101  1
  Ga  Ga20  1  0.547755  0.344235  0.249101  1
  Ga  Ga21  1  0.452269  0.655780  0.750899  1
  Ir  Ir22  1  0.667109  0.326087  0.999167  1
  Ir  Ir23  1  0.332890  0.673922  0.000848  1
  Ir  Ir24  1  0.330502  0.669316  0.500606  1
  Ir  Ir25  1  0.669500  0.330693  0.499379  1
  Ir  Ir26  1  0.999999  0.999989  0.000008  1
  Ir  Ir27  1  0.999999  0.999989  0.499992  1
