# generated using pymatgen
data_Ca5GeSb2
_symmetry_space_group_name_H-M   'P 1'
_cell_length_a   8.02150200
_cell_length_b   9.47573100
_cell_length_c   12.79653100
_cell_angle_alpha   90.00000000
_cell_angle_beta   90.00000000
_cell_angle_gamma   90.00000000
_symmetry_Int_Tables_number   1
_chemical_formula_structural   Ca5GeSb2
_chemical_formula_sum   'Ca20 Ge4 Sb8'
_cell_volume   972.65914086
_cell_formula_units_Z   4
loop_
 _symmetry_equiv_pos_site_id
 _symmetry_equiv_pos_as_xyz
  1  'x, y, z'
loop_
 _atom_site_type_symbol
 _atom_site_label
 _atom_site_symmetry_multiplicity
 _atom_site_fract_x
 _atom_site_fract_y
 _atom_site_fract_z
 _atom_site_occupancy
  Ca  Ca0  1  0.325955  0.973373  0.078028  1
  Ca  Ca1  1  0.825955  0.026627  0.421972  1
  Ca  Ca2  1  0.674045  0.473373  0.921972  1
  Ca  Ca3  1  0.174045  0.526627  0.578028  1
  Ca  Ca4  1  0.674045  0.026627  0.921972  1
  Ca  Ca5  1  0.174045  0.973373  0.578028  1
  Ca  Ca6  1  0.325955  0.526627  0.078028  1
  Ca  Ca7  1  0.825955  0.473373  0.421972  1
  Ca  Ca8  1  0.674386  0.750000  0.217718  1
  Ca  Ca9  1  0.174386  0.250000  0.282282  1
  Ca  Ca10  1  0.325614  0.250000  0.782282  1
  Ca  Ca11  1  0.825614  0.750000  0.717718  1
  Ca  Ca12  1  0.149788  0.750000  0.304687  1
  Ca  Ca13  1  0.649788  0.250000  0.195313  1
  Ca  Ca14  1  0.850212  0.250000  0.695313  1
  Ca  Ca15  1  0.350212  0.750000  0.804687  1
  Ca  Ca16  1  0.552811  0.750000  0.500841  1
  Ca  Ca17  1  0.052811  0.250000  0.999159  1
  Ca  Ca18  1  0.447189  0.250000  0.499159  1
  Ca  Ca19  1  0.947189  0.750000  0.000841  1
  Ge  Ge20  1  0.558478  0.750000  0.991921  1
  Ge  Ge21  1  0.058478  0.250000  0.508079  1
  Ge  Ge22  1  0.441522  0.250000  0.008079  1
  Ge  Ge23  1  0.941522  0.750000  0.491921  1
  Sb  Sb24  1  0.946779  0.007084  0.169350  1
  Sb  Sb25  1  0.446779  0.992916  0.330650  1
  Sb  Sb26  1  0.053221  0.507084  0.830650  1
  Sb  Sb27  1  0.553221  0.492916  0.669350  1
  Sb  Sb28  1  0.053221  0.992916  0.830650  1
  Sb  Sb29  1  0.553221  0.007084  0.669350  1
  Sb  Sb30  1  0.946779  0.492916  0.169350  1
  Sb  Sb31  1  0.446779  0.507084  0.330650  1
