# generated using pymatgen
data_TbTh3Al12(GaIr)6
_symmetry_space_group_name_H-M   'P 1'
_cell_length_a   7.62275559
_cell_length_b   7.63137425
_cell_length_c   9.56689100
_cell_angle_alpha   90.00000000
_cell_angle_beta   90.00000000
_cell_angle_gamma   119.61746172
_symmetry_Int_Tables_number   1
_chemical_formula_structural   TbTh3Al12(GaIr)6
_chemical_formula_sum   'Tb1 Th3 Al12 Ga6 Ir6'
_cell_volume   483.81286292
_cell_formula_units_Z   1
loop_
 _symmetry_equiv_pos_site_id
 _symmetry_equiv_pos_as_xyz
  1  'x, y, z'
loop_
 _atom_site_type_symbol
 _atom_site_label
 _atom_site_symmetry_multiplicity
 _atom_site_fract_x
 _atom_site_fract_y
 _atom_site_fract_z
 _atom_site_occupancy
  Tb  Tb0  1  0.329261  0.005507  0.750000  1
  Th  Th1  1  0.995087  0.670528  0.250000  1
  Th  Th2  1  0.003603  0.329854  0.750000  1
  Th  Th3  1  0.669647  0.994551  0.250000  1
  Al  Al4  1  0.005263  0.335222  0.073422  1
  Al  Al5  1  0.000108  0.669671  0.923956  1
  Al  Al6  1  0.000108  0.669671  0.576044  1
  Al  Al7  1  0.334886  0.004001  0.431845  1
  Al  Al8  1  0.005263  0.335222  0.426578  1
  Al  Al9  1  0.660296  0.995622  0.575991  1
  Al  Al10  1  0.660296  0.995622  0.924009  1
  Al  Al11  1  0.334886  0.004001  0.068155  1
  Al  Al12  1  0.336146  0.332816  0.554199  1
  Al  Al13  1  0.663471  0.663391  0.452038  1
  Al  Al14  1  0.663471  0.663391  0.047962  1
  Al  Al15  1  0.336146  0.332816  0.945801  1
  Ga  Ga16  1  0.136237  0.133713  0.250000  1
  Ga  Ga17  1  0.870667  0.868624  0.750000  1
  Ga  Ga18  1  0.342554  0.543454  0.250000  1
  Ga  Ga19  1  0.655420  0.450112  0.750000  1
  Ga  Ga20  1  0.543194  0.339759  0.250000  1
  Ga  Ga21  1  0.454221  0.661832  0.750000  1
  Ir  Ir22  1  0.673884  0.329204  0.000352  1
  Ir  Ir23  1  0.327574  0.670797  0.000501  1
  Ir  Ir24  1  0.327574  0.670797  0.499499  1
  Ir  Ir25  1  0.673884  0.329204  0.499648  1
  Ir  Ir26  1  0.998428  0.000311  0.000726  1
  Ir  Ir27  1  0.998428  0.000311  0.499274  1
