# generated using pymatgen
data_Tb6Co16TcNiP12
_symmetry_space_group_name_H-M   'P 1'
_cell_length_a   3.72525900
_cell_length_b   10.54177300
_cell_length_c   12.28065000
_cell_angle_alpha   90.00000000
_cell_angle_beta   90.00000000
_cell_angle_gamma   90.00000000
_symmetry_Int_Tables_number   1
_chemical_formula_structural   Tb6Co16TcNiP12
_chemical_formula_sum   'Tb6 Co16 Tc1 Ni1 P12'
_cell_volume   482.27137670
_cell_formula_units_Z   1
loop_
 _symmetry_equiv_pos_site_id
 _symmetry_equiv_pos_as_xyz
  1  'x, y, z'
loop_
 _atom_site_type_symbol
 _atom_site_label
 _atom_site_symmetry_multiplicity
 _atom_site_fract_x
 _atom_site_fract_y
 _atom_site_fract_z
 _atom_site_occupancy
  Tb  Tb0  1  0.000000  0.500000  0.522418  1
  Tb  Tb1  1  0.500000  0.000000  0.478738  1
  Tb  Tb2  1  0.500000  0.817360  0.206789  1
  Tb  Tb3  1  0.500000  0.182640  0.206789  1
  Tb  Tb4  1  0.000000  0.684664  0.795666  1
  Tb  Tb5  1  0.000000  0.315336  0.795666  1
  Co  Co6  1  0.000000  0.000000  0.839939  1
  Co  Co7  1  0.000000  0.000000  0.295779  1
  Co  Co8  1  0.000000  0.500000  0.987950  1
  Co  Co9  1  0.500000  0.000000  0.014641  1
  Co  Co10  1  0.500000  0.331922  0.991158  1
  Co  Co11  1  0.500000  0.668078  0.991158  1
  Co  Co12  1  0.000000  0.166360  0.005599  1
  Co  Co13  1  0.000000  0.833640  0.005599  1
  Co  Co14  1  0.500000  0.297210  0.430669  1
  Co  Co15  1  0.500000  0.702790  0.430669  1
  Co  Co16  1  0.000000  0.202789  0.568818  1
  Co  Co17  1  0.000000  0.797211  0.568818  1
  Co  Co18  1  0.500000  0.879362  0.709665  1
  Co  Co19  1  0.500000  0.120638  0.709665  1
  Co  Co20  1  0.000000  0.620301  0.291376  1
  Co  Co21  1  0.000000  0.379699  0.291376  1
  Tc  Tc22  1  0.500000  0.500000  0.156073  1
  Ni  Ni23  1  0.500000  0.500000  0.703380  1
  P  P24  1  0.500000  0.500000  0.883177  1
  P  P25  1  0.000000  0.000000  0.116987  1
  P  P26  1  0.500000  0.500000  0.347650  1
  P  P27  1  0.000000  0.000000  0.656500  1
  P  P28  1  0.500000  0.309393  0.615499  1
  P  P29  1  0.500000  0.690607  0.615499  1
  P  P30  1  0.000000  0.189104  0.384524  1
  P  P31  1  0.000000  0.810896  0.384524  1
  P  P32  1  0.500000  0.850161  0.892728  1
  P  P33  1  0.500000  0.149839  0.892728  1
  P  P34  1  0.000000  0.655471  0.105895  1
  P  P35  1  0.000000  0.344529  0.105895  1
