# generated using pymatgen
data_Nd6Al24NiOs7
_symmetry_space_group_name_H-M   'P 1'
_cell_length_a   8.89781845
_cell_length_b   8.90717453
_cell_length_c   9.67308329
_cell_angle_alpha   89.99999956
_cell_angle_beta   89.78555177
_cell_angle_gamma   120.03479621
_symmetry_Int_Tables_number   1
_chemical_formula_structural   Nd6Al24NiOs7
_chemical_formula_sum   'Nd6 Al24 Ni1 Os7'
_cell_volume   663.68594243
_cell_formula_units_Z   1
loop_
 _symmetry_equiv_pos_site_id
 _symmetry_equiv_pos_as_xyz
  1  'x, y, z'
loop_
 _atom_site_type_symbol
 _atom_site_label
 _atom_site_symmetry_multiplicity
 _atom_site_fract_x
 _atom_site_fract_y
 _atom_site_fract_z
 _atom_site_occupancy
  Nd  Nd0  1  0.192734  0.382845  0.250055  1
  Nd  Nd1  1  0.807266  0.617155  0.749945  1
  Nd  Nd2  1  0.614038  0.807019  0.250582  1
  Nd  Nd3  1  0.385962  0.192981  0.749418  1
  Nd  Nd4  1  0.192734  0.809890  0.250055  1
  Nd  Nd5  1  0.807266  0.190110  0.749945  1
  Al  Al6  1  0.331013  0.665507  0.012638  1
  Al  Al7  1  0.668987  0.334493  0.987362  1
  Al  Al8  1  0.667459  0.333729  0.512296  1
  Al  Al9  1  0.332541  0.666271  0.487704  1
  Al  Al10  1  0.162841  0.327373  0.574291  1
  Al  Al11  1  0.837159  0.672627  0.425709  1
  Al  Al12  1  0.672445  0.836222  0.574573  1
  Al  Al13  1  0.835146  0.673007  0.075393  1
  Al  Al14  1  0.327555  0.163778  0.425427  1
  Al  Al15  1  0.164854  0.326993  0.924607  1
  Al  Al16  1  0.162841  0.835469  0.574291  1
  Al  Al17  1  0.327969  0.163985  0.074444  1
  Al  Al18  1  0.837159  0.164531  0.425709  1
  Al  Al19  1  0.672031  0.836015  0.925556  1
  Al  Al20  1  0.835146  0.162139  0.075393  1
  Al  Al21  1  0.164854  0.837861  0.924607  1
  Al  Al22  1  0.562273  0.125001  0.249130  1
  Al  Al23  1  0.437727  0.874999  0.750870  1
  Al  Al24  1  0.878395  0.439198  0.247407  1
  Al  Al25  1  0.121605  0.560802  0.752593  1
  Al  Al26  1  0.562273  0.437273  0.249130  1
  Al  Al27  1  0.437727  0.562727  0.750870  1
  Al  Al28  1  0.000192  0.000096  0.250059  1
  Al  Al29  1  0.999808  0.999904  0.749941  1
  Ni  Ni30  1  0.000000  0.500000  0.000000  1
  Os  Os31  1  0.500000  0.000000  0.000000  1
  Os  Os32  1  0.500000  0.000000  0.500000  1
  Os  Os33  1  0.500000  0.500000  0.000000  1
  Os  Os34  1  0.000000  0.500000  0.500000  1
  Os  Os35  1  0.500000  0.500000  0.500000  1
  Os  Os36  1  0.000000  0.000000  0.000000  1
  Os  Os37  1  0.000000  0.000000  0.500000  1
