# generated using pymatgen
data_SrBiBF10
_symmetry_space_group_name_H-M   'P 1'
_cell_length_a   9.61984700
_cell_length_b   8.57375467
_cell_length_c   9.23542000
_cell_angle_alpha   85.70778857
_cell_angle_beta   90.00000000
_cell_angle_gamma   90.00000000
_symmetry_Int_Tables_number   1
_chemical_formula_structural   SrBiBF10
_chemical_formula_sum   'Sr4 Bi4 B4 F40'
_cell_volume   759.58450685
_cell_formula_units_Z   4
loop_
 _symmetry_equiv_pos_site_id
 _symmetry_equiv_pos_as_xyz
  1  'x, y, z'
loop_
 _atom_site_type_symbol
 _atom_site_label
 _atom_site_symmetry_multiplicity
 _atom_site_fract_x
 _atom_site_fract_y
 _atom_site_fract_z
 _atom_site_occupancy
  Sr  Sr0  1  0.471054  0.180754  0.205689  1
  Sr  Sr1  1  0.971054  0.819246  0.294311  1
  Sr  Sr2  1  0.528946  0.819246  0.794311  1
  Sr  Sr3  1  0.028946  0.180754  0.705689  1
  Bi  Bi4  1  0.056357  0.334079  0.252978  1
  Bi  Bi5  1  0.556357  0.665921  0.247022  1
  Bi  Bi6  1  0.943643  0.665921  0.747022  1
  Bi  Bi7  1  0.443643  0.334079  0.752978  1
  B  B8  1  0.272855  0.934658  0.498761  1
  B  B9  1  0.772855  0.065342  0.001239  1
  B  B10  1  0.727145  0.065342  0.501239  1
  B  B11  1  0.227145  0.934658  0.998761  1
  F  F12  1  0.210764  0.061550  0.563941  1
  F  F13  1  0.710764  0.938450  0.936059  1
  F  F14  1  0.789236  0.938450  0.436059  1
  F  F15  1  0.289236  0.061550  0.063941  1
  F  F16  1  0.365753  0.858431  0.596831  1
  F  F17  1  0.865753  0.141569  0.903169  1
  F  F18  1  0.634247  0.141569  0.403169  1
  F  F19  1  0.134247  0.858431  0.096831  1
  F  F20  1  0.169130  0.828240  0.461725  1
  F  F21  1  0.669130  0.171760  0.038275  1
  F  F22  1  0.830870  0.171760  0.538275  1
  F  F23  1  0.330870  0.828240  0.961725  1
  F  F24  1  0.345078  0.991236  0.373031  1
  F  F25  1  0.845078  0.008764  0.126969  1
  F  F26  1  0.654922  0.008764  0.626969  1
  F  F27  1  0.154922  0.991236  0.873031  1
  F  F28  1  0.077894  0.310033  0.038243  1
  F  F29  1  0.577894  0.689967  0.461757  1
  F  F30  1  0.922106  0.689967  0.961757  1
  F  F31  1  0.422106  0.310033  0.538243  1
  F  F32  1  0.062822  0.357714  0.473004  1
  F  F33  1  0.562822  0.642286  0.026996  1
  F  F34  1  0.937178  0.642286  0.526996  1
  F  F35  1  0.437178  0.357714  0.973004  1
  F  F36  1  0.059626  0.096256  0.304408  1
  F  F37  1  0.559626  0.903744  0.195592  1
  F  F38  1  0.940374  0.903744  0.695592  1
  F  F39  1  0.440374  0.096256  0.804408  1
  F  F40  1  0.066162  0.572232  0.221852  1
  F  F41  1  0.566162  0.427768  0.278148  1
  F  F42  1  0.933838  0.427768  0.778148  1
  F  F43  1  0.433838  0.572232  0.721852  1
  F  F44  1  0.847435  0.337400  0.244870  1
  F  F45  1  0.347435  0.662600  0.255130  1
  F  F46  1  0.152565  0.662600  0.755130  1
  F  F47  1  0.652565  0.337400  0.744870  1
  F  F48  1  0.269392  0.335535  0.266269  1
  F  F49  1  0.769392  0.664465  0.233731  1
  F  F50  1  0.730608  0.664465  0.733731  1
  F  F51  1  0.230608  0.335535  0.766269  1
