# generated using pymatgen
data_LiY7Er6Th3Cd3Ir4
_symmetry_space_group_name_H-M   'P 1'
_cell_length_a   9.71160065
_cell_length_b   9.71808592
_cell_length_c   9.71497100
_cell_angle_alpha   60.01060581
_cell_angle_beta   59.98852262
_cell_angle_gamma   60.06607276
_symmetry_Int_Tables_number   1
_chemical_formula_structural   LiY7Er6Th3Cd3Ir4
_chemical_formula_sum   'Li1 Y7 Er6 Th3 Cd3 Ir4'
_cell_volume   648.65169631
_cell_formula_units_Z   1
loop_
 _symmetry_equiv_pos_site_id
 _symmetry_equiv_pos_as_xyz
  1  'x, y, z'
loop_
 _atom_site_type_symbol
 _atom_site_label
 _atom_site_symmetry_multiplicity
 _atom_site_fract_x
 _atom_site_fract_y
 _atom_site_fract_z
 _atom_site_occupancy
  Li  Li0  1  0.574766  0.572620  0.573300  1
  Y  Y1  1  0.814066  0.812725  0.186221  1
  Y  Y2  1  0.939306  0.561957  0.563744  1
  Y  Y3  1  0.564033  0.936875  0.935020  1
  Y  Y4  1  0.563546  0.938261  0.565370  1
  Y  Y5  1  0.938387  0.562250  0.936485  1
  Y  Y6  1  0.564474  0.564396  0.937245  1
  Y  Y7  1  0.937803  0.937681  0.562699  1
  Er  Er8  1  0.952915  0.348449  0.348973  1
  Er  Er9  1  0.811317  0.189529  0.189580  1
  Er  Er10  1  0.185308  0.814635  0.814472  1
  Er  Er11  1  0.187400  0.813247  0.187283  1
  Er  Er12  1  0.813512  0.186702  0.812022  1
  Er  Er13  1  0.186743  0.187619  0.813384  1
  Th  Th14  1  0.348337  0.350481  0.349829  1
  Th  Th15  1  0.347507  0.349272  0.954006  1
  Th  Th16  1  0.346968  0.953376  0.349905  1
  Cd  Cd17  1  0.584942  0.580688  0.255543  1
  Cd  Cd18  1  0.584730  0.254878  0.581126  1
  Cd  Cd19  1  0.251920  0.582787  0.583486  1
  Ir  Ir20  1  0.143344  0.141988  0.142535  1
  Ir  Ir21  1  0.142623  0.142452  0.573481  1
  Ir  Ir22  1  0.145326  0.572325  0.141736  1
  Ir  Ir23  1  0.570728  0.144807  0.142553  1
