# generated using pymatgen
data_Nd5NiSn15Ir7
_symmetry_space_group_name_H-M   'P 1'
_cell_length_a   4.51842300
_cell_length_b   7.30741049
_cell_length_c   18.71197500
_cell_angle_alpha   89.79530024
_cell_angle_beta   90.00000000
_cell_angle_gamma   90.00000000
_symmetry_Int_Tables_number   1
_chemical_formula_structural   Nd5NiSn15Ir7
_chemical_formula_sum   'Nd5 Ni1 Sn15 Ir7'
_cell_volume   617.82751701
_cell_formula_units_Z   1
loop_
 _symmetry_equiv_pos_site_id
 _symmetry_equiv_pos_as_xyz
  1  'x, y, z'
loop_
 _atom_site_type_symbol
 _atom_site_label
 _atom_site_symmetry_multiplicity
 _atom_site_fract_x
 _atom_site_fract_y
 _atom_site_fract_z
 _atom_site_occupancy
  Nd  Nd0  1  0.500000  0.004060  0.856383  1
  Nd  Nd1  1  0.500000  0.500970  0.357336  1
  Nd  Nd2  1  0.000000  0.997478  0.143345  1
  Nd  Nd3  1  0.000000  0.499749  0.641560  1
  Nd  Nd4  1  0.500000  0.496680  0.931772  1
  Ni  Ni5  1  0.500000  0.767666  0.044647  1
  Sn  Sn6  1  0.000000  0.719818  0.806295  1
  Sn  Sn7  1  0.000000  0.779529  0.305804  1
  Sn  Sn8  1  0.500000  0.276798  0.194331  1
  Sn  Sn9  1  0.500000  0.219792  0.693043  1
  Sn  Sn10  1  0.000000  0.848645  0.971163  1
  Sn  Sn11  1  0.000000  0.632655  0.467338  1
  Sn  Sn12  1  0.500000  0.129244  0.032405  1
  Sn  Sn13  1  0.500000  0.366652  0.531143  1
  Sn  Sn14  1  0.000000  0.303726  0.819588  1
  Sn  Sn15  1  0.000000  0.201121  0.317607  1
  Sn  Sn16  1  0.500000  0.700419  0.182482  1
  Sn  Sn17  1  0.500000  0.804834  0.678990  1
  Sn  Sn18  1  0.500000  0.020162  0.432976  1
  Sn  Sn19  1  0.000000  0.509474  0.066966  1
  Sn  Sn20  1  0.000000  0.980260  0.568224  1
  Ir  Ir21  1  0.000000  0.229397  0.966727  1
  Ir  Ir22  1  0.000000  0.248730  0.464399  1
  Ir  Ir23  1  0.500000  0.750674  0.533428  1
  Ir  Ir24  1  0.000000  0.018060  0.715792  1
  Ir  Ir25  1  0.000000  0.486744  0.212253  1
  Ir  Ir26  1  0.500000  0.986388  0.288517  1
  Ir  Ir27  1  0.500000  0.520272  0.775488  1
