# generated using pymatgen
data_CsFeSeS
_symmetry_space_group_name_H-M   'P 1'
_cell_length_a   7.57259198
_cell_length_b   7.57259317
_cell_length_c   7.57259216
_cell_angle_alpha   136.83332175
_cell_angle_beta   122.53692493
_cell_angle_gamma   74.50170630
_symmetry_Int_Tables_number   1
_chemical_formula_structural   CsFeSeS
_chemical_formula_sum   'Cs2 Fe2 Se2 S2'
_cell_volume   244.48849299
_cell_formula_units_Z   2
loop_
 _symmetry_equiv_pos_site_id
 _symmetry_equiv_pos_as_xyz
  1  'x, y, z'
loop_
 _atom_site_type_symbol
 _atom_site_label
 _atom_site_symmetry_multiplicity
 _atom_site_fract_x
 _atom_site_fract_y
 _atom_site_fract_z
 _atom_site_occupancy
  Cs  Cs0  1  0.323151  0.823151  0.500000  1
  Cs  Cs1  1  0.676849  0.176849  0.500000  1
  Fe  Fe2  1  0.000000  0.755029  0.755029  1
  Fe  Fe3  1  0.000000  0.244971  0.244971  1
  Se  Se4  1  0.256059  0.500000  0.756059  1
  Se  Se5  1  0.743941  0.500000  0.243941  1
  S  S6  1  0.141824  0.141824  0.000000  1
  S  S7  1  0.858176  0.858176  0.000000  1
