# generated using pymatgen
data_Y21(In2Rh5)2
_symmetry_space_group_name_H-M   'P 1'
_cell_length_a   14.91314872
_cell_length_b   14.91314809
_cell_length_c   14.91314800
_cell_angle_alpha   134.14245884
_cell_angle_beta   134.14245649
_cell_angle_gamma   66.86558694
_symmetry_Int_Tables_number   1
_chemical_formula_structural   Y21(In2Rh5)2
_chemical_formula_sum   'Y42 In8 Rh20'
_cell_volume   1680.42478800
_cell_formula_units_Z   2
loop_
 _symmetry_equiv_pos_site_id
 _symmetry_equiv_pos_as_xyz
  1  'x, y, z'
loop_
 _atom_site_type_symbol
 _atom_site_label
 _atom_site_symmetry_multiplicity
 _atom_site_fract_x
 _atom_site_fract_y
 _atom_site_fract_z
 _atom_site_occupancy
  Y  Y0  1  0.269531  0.395313  0.281991  1
  Y  Y1  1  0.730469  0.604687  0.718009  1
  Y  Y2  1  0.113323  0.987540  0.718009  1
  Y  Y3  1  0.395313  0.113323  0.125783  1
  Y  Y4  1  0.386677  0.104687  0.874217  1
  Y  Y5  1  0.886677  0.012460  0.281991  1
  Y  Y6  1  0.604687  0.886677  0.874217  1
  Y  Y7  1  0.613323  0.895313  0.125783  1
  Y  Y8  1  0.987540  0.269531  0.874217  1
  Y  Y9  1  0.230469  0.512460  0.125783  1
  Y  Y10  1  0.012460  0.730469  0.125783  1
  Y  Y11  1  0.769531  0.487540  0.874217  1
  Y  Y12  1  0.512460  0.386677  0.281991  1
  Y  Y13  1  0.487540  0.613323  0.718009  1
  Y  Y14  1  0.104687  0.230469  0.718009  1
  Y  Y15  1  0.895313  0.769531  0.281991  1
  Y  Y16  1  0.602344  0.102344  0.500000  1
  Y  Y17  1  0.397656  0.897656  0.500000  1
  Y  Y18  1  0.102344  0.602344  0.500000  1
  Y  Y19  1  0.897656  0.397656  0.500000  1
  Y  Y20  1  0.651082  0.151082  0.802166  1
  Y  Y21  1  0.348918  0.848918  0.197834  1
  Y  Y22  1  0.151082  0.348918  0.500000  1
  Y  Y23  1  0.848918  0.651082  0.500000  1
  Y  Y24  1  0.270586  0.145483  0.276701  1
  Y  Y25  1  0.729414  0.854517  0.723299  1
  Y  Y26  1  0.868782  0.993885  0.723299  1
  Y  Y27  1  0.145483  0.868782  0.874897  1
  Y  Y28  1  0.631218  0.354517  0.125103  1
  Y  Y29  1  0.131218  0.006115  0.276701  1
  Y  Y30  1  0.854517  0.131218  0.125103  1
  Y  Y31  1  0.368782  0.645483  0.874897  1
  Y  Y32  1  0.993885  0.270586  0.125103  1
  Y  Y33  1  0.229414  0.506115  0.874897  1
  Y  Y34  1  0.006115  0.729414  0.874897  1
  Y  Y35  1  0.770586  0.493885  0.125103  1
  Y  Y36  1  0.506115  0.631218  0.276701  1
  Y  Y37  1  0.493885  0.368782  0.723299  1
  Y  Y38  1  0.354517  0.229414  0.723299  1
  Y  Y39  1  0.645483  0.770586  0.276701  1
  Y  Y40  1  0.750000  0.250000  0.500000  1
  Y  Y41  1  0.250000  0.750000  0.500000  1
  In  In42  1  0.341293  0.841293  0.813225  1
  In  In43  1  0.658707  0.158707  0.186775  1
  In  In44  1  0.028068  0.528068  0.186775  1
  In  In45  1  0.841293  0.028068  0.500000  1
  In  In46  1  0.471932  0.658707  0.500000  1
  In  In47  1  0.971932  0.471932  0.813225  1
  In  In48  1  0.158707  0.971932  0.500000  1
  In  In49  1  0.528068  0.341293  0.500000  1
  Rh  Rh50  1  0.792436  0.292436  0.870349  1
  Rh  Rh51  1  0.207564  0.707564  0.129651  1
  Rh  Rh52  1  0.422086  0.922086  0.129651  1
  Rh  Rh53  1  0.292436  0.422086  0.500000  1
  Rh  Rh54  1  0.077914  0.207564  0.500000  1
  Rh  Rh55  1  0.577914  0.077914  0.870349  1
  Rh  Rh56  1  0.707564  0.577914  0.500000  1
  Rh  Rh57  1  0.922086  0.792436  0.500000  1
  Rh  Rh58  1  0.097794  0.597794  0.695587  1
  Rh  Rh59  1  0.902206  0.402206  0.304413  1
  Rh  Rh60  1  0.597794  0.902206  0.500000  1
  Rh  Rh61  1  0.402206  0.097794  0.500000  1
  Rh  Rh62  1  0.000000  0.000000  0.000000  1
  Rh  Rh63  1  0.500000  0.500000  0.000000  1
  Rh  Rh64  1  0.131361  0.131361  0.000000  1
  Rh  Rh65  1  0.868639  0.868639  0.000000  1
  Rh  Rh66  1  0.368639  0.368639  0.000000  1
  Rh  Rh67  1  0.631361  0.631361  0.000000  1
  Rh  Rh68  1  0.250000  0.250000  0.000000  1
  Rh  Rh69  1  0.750000  0.750000  0.000000  1
