# generated using pymatgen
data_LiTb3Zn2In3
_symmetry_space_group_name_H-M   'P 1'
_cell_length_a   7.24179000
_cell_length_b   7.24178904
_cell_length_c   4.52181000
_cell_angle_alpha   90.00000000
_cell_angle_beta   90.00000000
_cell_angle_gamma   120.00000439
_symmetry_Int_Tables_number   1
_chemical_formula_structural   LiTb3Zn2In3
_chemical_formula_sum   'Li1 Tb3 Zn2 In3'
_cell_volume   205.36891967
_cell_formula_units_Z   1
loop_
 _symmetry_equiv_pos_site_id
 _symmetry_equiv_pos_as_xyz
  1  'x, y, z'
loop_
 _atom_site_type_symbol
 _atom_site_label
 _atom_site_symmetry_multiplicity
 _atom_site_fract_x
 _atom_site_fract_y
 _atom_site_fract_z
 _atom_site_occupancy
  Li  Li0  1  0.000000  0.000000  0.500000  1
  Tb  Tb1  1  0.000000  0.576190  0.500000  1
  Tb  Tb2  1  0.423810  0.423810  0.500000  1
  Tb  Tb3  1  0.576190  0.000000  0.500000  1
  Zn  Zn4  1  0.333333  0.666667  0.000000  1
  Zn  Zn5  1  0.666667  0.333333  0.000000  1
  In  In6  1  0.756777  0.756777  0.000000  1
  In  In7  1  0.000000  0.243223  0.000000  1
  In  In8  1  0.243223  0.000000  0.000000  1
