# generated using pymatgen
data_Zr10TlHgGePb5
_symmetry_space_group_name_H-M   'P 1'
_cell_length_a   8.88208408
_cell_length_b   8.88708199
_cell_length_c   6.03136102
_cell_angle_alpha   90.05303603
_cell_angle_beta   89.89388112
_cell_angle_gamma   119.98139840
_symmetry_Int_Tables_number   1
_chemical_formula_structural   Zr10TlHgGePb5
_chemical_formula_sum   'Zr10 Tl1 Hg1 Ge1 Pb5'
_cell_volume   412.38290424
_cell_formula_units_Z   1
loop_
 _symmetry_equiv_pos_site_id
 _symmetry_equiv_pos_as_xyz
  1  'x, y, z'
loop_
 _atom_site_type_symbol
 _atom_site_label
 _atom_site_symmetry_multiplicity
 _atom_site_fract_x
 _atom_site_fract_y
 _atom_site_fract_z
 _atom_site_occupancy
  Zr  Zr0  1  0.334419  0.668036  0.000417  1
  Zr  Zr1  1  0.666658  0.332107  0.499638  1
  Zr  Zr2  1  0.666385  0.331964  0.000417  1
  Zr  Zr3  1  0.334550  0.667893  0.499638  1
  Zr  Zr4  1  0.269667  0.000000  0.232076  1
  Zr  Zr5  1  0.269159  0.268693  0.767267  1
  Zr  Zr6  1  0.000467  0.731307  0.767267  1
  Zr  Zr7  1  0.998370  0.268618  0.232400  1
  Zr  Zr8  1  0.729753  0.731382  0.232400  1
  Zr  Zr9  1  0.730871  0.000000  0.770008  1
  Tl  Tl10  1  0.614345  0.000000  0.257063  1
  Hg  Hg11  1  0.998202  0.000000  0.498945  1
  Ge  Ge12  1  0.999780  0.000000  0.000545  1
  Pb  Pb13  1  0.613967  0.613177  0.743170  1
  Pb  Pb14  1  0.000791  0.386823  0.743170  1
  Pb  Pb15  1  0.999468  0.613440  0.256700  1
  Pb  Pb16  1  0.386028  0.386560  0.256700  1
  Pb  Pb17  1  0.387121  0.000000  0.742178  1
