# generated using pymatgen
data_HoTm7Ti11Si16W
_symmetry_space_group_name_H-M   'P 1'
_cell_length_a   6.99937832
_cell_length_b   6.99984549
_cell_length_c   12.86714913
_cell_angle_alpha   89.95055982
_cell_angle_beta   90.02792408
_cell_angle_gamma   90.03099280
_symmetry_Int_Tables_number   1
_chemical_formula_structural   HoTm7Ti11Si16W
_chemical_formula_sum   'Ho1 Tm7 Ti11 Si16 W1'
_cell_volume   630.41999584
_cell_formula_units_Z   1
loop_
 _symmetry_equiv_pos_site_id
 _symmetry_equiv_pos_as_xyz
  1  'x, y, z'
loop_
 _atom_site_type_symbol
 _atom_site_label
 _atom_site_symmetry_multiplicity
 _atom_site_fract_x
 _atom_site_fract_y
 _atom_site_fract_z
 _atom_site_occupancy
  Ho  Ho0  1  0.998052  0.658161  0.032872  1
  Tm  Tm1  1  0.340970  0.002834  0.466994  1
  Tm  Tm2  1  0.497303  0.840517  0.717390  1
  Tm  Tm3  1  0.501060  0.159119  0.215723  1
  Tm  Tm4  1  0.840469  0.497248  0.282672  1
  Tm  Tm5  1  0.159192  0.501014  0.784227  1
  Tm  Tm6  1  0.657705  0.998641  0.967032  1
  Tm  Tm7  1  0.002857  0.340969  0.533002  1
  Ti  Ti8  1  0.173840  0.827450  0.249626  1
  Ti  Ti9  1  0.827303  0.173814  0.750443  1
  Ti  Ti10  1  0.673028  0.673057  0.499993  1
  Ti  Ti11  1  0.153382  0.008357  0.876309  1
  Ti  Ti12  1  0.492381  0.651081  0.124429  1
  Ti  Ti13  1  0.506628  0.349198  0.626215  1
  Ti  Ti14  1  0.650984  0.492190  0.875520  1
  Ti  Ti15  1  0.349273  0.506635  0.373822  1
  Ti  Ti16  1  0.848598  0.993032  0.375726  1
  Ti  Ti17  1  0.008327  0.153423  0.123664  1
  Ti  Ti18  1  0.992940  0.848636  0.624260  1
  Si  Si19  1  0.202508  0.131338  0.683902  1
  Si  Si20  1  0.369355  0.701271  0.933625  1
  Si  Si21  1  0.631355  0.297158  0.433777  1
  Si  Si22  1  0.700849  0.368469  0.066213  1
  Si  Si23  1  0.297236  0.631351  0.566255  1
  Si  Si24  1  0.797150  0.869115  0.184186  1
  Si  Si25  1  0.131337  0.202410  0.316086  1
  Si  Si26  1  0.868637  0.797544  0.815981  1
  Si  Si27  1  0.291829  0.954482  0.064814  1
  Si  Si28  1  0.546394  0.792342  0.314898  1
  Si  Si29  1  0.452810  0.207649  0.815488  1
  Si  Si30  1  0.792257  0.546442  0.685095  1
  Si  Si31  1  0.207949  0.452418  0.184712  1
  Si  Si32  1  0.708137  0.047169  0.564965  1
  Si  Si33  1  0.954018  0.290969  0.935089  1
  Si  Si34  1  0.047127  0.708186  0.435011  1
  W  W35  1  0.326761  0.326311  0.999982  1
