# generated using pymatgen
data_Pa3Fe4Co5P6
_symmetry_space_group_name_H-M   'P 1'
_cell_length_a   3.76011500
_cell_length_b   10.44321700
_cell_length_c   12.23337800
_cell_angle_alpha   90.00000000
_cell_angle_beta   90.00000000
_cell_angle_gamma   90.00000000
_symmetry_Int_Tables_number   1
_chemical_formula_structural   Pa3Fe4Co5P6
_chemical_formula_sum   'Pa6 Fe8 Co10 P12'
_cell_volume   480.37657924
_cell_formula_units_Z   2
loop_
 _symmetry_equiv_pos_site_id
 _symmetry_equiv_pos_as_xyz
  1  'x, y, z'
loop_
 _atom_site_type_symbol
 _atom_site_label
 _atom_site_symmetry_multiplicity
 _atom_site_fract_x
 _atom_site_fract_y
 _atom_site_fract_z
 _atom_site_occupancy
  Pa  Pa0  1  0.000000  0.500000  0.521564  1
  Pa  Pa1  1  0.500000  0.000000  0.478436  1
  Pa  Pa2  1  0.500000  0.818188  0.208362  1
  Pa  Pa3  1  0.500000  0.181812  0.208362  1
  Pa  Pa4  1  0.000000  0.681812  0.791638  1
  Pa  Pa5  1  0.000000  0.318188  0.791638  1
  Fe  Fe6  1  0.000000  0.500000  0.983610  1
  Fe  Fe7  1  0.500000  0.000000  0.016390  1
  Fe  Fe8  1  0.500000  0.301441  0.429143  1
  Fe  Fe9  1  0.500000  0.698559  0.429143  1
  Fe  Fe10  1  0.000000  0.198559  0.570857  1
  Fe  Fe11  1  0.000000  0.801441  0.570857  1
  Fe  Fe12  1  0.500000  0.500000  0.154665  1
  Fe  Fe13  1  0.000000  0.000000  0.845335  1
  Co  Co14  1  0.500000  0.876326  0.713355  1
  Co  Co15  1  0.500000  0.123674  0.713355  1
  Co  Co16  1  0.000000  0.623674  0.286645  1
  Co  Co17  1  0.000000  0.376326  0.286645  1
  Co  Co18  1  0.500000  0.331770  0.994052  1
  Co  Co19  1  0.500000  0.668230  0.994052  1
  Co  Co20  1  0.000000  0.168230  0.005948  1
  Co  Co21  1  0.000000  0.831770  0.005948  1
  Co  Co22  1  0.500000  0.500000  0.702962  1
  Co  Co23  1  0.000000  0.000000  0.297038  1
  P  P24  1  0.500000  0.307973  0.611429  1
  P  P25  1  0.500000  0.692027  0.611429  1
  P  P26  1  0.000000  0.192027  0.388571  1
  P  P27  1  0.000000  0.807973  0.388571  1
  P  P28  1  0.500000  0.500000  0.885052  1
  P  P29  1  0.000000  0.000000  0.114948  1
  P  P30  1  0.500000  0.848624  0.895642  1
  P  P31  1  0.500000  0.151376  0.895642  1
  P  P32  1  0.000000  0.651376  0.104358  1
  P  P33  1  0.000000  0.348624  0.104358  1
  P  P34  1  0.500000  0.500000  0.340355  1
  P  P35  1  0.000000  0.000000  0.659645  1
