# generated using pymatgen
data_Li6Nd2NpN6
_symmetry_space_group_name_H-M   'P 1'
_cell_length_a   6.19223900
_cell_length_b   6.19224037
_cell_length_c   5.49452200
_cell_angle_alpha   90.00000000
_cell_angle_beta   90.00000000
_cell_angle_gamma   120.00000869
_symmetry_Int_Tables_number   1
_chemical_formula_structural   Li6Nd2NpN6
_chemical_formula_sum   'Li6 Nd2 Np1 N6'
_cell_volume   182.45510839
_cell_formula_units_Z   1
loop_
 _symmetry_equiv_pos_site_id
 _symmetry_equiv_pos_as_xyz
  1  'x, y, z'
loop_
 _atom_site_type_symbol
 _atom_site_label
 _atom_site_symmetry_multiplicity
 _atom_site_fract_x
 _atom_site_fract_y
 _atom_site_fract_z
 _atom_site_occupancy
  Li  Li0  1  0.965981  0.635558  0.601882  1
  Li  Li1  1  0.364442  0.330422  0.601882  1
  Li  Li2  1  0.669578  0.034019  0.601882  1
  Li  Li3  1  0.998149  0.336818  0.395068  1
  Li  Li4  1  0.663182  0.661330  0.395068  1
  Li  Li5  1  0.338670  0.001851  0.395068  1
  Nd  Nd6  1  0.000000  0.000000  0.996765  1
  Nd  Nd7  1  0.333333  0.666667  0.991778  1
  Np  Np8  1  0.666667  0.333333  0.007067  1
  N  N9  1  0.965662  0.632455  0.229146  1
  N  N10  1  0.367545  0.333208  0.229146  1
  N  N11  1  0.666792  0.034338  0.229146  1
  N  N12  1  0.961399  0.333753  0.775367  1
  N  N13  1  0.666247  0.627646  0.775367  1
  N  N14  1  0.372354  0.038601  0.775367  1
