# generated using pymatgen
data_Ho3Er5V4O20
_symmetry_space_group_name_H-M   'P 1'
_cell_length_a   3.70269300
_cell_length_b   10.29292606
_cell_length_c   11.22064906
_cell_angle_alpha   89.98790892
_cell_angle_beta   90.00000000
_cell_angle_gamma   90.00000000
_symmetry_Int_Tables_number   1
_chemical_formula_structural   Ho3Er5V4O20
_chemical_formula_sum   'Ho3 Er5 V4 O20'
_cell_volume   427.63626509
_cell_formula_units_Z   1
loop_
 _symmetry_equiv_pos_site_id
 _symmetry_equiv_pos_as_xyz
  1  'x, y, z'
loop_
 _atom_site_type_symbol
 _atom_site_label
 _atom_site_symmetry_multiplicity
 _atom_site_fract_x
 _atom_site_fract_y
 _atom_site_fract_z
 _atom_site_occupancy
  Ho  Ho0  1  0.250000  0.122358  0.272404  1
  Ho  Ho1  1  0.250000  0.136402  0.944292  1
  Ho  Ho2  1  0.750000  0.363773  0.444512  1
  Er  Er3  1  0.750000  0.376970  0.772135  1
  Er  Er4  1  0.250000  0.623326  0.227687  1
  Er  Er5  1  0.250000  0.636993  0.555454  1
  Er  Er6  1  0.750000  0.862894  0.055219  1
  Er  Er7  1  0.750000  0.876667  0.727722  1
  V  V8  1  0.250000  0.166722  0.616191  1
  V  V9  1  0.750000  0.333467  0.115904  1
  V  V10  1  0.250000  0.666773  0.883919  1
  V  V11  1  0.750000  0.832828  0.383957  1
  O  O12  1  0.750000  0.003619  0.894142  1
  O  O13  1  0.250000  0.002039  0.651874  1
  O  O14  1  0.250000  0.226486  0.455052  1
  O  O15  1  0.750000  0.246522  0.267472  1
  O  O16  1  0.750000  0.232530  0.614084  1
  O  O17  1  0.250000  0.267712  0.113666  1
  O  O18  1  0.250000  0.254347  0.767389  1
  O  O19  1  0.750000  0.273849  0.954539  1
  O  O20  1  0.750000  0.498034  0.151920  1
  O  O21  1  0.250000  0.496450  0.394206  1
  O  O22  1  0.750000  0.504740  0.606142  1
  O  O23  1  0.250000  0.502205  0.848234  1
  O  O24  1  0.250000  0.726824  0.045348  1
  O  O25  1  0.750000  0.746144  0.232182  1
  O  O26  1  0.750000  0.732819  0.886323  1
  O  O27  1  0.250000  0.767153  0.386291  1
  O  O28  1  0.250000  0.753867  0.732187  1
  O  O29  1  0.750000  0.773106  0.545387  1
  O  O30  1  0.750000  0.997516  0.348653  1
  O  O31  1  0.250000  0.994863  0.105513  1
