# generated using pymatgen
data_TbPaBiN2
_symmetry_space_group_name_H-M   'P 1'
_cell_length_a   7.28991182
_cell_length_b   7.28991254
_cell_length_c   7.28991223
_cell_angle_alpha   148.43988642
_cell_angle_beta   148.43989181
_cell_angle_gamma   45.23641860
_symmetry_Int_Tables_number   1
_chemical_formula_structural   TbPaBiN2
_chemical_formula_sum   'Tb1 Pa1 Bi1 N2'
_cell_volume   105.78718737
_cell_formula_units_Z   1
loop_
 _symmetry_equiv_pos_site_id
 _symmetry_equiv_pos_as_xyz
  1  'x, y, z'
loop_
 _atom_site_type_symbol
 _atom_site_label
 _atom_site_symmetry_multiplicity
 _atom_site_fract_x
 _atom_site_fract_y
 _atom_site_fract_z
 _atom_site_occupancy
  Tb  Tb0  1  0.333932  0.333932  0.000000  1
  Pa  Pa1  1  0.675149  0.675149  0.000000  1
  Bi  Bi2  1  0.002134  0.002134  0.000000  1
  N  N3  1  0.244394  0.744394  0.500000  1
  N  N4  1  0.744394  0.244394  0.500000  1
