# generated using pymatgen
data_TmLu3Pt4F28
_symmetry_space_group_name_H-M   'P 1'
_cell_length_a   5.45589007
_cell_length_b   8.74765467
_cell_length_c   11.83716470
_cell_angle_alpha   62.55906297
_cell_angle_beta   89.97053148
_cell_angle_gamma   89.98381317
_symmetry_Int_Tables_number   1
_chemical_formula_structural   TmLu3Pt4F28
_chemical_formula_sum   'Tm1 Lu3 Pt4 F28'
_cell_volume   501.37948104
_cell_formula_units_Z   1
loop_
 _symmetry_equiv_pos_site_id
 _symmetry_equiv_pos_as_xyz
  1  'x, y, z'
loop_
 _atom_site_type_symbol
 _atom_site_label
 _atom_site_symmetry_multiplicity
 _atom_site_fract_x
 _atom_site_fract_y
 _atom_site_fract_z
 _atom_site_occupancy
  Tm  Tm0  1  0.261294  0.816117  0.263677  1
  Lu  Lu1  1  0.738604  0.183718  0.736616  1
  Lu  Lu2  1  0.761070  0.184732  0.236385  1
  Lu  Lu3  1  0.238552  0.816358  0.763299  1
  Pt  Pt4  1  0.759789  0.727211  0.042451  1
  Pt  Pt5  1  0.240478  0.272913  0.957057  1
  Pt  Pt6  1  0.259570  0.272313  0.457371  1
  Pt  Pt7  1  0.740672  0.727047  0.543056  1
  F  F8  1  0.938669  0.703479  0.413616  1
  F  F9  1  0.060824  0.295945  0.586766  1
  F  F10  1  0.438718  0.295771  0.086830  1
  F  F11  1  0.559647  0.704169  0.913438  1
  F  F12  1  0.464385  0.725910  0.137558  1
  F  F13  1  0.538042  0.273544  0.863039  1
  F  F14  1  0.962913  0.273745  0.362757  1
  F  F15  1  0.037624  0.726236  0.637211  1
  F  F16  1  0.952277  0.743581  0.177036  1
  F  F17  1  0.047173  0.255741  0.822672  1
  F  F18  1  0.452627  0.256442  0.322375  1
  F  F19  1  0.545706  0.743913  0.677102  1
  F  F20  1  0.772030  0.474767  0.143422  1
  F  F21  1  0.228465  0.525505  0.856953  1
  F  F22  1  0.271543  0.524504  0.357049  1
  F  F23  1  0.727804  0.474380  0.642832  1
  F  F24  1  0.936177  0.279192  0.044827  1
  F  F25  1  0.064154  0.720778  0.954837  1
  F  F26  1  0.437049  0.720084  0.455730  1
  F  F27  1  0.563721  0.279468  0.544856  1
  F  F28  1  0.741526  0.979196  0.447853  1
  F  F29  1  0.258507  0.020347  0.552371  1
  F  F30  1  0.241840  0.020944  0.051569  1
  F  F31  1  0.758864  0.979374  0.947882  1
  F  F32  1  0.587390  0.971327  0.231951  1
  F  F33  1  0.414771  0.029933  0.767687  1
  F  F34  1  0.083245  0.031377  0.267652  1
  F  F35  1  0.914279  0.969934  0.732220  1
