# generated using pymatgen
data_Nd3CuAg(PdAu)2
_symmetry_space_group_name_H-M   'P 1'
_cell_length_a   7.72183100
_cell_length_b   7.72183129
_cell_length_c   3.86452000
_cell_angle_alpha   90.00000000
_cell_angle_beta   90.00000000
_cell_angle_gamma   120.51325745
_symmetry_Int_Tables_number   1
_chemical_formula_structural   Nd3CuAg(PdAu)2
_chemical_formula_sum   'Nd3 Cu1 Ag1 Pd2 Au2'
_cell_volume   198.51683392
_cell_formula_units_Z   1
loop_
 _symmetry_equiv_pos_site_id
 _symmetry_equiv_pos_as_xyz
  1  'x, y, z'
loop_
 _atom_site_type_symbol
 _atom_site_label
 _atom_site_symmetry_multiplicity
 _atom_site_fract_x
 _atom_site_fract_y
 _atom_site_fract_z
 _atom_site_occupancy
  Nd  Nd0  1  0.598988  0.007720  0.000000  1
  Nd  Nd1  1  0.007720  0.598988  0.000000  1
  Nd  Nd2  1  0.390785  0.390785  0.000000  1
  Cu  Cu3  1  0.997360  0.997360  0.000000  1
  Ag  Ag4  1  0.752793  0.752793  0.500000  1
  Pd  Pd5  1  0.340485  0.667714  0.500000  1
  Pd  Pd6  1  0.667714  0.340485  0.500000  1
  Au  Au7  1  0.247997  0.996155  0.500000  1
  Au  Au8  1  0.996155  0.247997  0.500000  1
