# generated using pymatgen
data_Ba2AgBrO2
_symmetry_space_group_name_H-M   'P 1'
_cell_length_a   4.34074749
_cell_length_b   4.34074735
_cell_length_c   10.73906483
_cell_angle_alpha   89.99999846
_cell_angle_beta   101.65982556
_cell_angle_gamma   119.99999693
_symmetry_Int_Tables_number   1
_chemical_formula_structural   Ba2AgBrO2
_chemical_formula_sum   'Ba2 Ag1 Br1 O2'
_cell_volume   170.39866881
_cell_formula_units_Z   1
loop_
 _symmetry_equiv_pos_site_id
 _symmetry_equiv_pos_as_xyz
  1  'x, y, z'
loop_
 _atom_site_type_symbol
 _atom_site_label
 _atom_site_symmetry_multiplicity
 _atom_site_fract_x
 _atom_site_fract_y
 _atom_site_fract_z
 _atom_site_occupancy
  Ba  Ba0  1  0.489632  0.744816  0.234449  1
  Ba  Ba1  1  0.510367  0.255184  0.765551  1
  Ag  Ag2  1  0.000001  0.500000  0.500000  1
  Br  Br3  1  0.000000  0.000000  0.000000  1
  O  O4  1  0.868702  0.434351  0.303052  1
  O  O5  1  0.131299  0.565650  0.696948  1
