# generated using pymatgen
data_Ho16Zn3CdCo3Ni
_symmetry_space_group_name_H-M   'P 1'
_cell_length_a   9.33186167
_cell_length_b   9.35788461
_cell_length_c   9.34476100
_cell_angle_alpha   60.04638411
_cell_angle_beta   59.95426726
_cell_angle_gamma   59.97289744
_symmetry_Int_Tables_number   1
_chemical_formula_structural   Ho16Zn3CdCo3Ni
_chemical_formula_sum   'Ho16 Zn3 Cd1 Co3 Ni1'
_cell_volume   576.91485222
_cell_formula_units_Z   1
loop_
 _symmetry_equiv_pos_site_id
 _symmetry_equiv_pos_as_xyz
  1  'x, y, z'
loop_
 _atom_site_type_symbol
 _atom_site_label
 _atom_site_symmetry_multiplicity
 _atom_site_fract_x
 _atom_site_fract_y
 _atom_site_fract_z
 _atom_site_occupancy
  Ho  Ho0  1  0.940565  0.933914  0.562760  1
  Ho  Ho1  1  0.813537  0.189604  0.189440  1
  Ho  Ho2  1  0.936730  0.561835  0.563491  1
  Ho  Ho3  1  0.936730  0.561835  0.937944  1
  Ho  Ho4  1  0.812164  0.806089  0.190873  1
  Ho  Ho5  1  0.347398  0.351611  0.349864  1
  Ho  Ho6  1  0.561041  0.933470  0.941298  1
  Ho  Ho7  1  0.561041  0.933470  0.564192  1
  Ho  Ho8  1  0.189422  0.809988  0.810013  1
  Ho  Ho9  1  0.188446  0.189322  0.811116  1
  Ho  Ho10  1  0.347398  0.351611  0.951129  1
  Ho  Ho11  1  0.349345  0.947242  0.351708  1
  Ho  Ho12  1  0.813537  0.189604  0.807418  1
  Ho  Ho13  1  0.561669  0.563220  0.937556  1
  Ho  Ho14  1  0.189422  0.809988  0.190577  1
  Ho  Ho15  1  0.954570  0.349291  0.348070  1
  Zn  Zn16  1  0.577841  0.583336  0.260955  1
  Zn  Zn17  1  0.259916  0.583507  0.578290  1
  Zn  Zn18  1  0.577841  0.583336  0.577868  1
  Cd  Cd19  1  0.576784  0.270412  0.576403  1
  Co  Co20  1  0.143706  0.141232  0.142340  1
  Co  Co21  1  0.143816  0.573581  0.141302  1
  Co  Co22  1  0.143706  0.141232  0.572724  1
  Ni  Ni23  1  0.573378  0.141275  0.142674  1
