# generated using pymatgen
data_Ta3Co3NiB7
_symmetry_space_group_name_H-M   'P 1'
_cell_length_a   9.29344869
_cell_length_b   9.29344854
_cell_length_c   8.89912015
_cell_angle_alpha   90.02063665
_cell_angle_beta   89.97936367
_cell_angle_gamma   160.10108021
_symmetry_Int_Tables_number   1
_chemical_formula_structural   Ta3Co3NiB7
_chemical_formula_sum   'Ta6 Co6 Ni2 B14'
_cell_volume   261.60237734
_cell_formula_units_Z   2
loop_
 _symmetry_equiv_pos_site_id
 _symmetry_equiv_pos_as_xyz
  1  'x, y, z'
loop_
 _atom_site_type_symbol
 _atom_site_label
 _atom_site_symmetry_multiplicity
 _atom_site_fract_x
 _atom_site_fract_y
 _atom_site_fract_z
 _atom_site_occupancy
  Ta  Ta0  1  0.698950  0.301050  0.245102  1
  Ta  Ta1  1  0.301050  0.698950  0.754898  1
  Ta  Ta2  1  0.580603  0.419397  0.555338  1
  Ta  Ta3  1  0.419397  0.580603  0.444662  1
  Ta  Ta4  1  0.419400  0.580600  0.055148  1
  Ta  Ta5  1  0.580600  0.419400  0.944852  1
  Co  Co6  1  0.543005  0.456995  0.249776  1
  Co  Co7  1  0.456995  0.543005  0.750224  1
  Co  Co8  1  0.844574  0.155426  0.249550  1
  Co  Co9  1  0.155426  0.844574  0.750450  1
  Co  Co10  1  0.199023  0.800977  0.005262  1
  Co  Co11  1  0.800977  0.199023  0.994738  1
  Ni  Ni12  1  0.801215  0.198785  0.508320  1
  Ni  Ni13  1  0.198785  0.801215  0.491680  1
  B  B14  1  0.955599  0.044401  0.250319  1
  B  B15  1  0.044401  0.955599  0.749681  1
  B  B16  1  0.890916  0.109084  0.649402  1
  B  B17  1  0.109084  0.890916  0.350598  1
  B  B18  1  0.109685  0.890315  0.146819  1
  B  B19  1  0.890315  0.109685  0.853181  1
  B  B20  1  0.709474  0.290526  0.648721  1
  B  B21  1  0.290526  0.709474  0.351279  1
  B  B22  1  0.290231  0.709769  0.146778  1
  B  B23  1  0.709769  0.290231  0.853222  1
  B  B24  1  0.984386  0.015614  0.592480  1
  B  B25  1  0.015614  0.984386  0.407520  1
  B  B26  1  0.015491  0.984509  0.092488  1
  B  B27  1  0.984509  0.015491  0.907512  1
