# generated using pymatgen
data_Sm7BI12
_symmetry_space_group_name_H-M   'P 1'
_cell_length_a   9.78153474
_cell_length_b   9.78153458
_cell_length_c   9.78153586
_cell_angle_alpha   107.71496952
_cell_angle_beta   107.71497107
_cell_angle_gamma   107.71495603
_symmetry_Int_Tables_number   1
_chemical_formula_structural   Sm7BI12
_chemical_formula_sum   'Sm7 B1 I12'
_cell_volume   763.70040550
_cell_formula_units_Z   1
loop_
 _symmetry_equiv_pos_site_id
 _symmetry_equiv_pos_as_xyz
  1  'x, y, z'
loop_
 _atom_site_type_symbol
 _atom_site_label
 _atom_site_symmetry_multiplicity
 _atom_site_fract_x
 _atom_site_fract_y
 _atom_site_fract_z
 _atom_site_occupancy
  Sm  Sm0  1  0.899751  0.967573  0.703528  1
  Sm  Sm1  1  0.703528  0.899751  0.967573  1
  Sm  Sm2  1  0.967573  0.703528  0.899751  1
  Sm  Sm3  1  0.100249  0.032427  0.296472  1
  Sm  Sm4  1  0.296472  0.100249  0.032427  1
  Sm  Sm5  1  0.032427  0.296472  0.100249  1
  Sm  Sm6  1  0.500000  0.500000  0.500000  1
  B  B7  1  0.000000  0.000000  0.000000  1
  I  I8  1  0.923969  0.314181  0.772367  1
  I  I9  1  0.772367  0.923969  0.314181  1
  I  I10  1  0.314181  0.772367  0.923969  1
  I  I11  1  0.076031  0.685819  0.227633  1
  I  I12  1  0.227633  0.076031  0.685819  1
  I  I13  1  0.685819  0.227633  0.076031  1
  I  I14  1  0.529994  0.847777  0.610802  1
  I  I15  1  0.610802  0.529994  0.847777  1
  I  I16  1  0.847777  0.610802  0.529994  1
  I  I17  1  0.470006  0.152223  0.389198  1
  I  I18  1  0.389198  0.470006  0.152223  1
  I  I19  1  0.152223  0.389198  0.470006  1
