# generated using pymatgen
data_Nd16MgNi(HgOs)3
_symmetry_space_group_name_H-M   'P 1'
_cell_length_a   9.85120073
_cell_length_b   9.99067882
_cell_length_c   9.99067800
_cell_angle_alpha   60.00000271
_cell_angle_beta   59.53052809
_cell_angle_gamma   59.53052912
_symmetry_Int_Tables_number   1
_chemical_formula_structural   Nd16MgNi(HgOs)3
_chemical_formula_sum   'Nd16 Mg1 Ni1 Hg3 Os3'
_cell_volume   690.31233435
_cell_formula_units_Z   1
loop_
 _symmetry_equiv_pos_site_id
 _symmetry_equiv_pos_as_xyz
  1  'x, y, z'
loop_
 _atom_site_type_symbol
 _atom_site_label
 _atom_site_symmetry_multiplicity
 _atom_site_fract_x
 _atom_site_fract_y
 _atom_site_fract_z
 _atom_site_occupancy
  Nd  Nd0  1  0.807844  0.192273  0.192273  1
  Nd  Nd1  1  0.186278  0.812045  0.812045  1
  Nd  Nd2  1  0.186278  0.812045  0.189631  1
  Nd  Nd3  1  0.807844  0.192273  0.807611  1
  Nd  Nd4  1  0.186278  0.189631  0.812045  1
  Nd  Nd5  1  0.807844  0.807611  0.192273  1
  Nd  Nd6  1  0.938253  0.561006  0.561006  1
  Nd  Nd7  1  0.553948  0.939881  0.939881  1
  Nd  Nd8  1  0.553948  0.939881  0.566291  1
  Nd  Nd9  1  0.938253  0.561006  0.939736  1
  Nd  Nd10  1  0.553948  0.566291  0.939881  1
  Nd  Nd11  1  0.938253  0.939736  0.561006  1
  Nd  Nd12  1  0.349279  0.346128  0.346128  1
  Nd  Nd13  1  0.349279  0.346128  0.958467  1
  Nd  Nd14  1  0.349279  0.958467  0.346128  1
  Nd  Nd15  1  0.955685  0.348105  0.348105  1
  Mg  Mg16  1  0.287935  0.570689  0.570689  1
  Ni  Ni17  1  0.580486  0.139838  0.139838  1
  Hg  Hg18  1  0.579970  0.586315  0.586315  1
  Hg  Hg19  1  0.579970  0.586315  0.247400  1
  Hg  Hg20  1  0.579970  0.247400  0.586315  1
  Os  Os21  1  0.143060  0.138302  0.138302  1
  Os  Os22  1  0.143060  0.138302  0.580336  1
  Os  Os23  1  0.143060  0.580336  0.138302  1
