# generated using pymatgen
data_BaNa5TaAs4
_symmetry_space_group_name_H-M   'P 1'
_cell_length_a   9.64317073
_cell_length_b   9.64317184
_cell_length_c   7.79009106
_cell_angle_alpha   89.56694347
_cell_angle_beta   89.56694446
_cell_angle_gamma   119.48609434
_symmetry_Int_Tables_number   1
_chemical_formula_structural   BaNa5TaAs4
_chemical_formula_sum   'Ba2 Na10 Ta2 As8'
_cell_volume   630.50687344
_cell_formula_units_Z   2
loop_
 _symmetry_equiv_pos_site_id
 _symmetry_equiv_pos_as_xyz
  1  'x, y, z'
loop_
 _atom_site_type_symbol
 _atom_site_label
 _atom_site_symmetry_multiplicity
 _atom_site_fract_x
 _atom_site_fract_y
 _atom_site_fract_z
 _atom_site_occupancy
  Ba  Ba0  1  0.533311  0.065004  0.607368  1
  Ba  Ba1  1  0.065004  0.533311  0.107368  1
  Na  Na2  1  0.536343  0.474129  0.613622  1
  Na  Na3  1  0.936605  0.472244  0.612044  1
  Na  Na4  1  0.474129  0.536343  0.113622  1
  Na  Na5  1  0.472244  0.936605  0.112044  1
  Na  Na6  1  0.136110  0.852154  0.779988  1
  Na  Na7  1  0.709519  0.845832  0.788740  1
  Na  Na8  1  0.148789  0.291326  0.774094  1
  Na  Na9  1  0.852154  0.136110  0.279988  1
  Na  Na10  1  0.291326  0.148789  0.274094  1
  Na  Na11  1  0.845832  0.709519  0.288740  1
  Ta  Ta12  1  0.333447  0.660481  0.500967  1
  Ta  Ta13  1  0.660481  0.333447  0.000967  1
  As  As14  1  0.807933  0.191017  0.901176  1
  As  As15  1  0.380041  0.192711  0.901917  1
  As  As16  1  0.805224  0.616158  0.896104  1
  As  As17  1  0.191017  0.807933  0.401176  1
  As  As18  1  0.616158  0.805224  0.396104  1
  As  As19  1  0.192711  0.380041  0.401917  1
  As  As20  1  0.340291  0.671332  0.821079  1
  As  As21  1  0.671332  0.340291  0.321079  1
