# generated using pymatgen
data_Y2Tm10Os3Ru
_symmetry_space_group_name_H-M   'P 1'
_cell_length_a   7.35615843
_cell_length_b   8.92907100
_cell_length_c   6.24229403
_cell_angle_alpha   90.00000000
_cell_angle_beta   89.92379331
_cell_angle_gamma   90.00000000
_symmetry_Int_Tables_number   1
_chemical_formula_structural   Y2Tm10Os3Ru
_chemical_formula_sum   'Y2 Tm10 Os3 Ru1'
_cell_volume   410.01636157
_cell_formula_units_Z   1
loop_
 _symmetry_equiv_pos_site_id
 _symmetry_equiv_pos_as_xyz
  1  'x, y, z'
loop_
 _atom_site_type_symbol
 _atom_site_label
 _atom_site_symmetry_multiplicity
 _atom_site_fract_x
 _atom_site_fract_y
 _atom_site_fract_z
 _atom_site_occupancy
  Y  Y0  1  0.040484  0.250000  0.627785  1
  Y  Y1  1  0.539538  0.250000  0.870344  1
  Tm  Tm2  1  0.959771  0.750000  0.370130  1
  Tm  Tm3  1  0.459982  0.750000  0.130256  1
  Tm  Tm4  1  0.173691  0.061246  0.165430  1
  Tm  Tm5  1  0.825446  0.936274  0.833306  1
  Tm  Tm6  1  0.324958  0.934967  0.667667  1
  Tm  Tm7  1  0.825446  0.563726  0.833306  1
  Tm  Tm8  1  0.674645  0.061772  0.334089  1
  Tm  Tm9  1  0.173691  0.438754  0.165430  1
  Tm  Tm10  1  0.674645  0.438228  0.334089  1
  Tm  Tm11  1  0.324958  0.565033  0.667667  1
  Os  Os12  1  0.617299  0.750000  0.537856  1
  Os  Os13  1  0.117585  0.750000  0.962200  1
  Os  Os14  1  0.883639  0.250000  0.044158  1
  Ru  Ru15  1  0.384221  0.250000  0.456290  1
