# generated using pymatgen
data_Sr9Ca(Si2Hg)2
_symmetry_space_group_name_H-M   'P 1'
_cell_length_a   10.07716315
_cell_length_b   10.07716310
_cell_length_c   10.07716283
_cell_angle_alpha   132.54591230
_cell_angle_beta   132.54590758
_cell_angle_gamma   69.36817312
_symmetry_Int_Tables_number   1
_chemical_formula_structural   Sr9Ca(Si2Hg)2
_chemical_formula_sum   'Sr9 Ca1 Si4 Hg2'
_cell_volume   544.97793029
_cell_formula_units_Z   1
loop_
 _symmetry_equiv_pos_site_id
 _symmetry_equiv_pos_as_xyz
  1  'x, y, z'
loop_
 _atom_site_type_symbol
 _atom_site_label
 _atom_site_symmetry_multiplicity
 _atom_site_fract_x
 _atom_site_fract_y
 _atom_site_fract_z
 _atom_site_occupancy
  Sr  Sr0  1  0.538850  0.043890  0.852930  1
  Sr  Sr1  1  0.190960  0.685920  0.147070  1
  Sr  Sr2  1  0.043890  0.190960  0.505040  1
  Sr  Sr3  1  0.685920  0.538850  0.494960  1
  Sr  Sr4  1  0.461150  0.956110  0.147070  1
  Sr  Sr5  1  0.809040  0.314080  0.852930  1
  Sr  Sr6  1  0.956110  0.809040  0.494960  1
  Sr  Sr7  1  0.314080  0.461150  0.505040  1
  Sr  Sr8  1  0.000000  0.000000  0.000000  1
  Ca  Ca9  1  0.500000  0.500000  0.000000  1
  Si  Si10  1  0.888449  0.394180  0.282628  1
  Si  Si11  1  0.111551  0.605820  0.717372  1
  Si  Si12  1  0.394180  0.111551  0.505731  1
  Si  Si13  1  0.605820  0.888449  0.494269  1
  Hg  Hg14  1  0.249206  0.249206  0.000000  1
  Hg  Hg15  1  0.750794  0.750794  0.000000  1
