# generated using pymatgen
data_RbMg(PO3)3
_symmetry_space_group_name_H-M   'P 1'
_cell_length_a   6.49126288
_cell_length_b   6.49126368
_cell_length_c   6.49126400
_cell_angle_alpha   106.34230310
_cell_angle_beta   106.34230688
_cell_angle_gamma   106.34230423
_symmetry_Int_Tables_number   1
_chemical_formula_structural   RbMg(PO3)3
_chemical_formula_sum   'Rb1 Mg1 P3 O9'
_cell_volume   231.75476500
_cell_formula_units_Z   1
loop_
 _symmetry_equiv_pos_site_id
 _symmetry_equiv_pos_as_xyz
  1  'x, y, z'
loop_
 _atom_site_type_symbol
 _atom_site_label
 _atom_site_symmetry_multiplicity
 _atom_site_fract_x
 _atom_site_fract_y
 _atom_site_fract_z
 _atom_site_occupancy
  Rb  Rb0  1  0.500000  0.500000  0.500000  1
  Mg  Mg1  1  0.000000  0.000000  0.000000  1
  P  P2  1  0.072300  0.927700  0.500000  1
  P  P3  1  0.927700  0.500000  0.072300  1
  P  P4  1  0.500000  0.072300  0.927700  1
  O  O5  1  0.654387  0.345613  0.000000  1
  O  O6  1  0.345613  0.000000  0.654387  1
  O  O7  1  0.000000  0.654387  0.345613  1
  O  O8  1  0.065758  0.350279  0.067719  1
  O  O9  1  0.350279  0.067719  0.065758  1
  O  O10  1  0.934242  0.932281  0.649721  1
  O  O11  1  0.067719  0.065758  0.350279  1
  O  O12  1  0.649721  0.934242  0.932281  1
  O  O13  1  0.932281  0.649721  0.934242  1
