# generated using pymatgen
data_YbHo3(MnB4)4
_symmetry_space_group_name_H-M   'P 1'
_cell_length_a   3.38612700
_cell_length_b   5.89941718
_cell_length_c   11.40894000
_cell_angle_alpha   89.98736013
_cell_angle_beta   90.00000000
_cell_angle_gamma   90.00000000
_symmetry_Int_Tables_number   1
_chemical_formula_structural   YbHo3(MnB4)4
_chemical_formula_sum   'Yb1 Ho3 Mn4 B16'
_cell_volume   227.90698545
_cell_formula_units_Z   1
loop_
 _symmetry_equiv_pos_site_id
 _symmetry_equiv_pos_as_xyz
  1  'x, y, z'
loop_
 _atom_site_type_symbol
 _atom_site_label
 _atom_site_symmetry_multiplicity
 _atom_site_fract_x
 _atom_site_fract_y
 _atom_site_fract_z
 _atom_site_occupancy
  Yb  Yb0  1  0.000000  0.625670  0.349732  1
  Ho  Ho1  1  0.000000  0.374540  0.650057  1
  Ho  Ho2  1  0.000000  0.126683  0.151143  1
  Ho  Ho3  1  0.000000  0.874150  0.848988  1
  Mn  Mn4  1  0.000000  0.627383  0.082724  1
  Mn  Mn5  1  0.000000  0.373200  0.916277  1
  Mn  Mn6  1  0.000000  0.126091  0.418090  1
  Mn  Mn7  1  0.000000  0.874527  0.583489  1
  B  B8  1  0.500000  0.780508  0.183800  1
  B  B9  1  0.500000  0.219120  0.816125  1
  B  B10  1  0.500000  0.281061  0.316647  1
  B  B11  1  0.500000  0.718787  0.683251  1
  B  B12  1  0.500000  0.862137  0.032003  1
  B  B13  1  0.500000  0.138256  0.967498  1
  B  B14  1  0.500000  0.362140  0.467630  1
  B  B15  1  0.500000  0.638075  0.532536  1
  B  B16  1  0.500000  0.886343  0.453841  1
  B  B17  1  0.500000  0.111575  0.546658  1
  B  B18  1  0.500000  0.387651  0.046196  1
  B  B19  1  0.500000  0.611929  0.953043  1
  B  B20  1  0.500000  0.975653  0.309406  1
  B  B21  1  0.500000  0.024580  0.691058  1
  B  B22  1  0.500000  0.475311  0.191117  1
  B  B23  1  0.500000  0.524628  0.808692  1
