# generated using pymatgen
data_ErPaCdPt2
_symmetry_space_group_name_H-M   'P 1'
_cell_length_a   7.73949000
_cell_length_b   7.91133300
_cell_length_c   3.63215200
_cell_angle_alpha   90.00000000
_cell_angle_beta   90.00000000
_cell_angle_gamma   90.00000000
_symmetry_Int_Tables_number   1
_chemical_formula_structural   ErPaCdPt2
_chemical_formula_sum   'Er2 Pa2 Cd2 Pt4'
_cell_volume   222.39551426
_cell_formula_units_Z   2
loop_
 _symmetry_equiv_pos_site_id
 _symmetry_equiv_pos_as_xyz
  1  'x, y, z'
loop_
 _atom_site_type_symbol
 _atom_site_label
 _atom_site_symmetry_multiplicity
 _atom_site_fract_x
 _atom_site_fract_y
 _atom_site_fract_z
 _atom_site_occupancy
  Er  Er0  1  0.829969  0.671801  0.500000  1
  Er  Er1  1  0.670031  0.171801  0.500000  1
  Pa  Pa2  1  0.163722  0.331330  0.500000  1
  Pa  Pa3  1  0.336278  0.831330  0.500000  1
  Cd  Cd4  1  0.508910  0.494393  0.000000  1
  Cd  Cd5  1  0.991090  0.994393  0.000000  1
  Pt  Pt6  1  0.618468  0.871222  0.000000  1
  Pt  Pt7  1  0.148214  0.631254  0.000000  1
  Pt  Pt8  1  0.881532  0.371222  0.000000  1
  Pt  Pt9  1  0.351786  0.131254  0.000000  1
