# generated using pymatgen
data_TbYFeCoSi4
_symmetry_space_group_name_H-M   'P 1'
_cell_length_a   3.98032400
_cell_length_b   4.27707238
_cell_length_c   7.91657982
_cell_angle_alpha   77.05895491
_cell_angle_beta   90.00000000
_cell_angle_gamma   90.00000000
_symmetry_Int_Tables_number   1
_chemical_formula_structural   TbYFeCoSi4
_chemical_formula_sum   'Tb1 Y1 Fe1 Co1 Si4'
_cell_volume   131.34981907
_cell_formula_units_Z   1
loop_
 _symmetry_equiv_pos_site_id
 _symmetry_equiv_pos_as_xyz
  1  'x, y, z'
loop_
 _atom_site_type_symbol
 _atom_site_label
 _atom_site_symmetry_multiplicity
 _atom_site_fract_x
 _atom_site_fract_y
 _atom_site_fract_z
 _atom_site_occupancy
  Tb  Tb0  1  0.750000  0.403080  0.202384  1
  Y  Y1  1  0.250000  0.596262  0.797503  1
  Fe  Fe2  1  0.750000  0.120657  0.606709  1
  Co  Co3  1  0.250000  0.881914  0.390611  1
  Si  Si4  1  0.250000  0.958919  0.094653  1
  Si  Si5  1  0.750000  0.042034  0.903511  1
  Si  Si6  1  0.250000  0.326781  0.494611  1
  Si  Si7  1  0.750000  0.670354  0.510020  1
