# generated using pymatgen
data_Er12Si11Ni
_symmetry_space_group_name_H-M   'P 1'
_cell_length_a   3.84059700
_cell_length_b   5.66361404
_cell_length_c   23.58934200
_cell_angle_alpha   82.60387193
_cell_angle_beta   90.00000000
_cell_angle_gamma   90.00000000
_symmetry_Int_Tables_number   1
_chemical_formula_structural   Er12Si11Ni
_chemical_formula_sum   'Er12 Si11 Ni1'
_cell_volume   508.83820255
_cell_formula_units_Z   1
loop_
 _symmetry_equiv_pos_site_id
 _symmetry_equiv_pos_as_xyz
  1  'x, y, z'
loop_
 _atom_site_type_symbol
 _atom_site_label
 _atom_site_symmetry_multiplicity
 _atom_site_fract_x
 _atom_site_fract_y
 _atom_site_fract_z
 _atom_site_occupancy
  Er  Er0  1  0.000000  0.913755  0.939686  1
  Er  Er1  1  0.500000  0.449902  0.393633  1
  Er  Er2  1  0.500000  0.438246  0.892740  1
  Er  Er3  1  0.000000  0.555895  0.106462  1
  Er  Er4  1  0.000000  0.558266  0.608300  1
  Er  Er5  1  0.500000  0.256689  0.226414  1
  Er  Er6  1  0.500000  0.244746  0.721209  1
  Er  Er7  1  0.000000  0.748462  0.273928  1
  Er  Er8  1  0.000000  0.735674  0.772735  1
  Er  Er9  1  0.500000  0.079538  0.059406  1
  Er  Er10  1  0.500000  0.092709  0.565206  1
  Er  Er11  1  0.000000  0.925978  0.440855  1
  Si  Si12  1  0.500000  0.621128  0.012103  1
  Si  Si13  1  0.500000  0.628918  0.513090  1
  Si  Si14  1  0.000000  0.383383  0.488324  1
  Si  Si15  1  0.000000  0.372958  0.986866  1
  Si  Si16  1  0.500000  0.768892  0.179301  1
  Si  Si17  1  0.500000  0.779113  0.678602  1
  Si  Si18  1  0.000000  0.236844  0.320922  1
  Si  Si19  1  0.000000  0.221959  0.818714  1
  Si  Si20  1  0.500000  0.960634  0.346656  1
  Si  Si21  1  0.500000  0.950684  0.844835  1
  Si  Si22  1  0.000000  0.044312  0.153658  1
  Ni  Ni23  1  0.000000  0.031317  0.656351  1
