# generated using pymatgen
data_HoEr3(SeO4)6
_symmetry_space_group_name_H-M   'P 1'
_cell_length_a   9.90754938
_cell_length_b   9.90754844
_cell_length_c   9.90754900
_cell_angle_alpha   58.06863610
_cell_angle_beta   58.06863895
_cell_angle_gamma   58.06863721
_symmetry_Int_Tables_number   1
_chemical_formula_structural   HoEr3(SeO4)6
_chemical_formula_sum   'Ho1 Er3 Se6 O24'
_cell_volume   657.22073457
_cell_formula_units_Z   1
loop_
 _symmetry_equiv_pos_site_id
 _symmetry_equiv_pos_as_xyz
  1  'x, y, z'
loop_
 _atom_site_type_symbol
 _atom_site_label
 _atom_site_symmetry_multiplicity
 _atom_site_fract_x
 _atom_site_fract_y
 _atom_site_fract_z
 _atom_site_occupancy
  Ho  Ho0  1  0.856162  0.856162  0.856162  1
  Er  Er1  1  0.644006  0.644006  0.644006  1
  Er  Er2  1  0.356044  0.356044  0.356044  1
  Er  Er3  1  0.143933  0.143933  0.143933  1
  Se  Se4  1  0.749920  0.037803  0.461832  1
  Se  Se5  1  0.962548  0.537088  0.250675  1
  Se  Se6  1  0.537088  0.250675  0.962549  1
  Se  Se7  1  0.461831  0.749920  0.037804  1
  Se  Se8  1  0.037804  0.461831  0.749920  1
  Se  Se9  1  0.250675  0.962548  0.537088  1
  O  O10  1  0.918734  0.064718  0.289866  1
  O  O11  1  0.775518  0.008697  0.629342  1
  O  O12  1  0.991986  0.369808  0.224434  1
  O  O13  1  0.709350  0.082111  0.935756  1
  O  O14  1  0.581256  0.209824  0.434844  1
  O  O15  1  0.870070  0.491685  0.724142  1
  O  O16  1  0.507620  0.276374  0.130080  1
  O  O17  1  0.790359  0.564190  0.419224  1
  O  O18  1  0.935756  0.709350  0.082111  1
  O  O19  1  0.564190  0.419224  0.790359  1
  O  O20  1  0.369808  0.224434  0.991986  1
  O  O21  1  0.276374  0.130080  0.507620  1
  O  O22  1  0.724142  0.870070  0.491685  1
  O  O23  1  0.629342  0.775518  0.008697  1
  O  O24  1  0.434844  0.581256  0.209824  1
  O  O25  1  0.064718  0.289866  0.918734  1
  O  O26  1  0.209824  0.434844  0.581256  1
  O  O27  1  0.491685  0.724142  0.870070  1
  O  O28  1  0.130080  0.507620  0.276374  1
  O  O29  1  0.419224  0.790359  0.564190  1
  O  O30  1  0.289866  0.918734  0.064718  1
  O  O31  1  0.008697  0.629342  0.775518  1
  O  O32  1  0.224434  0.991986  0.369808  1
  O  O33  1  0.082111  0.935756  0.709350  1
