# generated using pymatgen
data_Rb2PrF5
_symmetry_space_group_name_H-M   'P 1'
_cell_length_a   7.07157000
_cell_length_b   7.76685400
_cell_length_c   11.65141400
_cell_angle_alpha   90.00000000
_cell_angle_beta   90.00000000
_cell_angle_gamma   90.00000000
_symmetry_Int_Tables_number   1
_chemical_formula_structural   Rb2PrF5
_chemical_formula_sum   'Rb8 Pr4 F20'
_cell_volume   639.94053511
_cell_formula_units_Z   4
loop_
 _symmetry_equiv_pos_site_id
 _symmetry_equiv_pos_as_xyz
  1  'x, y, z'
loop_
 _atom_site_type_symbol
 _atom_site_label
 _atom_site_symmetry_multiplicity
 _atom_site_fract_x
 _atom_site_fract_y
 _atom_site_fract_z
 _atom_site_occupancy
  Rb  Rb0  1  0.529106  0.497776  0.828109  1
  Rb  Rb1  1  0.470894  0.502224  0.171891  1
  Rb  Rb2  1  0.029106  0.502224  0.671891  1
  Rb  Rb3  1  0.470894  0.997776  0.171891  1
  Rb  Rb4  1  0.970894  0.497776  0.328109  1
  Rb  Rb5  1  0.529106  0.002224  0.828109  1
  Rb  Rb6  1  0.970894  0.002224  0.328109  1
  Rb  Rb7  1  0.029106  0.997776  0.671891  1
  Pr  Pr8  1  0.562663  0.750000  0.502123  1
  Pr  Pr9  1  0.437337  0.250000  0.497877  1
  Pr  Pr10  1  0.062663  0.250000  0.997877  1
  Pr  Pr11  1  0.937337  0.750000  0.002123  1
  F  F12  1  0.838433  0.750000  0.810051  1
  F  F13  1  0.161567  0.250000  0.189949  1
  F  F14  1  0.338433  0.250000  0.689949  1
  F  F15  1  0.661567  0.750000  0.310051  1
  F  F16  1  0.368411  0.750000  0.663845  1
  F  F17  1  0.631589  0.250000  0.336155  1
  F  F18  1  0.868411  0.250000  0.836155  1
  F  F19  1  0.131589  0.750000  0.163845  1
  F  F20  1  0.890123  0.750000  0.513584  1
  F  F21  1  0.109877  0.250000  0.486416  1
  F  F22  1  0.390123  0.250000  0.986416  1
  F  F23  1  0.609877  0.750000  0.013584  1
  F  F24  1  0.641910  0.032245  0.576404  1
  F  F25  1  0.358090  0.967755  0.423596  1
  F  F26  1  0.141910  0.967755  0.923596  1
  F  F27  1  0.358090  0.532245  0.423596  1
  F  F28  1  0.858090  0.032245  0.076404  1
  F  F29  1  0.641910  0.467755  0.576404  1
  F  F30  1  0.858090  0.467755  0.076404  1
  F  F31  1  0.141910  0.532245  0.923596  1
