# generated using pymatgen
data_Sr3Eu(YSe2)8
_symmetry_space_group_name_H-M   'P 1'
_cell_length_a   4.15904800
_cell_length_b   12.62959832
_cell_length_c   15.02849238
_cell_angle_alpha   89.97415558
_cell_angle_beta   90.00000000
_cell_angle_gamma   90.00000000
_symmetry_Int_Tables_number   1
_chemical_formula_structural   Sr3Eu(YSe2)8
_chemical_formula_sum   'Sr3 Eu1 Y8 Se16'
_cell_volume   789.40312664
_cell_formula_units_Z   1
loop_
 _symmetry_equiv_pos_site_id
 _symmetry_equiv_pos_as_xyz
  1  'x, y, z'
loop_
 _atom_site_type_symbol
 _atom_site_label
 _atom_site_symmetry_multiplicity
 _atom_site_fract_x
 _atom_site_fract_y
 _atom_site_fract_z
 _atom_site_occupancy
  Sr  Sr0  1  0.750000  0.742304  0.163747  1
  Sr  Sr1  1  0.750000  0.242453  0.335774  1
  Sr  Sr2  1  0.250000  0.257663  0.836668  1
  Eu  Eu3  1  0.250000  0.757805  0.663624  1
  Y  Y4  1  0.750000  0.065426  0.110908  1
  Y  Y5  1  0.750000  0.566104  0.389561  1
  Y  Y6  1  0.250000  0.933547  0.888500  1
  Y  Y7  1  0.250000  0.435194  0.611221  1
  Y  Y8  1  0.750000  0.081180  0.598644  1
  Y  Y9  1  0.750000  0.581835  0.901116  1
  Y  Y10  1  0.250000  0.918209  0.402103  1
  Y  Y11  1  0.250000  0.418581  0.098709  1
  Se  Se12  1  0.750000  0.292693  0.675058  1
  Se  Se13  1  0.750000  0.792275  0.821973  1
  Se  Se14  1  0.250000  0.707405  0.324913  1
  Se  Se15  1  0.250000  0.207279  0.174887  1
  Se  Se16  1  0.750000  0.369093  0.971353  1
  Se  Se17  1  0.750000  0.867726  0.530344  1
  Se  Se18  1  0.250000  0.631112  0.028607  1
  Se  Se19  1  0.250000  0.130758  0.471300  1
  Se  Se20  1  0.750000  0.475377  0.215798  1
  Se  Se21  1  0.750000  0.975229  0.284678  1
  Se  Se22  1  0.250000  0.525750  0.784061  1
  Se  Se23  1  0.250000  0.023116  0.715318  1
  Se  Se24  1  0.750000  0.087704  0.921928  1
  Se  Se25  1  0.750000  0.589978  0.578983  1
  Se  Se26  1  0.250000  0.911889  0.077972  1
  Se  Se27  1  0.250000  0.412316  0.422252  1
