# generated using pymatgen
data_Yb2Bi3Sb3O14
_symmetry_space_group_name_H-M   'P 1'
_cell_length_a   7.57944283
_cell_length_b   7.57944547
_cell_length_c   7.57944491
_cell_angle_alpha   59.53084500
_cell_angle_beta   59.53093680
_cell_angle_gamma   59.53088251
_symmetry_Int_Tables_number   1
_chemical_formula_structural   Yb2Bi3Sb3O14
_chemical_formula_sum   'Yb2 Bi3 Sb3 O14'
_cell_volume   304.60685577
_cell_formula_units_Z   1
loop_
 _symmetry_equiv_pos_site_id
 _symmetry_equiv_pos_as_xyz
  1  'x, y, z'
loop_
 _atom_site_type_symbol
 _atom_site_label
 _atom_site_symmetry_multiplicity
 _atom_site_fract_x
 _atom_site_fract_y
 _atom_site_fract_z
 _atom_site_occupancy
  Yb  Yb0  1  0.999999  0.499999  0.000001  1
  Yb  Yb1  1  0.500000  0.999985  0.500016  1
  Bi  Bi2  1  0.000004  0.000002  0.499998  1
  Bi  Bi3  1  0.500008  0.000006  0.000000  1
  Bi  Bi4  1  0.499996  0.499999  0.499996  1
  Sb  Sb5  1  0.499997  0.500036  0.999967  1
  Sb  Sb6  1  0.999983  0.500014  0.500016  1
  Sb  Sb7  1  0.000023  0.999982  0.999995  1
  O  O8  1  0.620120  0.120124  0.620113  1
  O  O9  1  0.379879  0.879884  0.379876  1
  O  O10  1  0.094146  0.185116  0.685118  1
  O  O11  1  0.685113  0.185110  0.094147  1
  O  O12  1  0.685119  0.594145  0.685123  1
  O  O13  1  0.905853  0.814882  0.314881  1
  O  O14  1  0.314879  0.814877  0.905852  1
  O  O15  1  0.314885  0.405848  0.314890  1
  O  O16  1  0.630404  0.594930  0.094938  1
  O  O17  1  0.094937  0.594930  0.630403  1
  O  O18  1  0.094931  0.130405  0.094937  1
  O  O19  1  0.369595  0.405062  0.905069  1
  O  O20  1  0.905067  0.405064  0.369594  1
  O  O21  1  0.905063  0.869597  0.905068  1
