# generated using pymatgen
data_La5SbRuO12
_symmetry_space_group_name_H-M   'P 1'
_cell_length_a   7.21641383
_cell_length_b   7.21641464
_cell_length_c   7.77040910
_cell_angle_alpha   74.40921596
_cell_angle_beta   74.40921722
_cell_angle_gamma   50.84476016
_symmetry_Int_Tables_number   1
_chemical_formula_structural   La5SbRuO12
_chemical_formula_sum   'La5 Sb1 Ru1 O12'
_cell_volume   299.57070448
_cell_formula_units_Z   1
loop_
 _symmetry_equiv_pos_site_id
 _symmetry_equiv_pos_as_xyz
  1  'x, y, z'
loop_
 _atom_site_type_symbol
 _atom_site_label
 _atom_site_symmetry_multiplicity
 _atom_site_fract_x
 _atom_site_fract_y
 _atom_site_fract_z
 _atom_site_occupancy
  La  La0  1  0.299280  0.311202  0.359004  1
  La  La1  1  0.688798  0.700720  0.640996  1
  La  La2  1  0.689959  0.698163  0.166907  1
  La  La3  1  0.301837  0.310041  0.833093  1
  La  La4  1  0.997826  0.002174  0.500000  1
  Sb  Sb5  1  0.764161  0.235839  0.000000  1
  Ru  Ru6  1  0.251807  0.748193  0.000000  1
  O  O7  1  0.090310  0.600206  0.577326  1
  O  O8  1  0.001735  0.996499  0.175360  1
  O  O9  1  0.399794  0.909690  0.422674  1
  O  O10  1  0.510504  0.490168  0.172302  1
  O  O11  1  0.100963  0.584054  0.078158  1
  O  O12  1  0.902392  0.406982  0.422380  1
  O  O13  1  0.003501  0.998265  0.824640  1
  O  O14  1  0.593018  0.097607  0.577620  1
  O  O15  1  0.509832  0.489496  0.827698  1
  O  O16  1  0.578096  0.099760  0.079601  1
  O  O17  1  0.415946  0.899037  0.921842  1
  O  O18  1  0.900240  0.421904  0.920399  1
