# generated using pymatgen
data_Na5P12Ir11Rh8
_symmetry_space_group_name_H-M   'P 1'
_cell_length_a   12.61898194
_cell_length_b   12.61188467
_cell_length_c   3.93384800
_cell_angle_alpha   90.00000000
_cell_angle_beta   90.00000000
_cell_angle_gamma   119.95473535
_symmetry_Int_Tables_number   1
_chemical_formula_structural   Na5P12Ir11Rh8
_chemical_formula_sum   'Na5 P12 Ir11 Rh8'
_cell_volume   542.43839818
_cell_formula_units_Z   1
loop_
 _symmetry_equiv_pos_site_id
 _symmetry_equiv_pos_as_xyz
  1  'x, y, z'
loop_
 _atom_site_type_symbol
 _atom_site_label
 _atom_site_symmetry_multiplicity
 _atom_site_fract_x
 _atom_site_fract_y
 _atom_site_fract_z
 _atom_site_occupancy
  Na  Na0  1  0.999437  0.179761  0.500000  1
  Na  Na1  1  0.819760  0.819961  0.500000  1
  Na  Na2  1  0.180114  0.000426  0.500000  1
  Na  Na3  1  0.666852  0.333342  0.000000  1
  Na  Na4  1  0.333422  0.667832  0.000000  1
  P  P5  1  0.000676  0.820750  0.000000  1
  P  P6  1  0.178518  0.180000  0.000000  1
  P  P7  1  0.820644  0.000364  0.000000  1
  P  P8  1  0.687116  0.171742  0.500000  1
  P  P9  1  0.828319  0.515196  0.500000  1
  P  P10  1  0.484631  0.312503  0.500000  1
  P  P11  1  0.172212  0.688274  0.500000  1
  P  P12  1  0.515255  0.827198  0.500000  1
  P  P13  1  0.311569  0.485671  0.500000  1
  P  P14  1  0.000163  0.365682  0.000000  1
  P  P15  1  0.633462  0.633162  0.000000  1
  P  P16  1  0.367042  0.000212  0.000000  1
  Ir  Ir17  1  0.999896  0.712916  0.500000  1
  Ir  Ir18  1  0.287312  0.287843  0.500000  1
  Ir  Ir19  1  0.712506  0.999624  0.500000  1
  Ir  Ir20  1  0.195867  0.378782  0.000000  1
  Ir  Ir21  1  0.870895  0.358790  0.500000  1
  Ir  Ir22  1  0.641006  0.512014  0.500000  1
  Ir  Ir23  1  0.488090  0.128372  0.500000  1
  Ir  Ir24  1  0.360191  0.871891  0.500000  1
  Ir  Ir25  1  0.511098  0.639091  0.500000  1
  Ir  Ir26  1  0.128051  0.489471  0.500000  1
  Ir  Ir27  1  0.999722  0.999861  0.000000  1
  Rh  Rh28  1  0.999122  0.545365  0.000000  1
  Rh  Rh29  1  0.454954  0.451817  0.000000  1
  Rh  Rh30  1  0.547096  0.000429  0.000000  1
  Rh  Rh31  1  0.805795  0.182372  0.000000  1
  Rh  Rh32  1  0.817459  0.623489  0.000000  1
  Rh  Rh33  1  0.376054  0.193463  0.000000  1
  Rh  Rh34  1  0.182797  0.805468  0.000000  1
  Rh  Rh35  1  0.622901  0.816865  0.000000  1
