# generated using pymatgen
data_Y10IrRh3
_symmetry_space_group_name_H-M   'P 1'
_cell_length_a   6.47536840
_cell_length_b   7.22091597
_cell_length_c   8.68286337
_cell_angle_alpha   96.66607414
_cell_angle_beta   112.10446181
_cell_angle_gamma   89.95101023
_symmetry_Int_Tables_number   1
_chemical_formula_structural   Y10IrRh3
_chemical_formula_sum   'Y10 Ir1 Rh3'
_cell_volume   373.20550567
_cell_formula_units_Z   1
loop_
 _symmetry_equiv_pos_site_id
 _symmetry_equiv_pos_as_xyz
  1  'x, y, z'
loop_
 _atom_site_type_symbol
 _atom_site_label
 _atom_site_symmetry_multiplicity
 _atom_site_fract_x
 _atom_site_fract_y
 _atom_site_fract_z
 _atom_site_occupancy
  Y  Y0  1  0.980619  0.916610  0.187889  1
  Y  Y1  1  0.792950  0.583839  0.814021  1
  Y  Y2  1  0.019513  0.083428  0.811992  1
  Y  Y3  1  0.206174  0.416747  0.187257  1
  Y  Y4  1  0.648818  0.813436  0.436601  1
  Y  Y5  1  0.207620  0.684194  0.560336  1
  Y  Y6  1  0.352140  0.185499  0.563019  1
  Y  Y7  1  0.788767  0.315589  0.437694  1
  Y  Y8  1  0.426804  0.748977  0.000328  1
  Y  Y9  1  0.575120  0.251215  0.000471  1
  Ir  Ir10  1  0.821778  0.575205  0.223105  1
  Rh  Rh11  1  0.598523  0.925481  0.778458  1
  Rh  Rh12  1  0.179584  0.425332  0.778563  1
  Rh  Rh13  1  0.401591  0.074449  0.220265  1
