# generated using pymatgen
data_CsBa(BH4)3
_symmetry_space_group_name_H-M   'P 1'
_cell_length_a   6.44158600
_cell_length_b   8.67800500
_cell_length_c   8.54738200
_cell_angle_alpha   90.00000000
_cell_angle_beta   90.00000000
_cell_angle_gamma   90.00000000
_symmetry_Int_Tables_number   1
_chemical_formula_structural   CsBa(BH4)3
_chemical_formula_sum   'Cs2 Ba2 B6 H24'
_cell_volume   477.79964116
_cell_formula_units_Z   2
loop_
 _symmetry_equiv_pos_site_id
 _symmetry_equiv_pos_as_xyz
  1  'x, y, z'
loop_
 _atom_site_type_symbol
 _atom_site_label
 _atom_site_symmetry_multiplicity
 _atom_site_fract_x
 _atom_site_fract_y
 _atom_site_fract_z
 _atom_site_occupancy
  Cs  Cs0  1  0.476792  0.500000  0.000000  1
  Cs  Cs1  1  0.523208  0.000000  0.500000  1
  Ba  Ba2  1  0.990591  0.500000  0.500000  1
  Ba  Ba3  1  0.009409  0.000000  0.000000  1
  B  B4  1  0.953829  0.683627  0.822344  1
  B  B5  1  0.953829  0.316373  0.177656  1
  B  B6  1  0.046171  0.183627  0.677656  1
  B  B7  1  0.046171  0.816373  0.322344  1
  B  B8  1  0.511222  0.000000  0.000000  1
  B  B9  1  0.488778  0.500000  0.500000  1
  H  H10  1  0.941949  0.542614  0.816032  1
  H  H11  1  0.941949  0.457386  0.183968  1
  H  H12  1  0.058051  0.042614  0.683968  1
  H  H13  1  0.058051  0.957386  0.316032  1
  H  H14  1  0.931315  0.744500  0.693583  1
  H  H15  1  0.931315  0.255500  0.306417  1
  H  H16  1  0.068685  0.244500  0.806417  1
  H  H17  1  0.068685  0.755500  0.193583  1
  H  H18  1  0.817011  0.731111  0.909832  1
  H  H19  1  0.817011  0.268889  0.090168  1
  H  H20  1  0.182989  0.231111  0.590168  1
  H  H21  1  0.182989  0.768889  0.409832  1
  H  H22  1  0.126219  0.718639  0.873147  1
  H  H23  1  0.126219  0.281361  0.126853  1
  H  H24  1  0.873781  0.218639  0.626853  1
  H  H25  1  0.873781  0.781361  0.373147  1
  H  H26  1  0.618712  0.938808  0.101748  1
  H  H27  1  0.618712  0.061192  0.898252  1
  H  H28  1  0.381288  0.438808  0.398252  1
  H  H29  1  0.381288  0.561192  0.601748  1
  H  H30  1  0.404861  0.899570  0.937796  1
  H  H31  1  0.404861  0.100430  0.062204  1
  H  H32  1  0.595139  0.399570  0.562204  1
  H  H33  1  0.595139  0.600430  0.437796  1
