# generated using pymatgen
data_Pr4Ga4CuIr3
_symmetry_space_group_name_H-M   'P 1'
_cell_length_a   4.46974300
_cell_length_b   7.12627917
_cell_length_c   7.84181199
_cell_angle_alpha   90.45167633
_cell_angle_beta   90.00000000
_cell_angle_gamma   90.00000000
_symmetry_Int_Tables_number   1
_chemical_formula_structural   Pr4Ga4CuIr3
_chemical_formula_sum   'Pr4 Ga4 Cu1 Ir3'
_cell_volume   249.77462503
_cell_formula_units_Z   1
loop_
 _symmetry_equiv_pos_site_id
 _symmetry_equiv_pos_as_xyz
  1  'x, y, z'
loop_
 _atom_site_type_symbol
 _atom_site_label
 _atom_site_symmetry_multiplicity
 _atom_site_fract_x
 _atom_site_fract_y
 _atom_site_fract_z
 _atom_site_occupancy
  Pr  Pr0  1  0.250000  0.022553  0.688012  1
  Pr  Pr1  1  0.250000  0.530677  0.811356  1
  Pr  Pr2  1  0.750000  0.976595  0.308450  1
  Pr  Pr3  1  0.750000  0.480265  0.193809  1
  Ga  Ga4  1  0.250000  0.159525  0.069758  1
  Ga  Ga5  1  0.250000  0.658055  0.427408  1
  Ga  Ga6  1  0.750000  0.833316  0.928733  1
  Ga  Ga7  1  0.750000  0.344159  0.569180  1
  Cu  Cu8  1  0.750000  0.210626  0.894136  1
  Ir  Ir9  1  0.250000  0.280525  0.394232  1
  Ir  Ir10  1  0.250000  0.783185  0.106969  1
  Ir  Ir11  1  0.750000  0.720519  0.607959  1
