# generated using pymatgen
data_La6MoO12
_symmetry_space_group_name_H-M   'P 1'
_cell_length_a   6.83542037
_cell_length_b   6.83542083
_cell_length_c   6.83542018
_cell_angle_alpha   98.35371531
_cell_angle_beta   98.35371710
_cell_angle_gamma   98.35372748
_symmetry_Int_Tables_number   1
_chemical_formula_structural   La6MoO12
_chemical_formula_sum   'La6 Mo1 O12'
_cell_volume   308.08056680
_cell_formula_units_Z   1
loop_
 _symmetry_equiv_pos_site_id
 _symmetry_equiv_pos_as_xyz
  1  'x, y, z'
loop_
 _atom_site_type_symbol
 _atom_site_label
 _atom_site_symmetry_multiplicity
 _atom_site_fract_x
 _atom_site_fract_y
 _atom_site_fract_z
 _atom_site_occupancy
  La  La0  1  0.142868  0.304786  0.607241  1
  La  La1  1  0.392759  0.857132  0.695214  1
  La  La2  1  0.695214  0.392759  0.857132  1
  La  La3  1  0.304786  0.607241  0.142868  1
  La  La4  1  0.607241  0.142868  0.304786  1
  La  La5  1  0.857132  0.695214  0.392759  1
  Mo  Mo6  1  0.000000  0.000000  0.000000  1
  O  O7  1  0.068231  0.284404  0.969191  1
  O  O8  1  0.030809  0.931769  0.715596  1
  O  O9  1  0.405648  0.559902  0.823216  1
  O  O10  1  0.176784  0.594352  0.440098  1
  O  O11  1  0.715596  0.030809  0.931769  1
  O  O12  1  0.440098  0.176784  0.594352  1
  O  O13  1  0.559902  0.823216  0.405648  1
  O  O14  1  0.284404  0.969191  0.068231  1
  O  O15  1  0.823216  0.405648  0.559902  1
  O  O16  1  0.594352  0.440098  0.176784  1
  O  O17  1  0.969191  0.068231  0.284404  1
  O  O18  1  0.931769  0.715596  0.030809  1
