# generated using pymatgen
data_Tb8YbSc(SiB4)4
_symmetry_space_group_name_H-M   'P 1'
_cell_length_a   7.21348200
_cell_length_b   7.21348200
_cell_length_c   8.09445500
_cell_angle_alpha   90.00000000
_cell_angle_beta   90.00000000
_cell_angle_gamma   90.00000000
_symmetry_Int_Tables_number   1
_chemical_formula_structural   Tb8YbSc(SiB4)4
_chemical_formula_sum   'Tb8 Yb1 Sc1 Si4 B16'
_cell_volume   421.18948245
_cell_formula_units_Z   1
loop_
 _symmetry_equiv_pos_site_id
 _symmetry_equiv_pos_as_xyz
  1  'x, y, z'
loop_
 _atom_site_type_symbol
 _atom_site_label
 _atom_site_symmetry_multiplicity
 _atom_site_fract_x
 _atom_site_fract_y
 _atom_site_fract_z
 _atom_site_occupancy
  Tb  Tb0  1  0.681571  0.181504  0.228601  1
  Tb  Tb1  1  0.318429  0.818496  0.771399  1
  Tb  Tb2  1  0.318429  0.818496  0.228601  1
  Tb  Tb3  1  0.818496  0.681571  0.228601  1
  Tb  Tb4  1  0.818496  0.681571  0.771399  1
  Tb  Tb5  1  0.681571  0.181504  0.771399  1
  Tb  Tb6  1  0.181504  0.318429  0.771399  1
  Tb  Tb7  1  0.181504  0.318429  0.228601  1
  Yb  Yb8  1  0.500000  0.500000  0.500000  1
  Sc  Sc9  1  0.000000  0.000000  0.500000  1
  Si  Si10  1  0.105346  0.625427  0.500000  1
  Si  Si11  1  0.894654  0.374573  0.500000  1
  Si  Si12  1  0.374573  0.105346  0.500000  1
  Si  Si13  1  0.625427  0.894654  0.500000  1
  B  B14  1  0.173084  0.039331  0.000000  1
  B  B15  1  0.826916  0.960669  0.000000  1
  B  B16  1  0.960669  0.173084  0.000000  1
  B  B17  1  0.327233  0.538734  0.000000  1
  B  B18  1  0.039331  0.826916  0.000000  1
  B  B19  1  0.672767  0.461266  0.000000  1
  B  B20  1  0.538734  0.672767  0.000000  1
  B  B21  1  0.461266  0.327233  0.000000  1
  B  B22  1  0.089489  0.589526  0.000000  1
  B  B23  1  0.910511  0.410474  0.000000  1
  B  B24  1  0.410474  0.089489  0.000000  1
  B  B25  1  0.589526  0.910511  0.000000  1
  B  B26  1  0.000000  0.000000  0.161627  1
  B  B27  1  0.000000  0.000000  0.838373  1
  B  B28  1  0.500000  0.500000  0.841204  1
  B  B29  1  0.500000  0.500000  0.158796  1
