# generated using pymatgen
data_Y4HoEr(GaCo3)2
_symmetry_space_group_name_H-M   'P 1'
_cell_length_a   5.38480892
_cell_length_b   5.38480987
_cell_length_c   12.81122141
_cell_angle_alpha   89.93515091
_cell_angle_beta   90.06484866
_cell_angle_gamma   134.85703012
_symmetry_Int_Tables_number   1
_chemical_formula_structural   Y4HoEr(GaCo3)2
_chemical_formula_sum   'Y4 Ho1 Er1 Ga2 Co6'
_cell_volume   263.32790069
_cell_formula_units_Z   1
loop_
 _symmetry_equiv_pos_site_id
 _symmetry_equiv_pos_as_xyz
  1  'x, y, z'
loop_
 _atom_site_type_symbol
 _atom_site_label
 _atom_site_symmetry_multiplicity
 _atom_site_fract_x
 _atom_site_fract_y
 _atom_site_fract_z
 _atom_site_occupancy
  Y  Y0  1  0.706609  0.293391  0.603399  1
  Y  Y1  1  0.293155  0.706845  0.397019  1
  Y  Y2  1  0.293124  0.706876  0.102773  1
  Y  Y3  1  0.706677  0.293323  0.896609  1
  Ho  Ho4  1  0.002628  0.997372  0.249926  1
  Er  Er5  1  0.996629  0.003371  0.750555  1
  Ga  Ga6  1  0.000142  0.999858  0.999669  1
  Ga  Ga7  1  0.000065  0.999935  0.500178  1
  Co  Co8  1  0.696596  0.303404  0.249931  1
  Co  Co9  1  0.303514  0.696486  0.749999  1
  Co  Co10  1  0.418953  0.581047  0.596774  1
  Co  Co11  1  0.581424  0.418576  0.403694  1
  Co  Co12  1  0.581443  0.418557  0.096170  1
  Co  Co13  1  0.419040  0.580960  0.903304  1
