# generated using pymatgen
data_KBa2CoH12Pt
_symmetry_space_group_name_H-M   'P 1'
_cell_length_a   5.67120000
_cell_length_b   5.67120113
_cell_length_c   8.50415400
_cell_angle_alpha   90.00000000
_cell_angle_beta   90.00000000
_cell_angle_gamma   120.00000506
_symmetry_Int_Tables_number   1
_chemical_formula_structural   KBa2CoH12Pt
_chemical_formula_sum   'K1 Ba2 Co1 H12 Pt1'
_cell_volume   236.87091577
_cell_formula_units_Z   1
loop_
 _symmetry_equiv_pos_site_id
 _symmetry_equiv_pos_as_xyz
  1  'x, y, z'
loop_
 _atom_site_type_symbol
 _atom_site_label
 _atom_site_symmetry_multiplicity
 _atom_site_fract_x
 _atom_site_fract_y
 _atom_site_fract_z
 _atom_site_occupancy
  K  K0  1  0.000000  0.000000  0.964658  1
  Ba  Ba1  1  0.666667  0.333333  0.365501  1
  Ba  Ba2  1  0.333333  0.666667  0.676843  1
  Co  Co3  1  0.666667  0.333333  0.748541  1
  H  H4  1  0.191882  0.808118  0.358866  1
  H  H5  1  0.616236  0.808118  0.358866  1
  H  H6  1  0.191882  0.383764  0.358866  1
  H  H7  1  0.801357  0.198643  0.646867  1
  H  H8  1  0.397288  0.198643  0.646867  1
  H  H9  1  0.801357  0.602712  0.646867  1
  H  H10  1  0.547641  0.095281  0.864134  1
  H  H11  1  0.547641  0.452359  0.864134  1
  H  H12  1  0.904719  0.452359  0.864134  1
  H  H13  1  0.463049  0.926096  0.128844  1
  H  H14  1  0.463049  0.536951  0.128844  1
  H  H15  1  0.073904  0.536951  0.128844  1
  Pt  Pt16  1  0.333333  0.666667  0.248318  1
