# generated using pymatgen
data_CdFe(CO3)2
_symmetry_space_group_name_H-M   'P 1'
_cell_length_a   6.03390457
_cell_length_b   6.06305348
_cell_length_c   6.07780245
_cell_angle_alpha   47.79788179
_cell_angle_beta   47.50748743
_cell_angle_gamma   47.52005002
_symmetry_Int_Tables_number   1
_chemical_formula_structural   CdFe(CO3)2
_chemical_formula_sum   'Cd1 Fe1 C2 O6'
_cell_volume   111.01212056
_cell_formula_units_Z   1
loop_
 _symmetry_equiv_pos_site_id
 _symmetry_equiv_pos_as_xyz
  1  'x, y, z'
loop_
 _atom_site_type_symbol
 _atom_site_label
 _atom_site_symmetry_multiplicity
 _atom_site_fract_x
 _atom_site_fract_y
 _atom_site_fract_z
 _atom_site_occupancy
  Cd  Cd0  1  0.000000  0.000000  0.000000  1
  Fe  Fe1  1  0.500000  0.500000  0.500000  1
  C  C2  1  0.243626  0.245512  0.248554  1
  C  C3  1  0.756374  0.754488  0.751446  1
  O  O4  1  0.500681  0.733992  0.025455  1
  O  O5  1  0.965017  0.501000  0.269251  1
  O  O6  1  0.733678  0.026869  0.497418  1
  O  O7  1  0.266322  0.973131  0.502582  1
  O  O8  1  0.034983  0.499000  0.730749  1
  O  O9  1  0.499319  0.266008  0.974545  1
