# generated using pymatgen
data_SmPa5(Sb4Pt3)2
_symmetry_space_group_name_H-M   'P 1'
_cell_length_a   8.49015444
_cell_length_b   8.49020287
_cell_length_c   8.49020010
_cell_angle_alpha   109.48208566
_cell_angle_beta   109.44989900
_cell_angle_gamma   109.48085453
_symmetry_Int_Tables_number   1
_chemical_formula_structural   SmPa5(Sb4Pt3)2
_chemical_formula_sum   'Sm1 Pa5 Sb8 Pt6'
_cell_volume   471.12274266
_cell_formula_units_Z   1
loop_
 _symmetry_equiv_pos_site_id
 _symmetry_equiv_pos_as_xyz
  1  'x, y, z'
loop_
 _atom_site_type_symbol
 _atom_site_label
 _atom_site_symmetry_multiplicity
 _atom_site_fract_x
 _atom_site_fract_y
 _atom_site_fract_z
 _atom_site_occupancy
  Sm  Sm0  1  0.874998  0.250002  0.125000  1
  Pa  Pa1  1  0.624998  0.749986  0.374992  1
  Pa  Pa2  1  0.249336  0.124036  0.876321  1
  Pa  Pa3  1  0.752277  0.375955  0.625286  1
  Pa  Pa4  1  0.123670  0.873002  0.247702  1
  Pa  Pa5  1  0.374705  0.626984  0.750666  1
  Sb  Sb6  1  0.676222  0.497768  0.997895  1
  Sb  Sb7  1  0.500139  0.002224  0.678463  1
  Sb  Sb8  1  0.000688  0.675992  0.497809  1
  Sb  Sb9  1  0.821785  0.823988  0.824680  1
  Sb  Sb10  1  0.502207  0.002895  0.178204  1
  Sb  Sb11  1  0.175315  0.497112  0.999302  1
  Sb  Sb12  1  0.002101  0.178343  0.499880  1
  Sb  Sb13  1  0.321555  0.321693  0.323785  1
  Pt  Pt14  1  0.375006  0.250018  0.625009  1
  Pt  Pt15  1  0.125004  0.749997  0.874991  1
  Pt  Pt16  1  0.261930  0.633213  0.379424  1
  Pt  Pt17  1  0.746181  0.866782  0.128704  1
  Pt  Pt18  1  0.620591  0.382521  0.253814  1
  Pt  Pt19  1  0.871289  0.117487  0.738073  1
