# generated using pymatgen
data_Nb6Al6Cu5Pd
_symmetry_space_group_name_H-M   'P 1'
_cell_length_a   8.74529600
_cell_length_b   8.73894673
_cell_length_c   8.10427600
_cell_angle_alpha   90.00000000
_cell_angle_beta   90.00000000
_cell_angle_gamma   120.45307946
_symmetry_Int_Tables_number   1
_chemical_formula_structural   Nb6Al6Cu5Pd
_chemical_formula_sum   'Nb12 Al12 Cu10 Pd2'
_cell_volume   533.92163091
_cell_formula_units_Z   2
loop_
 _symmetry_equiv_pos_site_id
 _symmetry_equiv_pos_as_xyz
  1  'x, y, z'
loop_
 _atom_site_type_symbol
 _atom_site_label
 _atom_site_symmetry_multiplicity
 _atom_site_fract_x
 _atom_site_fract_y
 _atom_site_fract_z
 _atom_site_occupancy
  Nb  Nb0  1  0.333361  0.996279  0.069438  1
  Nb  Nb1  1  0.666639  0.003721  0.930562  1
  Nb  Nb2  1  0.996601  0.335399  0.067382  1
  Nb  Nb3  1  0.666639  0.003721  0.569438  1
  Nb  Nb4  1  0.996601  0.335399  0.432618  1
  Nb  Nb5  1  0.003399  0.664601  0.932618  1
  Nb  Nb6  1  0.333361  0.996279  0.430562  1
  Nb  Nb7  1  0.003399  0.664601  0.567382  1
  Nb  Nb8  1  0.661917  0.662509  0.068527  1
  Nb  Nb9  1  0.338083  0.337491  0.931473  1
  Nb  Nb10  1  0.338083  0.337491  0.568527  1
  Nb  Nb11  1  0.661917  0.662509  0.431473  1
  Al  Al12  1  0.842436  0.342384  0.750000  1
  Al  Al13  1  0.157564  0.657616  0.250000  1
  Al  Al14  1  0.339869  0.667128  0.507181  1
  Al  Al15  1  0.660131  0.332872  0.492819  1
  Al  Al16  1  0.660131  0.332872  0.007181  1
  Al  Al17  1  0.339869  0.667128  0.992819  1
  Al  Al18  1  0.184492  0.999828  0.750000  1
  Al  Al19  1  0.815508  0.000172  0.250000  1
  Al  Al20  1  0.007987  0.178155  0.750000  1
  Al  Al21  1  0.992013  0.821845  0.250000  1
  Al  Al22  1  0.820633  0.816972  0.750000  1
  Al  Al23  1  0.179367  0.183028  0.250000  1
  Cu  Cu24  1  0.165494  0.496407  0.750000  1
  Cu  Cu25  1  0.834506  0.503593  0.250000  1
  Cu  Cu26  1  0.506335  0.666539  0.750000  1
  Cu  Cu27  1  0.502530  0.165637  0.750000  1
  Cu  Cu28  1  0.493665  0.333461  0.250000  1
  Cu  Cu29  1  0.497470  0.834363  0.250000  1
  Cu  Cu30  1  0.337275  0.838342  0.750000  1
  Cu  Cu31  1  0.665366  0.499904  0.750000  1
  Cu  Cu32  1  0.662725  0.161658  0.250000  1
  Cu  Cu33  1  0.334634  0.500096  0.250000  1
  Pd  Pd34  1  0.000000  0.000000  0.500000  1
  Pd  Pd35  1  0.000000  0.000000  0.000000  1
