# generated using pymatgen
data_LiTm3Lu3Co17P12
_symmetry_space_group_name_H-M   'P 1'
_cell_length_a   3.67757800
_cell_length_b   10.49770000
_cell_length_c   12.10648300
_cell_angle_alpha   90.00199739
_cell_angle_beta   90.00000000
_cell_angle_gamma   90.00000000
_symmetry_Int_Tables_number   1
_chemical_formula_structural   LiTm3Lu3Co17P12
_chemical_formula_sum   'Li1 Tm3 Lu3 Co17 P12'
_cell_volume   467.38422118
_cell_formula_units_Z   1
loop_
 _symmetry_equiv_pos_site_id
 _symmetry_equiv_pos_as_xyz
  1  'x, y, z'
loop_
 _atom_site_type_symbol
 _atom_site_label
 _atom_site_symmetry_multiplicity
 _atom_site_fract_x
 _atom_site_fract_y
 _atom_site_fract_z
 _atom_site_occupancy
  Li  Li0  1  0.500000  0.500008  0.152006  1
  Tm  Tm1  1  0.000000  0.500017  0.523286  1
  Tm  Tm2  1  0.500000  0.000001  0.477447  1
  Tm  Tm3  1  0.000000  0.318451  0.794420  1
  Lu  Lu4  1  0.500000  0.820120  0.206577  1
  Lu  Lu5  1  0.500000  0.179881  0.206578  1
  Lu  Lu6  1  0.000000  0.681644  0.794454  1
  Co  Co7  1  0.000000  0.000016  0.839523  1
  Co  Co8  1  0.500000  0.500428  0.704275  1
  Co  Co9  1  0.000000  0.999981  0.296580  1
  Co  Co10  1  0.000000  0.500188  0.986220  1
  Co  Co11  1  0.500000  0.999872  0.012446  1
  Co  Co12  1  0.500000  0.330537  0.995068  1
  Co  Co13  1  0.500000  0.669553  0.994849  1
  Co  Co14  1  0.000000  0.164868  0.003511  1
  Co  Co15  1  0.000000  0.834980  0.003319  1
  Co  Co16  1  0.500000  0.296484  0.432149  1
  Co  Co17  1  0.500000  0.703538  0.432241  1
  Co  Co18  1  0.000000  0.202142  0.570176  1
  Co  Co19  1  0.000000  0.797761  0.570374  1
  Co  Co20  1  0.500000  0.878680  0.708857  1
  Co  Co21  1  0.500000  0.120908  0.708651  1
  Co  Co22  1  0.000000  0.623235  0.292923  1
  Co  Co23  1  0.000000  0.376773  0.292916  1
  P  P24  1  0.500000  0.500342  0.883798  1
  P  P25  1  0.000000  0.999964  0.117804  1
  P  P26  1  0.500000  0.500004  0.346630  1
  P  P27  1  0.000000  0.000052  0.654175  1
  P  P28  1  0.500000  0.311502  0.617520  1
  P  P29  1  0.500000  0.688467  0.617945  1
  P  P30  1  0.000000  0.188155  0.384132  1
  P  P31  1  0.000000  0.811807  0.384169  1
  P  P32  1  0.500000  0.846853  0.890337  1
  P  P33  1  0.500000  0.152758  0.890596  1
  P  P34  1  0.000000  0.658444  0.107053  1
  P  P35  1  0.000000  0.341586  0.106994  1
