# generated using pymatgen
data_CeDyTh(RhPb)3
_symmetry_space_group_name_H-M   'P 1'
_cell_length_a   7.72034258
_cell_length_b   7.74883477
_cell_length_c   3.98529300
_cell_angle_alpha   90.00000000
_cell_angle_beta   90.00000000
_cell_angle_gamma   119.49456795
_symmetry_Int_Tables_number   1
_chemical_formula_structural   CeDyTh(RhPb)3
_chemical_formula_sum   'Ce1 Dy1 Th1 Rh3 Pb3'
_cell_volume   207.51681714
_cell_formula_units_Z   1
loop_
 _symmetry_equiv_pos_site_id
 _symmetry_equiv_pos_as_xyz
  1  'x, y, z'
loop_
 _atom_site_type_symbol
 _atom_site_label
 _atom_site_symmetry_multiplicity
 _atom_site_fract_x
 _atom_site_fract_y
 _atom_site_fract_z
 _atom_site_occupancy
  Ce  Ce0  1  0.999119  0.590552  0.500000  1
  Dy  Dy1  1  0.594728  0.999162  0.500000  1
  Th  Th2  1  0.409616  0.409805  0.500000  1
  Rh  Rh3  1  0.009712  0.006542  0.500000  1
  Rh  Rh4  1  0.662018  0.343101  0.000000  1
  Rh  Rh5  1  0.325491  0.650444  0.000000  1
  Pb  Pb6  1  0.746210  0.752294  0.000000  1
  Pb  Pb7  1  0.265371  0.993626  0.000000  1
  Pb  Pb8  1  0.987735  0.254475  0.000000  1
