# generated using pymatgen
data_Er4FeSi4Ir
_symmetry_space_group_name_H-M   'P 1'
_cell_length_a   5.62450942
_cell_length_b   5.62450969
_cell_length_c   9.95202754
_cell_angle_alpha   63.18433251
_cell_angle_beta   63.18433233
_cell_angle_gamma   43.44913494
_symmetry_Int_Tables_number   1
_chemical_formula_structural   Er4FeSi4Ir
_chemical_formula_sum   'Er4 Fe1 Si4 Ir1'
_cell_volume   189.27111787
_cell_formula_units_Z   1
loop_
 _symmetry_equiv_pos_site_id
 _symmetry_equiv_pos_as_xyz
  1  'x, y, z'
loop_
 _atom_site_type_symbol
 _atom_site_label
 _atom_site_symmetry_multiplicity
 _atom_site_fract_x
 _atom_site_fract_y
 _atom_site_fract_z
 _atom_site_occupancy
  Er  Er0  1  0.814609  0.814609  0.110276  1
  Er  Er1  1  0.186589  0.186589  0.892361  1
  Er  Er2  1  0.002519  0.002519  0.326237  1
  Er  Er3  1  0.994979  0.994979  0.676939  1
  Fe  Fe4  1  0.727042  0.727042  0.621890  1
  Si  Si5  1  0.513401  0.513401  0.119980  1
  Si  Si6  1  0.499822  0.499822  0.871461  1
  Si  Si7  1  0.639471  0.639471  0.441665  1
  Si  Si8  1  0.348874  0.348874  0.569018  1
  Ir  Ir9  1  0.272695  0.272695  0.370173  1
