# generated using pymatgen
data_Yb3AlAu5
_symmetry_space_group_name_H-M   'P 1'
_cell_length_a   8.48872800
_cell_length_b   8.48872839
_cell_length_c   13.48964800
_cell_angle_alpha   90.00000000
_cell_angle_beta   90.00000000
_cell_angle_gamma   128.50186576
_symmetry_Int_Tables_number   1
_chemical_formula_structural   Yb3AlAu5
_chemical_formula_sum   'Yb12 Al4 Au20'
_cell_volume   760.70976946
_cell_formula_units_Z   4
loop_
 _symmetry_equiv_pos_site_id
 _symmetry_equiv_pos_as_xyz
  1  'x, y, z'
loop_
 _atom_site_type_symbol
 _atom_site_label
 _atom_site_symmetry_multiplicity
 _atom_site_fract_x
 _atom_site_fract_y
 _atom_site_fract_z
 _atom_site_occupancy
  Yb  Yb0  1  0.928828  0.071172  0.250000  1
  Yb  Yb1  1  0.071172  0.928828  0.750000  1
  Yb  Yb2  1  0.319934  0.680066  0.250000  1
  Yb  Yb3  1  0.680066  0.319934  0.750000  1
  Yb  Yb4  1  0.630737  0.369263  0.464899  1
  Yb  Yb5  1  0.369263  0.630737  0.535101  1
  Yb  Yb6  1  0.630737  0.369263  0.035101  1
  Yb  Yb7  1  0.369263  0.630737  0.964899  1
  Yb  Yb8  1  0.881453  0.118547  0.949189  1
  Yb  Yb9  1  0.118547  0.881453  0.050811  1
  Yb  Yb10  1  0.881453  0.118547  0.550811  1
  Yb  Yb11  1  0.118547  0.881453  0.449189  1
  Al  Al12  1  0.720862  0.279138  0.250000  1
  Al  Al13  1  0.279138  0.720862  0.750000  1
  Al  Al14  1  0.533150  0.466850  0.250000  1
  Al  Al15  1  0.466850  0.533150  0.750000  1
  Au  Au16  1  0.320316  0.066239  0.250000  1
  Au  Au17  1  0.066239  0.320316  0.750000  1
  Au  Au18  1  0.679684  0.933761  0.750000  1
  Au  Au19  1  0.933761  0.679684  0.250000  1
  Au  Au20  1  0.571824  0.005188  0.396479  1
  Au  Au21  1  0.005188  0.571824  0.603521  1
  Au  Au22  1  0.571824  0.005188  0.103521  1
  Au  Au23  1  0.005188  0.571824  0.896479  1
  Au  Au24  1  0.428176  0.994812  0.603521  1
  Au  Au25  1  0.994812  0.428176  0.396479  1
  Au  Au26  1  0.428176  0.994812  0.896479  1
  Au  Au27  1  0.994812  0.428176  0.103521  1
  Au  Au28  1  0.685380  0.741214  0.394259  1
  Au  Au29  1  0.741214  0.685380  0.605741  1
  Au  Au30  1  0.685380  0.741214  0.105741  1
  Au  Au31  1  0.741214  0.685380  0.894259  1
  Au  Au32  1  0.314620  0.258786  0.605741  1
  Au  Au33  1  0.258786  0.314620  0.394259  1
  Au  Au34  1  0.314620  0.258786  0.894259  1
  Au  Au35  1  0.258786  0.314620  0.105741  1
