# generated using pymatgen
data_Er3MnFe6(CoP3)2
_symmetry_space_group_name_H-M   'P 1'
_cell_length_a   3.70053300
_cell_length_b   10.48109400
_cell_length_c   12.12526700
_cell_angle_alpha   90.00000000
_cell_angle_beta   90.00000000
_cell_angle_gamma   90.00000000
_symmetry_Int_Tables_number   1
_chemical_formula_structural   Er3MnFe6(CoP3)2
_chemical_formula_sum   'Er6 Mn2 Fe12 Co4 P12'
_cell_volume   470.28617072
_cell_formula_units_Z   2
loop_
 _symmetry_equiv_pos_site_id
 _symmetry_equiv_pos_as_xyz
  1  'x, y, z'
loop_
 _atom_site_type_symbol
 _atom_site_label
 _atom_site_symmetry_multiplicity
 _atom_site_fract_x
 _atom_site_fract_y
 _atom_site_fract_z
 _atom_site_occupancy
  Er  Er0  1  0.750000  0.250000  0.475145  1
  Er  Er1  1  0.250000  0.750000  0.526178  1
  Er  Er2  1  0.250000  0.929198  0.793146  1
  Er  Er3  1  0.250000  0.570802  0.793146  1
  Er  Er4  1  0.750000  0.071288  0.206471  1
  Er  Er5  1  0.750000  0.428712  0.206471  1
  Mn  Mn6  1  0.250000  0.250000  0.845705  1
  Mn  Mn7  1  0.750000  0.750000  0.151116  1
  Fe  Fe8  1  0.750000  0.250000  0.010688  1
  Fe  Fe9  1  0.250000  0.750000  0.988548  1
  Fe  Fe10  1  0.250000  0.421586  0.002439  1
  Fe  Fe11  1  0.250000  0.078414  0.002439  1
  Fe  Fe12  1  0.750000  0.577831  0.996757  1
  Fe  Fe13  1  0.750000  0.922169  0.996757  1
  Fe  Fe14  1  0.250000  0.451504  0.570860  1
  Fe  Fe15  1  0.250000  0.048496  0.570860  1
  Fe  Fe16  1  0.750000  0.548612  0.430180  1
  Fe  Fe17  1  0.750000  0.951388  0.430180  1
  Fe  Fe18  1  0.250000  0.868028  0.291806  1
  Fe  Fe19  1  0.250000  0.631972  0.291806  1
  Co  Co20  1  0.250000  0.250000  0.299563  1
  Co  Co21  1  0.750000  0.750000  0.700573  1
  Co  Co22  1  0.750000  0.130764  0.709278  1
  Co  Co23  1  0.750000  0.369236  0.709278  1
  P  P24  1  0.250000  0.250000  0.114808  1
  P  P25  1  0.750000  0.750000  0.885201  1
  P  P26  1  0.250000  0.250000  0.655106  1
  P  P27  1  0.750000  0.750000  0.344911  1
  P  P28  1  0.250000  0.442717  0.385418  1
  P  P29  1  0.250000  0.057283  0.385418  1
  P  P30  1  0.750000  0.557463  0.614205  1
  P  P31  1  0.750000  0.942537  0.614205  1
  P  P32  1  0.250000  0.902715  0.110471  1
  P  P33  1  0.250000  0.597285  0.110471  1
  P  P34  1  0.750000  0.098396  0.890196  1
  P  P35  1  0.750000  0.401604  0.890196  1
