# generated using pymatgen
data_Pr4InCo
_symmetry_space_group_name_H-M   'P 1'
_cell_length_a   9.92539816
_cell_length_b   9.92539739
_cell_length_c   9.92539800
_cell_angle_alpha   59.99999797
_cell_angle_beta   60.00000055
_cell_angle_gamma   60.00000164
_symmetry_Int_Tables_number   1
_chemical_formula_structural   Pr4InCo
_chemical_formula_sum   'Pr16 In4 Co4'
_cell_volume   691.39904467
_cell_formula_units_Z   4
loop_
 _symmetry_equiv_pos_site_id
 _symmetry_equiv_pos_as_xyz
  1  'x, y, z'
loop_
 _atom_site_type_symbol
 _atom_site_label
 _atom_site_symmetry_multiplicity
 _atom_site_fract_x
 _atom_site_fract_y
 _atom_site_fract_z
 _atom_site_occupancy
  Pr  Pr0  1  0.289927  0.903358  0.903358  1
  Pr  Pr1  1  0.689829  0.689829  0.310171  1
  Pr  Pr2  1  0.903358  0.903358  0.289927  1
  Pr  Pr3  1  0.310171  0.689829  0.310171  1
  Pr  Pr4  1  0.689829  0.310171  0.310171  1
  Pr  Pr5  1  0.059653  0.440347  0.440347  1
  Pr  Pr6  1  0.440347  0.059653  0.059653  1
  Pr  Pr7  1  0.059653  0.059653  0.440347  1
  Pr  Pr8  1  0.310171  0.310171  0.689829  1
  Pr  Pr9  1  0.440347  0.059653  0.440347  1
  Pr  Pr10  1  0.903358  0.903358  0.903358  1
  Pr  Pr11  1  0.440347  0.440347  0.059653  1
  Pr  Pr12  1  0.310171  0.689829  0.689829  1
  Pr  Pr13  1  0.689829  0.310171  0.689829  1
  Pr  Pr14  1  0.059653  0.440347  0.059653  1
  Pr  Pr15  1  0.903358  0.289927  0.903358  1
  In  In16  1  0.669832  0.669832  0.990504  1
  In  In17  1  0.990504  0.669832  0.669832  1
  In  In18  1  0.669832  0.990504  0.669832  1
  In  In19  1  0.669832  0.669832  0.669832  1
  Co  Co20  1  0.109664  0.109664  0.109664  1
  Co  Co21  1  0.109664  0.109664  0.671007  1
  Co  Co22  1  0.671007  0.109664  0.109664  1
  Co  Co23  1  0.109664  0.671007  0.109664  1
