# generated using pymatgen
data_Sc12Al(InFe)2
_symmetry_space_group_name_H-M   'P 1'
_cell_length_a   7.84917663
_cell_length_b   7.84917551
_cell_length_c   7.84917554
_cell_angle_alpha   109.25761684
_cell_angle_beta   109.25761009
_cell_angle_gamma   109.89927862
_symmetry_Int_Tables_number   1
_chemical_formula_structural   Sc12Al(InFe)2
_chemical_formula_sum   'Sc12 Al1 In2 Fe2'
_cell_volume   372.24779121
_cell_formula_units_Z   1
loop_
 _symmetry_equiv_pos_site_id
 _symmetry_equiv_pos_as_xyz
  1  'x, y, z'
loop_
 _atom_site_type_symbol
 _atom_site_label
 _atom_site_symmetry_multiplicity
 _atom_site_fract_x
 _atom_site_fract_y
 _atom_site_fract_z
 _atom_site_occupancy
  Sc  Sc0  1  0.302538  0.302538  0.605076  1
  Sc  Sc1  1  0.697462  0.697462  0.394924  1
  Sc  Sc2  1  0.697462  0.302538  0.000000  1
  Sc  Sc3  1  0.302538  0.697462  0.000000  1
  Sc  Sc4  1  0.207002  0.450029  0.243028  1
  Sc  Sc5  1  0.792998  0.549971  0.756972  1
  Sc  Sc6  1  0.207002  0.963973  0.756972  1
  Sc  Sc7  1  0.963973  0.207002  0.756972  1
  Sc  Sc8  1  0.792998  0.036027  0.243028  1
  Sc  Sc9  1  0.036027  0.792998  0.243028  1
  Sc  Sc10  1  0.450029  0.207002  0.243028  1
  Sc  Sc11  1  0.549971  0.792998  0.756972  1
  Al  Al12  1  0.000000  0.000000  0.000000  1
  In  In13  1  0.000000  0.500000  0.500000  1
  In  In14  1  0.500000  0.000000  0.500000  1
  Fe  Fe15  1  0.381516  0.381516  0.000000  1
  Fe  Fe16  1  0.618484  0.618484  0.000000  1
