# generated using pymatgen
data_Dy13Th3(CdIr)4
_symmetry_space_group_name_H-M   'P 1'
_cell_length_a   9.73075430
_cell_length_b   9.73131047
_cell_length_c   9.73130900
_cell_angle_alpha   60.00000160
_cell_angle_beta   59.99811089
_cell_angle_gamma   59.99811307
_symmetry_Int_Tables_number   1
_chemical_formula_structural   Dy13Th3(CdIr)4
_chemical_formula_sum   'Dy13 Th3 Cd4 Ir4'
_cell_volume   651.57094795
_cell_formula_units_Z   1
loop_
 _symmetry_equiv_pos_site_id
 _symmetry_equiv_pos_as_xyz
  1  'x, y, z'
loop_
 _atom_site_type_symbol
 _atom_site_label
 _atom_site_symmetry_multiplicity
 _atom_site_fract_x
 _atom_site_fract_y
 _atom_site_fract_z
 _atom_site_occupancy
  Dy  Dy0  1  0.198377  0.600541  0.600541  1
  Dy  Dy1  1  0.061575  0.439408  0.439408  1
  Dy  Dy2  1  0.438476  0.062098  0.062098  1
  Dy  Dy3  1  0.438476  0.062098  0.437328  1
  Dy  Dy4  1  0.061575  0.439408  0.059608  1
  Dy  Dy5  1  0.438476  0.437328  0.062098  1
  Dy  Dy6  1  0.061575  0.059608  0.439408  1
  Dy  Dy7  1  0.186045  0.813746  0.813746  1
  Dy  Dy8  1  0.814922  0.185090  0.185090  1
  Dy  Dy9  1  0.814922  0.185090  0.814898  1
  Dy  Dy10  1  0.186045  0.813746  0.186462  1
  Dy  Dy11  1  0.814922  0.814898  0.185090  1
  Dy  Dy12  1  0.186045  0.186462  0.813746  1
  Th  Th13  1  0.597616  0.599907  0.599907  1
  Th  Th14  1  0.597616  0.599907  0.202569  1
  Th  Th15  1  0.597616  0.202569  0.599907  1
  Cd  Cd16  1  0.834217  0.831429  0.831429  1
  Cd  Cd17  1  0.834217  0.831429  0.502925  1
  Cd  Cd18  1  0.834217  0.502925  0.831429  1
  Cd  Cd19  1  0.500810  0.833063  0.833063  1
  Ir  Ir20  1  0.393544  0.391891  0.391891  1
  Ir  Ir21  1  0.393544  0.391891  0.822674  1
  Ir  Ir22  1  0.393544  0.822674  0.391891  1
  Ir  Ir23  1  0.821627  0.392791  0.392791  1
