# generated using pymatgen
data_Er7Tm(Ta3Ge4)4
_symmetry_space_group_name_H-M   'P 1'
_cell_length_a   6.97290501
_cell_length_b   7.12898401
_cell_length_c   13.50082400
_cell_angle_alpha   90.00115583
_cell_angle_beta   89.99999998
_cell_angle_gamma   90.00477812
_symmetry_Int_Tables_number   1
_chemical_formula_structural   Er7Tm(Ta3Ge4)4
_chemical_formula_sum   'Er7 Tm1 Ta12 Ge16'
_cell_volume   671.12228999
_cell_formula_units_Z   1
loop_
 _symmetry_equiv_pos_site_id
 _symmetry_equiv_pos_as_xyz
  1  'x, y, z'
loop_
 _atom_site_type_symbol
 _atom_site_label
 _atom_site_symmetry_multiplicity
 _atom_site_fract_x
 _atom_site_fract_y
 _atom_site_fract_z
 _atom_site_occupancy
  Er  Er0  1  0.493688  0.674030  0.593659  1
  Er  Er1  1  0.993638  0.826011  0.906361  1
  Er  Er2  1  0.506352  0.326017  0.093663  1
  Er  Er3  1  0.006342  0.173970  0.406348  1
  Er  Er4  1  0.506353  0.325996  0.406339  1
  Er  Er5  1  0.006331  0.173996  0.093670  1
  Er  Er6  1  0.493666  0.673992  0.906331  1
  Tm  Tm7  1  0.993604  0.825934  0.593706  1
  Ta  Ta8  1  0.659250  0.168664  0.626103  1
  Ta  Ta9  1  0.159165  0.331272  0.873870  1
  Ta  Ta10  1  0.340816  0.831252  0.126117  1
  Ta  Ta11  1  0.840915  0.668804  0.373944  1
  Ta  Ta12  1  0.340806  0.831250  0.373892  1
  Ta  Ta13  1  0.840809  0.668738  0.126123  1
  Ta  Ta14  1  0.659187  0.168710  0.873864  1
  Ta  Ta15  1  0.159167  0.331230  0.626117  1
  Ta  Ta16  1  0.835238  0.486121  0.749964  1
  Ta  Ta17  1  0.335147  0.013895  0.749960  1
  Ta  Ta18  1  0.164804  0.513950  0.250010  1
  Ta  Ta19  1  0.664802  0.986067  0.250018  1
  Ge  Ge20  1  0.678161  0.961859  0.458251  1
  Ge  Ge21  1  0.178043  0.538099  0.041805  1
  Ge  Ge22  1  0.321966  0.038125  0.958196  1
  Ge  Ge23  1  0.822058  0.462094  0.541830  1
  Ge  Ge24  1  0.321700  0.037952  0.541850  1
  Ge  Ge25  1  0.821969  0.461880  0.958190  1
  Ge  Ge26  1  0.678033  0.961872  0.041796  1
  Ge  Ge27  1  0.177982  0.538201  0.458255  1
  Ge  Ge28  1  0.459498  0.380243  0.749985  1
  Ge  Ge29  1  0.959512  0.119646  0.749948  1
  Ge  Ge30  1  0.540500  0.619758  0.250007  1
  Ge  Ge31  1  0.040510  0.880242  0.250000  1
  Ge  Ge32  1  0.693769  0.856044  0.749932  1
  Ge  Ge33  1  0.193484  0.644087  0.749890  1
  Ge  Ge34  1  0.306365  0.143921  0.249998  1
  Ge  Ge35  1  0.806371  0.356078  0.250008  1
