# generated using pymatgen
data_UCoP2Ru
_symmetry_space_group_name_H-M   'P 1'
_cell_length_a   4.05069900
_cell_length_b   4.05069900
_cell_length_c   8.95104400
_cell_angle_alpha   90.00000000
_cell_angle_beta   90.00000000
_cell_angle_gamma   90.00000000
_symmetry_Int_Tables_number   1
_chemical_formula_structural   UCoP2Ru
_chemical_formula_sum   'U2 Co2 P4 Ru2'
_cell_volume   146.87018350
_cell_formula_units_Z   2
loop_
 _symmetry_equiv_pos_site_id
 _symmetry_equiv_pos_as_xyz
  1  'x, y, z'
loop_
 _atom_site_type_symbol
 _atom_site_label
 _atom_site_symmetry_multiplicity
 _atom_site_fract_x
 _atom_site_fract_y
 _atom_site_fract_z
 _atom_site_occupancy
  U  U0  1  0.500000  0.000000  0.239116  1
  U  U1  1  0.000000  0.500000  0.760884  1
  Co  Co2  1  0.000000  0.500000  0.106517  1
  Co  Co3  1  0.500000  0.000000  0.893483  1
  P  P4  1  0.000000  0.500000  0.354176  1
  P  P5  1  0.500000  0.500000  0.000000  1
  P  P6  1  0.500000  0.000000  0.645824  1
  P  P7  1  0.000000  0.000000  0.000000  1
  Ru  Ru8  1  0.000000  0.000000  0.500000  1
  Ru  Ru9  1  0.500000  0.500000  0.500000  1
