# generated using pymatgen
data_BaNdDy2(SbAu)4
_symmetry_space_group_name_H-M   'P 1'
_cell_length_a   4.61750000
_cell_length_b   4.61750024
_cell_length_c   17.39932600
_cell_angle_alpha   90.00000000
_cell_angle_beta   90.00000000
_cell_angle_gamma   120.00001262
_symmetry_Int_Tables_number   1
_chemical_formula_structural   BaNdDy2(SbAu)4
_chemical_formula_sum   'Ba1 Nd1 Dy2 Sb4 Au4'
_cell_volume   321.27492613
_cell_formula_units_Z   1
loop_
 _symmetry_equiv_pos_site_id
 _symmetry_equiv_pos_as_xyz
  1  'x, y, z'
loop_
 _atom_site_type_symbol
 _atom_site_label
 _atom_site_symmetry_multiplicity
 _atom_site_fract_x
 _atom_site_fract_y
 _atom_site_fract_z
 _atom_site_occupancy
  Ba  Ba0  1  0.000000  0.000000  0.500000  1
  Nd  Nd1  1  0.000000  0.000000  0.000000  1
  Dy  Dy2  1  0.000000  0.000000  0.243910  1
  Dy  Dy3  1  0.000000  0.000000  0.756090  1
  Sb  Sb4  1  0.333333  0.666667  0.370911  1
  Sb  Sb5  1  0.666667  0.333333  0.629089  1
  Sb  Sb6  1  0.666667  0.333333  0.893632  1
  Sb  Sb7  1  0.333333  0.666667  0.106368  1
  Au  Au8  1  0.666667  0.333333  0.326297  1
  Au  Au9  1  0.333333  0.666667  0.673703  1
  Au  Au10  1  0.333333  0.666667  0.841838  1
  Au  Au11  1  0.666667  0.333333  0.158162  1
