# generated using pymatgen
data_Ho4BI6
_symmetry_space_group_name_H-M   'P 1'
_cell_length_a   4.10596400
_cell_length_b   13.89184000
_cell_length_c   14.36848400
_cell_angle_alpha   90.00000000
_cell_angle_beta   90.00000000
_cell_angle_gamma   90.00000000
_symmetry_Int_Tables_number   1
_chemical_formula_structural   Ho4BI6
_chemical_formula_sum   'Ho8 B2 I12'
_cell_volume   819.56963348
_cell_formula_units_Z   2
loop_
 _symmetry_equiv_pos_site_id
 _symmetry_equiv_pos_as_xyz
  1  'x, y, z'
loop_
 _atom_site_type_symbol
 _atom_site_label
 _atom_site_symmetry_multiplicity
 _atom_site_fract_x
 _atom_site_fract_y
 _atom_site_fract_z
 _atom_site_occupancy
  Ho  Ho0  1  0.000000  0.095518  0.076089  1
  Ho  Ho1  1  0.000000  0.904482  0.923911  1
  Ho  Ho2  1  0.000000  0.595518  0.423911  1
  Ho  Ho3  1  0.000000  0.404482  0.576089  1
  Ho  Ho4  1  0.500000  0.117015  0.862660  1
  Ho  Ho5  1  0.500000  0.882985  0.137340  1
  Ho  Ho6  1  0.500000  0.617015  0.637340  1
  Ho  Ho7  1  0.500000  0.382985  0.362660  1
  B  B8  1  0.500000  0.000000  0.000000  1
  B  B9  1  0.500000  0.500000  0.500000  1
  I  I10  1  0.500000  0.268417  0.681308  1
  I  I11  1  0.500000  0.731583  0.318692  1
  I  I12  1  0.500000  0.768417  0.818692  1
  I  I13  1  0.500000  0.231583  0.181308  1
  I  I14  1  0.000000  0.263967  0.932352  1
  I  I15  1  0.000000  0.736033  0.067648  1
  I  I16  1  0.000000  0.482137  0.236509  1
  I  I17  1  0.000000  0.517863  0.763491  1
  I  I18  1  0.000000  0.982137  0.263491  1
  I  I19  1  0.000000  0.017863  0.736509  1
  I  I20  1  0.000000  0.236033  0.432352  1
  I  I21  1  0.000000  0.763967  0.567648  1
