# generated using pymatgen
data_Dy16Cd2Hg2IrPd3
_symmetry_space_group_name_H-M   'P 1'
_cell_length_a   9.68583897
_cell_length_b   9.62164039
_cell_length_c   9.64883700
_cell_angle_alpha   59.90645586
_cell_angle_beta   60.12629479
_cell_angle_gamma   60.22424140
_symmetry_Int_Tables_number   1
_chemical_formula_structural   Dy16Cd2Hg2IrPd3
_chemical_formula_sum   'Dy16 Cd2 Hg2 Ir1 Pd3'
_cell_volume   637.06181790
_cell_formula_units_Z   1
loop_
 _symmetry_equiv_pos_site_id
 _symmetry_equiv_pos_as_xyz
  1  'x, y, z'
loop_
 _atom_site_type_symbol
 _atom_site_label
 _atom_site_symmetry_multiplicity
 _atom_site_fract_x
 _atom_site_fract_y
 _atom_site_fract_z
 _atom_site_occupancy
  Dy  Dy0  1  0.355751  0.350347  0.348111  1
  Dy  Dy1  1  0.355751  0.350347  0.945791  1
  Dy  Dy2  1  0.360125  0.938669  0.350603  1
  Dy  Dy3  1  0.926539  0.360836  0.356312  1
  Dy  Dy4  1  0.807310  0.188288  0.190367  1
  Dy  Dy5  1  0.191668  0.809588  0.808869  1
  Dy  Dy6  1  0.191668  0.809588  0.189873  1
  Dy  Dy7  1  0.807310  0.188288  0.814033  1
  Dy  Dy8  1  0.192861  0.188286  0.809425  1
  Dy  Dy9  1  0.807172  0.813940  0.189443  1
  Dy  Dy10  1  0.936086  0.563720  0.565660  1
  Dy  Dy11  1  0.566196  0.935400  0.936158  1
  Dy  Dy12  1  0.566196  0.935400  0.562246  1
  Dy  Dy13  1  0.936086  0.563720  0.934533  1
  Dy  Dy14  1  0.567401  0.561484  0.935558  1
  Dy  Dy15  1  0.936268  0.934891  0.564421  1
  Cd  Cd16  1  0.579307  0.254654  0.583018  1
  Cd  Cd17  1  0.256809  0.579844  0.581673  1
  Hg  Hg18  1  0.584163  0.585579  0.588426  1
  Hg  Hg19  1  0.584163  0.585579  0.241829  1
  Ir  Ir20  1  0.570086  0.142239  0.143837  1
  Pd  Pd21  1  0.140663  0.145807  0.147584  1
  Pd  Pd22  1  0.140663  0.145807  0.565944  1
  Pd  Pd23  1  0.139751  0.567688  0.146281  1
