# generated using pymatgen
data_Y4HoIrRh
_symmetry_space_group_name_H-M   'P 1'
_cell_length_a   6.48139620
_cell_length_b   7.19719814
_cell_length_c   8.62233924
_cell_angle_alpha   96.61866293
_cell_angle_beta   112.07680410
_cell_angle_gamma   90.00000012
_symmetry_Int_Tables_number   1
_chemical_formula_structural   Y4HoIrRh
_chemical_formula_sum   'Y8 Ho2 Ir2 Rh2'
_cell_volume   369.82964038
_cell_formula_units_Z   2
loop_
 _symmetry_equiv_pos_site_id
 _symmetry_equiv_pos_as_xyz
  1  'x, y, z'
loop_
 _atom_site_type_symbol
 _atom_site_label
 _atom_site_symmetry_multiplicity
 _atom_site_fract_x
 _atom_site_fract_y
 _atom_site_fract_z
 _atom_site_occupancy
  Y  Y0  1  0.975248  0.917611  0.185166  1
  Y  Y1  1  0.790083  0.582389  0.814834  1
  Y  Y2  1  0.027501  0.082758  0.816642  1
  Y  Y3  1  0.210858  0.417242  0.183358  1
  Y  Y4  1  0.651675  0.816583  0.439110  1
  Y  Y5  1  0.212565  0.683417  0.560890  1
  Y  Y6  1  0.347934  0.184577  0.559227  1
  Y  Y7  1  0.788707  0.315423  0.440773  1
  Ho  Ho8  1  0.426216  0.750000  0.000000  1
  Ho  Ho9  1  0.571037  0.250000  0.000000  1
  Ir  Ir10  1  0.178924  0.427567  0.781524  1
  Ir  Ir11  1  0.397399  0.072433  0.218476  1
  Rh  Rh12  1  0.819172  0.571625  0.216493  1
  Rh  Rh13  1  0.602680  0.928375  0.783507  1
