# generated using pymatgen
data_Tm2ZnCoIr
_symmetry_space_group_name_H-M   'P 1'
_cell_length_a   5.36769854
_cell_length_b   5.36769819
_cell_length_c   5.36769827
_cell_angle_alpha   134.95077623
_cell_angle_beta   117.17307592
_cell_angle_gamma   80.60853701
_symmetry_Int_Tables_number   1
_chemical_formula_structural   Tm2ZnCoIr
_chemical_formula_sum   'Tm2 Zn1 Co1 Ir1'
_cell_volume   94.19659666
_cell_formula_units_Z   1
loop_
 _symmetry_equiv_pos_site_id
 _symmetry_equiv_pos_as_xyz
  1  'x, y, z'
loop_
 _atom_site_type_symbol
 _atom_site_label
 _atom_site_symmetry_multiplicity
 _atom_site_fract_x
 _atom_site_fract_y
 _atom_site_fract_z
 _atom_site_occupancy
  Tm  Tm0  1  0.709770  0.207488  0.502282  1
  Tm  Tm1  1  0.294795  0.792513  0.502283  1
  Zn  Zn2  1  0.013715  0.000000  0.013715  1
  Co  Co3  1  0.272665  0.500001  0.772666  1
  Ir  Ir4  1  0.709055  0.500000  0.209055  1
