# generated using pymatgen
data_Li8Er4Tm4Sn7Bi
_symmetry_space_group_name_H-M   'P 1'
_cell_length_a   9.35539677
_cell_length_b   9.35485583
_cell_length_c   7.14790204
_cell_angle_alpha   90.08499486
_cell_angle_beta   89.91664168
_cell_angle_gamma   119.99420701
_symmetry_Int_Tables_number   1
_chemical_formula_structural   Li8Er4Tm4Sn7Bi
_chemical_formula_sum   'Li8 Er4 Tm4 Sn7 Bi1'
_cell_volume   541.79283431
_cell_formula_units_Z   1
loop_
 _symmetry_equiv_pos_site_id
 _symmetry_equiv_pos_as_xyz
  1  'x, y, z'
loop_
 _atom_site_type_symbol
 _atom_site_label
 _atom_site_symmetry_multiplicity
 _atom_site_fract_x
 _atom_site_fract_y
 _atom_site_fract_z
 _atom_site_occupancy
  Li  Li0  1  0.829870  0.664736  0.711683  1
  Li  Li1  1  0.833180  0.166712  0.712987  1
  Li  Li2  1  0.335058  0.665013  0.822063  1
  Li  Li3  1  0.666530  0.333388  0.321194  1
  Li  Li4  1  0.666168  0.833064  0.212746  1
  Li  Li5  1  0.166942  0.333839  0.212730  1
  Li  Li6  1  0.166830  0.833249  0.214445  1
  Li  Li7  1  0.335294  0.170116  0.711679  1
  Er  Er8  1  0.997501  0.002500  0.003767  1
  Er  Er9  1  0.998040  0.001961  0.498098  1
  Er  Er10  1  0.511377  0.488653  0.006543  1
  Er  Er11  1  0.019774  0.506554  0.503354  1
  Tm  Tm12  1  0.493474  0.980262  0.503332  1
  Tm  Tm13  1  0.515939  0.024526  0.009477  1
  Tm  Tm14  1  0.975453  0.484059  0.009480  1
  Tm  Tm15  1  0.488678  0.511357  0.506097  1
  Sn  Sn16  1  0.666848  0.333028  0.740531  1
  Sn  Sn17  1  0.332852  0.667294  0.240744  1
  Sn  Sn18  1  0.833139  0.166676  0.269419  1
  Sn  Sn19  1  0.166273  0.333371  0.769870  1
  Sn  Sn20  1  0.333274  0.165750  0.269865  1
  Sn  Sn21  1  0.834093  0.666759  0.269796  1
  Sn  Sn22  1  0.666527  0.833811  0.769689  1
  Bi  Bi23  1  0.166885  0.833322  0.768414  1
