# generated using pymatgen
data_Nd11Ho(SiI3)4
_symmetry_space_group_name_H-M   'P 1'
_cell_length_a   10.79252831
_cell_length_b   10.79252923
_cell_length_c   10.81687982
_cell_angle_alpha   109.47998735
_cell_angle_beta   109.47998675
_cell_angle_gamma   109.39622634
_symmetry_Int_Tables_number   1
_chemical_formula_structural   Nd11Ho(SiI3)4
_chemical_formula_sum   'Nd11 Ho1 Si4 I12'
_cell_volume   970.58574934
_cell_formula_units_Z   1
loop_
 _symmetry_equiv_pos_site_id
 _symmetry_equiv_pos_as_xyz
  1  'x, y, z'
loop_
 _atom_site_type_symbol
 _atom_site_label
 _atom_site_symmetry_multiplicity
 _atom_site_fract_x
 _atom_site_fract_y
 _atom_site_fract_z
 _atom_site_occupancy
  Nd  Nd0  1  0.465263  0.482104  0.232800  1
  Nd  Nd1  1  0.751091  0.232182  0.268346  1
  Nd  Nd2  1  0.749131  0.017183  0.481682  1
  Nd  Nd3  1  0.232348  0.464311  0.481989  1
  Nd  Nd4  1  0.267818  0.748909  0.231654  1
  Nd  Nd5  1  0.035689  0.267652  0.018011  1
  Nd  Nd6  1  0.017896  0.034737  0.267200  1
  Nd  Nd7  1  0.482817  0.750869  0.018318  1
  Nd  Nd8  1  0.483085  0.232481  0.465140  1
  Nd  Nd9  1  0.018185  0.481815  0.750000  1
  Nd  Nd10  1  0.267519  0.016915  0.034860  1
  Ho  Ho11  1  0.228693  0.271307  0.750000  1
  Si  Si12  1  0.250277  0.249723  0.250000  1
  Si  Si13  1  0.499996  0.000004  0.250000  1
  Si  Si14  1  0.003205  0.249415  0.502931  1
  Si  Si15  1  0.250585  0.496795  0.997069  1
  I  I16  1  0.250074  0.757299  0.741994  1
  I  I17  1  0.507985  0.499361  0.758420  1
  I  I18  1  0.984471  0.741512  0.991822  1
  I  I19  1  0.742701  0.249926  0.758006  1
  I  I20  1  0.000639  0.992015  0.741580  1
  I  I21  1  0.250571  0.998679  0.513051  1
  I  I22  1  0.758488  0.515529  0.508178  1
  I  I23  1  0.501321  0.249429  0.986949  1
  I  I24  1  0.757903  0.742097  0.250000  1
  I  I25  1  0.742010  0.991724  0.983712  1
  I  I26  1  0.991963  0.508037  0.250000  1
  I  I27  1  0.508276  0.757990  0.516288  1
