# generated using pymatgen
data_Sn16Ir3Au
_symmetry_space_group_name_H-M   'P 1'
_cell_length_a   12.69597977
_cell_length_b   12.69597956
_cell_length_c   12.70615921
_cell_angle_alpha   150.66214171
_cell_angle_beta   150.66214100
_cell_angle_gamma   41.85040375
_symmetry_Int_Tables_number   1
_chemical_formula_structural   Sn16Ir3Au
_chemical_formula_sum   'Sn16 Ir3 Au1'
_cell_volume   490.69332747
_cell_formula_units_Z   1
loop_
 _symmetry_equiv_pos_site_id
 _symmetry_equiv_pos_as_xyz
  1  'x, y, z'
loop_
 _atom_site_type_symbol
 _atom_site_label
 _atom_site_symmetry_multiplicity
 _atom_site_fract_x
 _atom_site_fract_y
 _atom_site_fract_z
 _atom_site_occupancy
  Sn  Sn0  1  0.983670  0.483308  0.843909  1
  Sn  Sn1  1  0.360238  0.860601  0.843909  1
  Sn  Sn2  1  0.016692  0.516330  0.156091  1
  Sn  Sn3  1  0.253796  0.597912  0.983080  1
  Sn  Sn4  1  0.098010  0.112499  0.342539  1
  Sn  Sn5  1  0.860184  0.015808  0.500108  1
  Sn  Sn6  1  0.515700  0.360076  0.499892  1
  Sn  Sn7  1  0.139924  0.984300  0.500108  1
  Sn  Sn8  1  0.484192  0.639816  0.499892  1
  Sn  Sn9  1  0.744529  0.730040  0.342539  1
  Sn  Sn10  1  0.387501  0.401990  0.657461  1
  Sn  Sn11  1  0.769960  0.755471  0.657461  1
  Sn  Sn12  1  0.639399  0.139762  0.156091  1
  Sn  Sn13  1  0.902088  0.246204  0.016920  1
  Sn  Sn14  1  0.229284  0.885168  0.983080  1
  Sn  Sn15  1  0.614832  0.270716  0.016920  1
  Ir  Ir16  1  0.750000  0.750000  0.000000  1
  Ir  Ir17  1  0.250000  0.250000  0.000000  1
  Ir  Ir18  1  0.000000  0.500000  0.500000  1
  Au  Au19  1  0.500000  0.000000  0.500000  1
