# generated using pymatgen
data_Hf9Re3PdW
_symmetry_space_group_name_H-M   'P 1'
_cell_length_a   8.71610200
_cell_length_b   8.71610221
_cell_length_c   8.50722100
_cell_angle_alpha   90.00000000
_cell_angle_beta   90.00000000
_cell_angle_gamma   119.99999919
_symmetry_Int_Tables_number   1
_chemical_formula_structural   Hf9Re3PdW
_chemical_formula_sum   'Hf18 Re6 Pd2 W2'
_cell_volume   559.70987431
_cell_formula_units_Z   2
loop_
 _symmetry_equiv_pos_site_id
 _symmetry_equiv_pos_as_xyz
  1  'x, y, z'
loop_
 _atom_site_type_symbol
 _atom_site_label
 _atom_site_symmetry_multiplicity
 _atom_site_fract_x
 _atom_site_fract_y
 _atom_site_fract_z
 _atom_site_occupancy
  Hf  Hf0  1  0.195190  0.804810  0.448204  1
  Hf  Hf1  1  0.195190  0.390378  0.448204  1
  Hf  Hf2  1  0.609622  0.804810  0.448204  1
  Hf  Hf3  1  0.804810  0.195190  0.551796  1
  Hf  Hf4  1  0.804810  0.609622  0.551796  1
  Hf  Hf5  1  0.390378  0.195190  0.551796  1
  Hf  Hf6  1  0.804810  0.195190  0.948204  1
  Hf  Hf7  1  0.804810  0.609622  0.948204  1
  Hf  Hf8  1  0.390378  0.195190  0.948204  1
  Hf  Hf9  1  0.195190  0.804810  0.051796  1
  Hf  Hf10  1  0.195190  0.390378  0.051796  1
  Hf  Hf11  1  0.609622  0.804810  0.051796  1
  Hf  Hf12  1  0.542104  0.457896  0.250000  1
  Hf  Hf13  1  0.542104  0.084207  0.250000  1
  Hf  Hf14  1  0.915793  0.457896  0.250000  1
  Hf  Hf15  1  0.457896  0.542104  0.750000  1
  Hf  Hf16  1  0.457896  0.915793  0.750000  1
  Hf  Hf17  1  0.084207  0.542104  0.750000  1
  Re  Re18  1  0.889032  0.110968  0.250000  1
  Re  Re19  1  0.889032  0.778063  0.250000  1
  Re  Re20  1  0.221937  0.110968  0.250000  1
  Re  Re21  1  0.110968  0.889032  0.750000  1
  Re  Re22  1  0.110968  0.221937  0.750000  1
  Re  Re23  1  0.778063  0.889032  0.750000  1
  Pd  Pd24  1  0.333333  0.666667  0.250000  1
  Pd  Pd25  1  0.666667  0.333333  0.750000  1
  W  W26  1  0.000000  0.000000  0.500000  1
  W  W27  1  0.000000  0.000000  0.000000  1
