# generated using pymatgen
data_Tb15ErZn2(InRh2)2
_symmetry_space_group_name_H-M   'P 1'
_cell_length_a   9.62595975
_cell_length_b   9.60038385
_cell_length_c   9.61069111
_cell_angle_alpha   59.92249416
_cell_angle_beta   59.89404476
_cell_angle_gamma   59.92361650
_symmetry_Int_Tables_number   1
_chemical_formula_structural   Tb15ErZn2(InRh2)2
_chemical_formula_sum   'Tb15 Er1 Zn2 In2 Rh4'
_cell_volume   626.78417959
_cell_formula_units_Z   1
loop_
 _symmetry_equiv_pos_site_id
 _symmetry_equiv_pos_as_xyz
  1  'x, y, z'
loop_
 _atom_site_type_symbol
 _atom_site_label
 _atom_site_symmetry_multiplicity
 _atom_site_fract_x
 _atom_site_fract_y
 _atom_site_fract_z
 _atom_site_occupancy
  Tb  Tb0  1  0.189899  0.190206  0.812775  1
  Tb  Tb1  1  0.437696  0.061752  0.062439  1
  Tb  Tb2  1  0.435942  0.058361  0.433941  1
  Tb  Tb3  1  0.067208  0.437260  0.057020  1
  Tb  Tb4  1  0.647255  0.052968  0.648036  1
  Tb  Tb5  1  0.190399  0.809519  0.810681  1
  Tb  Tb6  1  0.067814  0.056948  0.436299  1
  Tb  Tb7  1  0.811096  0.191127  0.191648  1
  Tb  Tb8  1  0.810546  0.809127  0.191518  1
  Tb  Tb9  1  0.646035  0.648287  0.054168  1
  Tb  Tb10  1  0.649364  0.650755  0.650543  1
  Tb  Tb11  1  0.064088  0.435796  0.434761  1
  Tb  Tb12  1  0.057026  0.647367  0.645647  1
  Tb  Tb13  1  0.809401  0.191927  0.809289  1
  Tb  Tb14  1  0.435492  0.434755  0.058767  1
  Er  Er15  1  0.190084  0.811842  0.190519  1
  Zn  Zn16  1  0.416917  0.747006  0.420298  1
  Zn  Zn17  1  0.417321  0.420452  0.747046  1
  In  In18  1  0.739399  0.422857  0.422885  1
  In  In19  1  0.417491  0.422263  0.421735  1
  Rh  Rh20  1  0.857326  0.428442  0.856528  1
  Rh  Rh21  1  0.859153  0.856439  0.427066  1
  Rh  Rh22  1  0.425824  0.857464  0.859206  1
  Rh  Rh23  1  0.857220  0.857080  0.857183  1
