# generated using pymatgen
data_Tb8Ho12Si15Pd
_symmetry_space_group_name_H-M   'P 1'
_cell_length_a   7.65076084
_cell_length_b   7.68278112
_cell_length_c   14.15736236
_cell_angle_alpha   89.60734806
_cell_angle_beta   89.72829186
_cell_angle_gamma   90.42485926
_symmetry_Int_Tables_number   1
_chemical_formula_structural   Tb8Ho12Si15Pd
_chemical_formula_sum   'Tb8 Ho12 Si15 Pd1'
_cell_volume   832.10533617
_cell_formula_units_Z   1
loop_
 _symmetry_equiv_pos_site_id
 _symmetry_equiv_pos_as_xyz
  1  'x, y, z'
loop_
 _atom_site_type_symbol
 _atom_site_label
 _atom_site_symmetry_multiplicity
 _atom_site_fract_x
 _atom_site_fract_y
 _atom_site_fract_z
 _atom_site_occupancy
  Tb  Tb0  1  0.985994  0.364263  0.209058  1
  Tb  Tb1  1  0.008469  0.640440  0.709080  1
  Tb  Tb2  1  0.140328  0.501379  0.457783  1
  Tb  Tb3  1  0.508088  0.858362  0.041091  1
  Tb  Tb4  1  0.858614  0.505212  0.957808  1
  Tb  Tb5  1  0.496373  0.138576  0.544736  1
  Tb  Tb6  1  0.361459  0.992744  0.792304  1
  Tb  Tb7  1  0.643553  0.003984  0.290347  1
  Ho  Ho8  1  0.183405  0.184932  0.000654  1
  Ho  Ho9  1  0.821841  0.818546  0.499931  1
  Ho  Ho10  1  0.317021  0.683663  0.250256  1
  Ho  Ho11  1  0.684326  0.318634  0.749858  1
  Ho  Ho12  1  0.146153  0.013499  0.374905  1
  Ho  Ho13  1  0.859851  0.991294  0.876275  1
  Ho  Ho14  1  0.491110  0.639624  0.626843  1
  Ho  Ho15  1  0.363940  0.507890  0.874143  1
  Ho  Ho16  1  0.505316  0.357582  0.125986  1
  Ho  Ho17  1  0.630390  0.489023  0.377742  1
  Ho  Ho18  1  0.009860  0.140481  0.623275  1
  Ho  Ho19  1  0.989648  0.858443  0.123050  1
  Si  Si20  1  0.655668  0.702477  0.812144  1
  Si  Si21  1  0.205655  0.849333  0.564202  1
  Si  Si22  1  0.151121  0.792455  0.936374  1
  Si  Si23  1  0.796585  0.152061  0.063362  1
  Si  Si24  1  0.846676  0.203391  0.435350  1
  Si  Si25  1  0.297380  0.345457  0.689123  1
  Si  Si26  1  0.699561  0.653816  0.188561  1
  Si  Si27  1  0.296695  0.051507  0.184764  1
  Si  Si28  1  0.707794  0.939037  0.688684  1
  Si  Si29  1  0.439735  0.796100  0.440502  1
  Si  Si30  1  0.206284  0.564921  0.059500  1
  Si  Si31  1  0.561773  0.204317  0.938467  1
  Si  Si32  1  0.794428  0.438522  0.562102  1
  Si  Si33  1  0.062825  0.290709  0.811025  1
  Si  Si34  1  0.933124  0.707142  0.312154  1
  Pd  Pd35  1  0.338957  0.300187  0.308561  1
