# generated using pymatgen
data_La3PrTa4(Bi2O11)2
_symmetry_space_group_name_H-M   'P 1'
_cell_length_a   6.74829264
_cell_length_b   7.79622771
_cell_length_c   9.99505397
_cell_angle_alpha   101.23627601
_cell_angle_beta   91.03649562
_cell_angle_gamma   90.03878961
_symmetry_Int_Tables_number   1
_chemical_formula_structural   La3PrTa4(Bi2O11)2
_chemical_formula_sum   'La3 Pr1 Ta4 Bi4 O22'
_cell_volume   515.68337666
_cell_formula_units_Z   1
loop_
 _symmetry_equiv_pos_site_id
 _symmetry_equiv_pos_as_xyz
  1  'x, y, z'
loop_
 _atom_site_type_symbol
 _atom_site_label
 _atom_site_symmetry_multiplicity
 _atom_site_fract_x
 _atom_site_fract_y
 _atom_site_fract_z
 _atom_site_occupancy
  La  La0  1  0.750481  0.369920  0.485466  1
  La  La1  1  0.248756  0.628893  0.513091  1
  La  La2  1  0.758597  0.873514  0.490657  1
  Pr  Pr3  1  0.241223  0.127594  0.512021  1
  Ta  Ta4  1  0.918662  0.701669  0.808307  1
  Ta  Ta5  1  0.081680  0.297922  0.191983  1
  Ta  Ta6  1  0.918430  0.201925  0.809796  1
  Ta  Ta7  1  0.081175  0.798648  0.190802  1
  Bi  Bi8  1  0.427490  0.955227  0.816143  1
  Bi  Bi9  1  0.570443  0.044785  0.183856  1
  Bi  Bi10  1  0.402512  0.456272  0.826049  1
  Bi  Bi11  1  0.596826  0.544277  0.173830  1
  O  O12  1  0.218811  0.727565  0.765647  1
  O  O13  1  0.781896  0.271687  0.233731  1
  O  O14  1  0.639051  0.662643  0.836894  1
  O  O15  1  0.361165  0.337334  0.162351  1
  O  O16  1  0.638304  0.253894  0.837848  1
  O  O17  1  0.362008  0.746207  0.162034  1
  O  O18  1  0.897383  0.155462  0.597092  1
  O  O19  1  0.103971  0.847018  0.403340  1
  O  O20  1  0.217155  0.153078  0.763241  1
  O  O21  1  0.783368  0.847254  0.235422  1
  O  O22  1  0.900722  0.643156  0.597923  1
  O  O23  1  0.100616  0.354027  0.402136  1
  O  O24  1  0.024649  0.550870  0.201151  1
  O  O25  1  0.976756  0.449644  0.801169  1
  O  O26  1  0.000182  0.774381  0.000008  1
  O  O27  1  0.000984  0.225172  0.999744  1
  O  O28  1  0.572386  0.597376  0.389267  1
  O  O29  1  0.426334  0.401441  0.610751  1
  O  O30  1  0.150226  0.053569  0.213021  1
  O  O31  1  0.850922  0.945982  0.785562  1
  O  O32  1  0.545682  0.100451  0.396892  1
  O  O33  1  0.451155  0.901143  0.602773  1
