# generated using pymatgen
data_FeNiPt7
_symmetry_space_group_name_H-M   'P 1'
_cell_length_a   6.17942830
_cell_length_b   6.17942966
_cell_length_c   6.13996674
_cell_angle_alpha   95.84796577
_cell_angle_beta   95.84796247
_cell_angle_gamma   142.89423447
_symmetry_Int_Tables_number   1
_chemical_formula_structural   FeNiPt7
_chemical_formula_sum   'Fe1 Ni1 Pt7'
_cell_volume   133.99671480
_cell_formula_units_Z   1
loop_
 _symmetry_equiv_pos_site_id
 _symmetry_equiv_pos_as_xyz
  1  'x, y, z'
loop_
 _atom_site_type_symbol
 _atom_site_label
 _atom_site_symmetry_multiplicity
 _atom_site_fract_x
 _atom_site_fract_y
 _atom_site_fract_z
 _atom_site_occupancy
  Fe  Fe0  1  0.001230  0.998770  0.000000  1
  Ni  Ni1  1  0.663338  0.336662  0.000000  1
  Pt  Pt2  1  0.334469  0.665531  0.000000  1
  Pt  Pt3  1  0.662065  0.656514  0.318579  1
  Pt  Pt4  1  0.323274  0.995280  0.318554  1
  Pt  Pt5  1  0.997356  0.329938  0.327294  1
  Pt  Pt6  1  0.670062  0.002644  0.672706  1
  Pt  Pt7  1  0.004720  0.676726  0.681446  1
  Pt  Pt8  1  0.343486  0.337935  0.681420  1
