# generated using pymatgen
data_Ti6Re2Si6IrRu3
_symmetry_space_group_name_H-M   'P 1'
_cell_length_a   7.42363753
_cell_length_b   7.42553465
_cell_length_c   7.42402749
_cell_angle_alpha   127.02703756
_cell_angle_beta   124.49559209
_cell_angle_gamma   80.29082566
_symmetry_Int_Tables_number   1
_chemical_formula_structural   Ti6Re2Si6IrRu3
_chemical_formula_sum   'Ti6 Re2 Si6 Ir1 Ru3'
_cell_volume   259.86684749
_cell_formula_units_Z   1
loop_
 _symmetry_equiv_pos_site_id
 _symmetry_equiv_pos_as_xyz
  1  'x, y, z'
loop_
 _atom_site_type_symbol
 _atom_site_label
 _atom_site_symmetry_multiplicity
 _atom_site_fract_x
 _atom_site_fract_y
 _atom_site_fract_z
 _atom_site_occupancy
  Ti  Ti0  1  0.246115  0.911454  0.166078  1
  Ti  Ti1  1  0.966802  0.489508  0.026605  1
  Ti  Ti2  1  0.035675  0.058419  0.524234  1
  Ti  Ti3  1  0.439032  0.483458  0.541681  1
  Ti  Ti4  1  0.754709  0.921179  0.665127  1
  Ti  Ti5  1  0.556560  0.098645  0.038432  1
  Re  Re6  1  0.500650  0.243591  0.743735  1
  Re  Re7  1  0.000085  0.243469  0.244243  1
  Si  Si8  1  0.779106  0.546063  0.264550  1
  Si  Si9  1  0.176195  0.160176  0.997829  1
  Si  Si10  1  0.661964  0.159761  0.483749  1
  Si  Si11  1  0.337303  0.821436  0.497485  1
  Si  Si12  1  0.222920  0.487182  0.767839  1
  Si  Si13  1  0.823674  0.822340  0.985268  1
  Ir  Ir14  1  0.835673  0.496313  0.588185  1
  Ru  Ru15  1  0.593517  0.752387  0.089088  1
  Ru  Ru16  1  0.407415  0.495830  0.159310  1
  Ru  Ru17  1  0.162605  0.750998  0.658769  1
