# generated using pymatgen
data_Y3Sn3HgRh2
_symmetry_space_group_name_H-M   'P 1'
_cell_length_a   7.71038900
_cell_length_b   7.71038897
_cell_length_c   3.93502700
_cell_angle_alpha   90.00000000
_cell_angle_beta   90.00000000
_cell_angle_gamma   119.99999584
_symmetry_Int_Tables_number   1
_chemical_formula_structural   Y3Sn3HgRh2
_chemical_formula_sum   'Y3 Sn3 Hg1 Rh2'
_cell_volume   202.59603591
_cell_formula_units_Z   1
loop_
 _symmetry_equiv_pos_site_id
 _symmetry_equiv_pos_as_xyz
  1  'x, y, z'
loop_
 _atom_site_type_symbol
 _atom_site_label
 _atom_site_symmetry_multiplicity
 _atom_site_fract_x
 _atom_site_fract_y
 _atom_site_fract_z
 _atom_site_occupancy
  Y  Y0  1  0.410931  0.018612  0.500000  1
  Y  Y1  1  0.981388  0.392319  0.500000  1
  Y  Y2  1  0.607681  0.589069  0.500000  1
  Sn  Sn3  1  0.752609  0.010510  0.000000  1
  Sn  Sn4  1  0.989490  0.742099  0.000000  1
  Sn  Sn5  1  0.257901  0.247391  0.000000  1
  Hg  Hg6  1  0.333333  0.666667  0.000000  1
  Rh  Rh7  1  0.666667  0.333333  0.000000  1
  Rh  Rh8  1  0.000000  0.000000  0.500000  1
