# generated using pymatgen
data_La4Nd12Cd3HgPt4
_symmetry_space_group_name_H-M   'P 1'
_cell_length_a   10.07003740
_cell_length_b   10.07003700
_cell_length_c   10.07003604
_cell_angle_alpha   60.09623980
_cell_angle_beta   60.09623897
_cell_angle_gamma   60.09624436
_symmetry_Int_Tables_number   1
_chemical_formula_structural   La4Nd12Cd3HgPt4
_chemical_formula_sum   'La4 Nd12 Cd3 Hg1 Pt4'
_cell_volume   723.64274198
_cell_formula_units_Z   1
loop_
 _symmetry_equiv_pos_site_id
 _symmetry_equiv_pos_as_xyz
  1  'x, y, z'
loop_
 _atom_site_type_symbol
 _atom_site_label
 _atom_site_symmetry_multiplicity
 _atom_site_fract_x
 _atom_site_fract_y
 _atom_site_fract_z
 _atom_site_occupancy
  La  La0  1  0.349496  0.349496  0.349496  1
  La  La1  1  0.352419  0.352419  0.944050  1
  La  La2  1  0.352419  0.944050  0.352419  1
  La  La3  1  0.944050  0.352419  0.352419  1
  Nd  Nd4  1  0.810897  0.190209  0.190209  1
  Nd  Nd5  1  0.190898  0.808865  0.808865  1
  Nd  Nd6  1  0.190209  0.810897  0.190209  1
  Nd  Nd7  1  0.808865  0.190898  0.808865  1
  Nd  Nd8  1  0.190209  0.190209  0.810897  1
  Nd  Nd9  1  0.808865  0.808865  0.190898  1
  Nd  Nd10  1  0.938038  0.564565  0.564565  1
  Nd  Nd11  1  0.563878  0.934378  0.934378  1
  Nd  Nd12  1  0.564565  0.938038  0.564565  1
  Nd  Nd13  1  0.934378  0.563878  0.934378  1
  Nd  Nd14  1  0.564565  0.564565  0.938038  1
  Nd  Nd15  1  0.934378  0.934378  0.563878  1
  Cd  Cd16  1  0.580177  0.580177  0.257326  1
  Cd  Cd17  1  0.580177  0.257326  0.580177  1
  Cd  Cd18  1  0.257326  0.580177  0.580177  1
  Hg  Hg19  1  0.584965  0.584965  0.584965  1
  Pt  Pt20  1  0.143466  0.143466  0.143466  1
  Pt  Pt21  1  0.141939  0.141939  0.571879  1
  Pt  Pt22  1  0.141939  0.571879  0.141939  1
  Pt  Pt23  1  0.571879  0.141939  0.141939  1
