# generated using pymatgen
data_Pr3Y7C4I15
_symmetry_space_group_name_H-M   'P 1'
_cell_length_a   9.69273883
_cell_length_b   10.47674028
_cell_length_c   11.62998387
_cell_angle_alpha   93.22123075
_cell_angle_beta   114.16065930
_cell_angle_gamma   109.56952339
_symmetry_Int_Tables_number   1
_chemical_formula_structural   Pr3Y7C4I15
_chemical_formula_sum   'Pr3 Y7 C4 I15'
_cell_volume   989.31298925
_cell_formula_units_Z   1
loop_
 _symmetry_equiv_pos_site_id
 _symmetry_equiv_pos_as_xyz
  1  'x, y, z'
loop_
 _atom_site_type_symbol
 _atom_site_label
 _atom_site_symmetry_multiplicity
 _atom_site_fract_x
 _atom_site_fract_y
 _atom_site_fract_z
 _atom_site_occupancy
  Pr  Pr0  1  0.704800  0.567979  0.044247  1
  Pr  Pr1  1  0.295218  0.432926  0.955413  1
  Pr  Pr2  1  0.661626  0.255600  0.837089  1
  Y  Y3  1  0.590439  0.541255  0.337002  1
  Y  Y4  1  0.350070  0.741630  0.161707  1
  Y  Y5  1  0.766935  0.873768  0.251832  1
  Y  Y6  1  0.526650  0.185560  0.098931  1
  Y  Y7  1  0.235863  0.124704  0.750432  1
  Y  Y8  1  0.406886  0.458309  0.662554  1
  Y  Y9  1  0.473543  0.815699  0.901018  1
  C  C10  1  0.482700  0.298478  0.939207  1
  C  C11  1  0.517283  0.703661  0.061337  1
  C  C12  1  0.454130  0.363203  0.833595  1
  C  C13  1  0.544933  0.637274  0.166503  1
  I  I14  1  0.214996  0.907635  0.939830  1
  I  I15  1  0.112390  0.193031  0.479466  1
  I  I16  1  0.164519  0.564715  0.699227  1
  I  I17  1  0.397382  0.965267  0.652992  1
  I  I18  1  0.701492  0.738921  0.812692  1
  I  I19  1  0.296057  0.261151  0.185401  1
  I  I20  1  0.834105  0.434992  0.301239  1
  I  I21  1  0.885129  0.805354  0.522480  1
  I  I22  1  0.355932  0.626475  0.406977  1
  I  I23  1  0.049914  0.841074  0.224188  1
  I  I24  1  0.787967  0.090323  0.068130  1
  I  I25  1  0.639550  0.379403  0.584151  1
  I  I26  1  0.951160  0.158813  0.776822  1
  I  I27  1  0.590366  0.024604  0.341208  1
  I  I28  1  0.007963  0.508194  0.004329  1
