# generated using pymatgen
data_MoCl14
_symmetry_space_group_name_H-M   'P 1'
_cell_length_a   15.02867383
_cell_length_b   15.49792924
_cell_length_c   9.67399256
_cell_angle_alpha   68.90726256
_cell_angle_beta   74.18173385
_cell_angle_gamma   36.91100631
_symmetry_Int_Tables_number   1
_chemical_formula_structural   MoCl14
_chemical_formula_sum   'Mo2 Cl28'
_cell_volume   1262.08531477
_cell_formula_units_Z   2
loop_
 _symmetry_equiv_pos_site_id
 _symmetry_equiv_pos_as_xyz
  1  'x, y, z'
loop_
 _atom_site_type_symbol
 _atom_site_label
 _atom_site_symmetry_multiplicity
 _atom_site_fract_x
 _atom_site_fract_y
 _atom_site_fract_z
 _atom_site_occupancy
  Mo  Mo0  1  0.127849  0.127849  0.372151  1
  Mo  Mo1  1  0.877849  0.877849  0.122151  1
  Cl  Cl2  1  0.608483  0.857426  0.572144  1
  Cl  Cl3  1  0.677856  0.288054  0.641517  1
  Cl  Cl4  1  0.857426  0.608483  0.961946  1
  Cl  Cl5  1  0.288054  0.677856  0.392574  1
  Cl  Cl6  1  0.066846  0.068772  0.264065  1
  Cl  Cl7  1  0.180416  0.195161  0.479815  1
  Cl  Cl8  1  0.195161  0.180416  0.144608  1
  Cl  Cl9  1  0.920400  0.835848  0.363879  1
  Cl  Cl10  1  0.153713  0.447907  0.813057  1
  Cl  Cl11  1  0.649682  0.985935  0.181228  1
  Cl  Cl12  1  0.304563  0.357718  0.946007  1
  Cl  Cl13  1  0.735964  0.651885  0.575815  1
  Cl  Cl14  1  0.858289  0.303993  0.892282  1
  Cl  Cl15  1  0.436943  0.664678  0.096287  1
  Cl  Cl16  1  0.357718  0.304563  0.391711  1
  Cl  Cl17  1  0.370127  0.886121  0.414152  1
  Cl  Cl18  1  0.664678  0.436943  0.802093  1
  Cl  Cl19  1  0.985935  0.649682  0.183154  1
  Cl  Cl20  1  0.674185  0.213663  0.514036  1
  Cl  Cl21  1  0.447907  0.153713  0.585322  1
  Cl  Cl22  1  0.105392  0.770185  0.054839  1
  Cl  Cl23  1  0.651885  0.735964  0.036337  1
  Cl  Cl24  1  0.770185  0.105392  0.069584  1
  Cl  Cl25  1  0.068772  0.066846  0.600318  1
  Cl  Cl26  1  0.303993  0.858289  0.945437  1
  Cl  Cl27  1  0.886121  0.370127  0.329600  1
  Cl  Cl28  1  0.213663  0.674185  0.598115  1
  Cl  Cl29  1  0.835848  0.920400  0.879873  1
