# generated using pymatgen
data_CaTaHgSbO7
_symmetry_space_group_name_H-M   'P 1'
_cell_length_a   7.45628524
_cell_length_b   7.45628633
_cell_length_c   7.61696000
_cell_angle_alpha   59.28457565
_cell_angle_beta   59.28457069
_cell_angle_gamma   58.64823346
_symmetry_Int_Tables_number   1
_chemical_formula_structural   CaTaHgSbO7
_chemical_formula_sum   'Ca2 Ta2 Hg2 Sb2 O14'
_cell_volume   293.08387898
_cell_formula_units_Z   2
loop_
 _symmetry_equiv_pos_site_id
 _symmetry_equiv_pos_as_xyz
  1  'x, y, z'
loop_
 _atom_site_type_symbol
 _atom_site_label
 _atom_site_symmetry_multiplicity
 _atom_site_fract_x
 _atom_site_fract_y
 _atom_site_fract_z
 _atom_site_occupancy
  Ca  Ca0  1  0.125000  0.125000  0.625000  1
  Ca  Ca1  1  0.125000  0.125000  0.125000  1
  Ta  Ta2  1  0.625000  0.625000  0.125000  1
  Ta  Ta3  1  0.625000  0.625000  0.625000  1
  Hg  Hg4  1  0.125000  0.625000  0.125000  1
  Hg  Hg5  1  0.625000  0.125000  0.125000  1
  Sb  Sb6  1  0.625000  0.125000  0.625000  1
  Sb  Sb7  1  0.125000  0.625000  0.625000  1
  O  O8  1  0.304826  0.701772  0.309952  1
  O  O9  1  0.548228  0.945174  0.566550  1
  O  O10  1  0.297326  0.297326  0.702674  1
  O  O11  1  0.701772  0.304826  0.309952  1
  O  O12  1  0.304826  0.701772  0.683450  1
  O  O13  1  0.683532  0.683532  0.316468  1
  O  O14  1  0.952674  0.952674  0.547326  1
  O  O15  1  0.566468  0.566468  0.933532  1
  O  O16  1  0.987640  0.987640  0.012360  1
  O  O17  1  0.262360  0.262360  0.237640  1
  O  O18  1  0.701772  0.304826  0.683450  1
  O  O19  1  0.945174  0.548228  0.566550  1
  O  O20  1  0.548228  0.945174  0.940048  1
  O  O21  1  0.945174  0.548228  0.940048  1
