# generated using pymatgen
data_Dy3YFe3Os5
_symmetry_space_group_name_H-M   'P 1'
_cell_length_a   5.27064100
_cell_length_b   5.30449299
_cell_length_c   9.15111239
_cell_angle_alpha   73.15236019
_cell_angle_beta   90.88557545
_cell_angle_gamma   120.21268845
_symmetry_Int_Tables_number   1
_chemical_formula_structural   Dy3YFe3Os5
_chemical_formula_sum   'Dy3 Y1 Fe3 Os5'
_cell_volume   208.95829950
_cell_formula_units_Z   1
loop_
 _symmetry_equiv_pos_site_id
 _symmetry_equiv_pos_as_xyz
  1  'x, y, z'
loop_
 _atom_site_type_symbol
 _atom_site_label
 _atom_site_symmetry_multiplicity
 _atom_site_fract_x
 _atom_site_fract_y
 _atom_site_fract_z
 _atom_site_occupancy
  Dy  Dy0  1  0.378862  0.752562  0.873738  1
  Dy  Dy1  1  0.996187  0.997478  0.001232  1
  Dy  Dy2  1  0.499428  0.999887  0.499653  1
  Y  Y3  1  0.875446  0.750016  0.375414  1
  Fe  Fe4  1  0.687446  0.375000  0.937448  1
  Fe  Fe5  1  0.939977  0.375942  0.188092  1
  Fe  Fe6  1  0.434995  0.374069  0.686856  1
  Os  Os7  1  0.440281  0.373792  0.184025  1
  Os  Os8  1  0.934766  0.376162  0.690952  1
  Os  Os9  1  0.440281  0.882465  0.184025  1
  Os  Os10  1  0.934766  0.867649  0.690952  1
  Os  Os11  1  0.187564  0.374976  0.437612  1
