# generated using pymatgen
data_Dy3Lu7AlSb5
_symmetry_space_group_name_H-M   'P 1'
_cell_length_a   6.26876000
_cell_length_b   8.80800810
_cell_length_c   8.78110610
_cell_angle_alpha   119.79373930
_cell_angle_beta   90.00008660
_cell_angle_gamma   89.99987837
_symmetry_Int_Tables_number   1
_chemical_formula_structural   Dy3Lu7AlSb5
_chemical_formula_sum   'Dy3 Lu7 Al1 Sb5'
_cell_volume   420.76354385
_cell_formula_units_Z   1
loop_
 _symmetry_equiv_pos_site_id
 _symmetry_equiv_pos_as_xyz
  1  'x, y, z'
loop_
 _atom_site_type_symbol
 _atom_site_label
 _atom_site_symmetry_multiplicity
 _atom_site_fract_x
 _atom_site_fract_y
 _atom_site_fract_z
 _atom_site_occupancy
  Dy  Dy0  1  0.749990  0.989306  0.234556  1
  Dy  Dy1  1  0.250012  0.246218  0.244048  1
  Dy  Dy2  1  0.249991  0.002257  0.758616  1
  Lu  Lu3  1  0.501628  0.337861  0.673025  1
  Lu  Lu4  1  0.501815  0.666208  0.326445  1
  Lu  Lu5  1  0.998260  0.666196  0.326493  1
  Lu  Lu6  1  0.998319  0.337904  0.673107  1
  Lu  Lu7  1  0.750006  0.248193  0.999388  1
  Lu  Lu8  1  0.750002  0.752282  0.763826  1
  Lu  Lu9  1  0.250003  0.756597  0.000053  1
  Al  Al10  1  0.749988  0.600759  0.999796  1
  Sb  Sb11  1  0.750014  0.389175  0.389244  1
  Sb  Sb12  1  0.749988  0.997453  0.610624  1
  Sb  Sb13  1  0.250004  0.397286  0.999980  1
  Sb  Sb14  1  0.249990  0.610291  0.608863  1
  Sb  Sb15  1  0.249990  0.002015  0.391939  1
