# generated using pymatgen
data_Tb4Co15SiP11Ru5
_symmetry_space_group_name_H-M   'P 1'
_cell_length_a   3.71560900
_cell_length_b   10.44465129
_cell_length_c   11.82422172
_cell_angle_alpha   90.41635506
_cell_angle_beta   90.00000000
_cell_angle_gamma   90.00000000
_symmetry_Int_Tables_number   1
_chemical_formula_structural   Tb4Co15SiP11Ru5
_chemical_formula_sum   'Tb4 Co15 Si1 P11 Ru5'
_cell_volume   458.86512268
_cell_formula_units_Z   1
loop_
 _symmetry_equiv_pos_site_id
 _symmetry_equiv_pos_as_xyz
  1  'x, y, z'
loop_
 _atom_site_type_symbol
 _atom_site_label
 _atom_site_symmetry_multiplicity
 _atom_site_fract_x
 _atom_site_fract_y
 _atom_site_fract_z
 _atom_site_occupancy
  Tb  Tb0  1  0.250000  0.588437  0.704325  1
  Tb  Tb1  1  0.250000  0.914040  0.203518  1
  Tb  Tb2  1  0.750000  0.413518  0.292857  1
  Tb  Tb3  1  0.750000  0.085856  0.797015  1
  Co  Co4  1  0.250000  0.090984  0.989974  1
  Co  Co5  1  0.750000  0.597965  0.512426  1
  Co  Co6  1  0.750000  0.909217  0.009715  1
  Co  Co7  1  0.250000  0.213302  0.177314  1
  Co  Co8  1  0.250000  0.274601  0.680572  1
  Co  Co9  1  0.750000  0.779422  0.823304  1
  Co  Co10  1  0.750000  0.722671  0.323250  1
  Co  Co11  1  0.250000  0.887335  0.702650  1
  Co  Co12  1  0.250000  0.616745  0.200408  1
  Co  Co13  1  0.750000  0.111572  0.298966  1
  Co  Co14  1  0.750000  0.385887  0.798597  1
  Co  Co15  1  0.250000  0.468633  0.925319  1
  Co  Co16  1  0.250000  0.034272  0.431959  1
  Co  Co17  1  0.750000  0.538300  0.064423  1
  Co  Co18  1  0.750000  0.963591  0.569265  1
  Si  Si19  1  0.250000  0.416547  0.108033  1
  P  P20  1  0.250000  0.078075  0.612935  1
  P  P21  1  0.750000  0.580980  0.886162  1
  P  P22  1  0.750000  0.920628  0.387869  1
  P  P23  1  0.250000  0.272473  0.869324  1
  P  P24  1  0.250000  0.225066  0.365485  1
  P  P25  1  0.750000  0.727958  0.132872  1
  P  P26  1  0.750000  0.772287  0.633280  1
  P  P27  1  0.250000  0.600431  0.387015  1
  P  P28  1  0.250000  0.904130  0.890340  1
  P  P29  1  0.750000  0.402026  0.612906  1
  P  P30  1  0.750000  0.096223  0.110146  1
  Ru  Ru31  1  0.250000  0.719095  0.992539  1
  Ru  Ru32  1  0.250000  0.786009  0.491241  1
  Ru  Ru33  1  0.750000  0.283813  0.010342  1
  Ru  Ru34  1  0.750000  0.209461  0.513958  1
  Ru  Ru35  1  0.250000  0.408448  0.489693  1
