# generated using pymatgen
data_DyHf2F11
_symmetry_space_group_name_H-M   'P 1'
_cell_length_a   8.26722148
_cell_length_b   8.26722214
_cell_length_c   8.26722212
_cell_angle_alpha   124.13180864
_cell_angle_beta   106.33164191
_cell_angle_gamma   99.07369436
_symmetry_Int_Tables_number   1
_chemical_formula_structural   DyHf2F11
_chemical_formula_sum   'Dy2 Hf4 F22'
_cell_volume   411.92150749
_cell_formula_units_Z   2
loop_
 _symmetry_equiv_pos_site_id
 _symmetry_equiv_pos_as_xyz
  1  'x, y, z'
loop_
 _atom_site_type_symbol
 _atom_site_label
 _atom_site_symmetry_multiplicity
 _atom_site_fract_x
 _atom_site_fract_y
 _atom_site_fract_z
 _atom_site_occupancy
  Dy  Dy0  1  0.750000  0.250000  0.500000  1
  Dy  Dy1  1  0.250000  0.750000  0.500000  1
  Hf  Hf2  1  0.681578  0.636570  0.318148  1
  Hf  Hf3  1  0.318422  0.363430  0.681852  1
  Hf  Hf4  1  0.181578  0.863430  0.045008  1
  Hf  Hf5  1  0.818422  0.136570  0.954992  1
  F  F6  1  0.707299  0.900678  0.343114  1
  F  F7  1  0.292701  0.099322  0.656886  1
  F  F8  1  0.557564  0.364185  0.656886  1
  F  F9  1  0.942436  0.599322  0.806620  1
  F  F10  1  0.442436  0.635815  0.343114  1
  F  F11  1  0.057564  0.400678  0.193380  1
  F  F12  1  0.792701  0.135815  0.193380  1
  F  F13  1  0.207299  0.864185  0.806620  1
  F  F14  1  0.500000  0.500000  0.000000  1
  F  F15  1  0.000000  0.000000  0.000000  1
  F  F16  1  0.781796  0.870602  0.652396  1
  F  F17  1  0.218204  0.129398  0.347604  1
  F  F18  1  0.281796  0.629398  0.911194  1
  F  F19  1  0.718204  0.370602  0.088806  1
  F  F20  1  0.957743  0.738924  0.418747  1
  F  F21  1  0.042257  0.261076  0.581253  1
  F  F22  1  0.320176  0.538996  0.581253  1
  F  F23  1  0.179824  0.761076  0.218819  1
  F  F24  1  0.679824  0.461004  0.418747  1
  F  F25  1  0.820176  0.238924  0.781181  1
  F  F26  1  0.542257  0.961004  0.781181  1
  F  F27  1  0.457743  0.038996  0.218819  1
