# generated using pymatgen
data_Hf3Nb(NiTe)8
_symmetry_space_group_name_H-M   'P 1'
_cell_length_a   3.68920800
_cell_length_b   6.44507116
_cell_length_c   17.96992842
_cell_angle_alpha   90.06905198
_cell_angle_beta   90.00000000
_cell_angle_gamma   90.00000000
_symmetry_Int_Tables_number   1
_chemical_formula_structural   Hf3Nb(NiTe)8
_chemical_formula_sum   'Hf3 Nb1 Ni8 Te8'
_cell_volume   427.27441687
_cell_formula_units_Z   1
loop_
 _symmetry_equiv_pos_site_id
 _symmetry_equiv_pos_as_xyz
  1  'x, y, z'
loop_
 _atom_site_type_symbol
 _atom_site_label
 _atom_site_symmetry_multiplicity
 _atom_site_fract_x
 _atom_site_fract_y
 _atom_site_fract_z
 _atom_site_occupancy
  Hf  Hf0  1  0.250000  0.906026  0.721868  1
  Hf  Hf1  1  0.750000  0.094166  0.278410  1
  Hf  Hf2  1  0.250000  0.406165  0.778106  1
  Nb  Nb3  1  0.750000  0.594038  0.222437  1
  Ni  Ni4  1  0.250000  0.289120  0.184235  1
  Ni  Ni5  1  0.750000  0.712296  0.816480  1
  Ni  Ni6  1  0.750000  0.212039  0.683428  1
  Ni  Ni7  1  0.250000  0.789551  0.315083  1
  Ni  Ni8  1  0.250000  0.898128  0.184902  1
  Ni  Ni9  1  0.750000  0.100340  0.815883  1
  Ni  Ni10  1  0.250000  0.398480  0.314502  1
  Ni  Ni11  1  0.750000  0.600165  0.684073  1
  Te  Te12  1  0.250000  0.593801  0.096553  1
  Te  Te13  1  0.750000  0.406052  0.907097  1
  Te  Te14  1  0.750000  0.905286  0.592846  1
  Te  Te15  1  0.250000  0.094619  0.407276  1
  Te  Te16  1  0.750000  0.593103  0.384680  1
  Te  Te17  1  0.250000  0.407117  0.610775  1
  Te  Te18  1  0.750000  0.092124  0.112131  1
  Te  Te19  1  0.250000  0.907382  0.889233  1
