# generated using pymatgen
data_Nd2CuP2Rh4Au
_symmetry_space_group_name_H-M   'P 1'
_cell_length_a   3.99419000
_cell_length_b   3.99419000
_cell_length_c   10.99361100
_cell_angle_alpha   90.00000000
_cell_angle_beta   90.00000000
_cell_angle_gamma   90.00000000
_symmetry_Int_Tables_number   1
_chemical_formula_structural   Nd2CuP2Rh4Au
_chemical_formula_sum   'Nd2 Cu1 P2 Rh4 Au1'
_cell_volume   175.38716406
_cell_formula_units_Z   1
loop_
 _symmetry_equiv_pos_site_id
 _symmetry_equiv_pos_as_xyz
  1  'x, y, z'
loop_
 _atom_site_type_symbol
 _atom_site_label
 _atom_site_symmetry_multiplicity
 _atom_site_fract_x
 _atom_site_fract_y
 _atom_site_fract_z
 _atom_site_occupancy
  Nd  Nd0  1  0.000000  0.500000  0.247927  1
  Nd  Nd1  1  0.500000  0.000000  0.752073  1
  Cu  Cu2  1  0.000000  0.000000  0.500000  1
  P  P3  1  0.000000  0.500000  0.878088  1
  P  P4  1  0.500000  0.000000  0.121912  1
  Rh  Rh5  1  0.000000  0.000000  0.000000  1
  Rh  Rh6  1  0.500000  0.500000  0.000000  1
  Rh  Rh7  1  0.000000  0.500000  0.671327  1
  Rh  Rh8  1  0.500000  0.000000  0.328673  1
  Au  Au9  1  0.500000  0.500000  0.500000  1
