# generated using pymatgen
data_Zr2U2In2IrRu3
_symmetry_space_group_name_H-M   'P 1'
_cell_length_a   7.60219084
_cell_length_b   7.60219071
_cell_length_c   3.41510400
_cell_angle_alpha   90.00000000
_cell_angle_beta   90.00000000
_cell_angle_gamma   84.02366930
_symmetry_Int_Tables_number   1
_chemical_formula_structural   Zr2U2In2IrRu3
_chemical_formula_sum   'Zr2 U2 In2 Ir1 Ru3'
_cell_volume   196.29743738
_cell_formula_units_Z   1
loop_
 _symmetry_equiv_pos_site_id
 _symmetry_equiv_pos_as_xyz
  1  'x, y, z'
loop_
 _atom_site_type_symbol
 _atom_site_label
 _atom_site_symmetry_multiplicity
 _atom_site_fract_x
 _atom_site_fract_y
 _atom_site_fract_z
 _atom_site_occupancy
  Zr  Zr0  1  0.676519  0.176519  0.500000  1
  Zr  Zr1  1  0.324102  0.824102  0.500000  1
  U  U2  1  0.180622  0.324840  0.500000  1
  U  U3  1  0.824840  0.680622  0.500000  1
  In  In4  1  0.499320  0.502593  0.000000  1
  In  In5  1  0.002593  0.999320  0.000000  1
  Ir  Ir6  1  0.872185  0.372185  0.000000  1
  Ru  Ru7  1  0.120255  0.620255  0.000000  1
  Ru  Ru8  1  0.643730  0.855835  0.000000  1
  Ru  Ru9  1  0.355835  0.143730  0.000000  1
