# generated using pymatgen
data_Tb20Cd6IrRu
_symmetry_space_group_name_H-M   'P 1'
_cell_length_a   9.66843500
_cell_length_b   9.66843447
_cell_length_c   9.93419800
_cell_angle_alpha   90.00000000
_cell_angle_beta   90.00000000
_cell_angle_gamma   119.99999840
_symmetry_Int_Tables_number   1
_chemical_formula_structural   Tb20Cd6IrRu
_chemical_formula_sum   'Tb20 Cd6 Ir1 Ru1'
_cell_volume   804.22170549
_cell_formula_units_Z   1
loop_
 _symmetry_equiv_pos_site_id
 _symmetry_equiv_pos_as_xyz
  1  'x, y, z'
loop_
 _atom_site_type_symbol
 _atom_site_label
 _atom_site_symmetry_multiplicity
 _atom_site_fract_x
 _atom_site_fract_y
 _atom_site_fract_z
 _atom_site_occupancy
  Tb  Tb0  1  0.000000  0.000000  0.499811  1
  Tb  Tb1  1  0.000000  0.000000  0.000189  1
  Tb  Tb2  1  0.209496  0.790504  0.440696  1
  Tb  Tb3  1  0.209496  0.418993  0.440696  1
  Tb  Tb4  1  0.581007  0.790504  0.440696  1
  Tb  Tb5  1  0.790161  0.209839  0.560279  1
  Tb  Tb6  1  0.790161  0.580320  0.560279  1
  Tb  Tb7  1  0.419680  0.209839  0.560279  1
  Tb  Tb8  1  0.790161  0.209839  0.939721  1
  Tb  Tb9  1  0.790161  0.580320  0.939721  1
  Tb  Tb10  1  0.419680  0.209839  0.939721  1
  Tb  Tb11  1  0.209496  0.790504  0.059304  1
  Tb  Tb12  1  0.209496  0.418993  0.059304  1
  Tb  Tb13  1  0.581007  0.790504  0.059304  1
  Tb  Tb14  1  0.541421  0.458579  0.250000  1
  Tb  Tb15  1  0.541421  0.082841  0.250000  1
  Tb  Tb16  1  0.917159  0.458579  0.250000  1
  Tb  Tb17  1  0.458729  0.541271  0.750000  1
  Tb  Tb18  1  0.458729  0.917458  0.750000  1
  Tb  Tb19  1  0.082542  0.541271  0.750000  1
  Cd  Cd20  1  0.885409  0.114591  0.250000  1
  Cd  Cd21  1  0.885409  0.770817  0.250000  1
  Cd  Cd22  1  0.229183  0.114591  0.250000  1
  Cd  Cd23  1  0.114577  0.885423  0.750000  1
  Cd  Cd24  1  0.114577  0.229154  0.750000  1
  Cd  Cd25  1  0.770846  0.885423  0.750000  1
  Ir  Ir26  1  0.333333  0.666667  0.250000  1
  Ru  Ru27  1  0.666667  0.333333  0.750000  1
