# generated using pymatgen
data_Zr6Ti3Nb(Si3N)2
_symmetry_space_group_name_H-M   'P 1'
_cell_length_a   7.79718800
_cell_length_b   7.79718760
_cell_length_c   5.38494600
_cell_angle_alpha   90.00000000
_cell_angle_beta   90.00000000
_cell_angle_gamma   119.99999322
_symmetry_Int_Tables_number   1
_chemical_formula_structural   Zr6Ti3Nb(Si3N)2
_chemical_formula_sum   'Zr6 Ti3 Nb1 Si6 N2'
_cell_volume   283.52280904
_cell_formula_units_Z   1
loop_
 _symmetry_equiv_pos_site_id
 _symmetry_equiv_pos_as_xyz
  1  'x, y, z'
loop_
 _atom_site_type_symbol
 _atom_site_label
 _atom_site_symmetry_multiplicity
 _atom_site_fract_x
 _atom_site_fract_y
 _atom_site_fract_z
 _atom_site_occupancy
  Zr  Zr0  1  0.237217  0.999412  0.750183  1
  Zr  Zr1  1  0.762195  0.999412  0.249817  1
  Zr  Zr2  1  0.000588  0.237805  0.750183  1
  Zr  Zr3  1  0.000588  0.762783  0.249817  1
  Zr  Zr4  1  0.762195  0.762783  0.750183  1
  Zr  Zr5  1  0.237217  0.237805  0.249817  1
  Ti  Ti6  1  0.666667  0.333333  0.500000  1
  Ti  Ti7  1  0.666667  0.333333  0.000000  1
  Ti  Ti8  1  0.333333  0.666667  0.000000  1
  Nb  Nb9  1  0.333333  0.666667  0.500000  1
  Si  Si10  1  0.590811  0.002367  0.752220  1
  Si  Si11  1  0.411556  0.002367  0.247780  1
  Si  Si12  1  0.997633  0.588444  0.752220  1
  Si  Si13  1  0.997633  0.409189  0.247780  1
  Si  Si14  1  0.411556  0.409189  0.752220  1
  Si  Si15  1  0.590811  0.588444  0.247780  1
  N  N16  1  0.000000  0.000000  0.500000  1
  N  N17  1  0.000000  0.000000  0.000000  1
