# generated using pymatgen
data_Dy18Tm2Bi11Sb
_symmetry_space_group_name_H-M   'P 1'
_cell_length_a   8.24209150
_cell_length_b   9.50993800
_cell_length_c   12.04056800
_cell_angle_alpha   90.00085130
_cell_angle_beta   90.03595435
_cell_angle_gamma   89.99810240
_symmetry_Int_Tables_number   1
_chemical_formula_structural   Dy18Tm2Bi11Sb
_chemical_formula_sum   'Dy18 Tm2 Bi11 Sb1'
_cell_volume   943.76095632
_cell_formula_units_Z   1
loop_
 _symmetry_equiv_pos_site_id
 _symmetry_equiv_pos_as_xyz
  1  'x, y, z'
loop_
 _atom_site_type_symbol
 _atom_site_label
 _atom_site_symmetry_multiplicity
 _atom_site_fract_x
 _atom_site_fract_y
 _atom_site_fract_z
 _atom_site_occupancy
  Dy  Dy0  1  0.353066  0.750065  0.212858  1
  Dy  Dy1  1  0.852315  0.749901  0.284057  1
  Dy  Dy2  1  0.647631  0.249974  0.784266  1
  Dy  Dy3  1  0.147469  0.250039  0.716015  1
  Dy  Dy4  1  0.308810  0.060118  0.941575  1
  Dy  Dy5  1  0.807557  0.436419  0.558507  1
  Dy  Dy6  1  0.308646  0.439940  0.941450  1
  Dy  Dy7  1  0.807363  0.063522  0.558632  1
  Dy  Dy8  1  0.690163  0.933789  0.057330  1
  Dy  Dy9  1  0.192766  0.564180  0.441258  1
  Dy  Dy10  1  0.474846  0.249843  0.487820  1
  Dy  Dy11  1  0.975541  0.250152  0.011793  1
  Dy  Dy12  1  0.524769  0.750218  0.512056  1
  Dy  Dy13  1  0.027739  0.749754  0.987926  1
  Dy  Dy14  1  0.313040  0.249998  0.218897  1
  Dy  Dy15  1  0.812679  0.250015  0.281165  1
  Dy  Dy16  1  0.682767  0.749808  0.783885  1
  Dy  Dy17  1  0.188562  0.750169  0.720402  1
  Tm  Tm18  1  0.689977  0.566810  0.057289  1
  Tm  Tm19  1  0.192743  0.935325  0.441234  1
  Bi  Bi20  1  0.908232  0.750401  0.543258  1
  Bi  Bi21  1  0.593275  0.251227  0.043110  1
  Bi  Bi22  1  0.092937  0.248767  0.457043  1
  Bi  Bi23  1  0.565327  0.995296  0.325436  1
  Bi  Bi24  1  0.065293  0.504399  0.174298  1
  Bi  Bi25  1  0.434462  0.495400  0.674491  1
  Bi  Bi26  1  0.934197  0.004097  0.825529  1
  Bi  Bi27  1  0.434448  0.004663  0.674334  1
  Bi  Bi28  1  0.934210  0.495850  0.825669  1
  Bi  Bi29  1  0.565633  0.504697  0.325274  1
  Bi  Bi30  1  0.065584  0.995617  0.174446  1
  Sb  Sb31  1  0.407955  0.749545  0.958695  1
