# generated using pymatgen
data_YbSmSi4OsPt3
_symmetry_space_group_name_H-M   'P 1'
_cell_length_a   4.16822300
_cell_length_b   4.17449600
_cell_length_c   10.00084500
_cell_angle_alpha   90.00000000
_cell_angle_beta   90.00000000
_cell_angle_gamma   90.00000000
_symmetry_Int_Tables_number   1
_chemical_formula_structural   YbSmSi4OsPt3
_chemical_formula_sum   'Yb1 Sm1 Si4 Os1 Pt3'
_cell_volume   174.01700560
_cell_formula_units_Z   1
loop_
 _symmetry_equiv_pos_site_id
 _symmetry_equiv_pos_as_xyz
  1  'x, y, z'
loop_
 _atom_site_type_symbol
 _atom_site_label
 _atom_site_symmetry_multiplicity
 _atom_site_fract_x
 _atom_site_fract_y
 _atom_site_fract_z
 _atom_site_occupancy
  Yb  Yb0  1  0.000000  0.500000  0.748096  1
  Sm  Sm1  1  0.500000  0.000000  0.255831  1
  Si  Si2  1  0.000000  0.500000  0.128025  1
  Si  Si3  1  0.500000  0.500000  0.501081  1
  Si  Si4  1  0.500000  0.000000  0.870508  1
  Si  Si5  1  0.000000  0.000000  0.499955  1
  Os  Os6  1  0.000000  0.000000  0.999027  1
  Pt  Pt7  1  0.500000  0.000000  0.626975  1
  Pt  Pt8  1  0.500000  0.500000  0.998566  1
  Pt  Pt9  1  0.000000  0.500000  0.371936  1
