# generated using pymatgen
data_Li3CaSmNi9As7
_symmetry_space_group_name_H-M   'P 1'
_cell_length_a   3.89433900
_cell_length_b   9.48189206
_cell_length_c   9.48189100
_cell_angle_alpha   119.99999280
_cell_angle_beta   90.00000000
_cell_angle_gamma   90.00000000
_symmetry_Int_Tables_number   1
_chemical_formula_structural   Li3CaSmNi9As7
_chemical_formula_sum   'Li3 Ca1 Sm1 Ni9 As7'
_cell_volume   303.21758397
_cell_formula_units_Z   1
loop_
 _symmetry_equiv_pos_site_id
 _symmetry_equiv_pos_as_xyz
  1  'x, y, z'
loop_
 _atom_site_type_symbol
 _atom_site_label
 _atom_site_symmetry_multiplicity
 _atom_site_fract_x
 _atom_site_fract_y
 _atom_site_fract_z
 _atom_site_occupancy
  Li  Li0  1  0.500000  0.790067  0.891240  1
  Li  Li1  1  0.500000  0.101174  0.209933  1
  Li  Li2  1  0.500000  0.108760  0.898826  1
  Ca  Ca3  1  0.500000  0.333333  0.666667  1
  Sm  Sm4  1  0.000000  0.666667  0.333333  1
  Ni  Ni5  1  0.000000  0.571684  0.946266  1
  Ni  Ni6  1  0.000000  0.374581  0.428316  1
  Ni  Ni7  1  0.000000  0.053734  0.625419  1
  Ni  Ni8  1  0.000000  0.875223  0.161239  1
  Ni  Ni9  1  0.000000  0.286017  0.124777  1
  Ni  Ni10  1  0.000000  0.838761  0.713983  1
  Ni  Ni11  1  0.500000  0.953139  0.387562  1
  Ni  Ni12  1  0.500000  0.434423  0.046861  1
  Ni  Ni13  1  0.500000  0.612438  0.565577  1
  As  As14  1  0.500000  0.710547  0.115563  1
  As  As15  1  0.500000  0.405017  0.289453  1
  As  As16  1  0.500000  0.884437  0.594983  1
  As  As17  1  0.000000  0.000000  0.000000  1
  As  As18  1  0.000000  0.587703  0.700597  1
  As  As19  1  0.000000  0.112893  0.412297  1
  As  As20  1  0.000000  0.299403  0.887107  1
