# generated using pymatgen
data_Cs2RbNb2Br8NCl2
_symmetry_space_group_name_H-M   'P 1'
_cell_length_a   7.55596200
_cell_length_b   7.55596200
_cell_length_c   19.69029300
_cell_angle_alpha   90.00000000
_cell_angle_beta   90.00000000
_cell_angle_gamma   90.00000000
_symmetry_Int_Tables_number   1
_chemical_formula_structural   Cs2RbNb2Br8NCl2
_chemical_formula_sum   'Cs4 Rb2 Nb4 Br16 N2 Cl4'
_cell_volume   1124.16926889
_cell_formula_units_Z   2
loop_
 _symmetry_equiv_pos_site_id
 _symmetry_equiv_pos_as_xyz
  1  'x, y, z'
loop_
 _atom_site_type_symbol
 _atom_site_label
 _atom_site_symmetry_multiplicity
 _atom_site_fract_x
 _atom_site_fract_y
 _atom_site_fract_z
 _atom_site_occupancy
  Cs  Cs0  1  0.000000  0.500000  0.253563  1
  Cs  Cs1  1  0.500000  0.000000  0.753563  1
  Cs  Cs2  1  0.500000  0.000000  0.249891  1
  Cs  Cs3  1  0.000000  0.500000  0.749891  1
  Rb  Rb4  1  0.500000  0.500000  0.996782  1
  Rb  Rb5  1  0.000000  0.000000  0.496782  1
  Nb  Nb6  1  0.500000  0.500000  0.404875  1
  Nb  Nb7  1  0.000000  0.000000  0.904875  1
  Nb  Nb8  1  0.500000  0.500000  0.595061  1
  Nb  Nb9  1  0.000000  0.000000  0.095061  1
  Br  Br10  1  0.689640  0.217521  0.398319  1
  Br  Br11  1  0.310360  0.782479  0.398319  1
  Br  Br12  1  0.189640  0.282479  0.898319  1
  Br  Br13  1  0.810360  0.717521  0.898319  1
  Br  Br14  1  0.217473  0.310693  0.601588  1
  Br  Br15  1  0.782527  0.689307  0.601588  1
  Br  Br16  1  0.282527  0.810693  0.101588  1
  Br  Br17  1  0.717473  0.189307  0.101588  1
  Br  Br18  1  0.311383  0.782412  0.601707  1
  Br  Br19  1  0.688617  0.217588  0.601707  1
  Br  Br20  1  0.811383  0.717588  0.101707  1
  Br  Br21  1  0.188617  0.282412  0.101707  1
  Br  Br22  1  0.500000  0.500000  0.263102  1
  Br  Br23  1  0.000000  0.000000  0.763102  1
  Br  Br24  1  0.500000  0.500000  0.737263  1
  Br  Br25  1  0.000000  0.000000  0.237263  1
  N  N26  1  0.500000  0.500000  0.500090  1
  N  N27  1  0.000000  0.000000  0.000090  1
  Cl  Cl28  1  0.765053  0.677839  0.398072  1
  Cl  Cl29  1  0.234947  0.322161  0.398072  1
  Cl  Cl30  1  0.734947  0.177839  0.898072  1
  Cl  Cl31  1  0.265053  0.822161  0.898072  1
