# generated using pymatgen
data_LiHoGa3Ir
_symmetry_space_group_name_H-M   'P 1'
_cell_length_a   5.30472000
_cell_length_b   5.30472026
_cell_length_c   8.48858400
_cell_angle_alpha   90.00000000
_cell_angle_beta   90.00000000
_cell_angle_gamma   120.00001087
_symmetry_Int_Tables_number   1
_chemical_formula_structural   LiHoGa3Ir
_chemical_formula_sum   'Li2 Ho2 Ga6 Ir2'
_cell_volume   206.86679534
_cell_formula_units_Z   2
loop_
 _symmetry_equiv_pos_site_id
 _symmetry_equiv_pos_as_xyz
  1  'x, y, z'
loop_
 _atom_site_type_symbol
 _atom_site_label
 _atom_site_symmetry_multiplicity
 _atom_site_fract_x
 _atom_site_fract_y
 _atom_site_fract_z
 _atom_site_occupancy
  Li  Li0  1  0.333333  0.666667  0.551831  1
  Li  Li1  1  0.333333  0.666667  0.948170  1
  Ho  Ho2  1  0.666666  0.333333  0.050877  1
  Ho  Ho3  1  0.666666  0.333333  0.449124  1
  Ga  Ga4  1  0.168201  0.336404  0.249999  1
  Ga  Ga5  1  0.168202  0.831798  0.249999  1
  Ga  Ga6  1  0.663596  0.831798  0.249999  1
  Ga  Ga7  1  0.330089  0.165044  0.750000  1
  Ga  Ga8  1  0.834956  0.165044  0.750000  1
  Ga  Ga9  1  0.834955  0.669911  0.750000  1
  Ir  Ir10  1  0.000000  0.000000  0.995354  1
  Ir  Ir11  1  0.000000  0.000000  0.504646  1
