# generated using pymatgen
data_Tm3Pa(Pt2Pb)2
_symmetry_space_group_name_H-M   'P 1'
_cell_length_a   7.93917388
_cell_length_b   7.93917318
_cell_length_c   3.56067500
_cell_angle_alpha   90.00000000
_cell_angle_beta   90.00000000
_cell_angle_gamma   91.51985178
_symmetry_Int_Tables_number   1
_chemical_formula_structural   Tm3Pa(Pt2Pb)2
_chemical_formula_sum   'Tm3 Pa1 Pt4 Pb2'
_cell_volume   224.35208541
_cell_formula_units_Z   1
loop_
 _symmetry_equiv_pos_site_id
 _symmetry_equiv_pos_as_xyz
  1  'x, y, z'
loop_
 _atom_site_type_symbol
 _atom_site_label
 _atom_site_symmetry_multiplicity
 _atom_site_fract_x
 _atom_site_fract_y
 _atom_site_fract_z
 _atom_site_occupancy
  Tm  Tm0  1  0.671882  0.171882  0.500000  1
  Tm  Tm1  1  0.167286  0.331172  0.500000  1
  Tm  Tm2  1  0.831172  0.667286  0.500000  1
  Pa  Pa3  1  0.332134  0.832134  0.500000  1
  Pt  Pt4  1  0.877341  0.377341  0.000000  1
  Pt  Pt5  1  0.619333  0.869075  0.000000  1
  Pt  Pt6  1  0.369075  0.119333  0.000000  1
  Pt  Pt7  1  0.134443  0.634443  0.000000  1
  Pb  Pb8  1  0.505257  0.492076  0.000000  1
  Pb  Pb9  1  0.992076  0.005257  0.000000  1
