# generated using pymatgen
data_Ba2ZrPtCl12
_symmetry_space_group_name_H-M   'P 1'
_cell_length_a   6.66967800
_cell_length_b   6.75360758
_cell_length_c   11.00880400
_cell_angle_alpha   86.80455046
_cell_angle_beta   87.06212368
_cell_angle_gamma   70.52324345
_symmetry_Int_Tables_number   1
_chemical_formula_structural   Ba2ZrPtCl12
_chemical_formula_sum   'Ba2 Zr1 Pt1 Cl12'
_cell_volume   466.50067595
_cell_formula_units_Z   1
loop_
 _symmetry_equiv_pos_site_id
 _symmetry_equiv_pos_as_xyz
  1  'x, y, z'
loop_
 _atom_site_type_symbol
 _atom_site_label
 _atom_site_symmetry_multiplicity
 _atom_site_fract_x
 _atom_site_fract_y
 _atom_site_fract_z
 _atom_site_occupancy
  Ba  Ba0  1  0.012392  0.000706  0.747558  1
  Ba  Ba1  1  0.987608  0.999294  0.252442  1
  Zr  Zr2  1  0.000000  0.500000  0.000000  1
  Pt  Pt3  1  0.500000  0.000000  0.500000  1
  Cl  Cl4  1  0.404745  0.723835  0.595962  1
  Cl  Cl5  1  0.595255  0.276165  0.404038  1
  Cl  Cl6  1  0.292112  0.590964  0.892786  1
  Cl  Cl7  1  0.707888  0.409036  0.107214  1
  Cl  Cl8  1  0.502407  0.136147  0.691888  1
  Cl  Cl9  1  0.497593  0.863853  0.308112  1
  Cl  Cl10  1  0.851534  0.486882  0.799052  1
  Cl  Cl11  1  0.148466  0.513118  0.200948  1
  Cl  Cl12  1  0.790512  0.885031  0.005175  1
  Cl  Cl13  1  0.209488  0.114969  0.994825  1
  Cl  Cl14  1  0.136704  0.199436  0.487615  1
  Cl  Cl15  1  0.863296  0.800564  0.512385  1
