# generated using pymatgen
data_Tb13Er3InAg3Rh4
_symmetry_space_group_name_H-M   'P 1'
_cell_length_a   9.55756329
_cell_length_b   9.60112062
_cell_length_c   9.59728070
_cell_angle_alpha   60.10622415
_cell_angle_beta   59.93021120
_cell_angle_gamma   59.86345212
_symmetry_Int_Tables_number   1
_chemical_formula_structural   Tb13Er3InAg3Rh4
_chemical_formula_sum   'Tb13 Er3 In1 Ag3 Rh4'
_cell_volume   622.25637846
_cell_formula_units_Z   1
loop_
 _symmetry_equiv_pos_site_id
 _symmetry_equiv_pos_as_xyz
  1  'x, y, z'
loop_
 _atom_site_type_symbol
 _atom_site_label
 _atom_site_symmetry_multiplicity
 _atom_site_fract_x
 _atom_site_fract_y
 _atom_site_fract_z
 _atom_site_occupancy
  Tb  Tb0  1  0.647979  0.054430  0.649217  1
  Tb  Tb1  1  0.066904  0.061542  0.436651  1
  Tb  Tb2  1  0.439199  0.435270  0.061675  1
  Tb  Tb3  1  0.649289  0.647898  0.648473  1
  Tb  Tb4  1  0.810855  0.189879  0.189381  1
  Tb  Tb5  1  0.187126  0.813421  0.812713  1
  Tb  Tb6  1  0.055223  0.646919  0.647951  1
  Tb  Tb7  1  0.438688  0.062897  0.062195  1
  Tb  Tb8  1  0.439038  0.061506  0.436135  1
  Tb  Tb9  1  0.067671  0.435908  0.061009  1
  Tb  Tb10  1  0.649145  0.648910  0.053391  1
  Tb  Tb11  1  0.187390  0.813793  0.188881  1
  Tb  Tb12  1  0.069194  0.434474  0.435290  1
  Er  Er13  1  0.811742  0.809755  0.189290  1
  Er  Er14  1  0.812283  0.189240  0.809751  1
  Er  Er15  1  0.187213  0.188885  0.813303  1
  In  In16  1  0.736872  0.420857  0.420769  1
  Ag  Ag17  1  0.415562  0.418535  0.418053  1
  Ag  Ag18  1  0.416434  0.417522  0.748132  1
  Ag  Ag19  1  0.416664  0.748025  0.417771  1
  Rh  Rh20  1  0.856982  0.426626  0.856239  1
  Rh  Rh21  1  0.856223  0.858992  0.858960  1
  Rh  Rh22  1  0.855097  0.856397  0.427776  1
  Rh  Rh23  1  0.427226  0.858318  0.856991  1
