# generated using pymatgen
data_HoEr3(Zn4Ru)2
_symmetry_space_group_name_H-M   'P 1'
_cell_length_a   6.94230900
_cell_length_b   6.94230900
_cell_length_c   5.27023800
_cell_angle_alpha   90.00000000
_cell_angle_beta   90.00000000
_cell_angle_gamma   90.00000000
_symmetry_Int_Tables_number   1
_chemical_formula_structural   HoEr3(Zn4Ru)2
_chemical_formula_sum   'Ho1 Er3 Zn8 Ru2'
_cell_volume   254.00256847
_cell_formula_units_Z   1
loop_
 _symmetry_equiv_pos_site_id
 _symmetry_equiv_pos_as_xyz
  1  'x, y, z'
loop_
 _atom_site_type_symbol
 _atom_site_label
 _atom_site_symmetry_multiplicity
 _atom_site_fract_x
 _atom_site_fract_y
 _atom_site_fract_z
 _atom_site_occupancy
  Ho  Ho0  1  0.000000  0.500000  0.766865  1
  Er  Er1  1  0.000000  0.000000  0.000038  1
  Er  Er2  1  0.500000  0.000000  0.233556  1
  Er  Er3  1  0.500000  0.500000  0.000038  1
  Zn  Zn4  1  0.187970  0.687970  0.287850  1
  Zn  Zn5  1  0.812030  0.687970  0.287850  1
  Zn  Zn6  1  0.812030  0.312030  0.287850  1
  Zn  Zn7  1  0.312271  0.187729  0.712014  1
  Zn  Zn8  1  0.187970  0.312030  0.287850  1
  Zn  Zn9  1  0.687729  0.187729  0.712014  1
  Zn  Zn10  1  0.687729  0.812271  0.712014  1
  Zn  Zn11  1  0.312271  0.812271  0.712014  1
  Ru  Ru12  1  0.500000  0.500000  0.500024  1
  Ru  Ru13  1  0.000000  0.000000  0.500024  1
