# generated using pymatgen
data_Y2Ta(SnRu2)3
_symmetry_space_group_name_H-M   'P 1'
_cell_length_a   4.62426500
_cell_length_b   6.54601900
_cell_length_c   13.88417700
_cell_angle_alpha   90.00000000
_cell_angle_beta   90.00000000
_cell_angle_gamma   90.00000000
_symmetry_Int_Tables_number   1
_chemical_formula_structural   Y2Ta(SnRu2)3
_chemical_formula_sum   'Y4 Ta2 Sn6 Ru12'
_cell_volume   420.28134852
_cell_formula_units_Z   2
loop_
 _symmetry_equiv_pos_site_id
 _symmetry_equiv_pos_as_xyz
  1  'x, y, z'
loop_
 _atom_site_type_symbol
 _atom_site_label
 _atom_site_symmetry_multiplicity
 _atom_site_fract_x
 _atom_site_fract_y
 _atom_site_fract_z
 _atom_site_occupancy
  Y  Y0  1  0.000004  0.000000  0.997593  1
  Y  Y1  1  0.500003  0.500001  0.165339  1
  Y  Y2  1  0.000003  0.000000  0.334661  1
  Y  Y3  1  0.500004  0.500001  0.502407  1
  Ta  Ta4  1  0.999966  0.000000  0.668774  1
  Ta  Ta5  1  0.499966  0.500001  0.831226  1
  Sn  Sn6  1  0.000010  0.500001  0.998377  1
  Sn  Sn7  1  0.500002  0.000000  0.164594  1
  Sn  Sn8  1  0.000002  0.500001  0.335406  1
  Sn  Sn9  1  0.500010  0.000000  0.501623  1
  Sn  Sn10  1  0.999987  0.500001  0.665793  1
  Sn  Sn11  1  0.499987  0.000000  0.834207  1
  Ru  Ru12  1  0.500012  0.263143  0.987359  1
  Ru  Ru13  1  0.500012  0.736857  0.987359  1
  Ru  Ru14  1  0.000002  0.249634  0.164898  1
  Ru  Ru15  1  0.000002  0.750367  0.164898  1
  Ru  Ru16  1  0.500002  0.250367  0.335102  1
  Ru  Ru17  1  0.500002  0.749633  0.335102  1
  Ru  Ru18  1  0.000012  0.236858  0.512641  1
  Ru  Ru19  1  0.000012  0.763143  0.512641  1
  Ru  Ru20  1  0.500001  0.239208  0.674289  1
  Ru  Ru21  1  0.500001  0.760792  0.674289  1
  Ru  Ru22  1  0.000003  0.260793  0.825711  1
  Ru  Ru23  1  0.000003  0.739208  0.825711  1
