# generated using pymatgen
data_Cs2V(TeO4)3
_symmetry_space_group_name_H-M   'P 1'
_cell_length_a   7.21804307
_cell_length_b   7.32446690
_cell_length_c   7.21775955
_cell_angle_alpha   90.00146872
_cell_angle_beta   60.97678622
_cell_angle_gamma   120.49022102
_symmetry_Int_Tables_number   1
_chemical_formula_structural   Cs2V(TeO4)3
_chemical_formula_sum   'Cs2 V1 Te3 O12'
_cell_volume   271.75659441
_cell_formula_units_Z   1
loop_
 _symmetry_equiv_pos_site_id
 _symmetry_equiv_pos_as_xyz
  1  'x, y, z'
loop_
 _atom_site_type_symbol
 _atom_site_label
 _atom_site_symmetry_multiplicity
 _atom_site_fract_x
 _atom_site_fract_y
 _atom_site_fract_z
 _atom_site_occupancy
  Cs  Cs0  1  0.260676  0.127640  0.630384  1
  Cs  Cs1  1  0.739303  0.866963  0.369600  1
  V  V2  1  0.000004  0.497374  0.000008  1
  Te  Te3  1  0.500013  0.497337  0.000037  1
  Te  Te4  1  0.500027  0.997338  0.999994  1
  Te  Te5  1  0.000005  0.497326  0.500024  1
  O  O6  1  0.648968  0.821844  0.931055  1
  O  O7  1  0.865423  0.430041  0.318238  1
  O  O8  1  0.250983  0.430037  0.932687  1
  O  O9  1  0.255510  0.821788  0.324499  1
  O  O10  1  0.250996  0.815602  0.932715  1
  O  O11  1  0.255492  0.428380  0.324512  1
  O  O12  1  0.351023  0.172880  0.068940  1
  O  O13  1  0.134576  0.564617  0.681752  1
  O  O14  1  0.749011  0.564608  0.067277  1
  O  O15  1  0.744502  0.172899  0.675481  1
  O  O16  1  0.749004  0.179039  0.067304  1
  O  O17  1  0.744484  0.566289  0.675494  1
