# generated using pymatgen
data_HoTmMn9Fe3P7
_symmetry_space_group_name_H-M   'P 1'
_cell_length_a   9.24517400
_cell_length_b   9.24517303
_cell_length_c   3.55669600
_cell_angle_alpha   90.00000000
_cell_angle_beta   90.00000000
_cell_angle_gamma   119.99999633
_symmetry_Int_Tables_number   1
_chemical_formula_structural   HoTmMn9Fe3P7
_chemical_formula_sum   'Ho1 Tm1 Mn9 Fe3 P7'
_cell_volume   263.27373038
_cell_formula_units_Z   1
loop_
 _symmetry_equiv_pos_site_id
 _symmetry_equiv_pos_as_xyz
  1  'x, y, z'
loop_
 _atom_site_type_symbol
 _atom_site_label
 _atom_site_symmetry_multiplicity
 _atom_site_fract_x
 _atom_site_fract_y
 _atom_site_fract_z
 _atom_site_occupancy
  Ho  Ho0  1  0.333333  0.666667  0.000000  1
  Tm  Tm1  1  0.000000  0.000000  0.500000  1
  Mn  Mn2  1  0.716907  0.955613  0.000000  1
  Mn  Mn3  1  0.238706  0.283093  0.000000  1
  Mn  Mn4  1  0.044387  0.761294  0.000000  1
  Mn  Mn5  1  0.103985  0.377744  0.500000  1
  Mn  Mn6  1  0.273760  0.896015  0.500000  1
  Mn  Mn7  1  0.622256  0.726240  0.500000  1
  Mn  Mn8  1  0.770396  0.206494  0.500000  1
  Mn  Mn9  1  0.436098  0.229604  0.500000  1
  Mn  Mn10  1  0.793506  0.563902  0.500000  1
  Fe  Fe11  1  0.939937  0.450366  0.000000  1
  Fe  Fe12  1  0.510430  0.060063  0.000000  1
  Fe  Fe13  1  0.549634  0.489570  0.000000  1
  P  P14  1  0.955637  0.212610  0.000000  1
  P  P15  1  0.256973  0.044363  0.000000  1
  P  P16  1  0.787390  0.743027  0.000000  1
  P  P17  1  0.072271  0.612314  0.500000  1
  P  P18  1  0.540043  0.927729  0.500000  1
  P  P19  1  0.387686  0.459957  0.500000  1
  P  P20  1  0.666667  0.333333  0.000000  1
