# generated using pymatgen
data_Yb7ErSi12PdPt3
_symmetry_space_group_name_H-M   'P 1'
_cell_length_a   8.20887400
_cell_length_b   8.20887450
_cell_length_c   8.22960800
_cell_angle_alpha   90.00000000
_cell_angle_beta   90.00000000
_cell_angle_gamma   119.99999798
_symmetry_Int_Tables_number   1
_chemical_formula_structural   Yb7ErSi12PdPt3
_chemical_formula_sum   'Yb7 Er1 Si12 Pd1 Pt3'
_cell_volume   480.26064009
_cell_formula_units_Z   1
loop_
 _symmetry_equiv_pos_site_id
 _symmetry_equiv_pos_as_xyz
  1  'x, y, z'
loop_
 _atom_site_type_symbol
 _atom_site_label
 _atom_site_symmetry_multiplicity
 _atom_site_fract_x
 _atom_site_fract_y
 _atom_site_fract_z
 _atom_site_occupancy
  Yb  Yb0  1  0.503597  0.007196  0.249983  1
  Yb  Yb1  1  0.497108  0.994215  0.749891  1
  Yb  Yb2  1  0.992804  0.496403  0.249983  1
  Yb  Yb3  1  0.005785  0.502892  0.749891  1
  Yb  Yb4  1  0.503597  0.496403  0.249983  1
  Yb  Yb5  1  0.497108  0.502892  0.749891  1
  Yb  Yb6  1  0.000000  0.000000  0.250500  1
  Er  Er7  1  0.000000  0.000000  0.749373  1
  Si  Si8  1  0.165061  0.330122  0.999186  1
  Si  Si9  1  0.835200  0.670402  0.994601  1
  Si  Si10  1  0.669878  0.834939  0.999186  1
  Si  Si11  1  0.835379  0.670760  0.505482  1
  Si  Si12  1  0.329598  0.164800  0.994601  1
  Si  Si13  1  0.164486  0.328972  0.501730  1
  Si  Si14  1  0.165061  0.834939  0.999186  1
  Si  Si15  1  0.329240  0.164621  0.505482  1
  Si  Si16  1  0.835200  0.164800  0.994601  1
  Si  Si17  1  0.671028  0.835514  0.501730  1
  Si  Si18  1  0.835379  0.164621  0.505482  1
  Si  Si19  1  0.164486  0.835514  0.501730  1
  Pd  Pd20  1  0.333333  0.666667  0.492129  1
  Pt  Pt21  1  0.333333  0.666667  0.005277  1
  Pt  Pt22  1  0.666667  0.333333  0.993486  1
  Pt  Pt23  1  0.666667  0.333333  0.506617  1
