# generated using pymatgen
data_YbGa2SiO6
_symmetry_space_group_name_H-M   'P 1'
_cell_length_a   6.61443589
_cell_length_b   6.61443523
_cell_length_c   5.42161086
_cell_angle_alpha   78.47543458
_cell_angle_beta   78.47543315
_cell_angle_gamma   82.92388979
_symmetry_Int_Tables_number   1
_chemical_formula_structural   YbGa2SiO6
_chemical_formula_sum   'Yb2 Ga4 Si2 O12'
_cell_volume   226.87348268
_cell_formula_units_Z   2
loop_
 _symmetry_equiv_pos_site_id
 _symmetry_equiv_pos_as_xyz
  1  'x, y, z'
loop_
 _atom_site_type_symbol
 _atom_site_label
 _atom_site_symmetry_multiplicity
 _atom_site_fract_x
 _atom_site_fract_y
 _atom_site_fract_z
 _atom_site_occupancy
  Yb  Yb0  1  0.683307  0.316693  0.000000  1
  Yb  Yb1  1  0.314402  0.685598  0.500000  1
  Ga  Ga2  1  0.614918  0.814971  0.965695  1
  Ga  Ga3  1  0.185029  0.385082  0.034305  1
  Ga  Ga4  1  0.091997  0.908003  0.000000  1
  Ga  Ga5  1  0.905061  0.094939  0.500000  1
  Si  Si6  1  0.388785  0.196111  0.527553  1
  Si  Si7  1  0.803889  0.611215  0.472447  1
  O  O8  1  0.817151  0.998186  0.865412  1
  O  O9  1  0.353062  0.898844  0.101968  1
  O  O10  1  0.619534  0.655970  0.717745  1
  O  O11  1  0.001814  0.182849  0.134588  1
  O  O12  1  0.101156  0.646938  0.898032  1
  O  O13  1  0.344030  0.380466  0.282255  1
  O  O14  1  0.207922  0.030096  0.610648  1
  O  O15  1  0.621947  0.096827  0.426862  1
  O  O16  1  0.394204  0.321284  0.759578  1
  O  O17  1  0.969904  0.792078  0.389352  1
  O  O18  1  0.903173  0.378053  0.573138  1
  O  O19  1  0.678716  0.605796  0.240422  1
