# generated using pymatgen
data_PrNdCo8(P3Ru)2
_symmetry_space_group_name_H-M   'P 1'
_cell_length_a   3.73270800
_cell_length_b   10.54373900
_cell_length_c   11.90562100
_cell_angle_alpha   90.00000000
_cell_angle_beta   90.00000000
_cell_angle_gamma   90.00000000
_symmetry_Int_Tables_number   1
_chemical_formula_structural   PrNdCo8(P3Ru)2
_chemical_formula_sum   'Pr2 Nd2 Co16 P12 Ru4'
_cell_volume   468.56594110
_cell_formula_units_Z   2
loop_
 _symmetry_equiv_pos_site_id
 _symmetry_equiv_pos_as_xyz
  1  'x, y, z'
loop_
 _atom_site_type_symbol
 _atom_site_label
 _atom_site_symmetry_multiplicity
 _atom_site_fract_x
 _atom_site_fract_y
 _atom_site_fract_z
 _atom_site_occupancy
  Pr  Pr0  1  0.750000  0.413604  0.296832  1
  Pr  Pr1  1  0.750000  0.086396  0.796832  1
  Nd  Nd2  1  0.250000  0.586512  0.703054  1
  Nd  Nd3  1  0.250000  0.913488  0.203054  1
  Co  Co4  1  0.250000  0.407712  0.492563  1
  Co  Co5  1  0.250000  0.092288  0.992563  1
  Co  Co6  1  0.750000  0.592593  0.508238  1
  Co  Co7  1  0.750000  0.907407  0.008238  1
  Co  Co8  1  0.250000  0.220593  0.175525  1
  Co  Co9  1  0.250000  0.279407  0.675525  1
  Co  Co10  1  0.750000  0.778819  0.824318  1
  Co  Co11  1  0.750000  0.721181  0.324318  1
  Co  Co12  1  0.250000  0.886096  0.701504  1
  Co  Co13  1  0.250000  0.613904  0.201504  1
  Co  Co14  1  0.750000  0.113041  0.298264  1
  Co  Co15  1  0.750000  0.386959  0.798264  1
  Co  Co16  1  0.250000  0.466308  0.931400  1
  Co  Co17  1  0.250000  0.033692  0.431400  1
  Co  Co18  1  0.750000  0.534281  0.068186  1
  Co  Co19  1  0.750000  0.965719  0.568186  1
  P  P20  1  0.250000  0.419629  0.109215  1
  P  P21  1  0.250000  0.080371  0.609215  1
  P  P22  1  0.750000  0.580405  0.889960  1
  P  P23  1  0.750000  0.919595  0.389960  1
  P  P24  1  0.250000  0.277383  0.866880  1
  P  P25  1  0.250000  0.222617  0.366880  1
  P  P26  1  0.750000  0.723487  0.133368  1
  P  P27  1  0.750000  0.776513  0.633368  1
  P  P28  1  0.250000  0.599852  0.392211  1
  P  P29  1  0.250000  0.900148  0.892211  1
  P  P30  1  0.750000  0.400876  0.608128  1
  P  P31  1  0.750000  0.099124  0.108128  1
  Ru  Ru32  1  0.250000  0.714637  0.991826  1
  Ru  Ru33  1  0.250000  0.785363  0.491826  1
  Ru  Ru34  1  0.750000  0.285381  0.008528  1
  Ru  Ru35  1  0.750000  0.214619  0.508528  1
