# generated using pymatgen
data_BaSc2TcH12Ir
_symmetry_space_group_name_H-M   'P 1'
_cell_length_a   4.82898700
_cell_length_b   4.82898912
_cell_length_c   8.38719300
_cell_angle_alpha   90.00000000
_cell_angle_beta   90.00000000
_cell_angle_gamma   120.00000602
_symmetry_Int_Tables_number   1
_chemical_formula_structural   BaSc2TcH12Ir
_chemical_formula_sum   'Ba1 Sc2 Tc1 H12 Ir1'
_cell_volume   169.37897696
_cell_formula_units_Z   1
loop_
 _symmetry_equiv_pos_site_id
 _symmetry_equiv_pos_as_xyz
  1  'x, y, z'
loop_
 _atom_site_type_symbol
 _atom_site_label
 _atom_site_symmetry_multiplicity
 _atom_site_fract_x
 _atom_site_fract_y
 _atom_site_fract_z
 _atom_site_occupancy
  Ba  Ba0  1  0.000000  0.000000  0.981313  1
  Sc  Sc1  1  0.666667  0.333333  0.396030  1
  Sc  Sc2  1  0.333333  0.666667  0.642505  1
  Tc  Tc3  1  0.666667  0.333333  0.710516  1
  H  H4  1  0.163918  0.836082  0.391942  1
  H  H5  1  0.672163  0.836082  0.391942  1
  H  H6  1  0.163918  0.327837  0.391942  1
  H  H7  1  0.842567  0.157433  0.598641  1
  H  H8  1  0.314864  0.157433  0.598641  1
  H  H9  1  0.842567  0.685136  0.598641  1
  H  H10  1  0.493899  0.987798  0.834392  1
  H  H11  1  0.493899  0.506101  0.834392  1
  H  H12  1  0.012202  0.506101  0.834392  1
  H  H13  1  0.496879  0.993760  0.169491  1
  H  H14  1  0.496879  0.503121  0.169491  1
  H  H15  1  0.006240  0.503121  0.169491  1
  Ir  Ir16  1  0.333333  0.666667  0.286235  1
