# generated using pymatgen
data_Y4Pd3RhPb2
_symmetry_space_group_name_H-M   'P 1'
_cell_length_a   7.88894673
_cell_length_b   7.88894673
_cell_length_c   3.65384000
_cell_angle_alpha   90.00000000
_cell_angle_beta   90.00000000
_cell_angle_gamma   90.09530237
_symmetry_Int_Tables_number   1
_chemical_formula_structural   Y4Pd3RhPb2
_chemical_formula_sum   'Y4 Pd3 Rh1 Pb2'
_cell_volume   227.39817343
_cell_formula_units_Z   1
loop_
 _symmetry_equiv_pos_site_id
 _symmetry_equiv_pos_as_xyz
  1  'x, y, z'
loop_
 _atom_site_type_symbol
 _atom_site_label
 _atom_site_symmetry_multiplicity
 _atom_site_fract_x
 _atom_site_fract_y
 _atom_site_fract_z
 _atom_site_occupancy
  Y  Y0  1  0.679603  0.179603  0.500000  1
  Y  Y1  1  0.161172  0.327044  0.500000  1
  Y  Y2  1  0.827044  0.661172  0.500000  1
  Y  Y3  1  0.329310  0.829310  0.500000  1
  Pd  Pd4  1  0.375267  0.126183  0.000000  1
  Pd  Pd5  1  0.626183  0.875267  0.000000  1
  Pd  Pd6  1  0.127789  0.627789  0.000000  1
  Rh  Rh7  1  0.874335  0.374335  0.000000  1
  Pb  Pb8  1  0.999112  0.000185  0.000000  1
  Pb  Pb9  1  0.500185  0.499112  0.000000  1
