# generated using pymatgen
data_Cs5Rb(UBr6)2
_symmetry_space_group_name_H-M   'P 1'
_cell_length_a   10.43381500
_cell_length_b   10.46173409
_cell_length_c   8.67501200
_cell_angle_alpha   90.00000000
_cell_angle_beta   90.00000000
_cell_angle_gamma   89.88493993
_symmetry_Int_Tables_number   1
_chemical_formula_structural   Cs5Rb(UBr6)2
_chemical_formula_sum   'Cs5 Rb1 U2 Br12'
_cell_volume   946.92594923
_cell_formula_units_Z   1
loop_
 _symmetry_equiv_pos_site_id
 _symmetry_equiv_pos_as_xyz
  1  'x, y, z'
loop_
 _atom_site_type_symbol
 _atom_site_label
 _atom_site_symmetry_multiplicity
 _atom_site_fract_x
 _atom_site_fract_y
 _atom_site_fract_z
 _atom_site_occupancy
  Cs  Cs0  1  0.000000  0.000000  0.000000  1
  Cs  Cs1  1  0.230215  0.522368  0.500000  1
  Cs  Cs2  1  0.769785  0.477632  0.500000  1
  Cs  Cs3  1  0.475567  0.230458  0.000000  1
  Cs  Cs4  1  0.524433  0.769542  0.000000  1
  Rb  Rb5  1  0.000000  0.000000  0.500000  1
  U  U6  1  0.500000  0.000000  0.500000  1
  U  U7  1  0.000000  0.500000  0.000000  1
  Br  Br8  1  0.696214  0.015327  0.742533  1
  Br  Br9  1  0.303786  0.984673  0.742533  1
  Br  Br10  1  0.980495  0.696386  0.242527  1
  Br  Br11  1  0.019505  0.303614  0.242527  1
  Br  Br12  1  0.303786  0.984673  0.257467  1
  Br  Br13  1  0.696214  0.015327  0.257467  1
  Br  Br14  1  0.019505  0.303614  0.757473  1
  Br  Br15  1  0.980495  0.696386  0.757473  1
  Br  Br16  1  0.521763  0.721477  0.500000  1
  Br  Br17  1  0.478237  0.278523  0.500000  1
  Br  Br18  1  0.278779  0.523156  0.000000  1
  Br  Br19  1  0.721221  0.476844  0.000000  1
