# generated using pymatgen
data_HoTm11Ni5Bi
_symmetry_space_group_name_H-M   'P 1'
_cell_length_a   8.24170445
_cell_length_b   8.24170376
_cell_length_c   8.24472640
_cell_angle_alpha   109.54930605
_cell_angle_beta   111.57377482
_cell_angle_gamma   107.30304796
_symmetry_Int_Tables_number   1
_chemical_formula_structural   HoTm11Ni5Bi
_chemical_formula_sum   'Ho1 Tm11 Ni5 Bi1'
_cell_volume   430.59491941
_cell_formula_units_Z   1
loop_
 _symmetry_equiv_pos_site_id
 _symmetry_equiv_pos_as_xyz
  1  'x, y, z'
loop_
 _atom_site_type_symbol
 _atom_site_label
 _atom_site_symmetry_multiplicity
 _atom_site_fract_x
 _atom_site_fract_y
 _atom_site_fract_z
 _atom_site_occupancy
  Ho  Ho0  1  0.290651  0.179019  0.469670  1
  Tm  Tm1  1  0.709729  0.820947  0.530676  1
  Tm  Tm2  1  0.291302  0.820359  0.111661  1
  Tm  Tm3  1  0.709799  0.178927  0.888727  1
  Tm  Tm4  1  0.627137  0.319578  0.307446  1
  Tm  Tm5  1  0.372959  0.681123  0.692931  1
  Tm  Tm6  1  0.011807  0.319972  0.692931  1
  Tm  Tm7  1  0.987869  0.680310  0.307446  1
  Tm  Tm8  1  0.209543  0.404485  0.194019  1
  Tm  Tm9  1  0.791569  0.597537  0.806929  1
  Tm  Tm10  1  0.209393  0.015360  0.806929  1
  Tm  Tm11  1  0.789532  0.984476  0.194019  1
  Ni  Ni12  1  0.998836  0.365784  0.364620  1
  Ni  Ni13  1  0.000112  0.634236  0.634348  1
  Ni  Ni14  1  0.376964  0.875007  0.499245  1
  Ni  Ni15  1  0.624236  0.122281  0.499245  1
  Ni  Ni16  1  0.998551  0.000642  0.999194  1
  Bi  Bi17  1  0.500011  0.499955  0.999967  1
