# generated using pymatgen
data_Pa(PdPt3)2
_symmetry_space_group_name_H-M   'P 1'
_cell_length_a   6.33871379
_cell_length_b   6.33871501
_cell_length_c   6.42924869
_cell_angle_alpha   96.08491929
_cell_angle_beta   96.08493261
_cell_angle_gamma   141.71763415
_symmetry_Int_Tables_number   1
_chemical_formula_structural   Pa(PdPt3)2
_chemical_formula_sum   'Pa1 Pd2 Pt6'
_cell_volume   151.44697087
_cell_formula_units_Z   1
loop_
 _symmetry_equiv_pos_site_id
 _symmetry_equiv_pos_as_xyz
  1  'x, y, z'
loop_
 _atom_site_type_symbol
 _atom_site_label
 _atom_site_symmetry_multiplicity
 _atom_site_fract_x
 _atom_site_fract_y
 _atom_site_fract_z
 _atom_site_occupancy
  Pa  Pa0  1  0.998256  0.998256  0.996513  1
  Pd  Pd1  1  0.666244  0.000801  0.667045  1
  Pd  Pd2  1  0.000801  0.666244  0.667045  1
  Pt  Pt3  1  0.667475  0.333650  0.001124  1
  Pt  Pt4  1  0.333650  0.667475  0.001124  1
  Pt  Pt5  1  0.332999  0.000565  0.333564  1
  Pt  Pt6  1  0.000565  0.332999  0.333564  1
  Pt  Pt7  1  0.667196  0.667196  0.334392  1
  Pt  Pt8  1  0.332816  0.332816  0.665632  1
