# generated using pymatgen
data_Dy3Y(Mn2I)2
_symmetry_space_group_name_H-M   'P 1'
_cell_length_a   3.87295700
_cell_length_b   3.87295699
_cell_length_c   17.64398800
_cell_angle_alpha   90.00000000
_cell_angle_beta   90.00000000
_cell_angle_gamma   119.99997449
_symmetry_Int_Tables_number   1
_chemical_formula_structural   Dy3Y(Mn2I)2
_chemical_formula_sum   'Dy3 Y1 Mn4 I2'
_cell_volume   229.19906727
_cell_formula_units_Z   1
loop_
 _symmetry_equiv_pos_site_id
 _symmetry_equiv_pos_as_xyz
  1  'x, y, z'
loop_
 _atom_site_type_symbol
 _atom_site_label
 _atom_site_symmetry_multiplicity
 _atom_site_fract_x
 _atom_site_fract_y
 _atom_site_fract_z
 _atom_site_occupancy
  Dy  Dy0  1  0.000000  0.000000  0.890203  1
  Dy  Dy1  1  0.000000  0.000000  0.609732  1
  Dy  Dy2  1  0.000000  0.000000  0.390389  1
  Y  Y3  1  0.000000  0.000000  0.110508  1
  Mn  Mn4  1  0.333333  0.666667  0.508971  1
  Mn  Mn5  1  0.666667  0.333333  0.490998  1
  Mn  Mn6  1  0.666667  0.333333  0.008560  1
  Mn  Mn7  1  0.333333  0.666667  0.990653  1
  I  I8  1  0.333333  0.666667  0.249989  1
  I  I9  1  0.666667  0.333333  0.749996  1
