# generated using pymatgen
data_Tm2Sc3Ni9As7
_symmetry_space_group_name_H-M   'P 1'
_cell_length_a   9.71035600
_cell_length_b   9.71035552
_cell_length_c   3.85524100
_cell_angle_alpha   90.00000000
_cell_angle_beta   90.00000000
_cell_angle_gamma   120.00000072
_symmetry_Int_Tables_number   1
_chemical_formula_structural   Tm2Sc3Ni9As7
_chemical_formula_sum   'Tm2 Sc3 Ni9 As7'
_cell_volume   314.81284462
_cell_formula_units_Z   1
loop_
 _symmetry_equiv_pos_site_id
 _symmetry_equiv_pos_as_xyz
  1  'x, y, z'
loop_
 _atom_site_type_symbol
 _atom_site_label
 _atom_site_symmetry_multiplicity
 _atom_site_fract_x
 _atom_site_fract_y
 _atom_site_fract_z
 _atom_site_occupancy
  Tm  Tm0  1  0.000000  0.000000  0.000000  1
  Tm  Tm1  1  0.666667  0.333333  0.500000  1
  Sc  Sc2  1  0.451266  0.555062  0.500000  1
  Sc  Sc3  1  0.444938  0.896205  0.500000  1
  Sc  Sc4  1  0.103795  0.548734  0.500000  1
  Ni  Ni5  1  0.692558  0.601079  0.000000  1
  Ni  Ni6  1  0.398921  0.091479  0.000000  1
  Ni  Ni7  1  0.908521  0.307442  0.000000  1
  Ni  Ni8  1  0.204458  0.379462  0.000000  1
  Ni  Ni9  1  0.620538  0.824996  0.000000  1
  Ni  Ni10  1  0.175004  0.795542  0.000000  1
  Ni  Ni11  1  0.279178  0.224672  0.500000  1
  Ni  Ni12  1  0.775328  0.054505  0.500000  1
  Ni  Ni13  1  0.945495  0.720822  0.500000  1
  As  As14  1  0.443022  0.351648  0.000000  1
  As  As15  1  0.648352  0.091375  0.000000  1
  As  As16  1  0.908625  0.556978  0.000000  1
  As  As17  1  0.044077  0.249179  0.500000  1
  As  As18  1  0.750821  0.794899  0.500000  1
  As  As19  1  0.205101  0.955923  0.500000  1
  As  As20  1  0.333333  0.666667  0.000000  1
