# generated using pymatgen
data_CaY3Lu4(B6Os)4
_symmetry_space_group_name_H-M   'P 1'
_cell_length_a   3.62055000
_cell_length_b   9.09161163
_cell_length_c   11.49459207
_cell_angle_alpha   89.93127749
_cell_angle_beta   90.00000000
_cell_angle_gamma   90.00000000
_symmetry_Int_Tables_number   1
_chemical_formula_structural   CaY3Lu4(B6Os)4
_chemical_formula_sum   'Ca1 Y3 Lu4 B24 Os4'
_cell_volume   378.36301369
_cell_formula_units_Z   1
loop_
 _symmetry_equiv_pos_site_id
 _symmetry_equiv_pos_as_xyz
  1  'x, y, z'
loop_
 _atom_site_type_symbol
 _atom_site_label
 _atom_site_symmetry_multiplicity
 _atom_site_fract_x
 _atom_site_fract_y
 _atom_site_fract_z
 _atom_site_occupancy
  Ca  Ca0  1  0.000000  0.321626  0.413876  1
  Y  Y1  1  0.000000  0.677240  0.585087  1
  Y  Y2  1  0.000000  0.821492  0.086442  1
  Y  Y3  1  0.000000  0.179050  0.914528  1
  Lu  Lu4  1  0.000000  0.944563  0.372177  1
  Lu  Lu5  1  0.000000  0.057162  0.627058  1
  Lu  Lu6  1  0.000000  0.443547  0.128581  1
  Lu  Lu7  1  0.000000  0.555711  0.872772  1
  B  B8  1  0.500000  0.554470  0.432275  1
  B  B9  1  0.500000  0.445621  0.567734  1
  B  B10  1  0.500000  0.053864  0.066988  1
  B  B11  1  0.500000  0.945425  0.932324  1
  B  B12  1  0.500000  0.749949  0.418659  1
  B  B13  1  0.500000  0.250362  0.581490  1
  B  B14  1  0.500000  0.249518  0.081185  1
  B  B15  1  0.500000  0.749919  0.918967  1
  B  B16  1  0.500000  0.792477  0.266036  1
  B  B17  1  0.500000  0.208436  0.734268  1
  B  B18  1  0.500000  0.291334  0.233769  1
  B  B19  1  0.500000  0.708172  0.766123  1
  B  B20  1  0.500000  0.630933  0.185199  1
  B  B21  1  0.500000  0.369446  0.815681  1
  B  B22  1  0.500000  0.130438  0.314681  1
  B  B23  1  0.500000  0.869379  0.684596  1
  B  B24  1  0.500000  0.982909  0.212972  1
  B  B25  1  0.500000  0.017148  0.786269  1
  B  B26  1  0.500000  0.483015  0.286679  1
  B  B27  1  0.500000  0.516991  0.713670  1
  B  B28  1  0.500000  0.603629  0.028617  1
  B  B29  1  0.500000  0.396538  0.971874  1
  B  B30  1  0.500000  0.101359  0.472074  1
  B  B31  1  0.500000  0.897590  0.528117  1
  Os  Os32  1  0.000000  0.640298  0.319426  1
  Os  Os33  1  0.000000  0.361347  0.681144  1
  Os  Os34  1  0.000000  0.137493  0.178465  1
  Os  Os35  1  0.000000  0.861548  0.820195  1
