# generated using pymatgen
data_TbHfZr2(Al3Rh)6
_symmetry_space_group_name_H-M   'P 1'
_cell_length_a   7.49586208
_cell_length_b   7.48787034
_cell_length_c   9.31159500
_cell_angle_alpha   90.00000000
_cell_angle_beta   90.00000000
_cell_angle_gamma   119.69935968
_symmetry_Int_Tables_number   1
_chemical_formula_structural   TbHfZr2(Al3Rh)6
_chemical_formula_sum   'Tb1 Hf1 Zr2 Al18 Rh6'
_cell_volume   453.98586521
_cell_formula_units_Z   1
loop_
 _symmetry_equiv_pos_site_id
 _symmetry_equiv_pos_as_xyz
  1  'x, y, z'
loop_
 _atom_site_type_symbol
 _atom_site_label
 _atom_site_symmetry_multiplicity
 _atom_site_fract_x
 _atom_site_fract_y
 _atom_site_fract_z
 _atom_site_occupancy
  Tb  Tb0  1  0.328792  0.006435  0.750000  1
  Hf  Hf1  1  0.993984  0.672262  0.250000  1
  Zr  Zr2  1  0.006231  0.329258  0.750000  1
  Zr  Zr3  1  0.671418  0.993889  0.250000  1
  Al  Al4  1  0.121517  0.122880  0.250000  1
  Al  Al5  1  0.871670  0.875315  0.750000  1
  Al  Al6  1  0.996672  0.334757  0.077598  1
  Al  Al7  1  0.000068  0.662488  0.927137  1
  Al  Al8  1  0.000068  0.662488  0.572863  1
  Al  Al9  1  0.334921  0.997302  0.418520  1
  Al  Al10  1  0.996672  0.334757  0.422402  1
  Al  Al11  1  0.668177  0.002424  0.572854  1
  Al  Al12  1  0.668177  0.002424  0.927146  1
  Al  Al13  1  0.334921  0.997302  0.081480  1
  Al  Al14  1  0.331405  0.333952  0.552491  1
  Al  Al15  1  0.669085  0.668773  0.440498  1
  Al  Al16  1  0.669085  0.668773  0.059502  1
  Al  Al17  1  0.331405  0.333952  0.947509  1
  Al  Al18  1  0.338013  0.553841  0.250000  1
  Al  Al19  1  0.666228  0.451580  0.750000  1
  Al  Al20  1  0.555944  0.339919  0.250000  1
  Al  Al21  1  0.445645  0.656001  0.750000  1
  Rh  Rh22  1  0.673245  0.328230  0.001253  1
  Rh  Rh23  1  0.327579  0.673117  0.001762  1
  Rh  Rh24  1  0.327579  0.673117  0.498238  1
  Rh  Rh25  1  0.673245  0.328230  0.498747  1
  Rh  Rh26  1  0.999126  0.998264  0.001509  1
  Rh  Rh27  1  0.999126  0.998264  0.498491  1
