# generated using pymatgen
data_Pu6Ni13GeB4
_symmetry_space_group_name_H-M   'P 1'
_cell_length_a   5.17735900
_cell_length_b   5.17735752
_cell_length_c   13.90655400
_cell_angle_alpha   90.00000000
_cell_angle_beta   90.00000000
_cell_angle_gamma   120.00000306
_symmetry_Int_Tables_number   1
_chemical_formula_structural   Pu6Ni13GeB4
_chemical_formula_sum   'Pu6 Ni13 Ge1 B4'
_cell_volume   322.82456995
_cell_formula_units_Z   1
loop_
 _symmetry_equiv_pos_site_id
 _symmetry_equiv_pos_as_xyz
  1  'x, y, z'
loop_
 _atom_site_type_symbol
 _atom_site_label
 _atom_site_symmetry_multiplicity
 _atom_site_fract_x
 _atom_site_fract_y
 _atom_site_fract_z
 _atom_site_occupancy
  Pu  Pu0  1  0.333333  0.666667  0.750969  1
  Pu  Pu1  1  0.666667  0.333333  0.249031  1
  Pu  Pu2  1  0.333333  0.666667  0.538164  1
  Pu  Pu3  1  0.666667  0.333333  0.041180  1
  Pu  Pu4  1  0.666667  0.333333  0.461836  1
  Pu  Pu5  1  0.333333  0.666667  0.958820  1
  Ni  Ni6  1  0.000000  0.000000  0.500000  1
  Ni  Ni7  1  0.167594  0.335187  0.150432  1
  Ni  Ni8  1  0.834293  0.668588  0.649752  1
  Ni  Ni9  1  0.664813  0.832406  0.150432  1
  Ni  Ni10  1  0.167594  0.832406  0.150432  1
  Ni  Ni11  1  0.834293  0.165707  0.649752  1
  Ni  Ni12  1  0.331412  0.165707  0.649752  1
  Ni  Ni13  1  0.832406  0.664813  0.849568  1
  Ni  Ni14  1  0.832406  0.167594  0.849568  1
  Ni  Ni15  1  0.335187  0.167594  0.849568  1
  Ni  Ni16  1  0.668588  0.834293  0.350248  1
  Ni  Ni17  1  0.165707  0.834293  0.350248  1
  Ni  Ni18  1  0.165707  0.331412  0.350248  1
  Ge  Ge19  1  0.000000  0.000000  0.000000  1
  B  B20  1  0.333333  0.666667  0.250171  1
  B  B21  1  0.666667  0.333333  0.749829  1
  B  B22  1  0.000000  0.000000  0.250644  1
  B  B23  1  0.000000  0.000000  0.749356  1
