# generated using pymatgen
data_Ho5TmScCrO12
_symmetry_space_group_name_H-M   'P 1'
_cell_length_a   6.51671554
_cell_length_b   6.52273828
_cell_length_c   6.52344473
_cell_angle_alpha   92.82677577
_cell_angle_beta   92.84001897
_cell_angle_gamma   92.85712762
_symmetry_Int_Tables_number   1
_chemical_formula_structural   Ho5TmScCrO12
_chemical_formula_sum   'Ho5 Tm1 Sc1 Cr1 O12'
_cell_volume   276.23311871
_cell_formula_units_Z   1
loop_
 _symmetry_equiv_pos_site_id
 _symmetry_equiv_pos_as_xyz
  1  'x, y, z'
loop_
 _atom_site_type_symbol
 _atom_site_label
 _atom_site_symmetry_multiplicity
 _atom_site_fract_x
 _atom_site_fract_y
 _atom_site_fract_z
 _atom_site_occupancy
  Ho  Ho0  1  0.925458  0.434462  0.741800  1
  Ho  Ho1  1  0.435512  0.742276  0.925904  1
  Ho  Ho2  1  0.257985  0.073876  0.564408  1
  Ho  Ho3  1  0.073289  0.565252  0.257226  1
  Ho  Ho4  1  0.564699  0.256884  0.074591  1
  Tm  Tm5  1  0.743120  0.926282  0.435273  1
  Sc  Sc6  1  0.999054  0.999415  0.999720  1
  Cr  Cr7  1  0.500684  0.500897  0.499727  1
  O  O8  1  0.587633  0.460163  0.799657  1
  O  O9  1  0.462652  0.800984  0.586799  1
  O  O10  1  0.799880  0.591164  0.460413  1
  O  O11  1  0.411904  0.539373  0.200187  1
  O  O12  1  0.542814  0.199921  0.413146  1
  O  O13  1  0.200529  0.412062  0.539560  1
  O  O14  1  0.066659  0.915893  0.309251  1
  O  O15  1  0.915112  0.308523  0.067883  1
  O  O16  1  0.690441  0.930708  0.087997  1
  O  O17  1  0.084503  0.690845  0.931383  1
  O  O18  1  0.929759  0.082950  0.690150  1
  O  O19  1  0.308313  0.068071  0.914927  1
