# generated using pymatgen
data_Ce6MnAl3IrRu
_symmetry_space_group_name_H-M   'P 1'
_cell_length_a   7.82371133
_cell_length_b   7.79907248
_cell_length_c   9.67579377
_cell_angle_alpha   89.39981944
_cell_angle_beta   89.84051522
_cell_angle_gamma   120.18286770
_symmetry_Int_Tables_number   1
_chemical_formula_structural   Ce6MnAl3IrRu
_chemical_formula_sum   'Ce12 Mn2 Al6 Ir2 Ru2'
_cell_volume   510.30182473
_cell_formula_units_Z   2
loop_
 _symmetry_equiv_pos_site_id
 _symmetry_equiv_pos_as_xyz
  1  'x, y, z'
loop_
 _atom_site_type_symbol
 _atom_site_label
 _atom_site_symmetry_multiplicity
 _atom_site_fract_x
 _atom_site_fract_y
 _atom_site_fract_z
 _atom_site_occupancy
  Ce  Ce0  1  0.997682  0.599875  0.510810  1
  Ce  Ce1  1  0.599956  0.996810  0.509183  1
  Ce  Ce2  1  0.440192  0.438622  0.496170  1
  Ce  Ce3  1  0.996438  0.438405  0.994247  1
  Ce  Ce4  1  0.410167  0.995332  0.003196  1
  Ce  Ce5  1  0.590068  0.587799  0.003364  1
  Ce  Ce6  1  0.986082  0.731042  0.175357  1
  Ce  Ce7  1  0.728765  0.985638  0.174120  1
  Ce  Ce8  1  0.274329  0.274276  0.168689  1
  Ce  Ce9  1  0.001055  0.267819  0.672167  1
  Ce  Ce10  1  0.260967  0.994564  0.674231  1
  Ce  Ce11  1  0.747128  0.739858  0.678599  1
  Mn  Mn12  1  0.644273  0.645119  0.344581  1
  Mn  Mn13  1  0.000347  0.646287  0.844151  1
  Al  Al14  1  0.665789  0.326601  0.276144  1
  Al  Al15  1  0.325261  0.665817  0.276221  1
  Al  Al16  1  0.336358  0.666665  0.770056  1
  Al  Al17  1  0.665896  0.332520  0.769895  1
  Al  Al18  1  0.000694  0.001275  0.418556  1
  Al  Al19  1  0.002393  0.000472  0.922394  1
  Ir  Ir20  1  0.996242  0.330850  0.334653  1
  Ir  Ir21  1  0.331038  0.997349  0.338144  1
  Ru  Ru22  1  0.659101  0.999208  0.840670  1
  Ru  Ru23  1  0.339780  0.337797  0.833648  1
