# generated using pymatgen
data_TcSbI18
_symmetry_space_group_name_H-M   'P 1'
_cell_length_a   10.29317142
_cell_length_b   10.29317234
_cell_length_c   10.29317404
_cell_angle_alpha   91.01922602
_cell_angle_beta   91.01922369
_cell_angle_gamma   91.01923175
_symmetry_Int_Tables_number   1
_chemical_formula_structural   TcSbI18
_chemical_formula_sum   'Tc1 Sb1 I18'
_cell_volume   1090.03162365
_cell_formula_units_Z   1
loop_
 _symmetry_equiv_pos_site_id
 _symmetry_equiv_pos_as_xyz
  1  'x, y, z'
loop_
 _atom_site_type_symbol
 _atom_site_label
 _atom_site_symmetry_multiplicity
 _atom_site_fract_x
 _atom_site_fract_y
 _atom_site_fract_z
 _atom_site_occupancy
  Tc  Tc0  1  0.500000  0.500000  0.500000  1
  Sb  Sb1  1  0.000000  0.000000  0.000000  1
  I  I2  1  0.747592  0.135883  0.597436  1
  I  I3  1  0.990314  0.025564  0.702951  1
  I  I4  1  0.597436  0.747592  0.135883  1
  I  I5  1  0.974436  0.297049  0.009686  1
  I  I6  1  0.702951  0.990314  0.025564  1
  I  I7  1  0.025564  0.702951  0.990314  1
  I  I8  1  0.009686  0.974436  0.297049  1
  I  I9  1  0.864117  0.402564  0.252408  1
  I  I10  1  0.297049  0.009686  0.974436  1
  I  I11  1  0.252408  0.864117  0.402564  1
  I  I12  1  0.135883  0.597436  0.747592  1
  I  I13  1  0.402564  0.252408  0.864117  1
  I  I14  1  0.763393  0.531343  0.486400  1
  I  I15  1  0.531343  0.486400  0.763393  1
  I  I16  1  0.236607  0.468657  0.513600  1
  I  I17  1  0.468657  0.513600  0.236607  1
  I  I18  1  0.486400  0.763393  0.531343  1
  I  I19  1  0.513600  0.236607  0.468657  1
