# generated using pymatgen
data_Cr20Tc2RhC6
_symmetry_space_group_name_H-M   'P 1'
_cell_length_a   7.52666194
_cell_length_b   7.52666191
_cell_length_c   7.52666300
_cell_angle_alpha   60.00000841
_cell_angle_beta   60.00000850
_cell_angle_gamma   60.00000050
_symmetry_Int_Tables_number   1
_chemical_formula_structural   Cr20Tc2RhC6
_chemical_formula_sum   'Cr20 Tc2 Rh1 C6'
_cell_volume   301.50349379
_cell_formula_units_Z   1
loop_
 _symmetry_equiv_pos_site_id
 _symmetry_equiv_pos_as_xyz
  1  'x, y, z'
loop_
 _atom_site_type_symbol
 _atom_site_label
 _atom_site_symmetry_multiplicity
 _atom_site_fract_x
 _atom_site_fract_y
 _atom_site_fract_z
 _atom_site_occupancy
  Cr  Cr0  1  0.617182  0.617182  0.148453  1
  Cr  Cr1  1  0.617182  0.148453  0.617182  1
  Cr  Cr2  1  0.148453  0.617182  0.617182  1
  Cr  Cr3  1  0.617182  0.617182  0.617182  1
  Cr  Cr4  1  0.382818  0.382818  0.851547  1
  Cr  Cr5  1  0.382818  0.851547  0.382818  1
  Cr  Cr6  1  0.851547  0.382818  0.382818  1
  Cr  Cr7  1  0.382818  0.382818  0.382818  1
  Cr  Cr8  1  0.000000  0.000000  0.338446  1
  Cr  Cr9  1  0.661554  0.000000  0.338446  1
  Cr  Cr10  1  0.000000  0.661554  0.338446  1
  Cr  Cr11  1  0.661554  0.338446  0.000000  1
  Cr  Cr12  1  0.000000  0.338446  0.000000  1
  Cr  Cr13  1  0.000000  0.338446  0.661554  1
  Cr  Cr14  1  0.338446  0.661554  0.000000  1
  Cr  Cr15  1  0.338446  0.000000  0.661554  1
  Cr  Cr16  1  0.338446  0.000000  0.000000  1
  Cr  Cr17  1  0.000000  0.000000  0.661554  1
  Cr  Cr18  1  0.000000  0.661554  0.000000  1
  Cr  Cr19  1  0.661554  0.000000  0.000000  1
  Tc  Tc20  1  0.750000  0.750000  0.750000  1
  Tc  Tc21  1  0.250000  0.250000  0.250000  1
  Rh  Rh22  1  0.000000  0.000000  0.000000  1
  C  C23  1  0.722794  0.722794  0.277206  1
  C  C24  1  0.277206  0.722794  0.277206  1
  C  C25  1  0.722794  0.277206  0.277206  1
  C  C26  1  0.277206  0.277206  0.722794  1
  C  C27  1  0.722794  0.277206  0.722794  1
  C  C28  1  0.277206  0.722794  0.722794  1
