# generated using pymatgen
data_Mn3Zn(SnRh3)2
_symmetry_space_group_name_H-M   'P 1'
_cell_length_a   4.40600800
_cell_length_b   4.40600949
_cell_length_c   10.79306400
_cell_angle_alpha   90.00000000
_cell_angle_beta   90.00000000
_cell_angle_gamma   120.00000383
_symmetry_Int_Tables_number   1
_chemical_formula_structural   Mn3Zn(SnRh3)2
_chemical_formula_sum   'Mn3 Zn1 Sn2 Rh6'
_cell_volume   181.45380384
_cell_formula_units_Z   1
loop_
 _symmetry_equiv_pos_site_id
 _symmetry_equiv_pos_as_xyz
  1  'x, y, z'
loop_
 _atom_site_type_symbol
 _atom_site_label
 _atom_site_symmetry_multiplicity
 _atom_site_fract_x
 _atom_site_fract_y
 _atom_site_fract_z
 _atom_site_occupancy
  Mn  Mn0  1  0.000000  0.000000  0.500000  1
  Mn  Mn1  1  0.333333  0.666667  0.159108  1
  Mn  Mn2  1  0.666667  0.333333  0.840892  1
  Zn  Zn3  1  0.000000  0.000000  0.000000  1
  Sn  Sn4  1  0.333333  0.666667  0.670774  1
  Sn  Sn5  1  0.666667  0.333333  0.329226  1
  Rh  Rh6  1  0.333333  0.666667  0.417088  1
  Rh  Rh7  1  0.666667  0.333333  0.079795  1
  Rh  Rh8  1  0.000000  0.000000  0.753764  1
  Rh  Rh9  1  0.000000  0.000000  0.246236  1
  Rh  Rh10  1  0.333333  0.666667  0.920205  1
  Rh  Rh11  1  0.666667  0.333333  0.582912  1
