# generated using pymatgen
data_Sr4PrSi12Ir19
_symmetry_space_group_name_H-M   'P 1'
_cell_length_a   12.95023900
_cell_length_b   12.95023929
_cell_length_c   4.06332500
_cell_angle_alpha   90.00000000
_cell_angle_beta   90.00000000
_cell_angle_gamma   120.00000183
_symmetry_Int_Tables_number   1
_chemical_formula_structural   Sr4PrSi12Ir19
_chemical_formula_sum   'Sr4 Pr1 Si12 Ir19'
_cell_volume   590.15726872
_cell_formula_units_Z   1
loop_
 _symmetry_equiv_pos_site_id
 _symmetry_equiv_pos_as_xyz
  1  'x, y, z'
loop_
 _atom_site_type_symbol
 _atom_site_label
 _atom_site_symmetry_multiplicity
 _atom_site_fract_x
 _atom_site_fract_y
 _atom_site_fract_z
 _atom_site_occupancy
  Sr  Sr0  1  0.000052  0.817825  0.500000  1
  Sr  Sr1  1  0.182175  0.182227  0.500000  1
  Sr  Sr2  1  0.817773  0.999948  0.500000  1
  Sr  Sr3  1  0.666667  0.333333  0.000000  1
  Pr  Pr4  1  0.333333  0.666667  0.000000  1
  Si  Si5  1  0.999660  0.185993  0.000000  1
  Si  Si6  1  0.814007  0.813667  0.000000  1
  Si  Si7  1  0.186333  0.000340  0.000000  1
  Si  Si8  1  0.521526  0.688688  0.500000  1
  Si  Si9  1  0.311312  0.832839  0.500000  1
  Si  Si10  1  0.167161  0.478474  0.500000  1
  Si  Si11  1  0.479104  0.167342  0.500000  1
  Si  Si12  1  0.688238  0.520896  0.500000  1
  Si  Si13  1  0.832658  0.311762  0.500000  1
  Si  Si14  1  0.999299  0.628806  0.000000  1
  Si  Si15  1  0.371194  0.370494  0.000000  1
  Si  Si16  1  0.629506  0.000701  0.000000  1
  Ir  Ir17  1  0.000007  0.286430  0.500000  1
  Ir  Ir18  1  0.713570  0.713577  0.500000  1
  Ir  Ir19  1  0.286423  0.999993  0.500000  1
  Ir  Ir20  1  0.619286  0.803417  0.000000  1
  Ir  Ir21  1  0.196583  0.815870  0.000000  1
  Ir  Ir22  1  0.184130  0.380714  0.000000  1
  Ir  Ir23  1  0.380035  0.183311  0.000000  1
  Ir  Ir24  1  0.803276  0.619965  0.000000  1
  Ir  Ir25  1  0.816689  0.196724  0.000000  1
  Ir  Ir26  1  0.511865  0.873856  0.500000  1
  Ir  Ir27  1  0.126144  0.638009  0.500000  1
  Ir  Ir28  1  0.361991  0.488135  0.500000  1
  Ir  Ir29  1  0.485303  0.361843  0.500000  1
  Ir  Ir30  1  0.876540  0.514697  0.500000  1
  Ir  Ir31  1  0.638157  0.123460  0.500000  1
  Ir  Ir32  1  0.000000  0.000000  0.000000  1
  Ir  Ir33  1  0.000776  0.448065  0.000000  1
  Ir  Ir34  1  0.551935  0.552711  0.000000  1
  Ir  Ir35  1  0.447289  0.999224  0.000000  1
