# generated using pymatgen
data_Tb5Sm3(SiBr6)2
_symmetry_space_group_name_H-M   'P 1'
_cell_length_a   4.10169900
_cell_length_b   13.43275476
_cell_length_c   14.20582158
_cell_angle_alpha   89.83588823
_cell_angle_beta   90.00000000
_cell_angle_gamma   90.00000000
_symmetry_Int_Tables_number   1
_chemical_formula_structural   Tb5Sm3(SiBr6)2
_chemical_formula_sum   'Tb5 Sm3 Si2 Br12'
_cell_volume   782.69659992
_cell_formula_units_Z   1
loop_
 _symmetry_equiv_pos_site_id
 _symmetry_equiv_pos_as_xyz
  1  'x, y, z'
loop_
 _atom_site_type_symbol
 _atom_site_label
 _atom_site_symmetry_multiplicity
 _atom_site_fract_x
 _atom_site_fract_y
 _atom_site_fract_z
 _atom_site_occupancy
  Tb  Tb0  1  0.500000  0.881395  0.659402  1
  Tb  Tb1  1  0.500000  0.617454  0.157780  1
  Tb  Tb2  1  0.500000  0.382801  0.842001  1
  Tb  Tb3  1  0.000000  0.617484  0.921947  1
  Tb  Tb4  1  0.000000  0.383415  0.077330  1
  Sm  Sm5  1  0.500000  0.118826  0.340423  1
  Sm  Sm6  1  0.000000  0.119979  0.579760  1
  Sm  Sm7  1  0.000000  0.879993  0.420303  1
  Si  Si8  1  0.500000  0.999160  0.501188  1
  Si  Si9  1  0.500000  0.500530  0.999615  1
  Br  Br10  1  0.500000  0.248372  0.160001  1
  Br  Br11  1  0.500000  0.752543  0.837451  1
  Br  Br12  1  0.500000  0.740536  0.334192  1
  Br  Br13  1  0.500000  0.258907  0.666597  1
  Br  Br14  1  0.000000  0.257607  0.411616  1
  Br  Br15  1  0.000000  0.745517  0.592425  1
  Br  Br16  1  0.000000  0.752344  0.088068  1
  Br  Br17  1  0.000000  0.247808  0.911575  1
  Br  Br18  1  0.000000  0.001255  0.240984  1
  Br  Br19  1  0.000000  0.993935  0.757629  1
  Br  Br20  1  0.000000  0.502198  0.253838  1
  Br  Br21  1  0.000000  0.497939  0.745876  1
