# generated using pymatgen
data_CeDyReC2
_symmetry_space_group_name_H-M   'P 1'
_cell_length_a   5.21565700
_cell_length_b   6.54013600
_cell_length_c   9.88804400
_cell_angle_alpha   90.00000000
_cell_angle_beta   90.00000000
_cell_angle_gamma   90.00000000
_symmetry_Int_Tables_number   1
_chemical_formula_structural   CeDyReC2
_chemical_formula_sum   'Ce4 Dy4 Re4 C8'
_cell_volume   337.29211810
_cell_formula_units_Z   4
loop_
 _symmetry_equiv_pos_site_id
 _symmetry_equiv_pos_as_xyz
  1  'x, y, z'
loop_
 _atom_site_type_symbol
 _atom_site_label
 _atom_site_symmetry_multiplicity
 _atom_site_fract_x
 _atom_site_fract_y
 _atom_site_fract_z
 _atom_site_occupancy
  Ce  Ce0  1  0.250000  0.469979  0.782110  1
  Ce  Ce1  1  0.750000  0.030021  0.282110  1
  Ce  Ce2  1  0.250000  0.969979  0.717890  1
  Ce  Ce3  1  0.750000  0.530021  0.217890  1
  Dy  Dy4  1  0.250000  0.819308  0.051866  1
  Dy  Dy5  1  0.750000  0.680692  0.551866  1
  Dy  Dy6  1  0.250000  0.319308  0.448134  1
  Dy  Dy7  1  0.750000  0.180692  0.948134  1
  Re  Re8  1  0.250000  0.278237  0.134721  1
  Re  Re9  1  0.750000  0.221763  0.634721  1
  Re  Re10  1  0.250000  0.778237  0.365279  1
  Re  Re11  1  0.750000  0.721763  0.865279  1
  C  C12  1  0.250000  0.175546  0.947812  1
  C  C13  1  0.750000  0.824454  0.052188  1
  C  C14  1  0.250000  0.675546  0.552188  1
  C  C15  1  0.750000  0.324454  0.447812  1
  C  C16  1  0.250000  0.044525  0.259246  1
  C  C17  1  0.750000  0.455475  0.759246  1
  C  C18  1  0.250000  0.544525  0.240754  1
  C  C19  1  0.750000  0.955475  0.740754  1
