# generated using pymatgen
data_Sr15(SnAs6)2
_symmetry_space_group_name_H-M   'P 1'
_cell_length_a   9.62970620
_cell_length_b   9.62970572
_cell_length_c   9.62970650
_cell_angle_alpha   87.85139889
_cell_angle_beta   87.85140609
_cell_angle_gamma   87.85139863
_symmetry_Int_Tables_number   1
_chemical_formula_structural   Sr15(SnAs6)2
_chemical_formula_sum   'Sr15 Sn2 As12'
_cell_volume   891.13701377
_cell_formula_units_Z   1
loop_
 _symmetry_equiv_pos_site_id
 _symmetry_equiv_pos_as_xyz
  1  'x, y, z'
loop_
 _atom_site_type_symbol
 _atom_site_label
 _atom_site_symmetry_multiplicity
 _atom_site_fract_x
 _atom_site_fract_y
 _atom_site_fract_z
 _atom_site_occupancy
  Sr  Sr0  1  0.407683  0.285964  0.777721  1
  Sr  Sr1  1  0.777721  0.407683  0.285964  1
  Sr  Sr2  1  0.285964  0.777721  0.407683  1
  Sr  Sr3  1  0.025136  0.526416  0.659688  1
  Sr  Sr4  1  0.659688  0.025136  0.526416  1
  Sr  Sr5  1  0.526416  0.659688  0.025136  1
  Sr  Sr6  1  0.169152  0.535562  0.030991  1
  Sr  Sr7  1  0.030991  0.169152  0.535562  1
  Sr  Sr8  1  0.535562  0.030991  0.169152  1
  Sr  Sr9  1  0.775403  0.295082  0.920853  1
  Sr  Sr10  1  0.920853  0.775403  0.295082  1
  Sr  Sr11  1  0.295082  0.920853  0.775403  1
  Sr  Sr12  1  0.164632  0.164632  0.164632  1
  Sr  Sr13  1  0.391712  0.391712  0.391712  1
  Sr  Sr14  1  0.950977  0.950977  0.950977  1
  Sn  Sn15  1  0.761860  0.761860  0.761860  1
  Sn  Sn16  1  0.596787  0.596787  0.596787  1
  As  As17  1  0.706117  0.340639  0.602293  1
  As  As18  1  0.602293  0.706117  0.340639  1
  As  As19  1  0.340639  0.602293  0.706117  1
  As  As20  1  0.614565  0.981438  0.856617  1
  As  As21  1  0.856617  0.614565  0.981438  1
  As  As22  1  0.981438  0.856617  0.614565  1
  As  As23  1  0.471388  0.344434  0.084640  1
  As  As24  1  0.084640  0.471388  0.344434  1
  As  As25  1  0.344434  0.084640  0.471388  1
  As  As26  1  0.093811  0.236351  0.846817  1
  As  As27  1  0.846817  0.093811  0.236351  1
  As  As28  1  0.236351  0.846817  0.093811  1
