# generated using pymatgen
data_TbTmPt2F14
_symmetry_space_group_name_H-M   'P 1'
_cell_length_a   5.52092057
_cell_length_b   8.87386642
_cell_length_c   11.98628777
_cell_angle_alpha   62.38552042
_cell_angle_beta   90.11611146
_cell_angle_gamma   90.00139532
_symmetry_Int_Tables_number   1
_chemical_formula_structural   TbTmPt2F14
_chemical_formula_sum   'Tb2 Tm2 Pt4 F28'
_cell_volume   520.33623090
_cell_formula_units_Z   2
loop_
 _symmetry_equiv_pos_site_id
 _symmetry_equiv_pos_as_xyz
  1  'x, y, z'
loop_
 _atom_site_type_symbol
 _atom_site_label
 _atom_site_symmetry_multiplicity
 _atom_site_fract_x
 _atom_site_fract_y
 _atom_site_fract_z
 _atom_site_occupancy
  Tb  Tb0  1  0.760566  0.183414  0.236344  1
  Tb  Tb1  1  0.239434  0.816586  0.763656  1
  Tm  Tm2  1  0.261203  0.813176  0.263618  1
  Tm  Tm3  1  0.738797  0.186824  0.736382  1
  Pt  Pt4  1  0.759129  0.728704  0.043388  1
  Pt  Pt5  1  0.240871  0.271296  0.956612  1
  Pt  Pt6  1  0.259195  0.274439  0.458393  1
  Pt  Pt7  1  0.740805  0.725561  0.541607  1
  F  F8  1  0.938566  0.705073  0.412965  1
  F  F9  1  0.061434  0.294927  0.587035  1
  F  F10  1  0.437247  0.294003  0.084911  1
  F  F11  1  0.562753  0.705997  0.915089  1
  F  F12  1  0.465553  0.728484  0.136606  1
  F  F13  1  0.534447  0.271516  0.863394  1
  F  F14  1  0.965978  0.274029  0.365363  1
  F  F15  1  0.034022  0.725971  0.634637  1
  F  F16  1  0.953417  0.744382  0.175829  1
  F  F17  1  0.046583  0.255618  0.824171  1
  F  F18  1  0.450380  0.259350  0.325348  1
  F  F19  1  0.549620  0.740650  0.674652  1
  F  F20  1  0.769061  0.479160  0.142088  1
  F  F21  1  0.230939  0.520840  0.857912  1
  F  F22  1  0.269788  0.524134  0.358865  1
  F  F23  1  0.730212  0.475866  0.641135  1
  F  F24  1  0.941589  0.280565  0.042471  1
  F  F25  1  0.058411  0.719435  0.957529  1
  F  F26  1  0.439376  0.719546  0.454532  1
  F  F27  1  0.560624  0.280454  0.545468  1
  F  F28  1  0.740896  0.975072  0.449251  1
  F  F29  1  0.259104  0.024928  0.550749  1
  F  F30  1  0.239790  0.021619  0.051644  1
  F  F31  1  0.760210  0.978381  0.948356  1
  F  F32  1  0.583412  0.964659  0.232064  1
  F  F33  1  0.416588  0.035341  0.767936  1
  F  F34  1  0.091380  0.026497  0.268278  1
  F  F35  1  0.908620  0.973503  0.731722  1
