# generated using pymatgen
data_SrAc6V4O20
_symmetry_space_group_name_H-M   'P 1'
_cell_length_a   7.48301451
_cell_length_b   8.22591079
_cell_length_c   9.58143104
_cell_angle_alpha   105.31625362
_cell_angle_beta   96.43190719
_cell_angle_gamma   111.02915764
_symmetry_Int_Tables_number   1
_chemical_formula_structural   SrAc6V4O20
_chemical_formula_sum   'Sr1 Ac6 V4 O20'
_cell_volume   516.74823601
_cell_formula_units_Z   1
loop_
 _symmetry_equiv_pos_site_id
 _symmetry_equiv_pos_as_xyz
  1  'x, y, z'
loop_
 _atom_site_type_symbol
 _atom_site_label
 _atom_site_symmetry_multiplicity
 _atom_site_fract_x
 _atom_site_fract_y
 _atom_site_fract_z
 _atom_site_occupancy
  Sr  Sr0  1  0.000000  0.500000  0.000000  1
  Ac  Ac1  1  0.672939  0.372013  0.516884  1
  Ac  Ac2  1  0.429170  0.292988  0.090986  1
  Ac  Ac3  1  0.327061  0.627987  0.483116  1
  Ac  Ac4  1  0.181963  0.224581  0.675583  1
  Ac  Ac5  1  0.818037  0.775419  0.324417  1
  Ac  Ac6  1  0.570830  0.707012  0.909014  1
  V  V7  1  0.067668  0.779570  0.750932  1
  V  V8  1  0.644988  0.096932  0.742196  1
  V  V9  1  0.932332  0.220430  0.249068  1
  V  V10  1  0.355012  0.903068  0.257804  1
  O  O11  1  0.838190  0.983690  0.158717  1
  O  O12  1  0.547637  0.891324  0.370264  1
  O  O13  1  0.752220  0.305493  0.250379  1
  O  O14  1  0.366937  0.126756  0.307195  1
  O  O15  1  0.973846  0.720790  0.558500  1
  O  O16  1  0.026154  0.279210  0.441500  1
  O  O17  1  0.349989  0.823089  0.072125  1
  O  O18  1  0.650011  0.176911  0.927875  1
  O  O19  1  0.859356  0.255224  0.714404  1
  O  O20  1  0.551802  0.529951  0.360262  1
  O  O21  1  0.140644  0.744776  0.285596  1
  O  O22  1  0.448198  0.470049  0.639738  1
  O  O23  1  0.247780  0.694507  0.749621  1
  O  O24  1  0.702250  0.574200  0.084146  1
  O  O25  1  0.452363  0.108676  0.629736  1
  O  O26  1  0.297750  0.425800  0.915854  1
  O  O27  1  0.879257  0.649319  0.818817  1
  O  O28  1  0.633063  0.873244  0.692805  1
  O  O29  1  0.161810  0.016310  0.841283  1
  O  O30  1  0.120743  0.350681  0.181183  1
