# generated using pymatgen
data_Tm2Fe5Ni(P3Ru2)2
_symmetry_space_group_name_H-M   'P 1'
_cell_length_a   3.74774300
_cell_length_b   10.45566000
_cell_length_c   11.92330200
_cell_angle_alpha   90.00000000
_cell_angle_beta   90.00000000
_cell_angle_gamma   90.00000000
_symmetry_Int_Tables_number   1
_chemical_formula_structural   Tm2Fe5Ni(P3Ru2)2
_chemical_formula_sum   'Tm4 Fe10 Ni2 P12 Ru8'
_cell_volume   467.21609807
_cell_formula_units_Z   2
loop_
 _symmetry_equiv_pos_site_id
 _symmetry_equiv_pos_as_xyz
  1  'x, y, z'
loop_
 _atom_site_type_symbol
 _atom_site_label
 _atom_site_symmetry_multiplicity
 _atom_site_fract_x
 _atom_site_fract_y
 _atom_site_fract_z
 _atom_site_occupancy
  Tm  Tm0  1  0.250000  0.583902  0.710085  1
  Tm  Tm1  1  0.250000  0.916098  0.210085  1
  Tm  Tm2  1  0.750000  0.420146  0.291288  1
  Tm  Tm3  1  0.750000  0.079854  0.791288  1
  Fe  Fe4  1  0.750000  0.773032  0.824805  1
  Fe  Fe5  1  0.750000  0.726968  0.324805  1
  Fe  Fe6  1  0.250000  0.879315  0.699387  1
  Fe  Fe7  1  0.250000  0.620685  0.199387  1
  Fe  Fe8  1  0.750000  0.121939  0.299174  1
  Fe  Fe9  1  0.750000  0.378061  0.799174  1
  Fe  Fe10  1  0.250000  0.460175  0.934035  1
  Fe  Fe11  1  0.250000  0.039825  0.434035  1
  Fe  Fe12  1  0.750000  0.537260  0.064678  1
  Fe  Fe13  1  0.750000  0.962740  0.564678  1
  Ni  Ni14  1  0.250000  0.230030  0.175851  1
  Ni  Ni15  1  0.250000  0.269970  0.675851  1
  P  P16  1  0.250000  0.432426  0.113791  1
  P  P17  1  0.250000  0.067574  0.613791  1
  P  P18  1  0.750000  0.572683  0.884895  1
  P  P19  1  0.750000  0.927317  0.384895  1
  P  P20  1  0.250000  0.271324  0.863489  1
  P  P21  1  0.250000  0.228676  0.363489  1
  P  P22  1  0.750000  0.727034  0.139844  1
  P  P23  1  0.750000  0.772966  0.639844  1
  P  P24  1  0.250000  0.606860  0.384461  1
  P  P25  1  0.250000  0.893140  0.884461  1
  P  P26  1  0.750000  0.401711  0.613428  1
  P  P27  1  0.750000  0.098289  0.113428  1
  Ru  Ru28  1  0.250000  0.702017  0.983979  1
  Ru  Ru29  1  0.250000  0.797983  0.483979  1
  Ru  Ru30  1  0.750000  0.295886  0.017282  1
  Ru  Ru31  1  0.750000  0.204114  0.517282  1
  Ru  Ru32  1  0.250000  0.404811  0.484619  1
  Ru  Ru33  1  0.250000  0.095189  0.984619  1
  Ru  Ru34  1  0.750000  0.599240  0.514908  1
  Ru  Ru35  1  0.750000  0.900760  0.014908  1
