# generated using pymatgen
data_EuDyHo5PtI12
_symmetry_space_group_name_H-M   'P 1'
_cell_length_a   9.80220144
_cell_length_b   9.80087917
_cell_length_c   9.80439324
_cell_angle_alpha   106.57823315
_cell_angle_beta   106.59691991
_cell_angle_gamma   106.56257832
_symmetry_Int_Tables_number   1
_chemical_formula_structural   EuDyHo5PtI12
_chemical_formula_sum   'Eu1 Dy1 Ho5 Pt1 I12'
_cell_volume   793.26288729
_cell_formula_units_Z   1
loop_
 _symmetry_equiv_pos_site_id
 _symmetry_equiv_pos_as_xyz
  1  'x, y, z'
loop_
 _atom_site_type_symbol
 _atom_site_label
 _atom_site_symmetry_multiplicity
 _atom_site_fract_x
 _atom_site_fract_y
 _atom_site_fract_z
 _atom_site_occupancy
  Eu  Eu0  1  0.000015  0.999997  0.000211  1
  Dy  Dy1  1  0.403340  0.475655  0.200454  1
  Ho  Ho2  1  0.201574  0.403755  0.475820  1
  Ho  Ho3  1  0.475752  0.201487  0.403928  1
  Ho  Ho4  1  0.596301  0.524308  0.798449  1
  Ho  Ho5  1  0.798534  0.596275  0.524509  1
  Ho  Ho6  1  0.524418  0.798602  0.596549  1
  Pt  Pt7  1  0.499991  0.500024  0.499968  1
  I  I8  1  0.045836  0.359605  0.125796  1
  I  I9  1  0.125730  0.046629  0.359876  1
  I  I10  1  0.359859  0.125092  0.046604  1
  I  I11  1  0.953391  0.640092  0.874272  1
  I  I12  1  0.874274  0.953369  0.640159  1
  I  I13  1  0.640151  0.874313  0.953414  1
  I  I14  1  0.722974  0.573917  0.176872  1
  I  I15  1  0.176738  0.722073  0.573646  1
  I  I16  1  0.573648  0.176661  0.722086  1
  I  I17  1  0.277689  0.426231  0.822649  1
  I  I18  1  0.823269  0.277947  0.426370  1
  I  I19  1  0.426517  0.823966  0.278368  1
