# generated using pymatgen
data_Pu(TaB3)2
_symmetry_space_group_name_H-M   'P 1'
_cell_length_a   3.08868500
_cell_length_b   3.08868467
_cell_length_c   10.58685400
_cell_angle_alpha   90.00000000
_cell_angle_beta   90.00000000
_cell_angle_gamma   120.00001429
_symmetry_Int_Tables_number   1
_chemical_formula_structural   Pu(TaB3)2
_chemical_formula_sum   'Pu1 Ta2 B6'
_cell_volume   87.46709123
_cell_formula_units_Z   1
loop_
 _symmetry_equiv_pos_site_id
 _symmetry_equiv_pos_as_xyz
  1  'x, y, z'
loop_
 _atom_site_type_symbol
 _atom_site_label
 _atom_site_symmetry_multiplicity
 _atom_site_fract_x
 _atom_site_fract_y
 _atom_site_fract_z
 _atom_site_occupancy
  Pu  Pu0  1  0.000000  0.000000  0.000000  1
  Ta  Ta1  1  0.000000  0.000000  0.656714  1
  Ta  Ta2  1  0.000000  0.000000  0.343286  1
  B  B3  1  0.666667  0.333333  0.816108  1
  B  B4  1  0.666667  0.333333  0.500000  1
  B  B5  1  0.666667  0.333333  0.183892  1
  B  B6  1  0.333333  0.666667  0.816108  1
  B  B7  1  0.333333  0.666667  0.500000  1
  B  B8  1  0.333333  0.666667  0.183892  1
