# generated using pymatgen
data_HgPt2Rh2Pb3O14
_symmetry_space_group_name_H-M   'P 1'
_cell_length_a   7.38396405
_cell_length_b   7.26528822
_cell_length_c   7.38396323
_cell_angle_alpha   59.23357096
_cell_angle_beta   59.74583832
_cell_angle_gamma   59.23357465
_symmetry_Int_Tables_number   1
_chemical_formula_structural   HgPt2Rh2Pb3O14
_chemical_formula_sum   'Hg1 Pt2 Rh2 Pb3 O14'
_cell_volume   276.29063658
_cell_formula_units_Z   1
loop_
 _symmetry_equiv_pos_site_id
 _symmetry_equiv_pos_as_xyz
  1  'x, y, z'
loop_
 _atom_site_type_symbol
 _atom_site_label
 _atom_site_symmetry_multiplicity
 _atom_site_fract_x
 _atom_site_fract_y
 _atom_site_fract_z
 _atom_site_occupancy
  Hg  Hg0  1  0.125000  0.625000  0.125000  1
  Pt  Pt1  1  0.625000  0.625000  0.125000  1
  Pt  Pt2  1  0.125000  0.625000  0.625000  1
  Rh  Rh3  1  0.625000  0.625000  0.625000  1
  Rh  Rh4  1  0.625000  0.125000  0.625000  1
  Pb  Pb5  1  0.125000  0.125000  0.125000  1
  Pb  Pb6  1  0.625000  0.125000  0.125000  1
  Pb  Pb7  1  0.125000  0.125000  0.625000  1
  O  O8  1  0.710464  0.288729  0.293794  1
  O  O9  1  0.708191  0.289695  0.708191  1
  O  O10  1  0.999596  0.009230  0.999596  1
  O  O11  1  0.292829  0.711933  0.292829  1
  O  O12  1  0.703128  0.711006  0.292767  1
  O  O13  1  0.957233  0.538994  0.546872  1
  O  O14  1  0.292767  0.711006  0.703128  1
  O  O15  1  0.250404  0.240770  0.250404  1
  O  O16  1  0.957171  0.538067  0.957171  1
  O  O17  1  0.541809  0.960305  0.541809  1
  O  O18  1  0.546872  0.538994  0.957233  1
  O  O19  1  0.956206  0.961271  0.539536  1
  O  O20  1  0.539536  0.961271  0.956206  1
  O  O21  1  0.293794  0.288729  0.710464  1
