# generated using pymatgen
data_CeEr3HgRu
_symmetry_space_group_name_H-M   'P 1'
_cell_length_a   9.53460103
_cell_length_b   9.53460088
_cell_length_c   9.53460100
_cell_angle_alpha   60.00000304
_cell_angle_beta   60.00000356
_cell_angle_gamma   59.99999785
_symmetry_Int_Tables_number   1
_chemical_formula_structural   CeEr3HgRu
_chemical_formula_sum   'Ce4 Er12 Hg4 Ru4'
_cell_volume   612.90417992
_cell_formula_units_Z   4
loop_
 _symmetry_equiv_pos_site_id
 _symmetry_equiv_pos_as_xyz
  1  'x, y, z'
loop_
 _atom_site_type_symbol
 _atom_site_label
 _atom_site_symmetry_multiplicity
 _atom_site_fract_x
 _atom_site_fract_y
 _atom_site_fract_z
 _atom_site_occupancy
  Ce  Ce0  1  0.598225  0.598225  0.598225  1
  Ce  Ce1  1  0.598225  0.598225  0.205324  1
  Ce  Ce2  1  0.598225  0.205324  0.598225  1
  Ce  Ce3  1  0.205324  0.598225  0.598225  1
  Er  Er4  1  0.061394  0.438606  0.438606  1
  Er  Er5  1  0.438606  0.061394  0.061394  1
  Er  Er6  1  0.438606  0.061394  0.438606  1
  Er  Er7  1  0.061394  0.438606  0.061394  1
  Er  Er8  1  0.438606  0.438606  0.061394  1
  Er  Er9  1  0.061394  0.061394  0.438606  1
  Er  Er10  1  0.187544  0.812456  0.812456  1
  Er  Er11  1  0.812456  0.187544  0.187544  1
  Er  Er12  1  0.812456  0.187544  0.812456  1
  Er  Er13  1  0.187544  0.812456  0.187544  1
  Er  Er14  1  0.812456  0.812456  0.187544  1
  Er  Er15  1  0.187544  0.187544  0.812456  1
  Hg  Hg16  1  0.834807  0.834807  0.834807  1
  Hg  Hg17  1  0.834807  0.834807  0.495577  1
  Hg  Hg18  1  0.834807  0.495577  0.834807  1
  Hg  Hg19  1  0.495577  0.834807  0.834807  1
  Ru  Ru20  1  0.393997  0.393997  0.393997  1
  Ru  Ru21  1  0.393997  0.393997  0.818008  1
  Ru  Ru22  1  0.393997  0.818008  0.393997  1
  Ru  Ru23  1  0.818008  0.393997  0.393997  1
