# generated using pymatgen
data_Tm16InHg3Pt4
_symmetry_space_group_name_H-M   'P 1'
_cell_length_a   9.52250335
_cell_length_b   9.52250379
_cell_length_c   9.52250350
_cell_angle_alpha   60.16876692
_cell_angle_beta   60.16876306
_cell_angle_gamma   60.16876648
_symmetry_Int_Tables_number   1
_chemical_formula_structural   Tm16InHg3Pt4
_chemical_formula_sum   'Tm16 In1 Hg3 Pt4'
_cell_volume   612.90793869
_cell_formula_units_Z   1
loop_
 _symmetry_equiv_pos_site_id
 _symmetry_equiv_pos_as_xyz
  1  'x, y, z'
loop_
 _atom_site_type_symbol
 _atom_site_label
 _atom_site_symmetry_multiplicity
 _atom_site_fract_x
 _atom_site_fract_y
 _atom_site_fract_z
 _atom_site_occupancy
  Tm  Tm0  1  0.352076  0.352076  0.352076  1
  Tm  Tm1  1  0.356386  0.356386  0.935030  1
  Tm  Tm2  1  0.356386  0.935030  0.356386  1
  Tm  Tm3  1  0.935030  0.356386  0.356386  1
  Tm  Tm4  1  0.810430  0.190041  0.190041  1
  Tm  Tm5  1  0.191474  0.810166  0.810166  1
  Tm  Tm6  1  0.190041  0.810430  0.190041  1
  Tm  Tm7  1  0.810166  0.191474  0.810166  1
  Tm  Tm8  1  0.190041  0.190041  0.810430  1
  Tm  Tm9  1  0.810166  0.810166  0.191474  1
  Tm  Tm10  1  0.936939  0.565905  0.565905  1
  Tm  Tm11  1  0.563106  0.937549  0.937549  1
  Tm  Tm12  1  0.565905  0.936939  0.565905  1
  Tm  Tm13  1  0.937549  0.563106  0.937549  1
  Tm  Tm14  1  0.565905  0.565905  0.936939  1
  Tm  Tm15  1  0.937549  0.937549  0.563106  1
  In  In16  1  0.582222  0.582222  0.582222  1
  Hg  Hg17  1  0.586078  0.586078  0.238156  1
  Hg  Hg18  1  0.586078  0.238156  0.586078  1
  Hg  Hg19  1  0.238156  0.586078  0.586078  1
  Pt  Pt20  1  0.144896  0.144896  0.144896  1
  Pt  Pt21  1  0.141900  0.141900  0.569621  1
  Pt  Pt22  1  0.141900  0.569621  0.141900  1
  Pt  Pt23  1  0.569621  0.141900  0.141900  1
