# generated using pymatgen
data_LaThP7Ru12
_symmetry_space_group_name_H-M   'P 1'
_cell_length_a   9.51819700
_cell_length_b   9.51819590
_cell_length_c   3.98125900
_cell_angle_alpha   90.00000000
_cell_angle_beta   90.00000000
_cell_angle_gamma   119.99999940
_symmetry_Int_Tables_number   1
_chemical_formula_structural   LaThP7Ru12
_chemical_formula_sum   'La1 Th1 P7 Ru12'
_cell_volume   312.36358183
_cell_formula_units_Z   1
loop_
 _symmetry_equiv_pos_site_id
 _symmetry_equiv_pos_as_xyz
  1  'x, y, z'
loop_
 _atom_site_type_symbol
 _atom_site_label
 _atom_site_symmetry_multiplicity
 _atom_site_fract_x
 _atom_site_fract_y
 _atom_site_fract_z
 _atom_site_occupancy
  La  La0  1  0.333333  0.666667  0.000000  1
  Th  Th1  1  0.666667  0.333333  0.500000  1
  P  P2  1  0.606863  0.717904  0.500000  1
  P  P3  1  0.000000  0.000000  0.000000  1
  P  P4  1  0.282096  0.888960  0.500000  1
  P  P5  1  0.111040  0.393137  0.500000  1
  P  P6  1  0.893732  0.578194  0.000000  1
  P  P7  1  0.421806  0.315537  0.000000  1
  P  P8  1  0.684463  0.106268  0.000000  1
  Ru  Ru9  1  0.559824  0.953836  0.500000  1
  Ru  Ru10  1  0.394011  0.440176  0.500000  1
  Ru  Ru11  1  0.913914  0.119674  0.500000  1
  Ru  Ru12  1  0.205760  0.086086  0.500000  1
  Ru  Ru13  1  0.880326  0.794240  0.500000  1
  Ru  Ru14  1  0.729817  0.891054  0.000000  1
  Ru  Ru15  1  0.108946  0.838762  0.000000  1
  Ru  Ru16  1  0.161238  0.270183  0.000000  1
  Ru  Ru17  1  0.422602  0.070101  0.000000  1
  Ru  Ru18  1  0.929899  0.352504  0.000000  1
  Ru  Ru19  1  0.647496  0.577398  0.000000  1
  Ru  Ru20  1  0.046164  0.605989  0.500000  1
