# generated using pymatgen
data_Pr3Sn3RuRhAu
_symmetry_space_group_name_H-M   'P 1'
_cell_length_a   7.66782400
_cell_length_b   7.66782417
_cell_length_c   4.19200600
_cell_angle_alpha   90.00000000
_cell_angle_beta   90.00000000
_cell_angle_gamma   120.00000787
_symmetry_Int_Tables_number   1
_chemical_formula_structural   Pr3Sn3RuRhAu
_chemical_formula_sum   'Pr3 Sn3 Ru1 Rh1 Au1'
_cell_volume   213.45030248
_cell_formula_units_Z   1
loop_
 _symmetry_equiv_pos_site_id
 _symmetry_equiv_pos_as_xyz
  1  'x, y, z'
loop_
 _atom_site_type_symbol
 _atom_site_label
 _atom_site_symmetry_multiplicity
 _atom_site_fract_x
 _atom_site_fract_y
 _atom_site_fract_z
 _atom_site_occupancy
  Pr  Pr0  1  0.597961  0.013267  0.500000  1
  Pr  Pr1  1  0.415306  0.402039  0.500000  1
  Pr  Pr2  1  0.986733  0.584694  0.500000  1
  Sn  Sn3  1  0.249264  0.007390  0.000000  1
  Sn  Sn4  1  0.758125  0.750736  0.000000  1
  Sn  Sn5  1  0.992610  0.241875  0.000000  1
  Ru  Ru6  1  0.000000  0.000000  0.500000  1
  Rh  Rh7  1  0.666667  0.333333  0.000000  1
  Au  Au8  1  0.333333  0.666667  0.000000  1
