# generated using pymatgen
data_Ti3Nb3Co2(BRu2)4
_symmetry_space_group_name_H-M   'P 1'
_cell_length_a   9.18576825
_cell_length_b   9.18576825
_cell_length_c   3.01512700
_cell_angle_alpha   90.00000000
_cell_angle_beta   90.00000000
_cell_angle_gamma   89.97344093
_symmetry_Int_Tables_number   1
_chemical_formula_structural   Ti3Nb3Co2(BRu2)4
_chemical_formula_sum   'Ti3 Nb3 Co2 B4 Ru8'
_cell_volume   254.41137864
_cell_formula_units_Z   1
loop_
 _symmetry_equiv_pos_site_id
 _symmetry_equiv_pos_as_xyz
  1  'x, y, z'
loop_
 _atom_site_type_symbol
 _atom_site_label
 _atom_site_symmetry_multiplicity
 _atom_site_fract_x
 _atom_site_fract_y
 _atom_site_fract_z
 _atom_site_occupancy
  Ti  Ti0  1  0.823589  0.676411  0.000000  1
  Ti  Ti1  1  0.501587  0.500918  0.000000  1
  Ti  Ti2  1  0.999082  0.998413  0.000000  1
  Nb  Nb3  1  0.175651  0.324349  0.000000  1
  Nb  Nb4  1  0.323595  0.822827  0.000000  1
  Nb  Nb5  1  0.677173  0.176405  0.000000  1
  Co  Co6  1  0.500132  0.999868  0.500000  1
  Co  Co7  1  0.999134  0.500866  0.500000  1
  B  B8  1  0.614728  0.885272  0.000000  1
  B  B9  1  0.386811  0.113189  0.000000  1
  B  B10  1  0.112159  0.613820  0.000000  1
  B  B11  1  0.886180  0.387841  0.000000  1
  Ru  Ru12  1  0.565215  0.721650  0.500000  1
  Ru  Ru13  1  0.435949  0.278280  0.500000  1
  Ru  Ru14  1  0.062090  0.777311  0.500000  1
  Ru  Ru15  1  0.936556  0.222393  0.500000  1
  Ru  Ru16  1  0.277607  0.563444  0.500000  1
  Ru  Ru17  1  0.722689  0.437910  0.500000  1
  Ru  Ru18  1  0.221720  0.064051  0.500000  1
  Ru  Ru19  1  0.778350  0.934785  0.500000  1
