# generated using pymatgen
data_Li2SnHgS4
_symmetry_space_group_name_H-M   'P 1'
_cell_length_a   6.64292600
_cell_length_b   7.02575200
_cell_length_c   8.06954800
_cell_angle_alpha   90.00000000
_cell_angle_beta   90.00000000
_cell_angle_gamma   90.00000000
_symmetry_Int_Tables_number   1
_chemical_formula_structural   Li2SnHgS4
_chemical_formula_sum   'Li4 Sn2 Hg2 S8'
_cell_volume   376.61831805
_cell_formula_units_Z   2
loop_
 _symmetry_equiv_pos_site_id
 _symmetry_equiv_pos_as_xyz
  1  'x, y, z'
loop_
 _atom_site_type_symbol
 _atom_site_label
 _atom_site_symmetry_multiplicity
 _atom_site_fract_x
 _atom_site_fract_y
 _atom_site_fract_z
 _atom_site_occupancy
  Li  Li0  1  0.486461  0.827103  0.747675  1
  Li  Li1  1  0.986461  0.172897  0.247675  1
  Li  Li2  1  0.986461  0.172897  0.752325  1
  Li  Li3  1  0.486461  0.827103  0.252325  1
  Sn  Sn4  1  0.481969  0.328884  0.500000  1
  Sn  Sn5  1  0.981969  0.671116  0.000000  1
  Hg  Hg6  1  0.978064  0.654539  0.500000  1
  Hg  Hg7  1  0.478064  0.345461  0.000000  1
  S  S8  1  0.371929  0.656658  0.500000  1
  S  S9  1  0.871929  0.343342  0.000000  1
  S  S10  1  0.847624  0.309868  0.500000  1
  S  S11  1  0.347624  0.690132  0.000000  1
  S  S12  1  0.856247  0.842450  0.759989  1
  S  S13  1  0.856247  0.842450  0.240011  1
  S  S14  1  0.356247  0.157550  0.259989  1
  S  S15  1  0.356247  0.157550  0.740011  1
