# generated using pymatgen
data_Pr5Nd11Cd4(OsPd)2
_symmetry_space_group_name_H-M   'P 1'
_cell_length_a   10.00816859
_cell_length_b   10.01072199
_cell_length_c   10.11350009
_cell_angle_alpha   59.75090015
_cell_angle_beta   59.74813020
_cell_angle_gamma   59.72064953
_symmetry_Int_Tables_number   1
_chemical_formula_structural   Pr5Nd11Cd4(OsPd)2
_chemical_formula_sum   'Pr5 Nd11 Cd4 Os2 Pd2'
_cell_volume   712.25172238
_cell_formula_units_Z   1
loop_
 _symmetry_equiv_pos_site_id
 _symmetry_equiv_pos_as_xyz
  1  'x, y, z'
loop_
 _atom_site_type_symbol
 _atom_site_label
 _atom_site_symmetry_multiplicity
 _atom_site_fract_x
 _atom_site_fract_y
 _atom_site_fract_z
 _atom_site_occupancy
  Pr  Pr0  1  0.555843  0.938656  0.940592  1
  Pr  Pr1  1  0.556585  0.937882  0.565562  1
  Pr  Pr2  1  0.938694  0.555823  0.940291  1
  Pr  Pr3  1  0.562726  0.562292  0.937753  1
  Pr  Pr4  1  0.939991  0.939705  0.559507  1
  Nd  Nd5  1  0.347762  0.348079  0.355318  1
  Nd  Nd6  1  0.348542  0.348619  0.947291  1
  Nd  Nd7  1  0.344004  0.955876  0.349211  1
  Nd  Nd8  1  0.955788  0.344174  0.349420  1
  Nd  Nd9  1  0.816133  0.189458  0.190931  1
  Nd  Nd10  1  0.188590  0.815399  0.803816  1
  Nd  Nd11  1  0.189318  0.815966  0.191229  1
  Nd  Nd12  1  0.815470  0.188851  0.803645  1
  Nd  Nd13  1  0.188800  0.189299  0.810510  1
  Nd  Nd14  1  0.806280  0.806108  0.193656  1
  Nd  Nd15  1  0.938324  0.556089  0.565509  1
  Cd  Cd16  1  0.579697  0.579344  0.580048  1
  Cd  Cd17  1  0.579506  0.579558  0.260697  1
  Cd  Cd18  1  0.580319  0.259155  0.580207  1
  Cd  Cd19  1  0.258861  0.580329  0.580194  1
  Os  Os20  1  0.143953  0.143888  0.138360  1
  Os  Os21  1  0.144474  0.145038  0.575081  1
  Pd  Pd22  1  0.146268  0.574033  0.140715  1
  Pd  Pd23  1  0.574071  0.146376  0.140457  1
