# generated using pymatgen
data_RbAcO2
_symmetry_space_group_name_H-M   'P 1'
_cell_length_a   7.04185056
_cell_length_b   7.04185000
_cell_length_c   7.04185181
_cell_angle_alpha   32.11543365
_cell_angle_beta   32.11544274
_cell_angle_gamma   32.11543542
_symmetry_Int_Tables_number   1
_chemical_formula_structural   RbAcO2
_chemical_formula_sum   'Rb1 Ac1 O2'
_cell_volume   87.70162976
_cell_formula_units_Z   1
loop_
 _symmetry_equiv_pos_site_id
 _symmetry_equiv_pos_as_xyz
  1  'x, y, z'
loop_
 _atom_site_type_symbol
 _atom_site_label
 _atom_site_symmetry_multiplicity
 _atom_site_fract_x
 _atom_site_fract_y
 _atom_site_fract_z
 _atom_site_occupancy
  Rb  Rb0  1  0.000000  0.000000  0.000000  1
  Ac  Ac1  1  0.500000  0.500000  0.500000  1
  O  O2  1  0.772041  0.772041  0.772041  1
  O  O3  1  0.227959  0.227959  0.227959  1
