# generated using pymatgen
data_Dy17Y2ErSn16
_symmetry_space_group_name_H-M   'P 1'
_cell_length_a   8.02913400
_cell_length_b   8.15497107
_cell_length_c   15.44246600
_cell_angle_alpha   90.00000000
_cell_angle_beta   90.00000000
_cell_angle_gamma   89.99251745
_symmetry_Int_Tables_number   1
_chemical_formula_structural   Dy17Y2ErSn16
_chemical_formula_sum   'Dy17 Y2 Er1 Sn16'
_cell_volume   1011.13182720
_cell_formula_units_Z   1
loop_
 _symmetry_equiv_pos_site_id
 _symmetry_equiv_pos_as_xyz
  1  'x, y, z'
loop_
 _atom_site_type_symbol
 _atom_site_label
 _atom_site_symmetry_multiplicity
 _atom_site_fract_x
 _atom_site_fract_y
 _atom_site_fract_z
 _atom_site_occupancy
  Dy  Dy0  1  0.367502  0.837409  0.877762  1
  Dy  Dy1  1  0.867527  0.662609  0.622172  1
  Dy  Dy2  1  0.632506  0.162817  0.377923  1
  Dy  Dy3  1  0.132191  0.337375  0.122074  1
  Dy  Dy4  1  0.632506  0.162817  0.122077  1
  Dy  Dy5  1  0.132191  0.337375  0.377926  1
  Dy  Dy6  1  0.367502  0.837409  0.622238  1
  Dy  Dy7  1  0.867527  0.662609  0.877828  1
  Dy  Dy8  1  0.520680  0.320794  0.902667  1
  Dy  Dy9  1  0.020725  0.179174  0.597370  1
  Dy  Dy10  1  0.479601  0.679130  0.402763  1
  Dy  Dy11  1  0.979440  0.820704  0.097226  1
  Dy  Dy12  1  0.479601  0.679130  0.097237  1
  Dy  Dy13  1  0.979440  0.820704  0.402774  1
  Dy  Dy14  1  0.520680  0.320794  0.597333  1
  Dy  Dy15  1  0.020725  0.179174  0.902630  1
  Dy  Dy16  1  0.301199  0.002933  0.250000  1
  Y  Y17  1  0.198534  0.502935  0.750000  1
  Y  Y18  1  0.698549  0.997044  0.750000  1
  Er  Er19  1  0.800832  0.496972  0.250000  1
  Sn  Sn20  1  0.292928  0.036848  0.041494  1
  Sn  Sn21  1  0.792936  0.463219  0.458290  1
  Sn  Sn22  1  0.707294  0.963453  0.541901  1
  Sn  Sn23  1  0.207314  0.536602  0.958098  1
  Sn  Sn24  1  0.707294  0.963453  0.958099  1
  Sn  Sn25  1  0.207314  0.536602  0.541902  1
  Sn  Sn26  1  0.292928  0.036848  0.458506  1
  Sn  Sn27  1  0.792936  0.463219  0.041710  1
  Sn  Sn28  1  0.565079  0.617969  0.750000  1
  Sn  Sn29  1  0.064956  0.881980  0.750000  1
  Sn  Sn30  1  0.435185  0.381606  0.250000  1
  Sn  Sn31  1  0.934520  0.118881  0.250000  1
  Sn  Sn32  1  0.329989  0.148263  0.750000  1
  Sn  Sn33  1  0.829881  0.351867  0.750000  1
  Sn  Sn34  1  0.670194  0.851635  0.250000  1
  Sn  Sn35  1  0.169797  0.647644  0.250000  1
