# generated using pymatgen
data_LiTm(NiIr)2
_symmetry_space_group_name_H-M   'P 1'
_cell_length_a   4.94278766
_cell_length_b   5.07699288
_cell_length_c   5.07699295
_cell_angle_alpha   60.95865534
_cell_angle_beta   60.87062110
_cell_angle_gamma   60.87062718
_symmetry_Int_Tables_number   1
_chemical_formula_structural   LiTm(NiIr)2
_chemical_formula_sum   'Li1 Tm1 Ni2 Ir2'
_cell_volume   91.91598663
_cell_formula_units_Z   1
loop_
 _symmetry_equiv_pos_site_id
 _symmetry_equiv_pos_as_xyz
  1  'x, y, z'
loop_
 _atom_site_type_symbol
 _atom_site_label
 _atom_site_symmetry_multiplicity
 _atom_site_fract_x
 _atom_site_fract_y
 _atom_site_fract_z
 _atom_site_occupancy
  Li  Li0  1  0.502395  0.497605  0.497605  1
  Tm  Tm1  1  0.753428  0.746572  0.746572  1
  Ni  Ni2  1  0.622581  0.126621  0.126621  1
  Ni  Ni3  1  0.124178  0.126621  0.126621  1
  Ir  Ir4  1  0.123709  0.127363  0.625218  1
  Ir  Ir5  1  0.123709  0.625218  0.127363  1
