# generated using pymatgen
data_Ta7Tc6B7P
_symmetry_space_group_name_H-M   'P 1'
_cell_length_a   9.66143200
_cell_length_b   9.66143202
_cell_length_c   3.20790500
_cell_angle_alpha   90.00000000
_cell_angle_beta   90.00000000
_cell_angle_gamma   120.00000676
_symmetry_Int_Tables_number   1
_chemical_formula_structural   Ta7Tc6B7P
_chemical_formula_sum   'Ta7 Tc6 B7 P1'
_cell_volume   259.31945770
_cell_formula_units_Z   1
loop_
 _symmetry_equiv_pos_site_id
 _symmetry_equiv_pos_as_xyz
  1  'x, y, z'
loop_
 _atom_site_type_symbol
 _atom_site_label
 _atom_site_symmetry_multiplicity
 _atom_site_fract_x
 _atom_site_fract_y
 _atom_site_fract_z
 _atom_site_occupancy
  Ta  Ta0  1  0.000000  0.000000  0.000000  1
  Ta  Ta1  1  0.724552  0.642123  0.000000  1
  Ta  Ta2  1  0.357877  0.082429  0.000000  1
  Ta  Ta3  1  0.917571  0.275448  0.000000  1
  Ta  Ta4  1  0.276874  0.368824  0.000000  1
  Ta  Ta5  1  0.631176  0.908051  0.000000  1
  Ta  Ta6  1  0.091949  0.723126  0.000000  1
  Tc  Tc7  1  0.354538  0.845789  0.500000  1
  Tc  Tc8  1  0.154211  0.508750  0.500000  1
  Tc  Tc9  1  0.491250  0.645462  0.500000  1
  Tc  Tc10  1  0.645149  0.147447  0.500000  1
  Tc  Tc11  1  0.852553  0.497702  0.500000  1
  Tc  Tc12  1  0.502298  0.354851  0.500000  1
  B  B13  1  0.333333  0.666667  0.000000  1
  B  B14  1  0.152897  0.934733  0.500000  1
  B  B15  1  0.065267  0.218163  0.500000  1
  B  B16  1  0.781837  0.847103  0.500000  1
  B  B17  1  0.845910  0.063954  0.500000  1
  B  B18  1  0.936046  0.781956  0.500000  1
  B  B19  1  0.218044  0.154090  0.500000  1
  P  P20  1  0.666667  0.333333  0.000000  1
