# generated using pymatgen
data_Rb3NaSe24
_symmetry_space_group_name_H-M   'P 1'
_cell_length_a   11.49445495
_cell_length_b   11.49445579
_cell_length_c   11.35672182
_cell_angle_alpha   129.29352608
_cell_angle_beta   120.34048027
_cell_angle_gamma   82.83138490
_symmetry_Int_Tables_number   1
_chemical_formula_structural   Rb3NaSe24
_chemical_formula_sum   'Rb3 Na1 Se24'
_cell_volume   958.48004201
_cell_formula_units_Z   1
loop_
 _symmetry_equiv_pos_site_id
 _symmetry_equiv_pos_as_xyz
  1  'x, y, z'
loop_
 _atom_site_type_symbol
 _atom_site_label
 _atom_site_symmetry_multiplicity
 _atom_site_fract_x
 _atom_site_fract_y
 _atom_site_fract_z
 _atom_site_occupancy
  Rb  Rb0  1  0.000000  0.000000  0.000000  1
  Rb  Rb1  1  0.744440  0.244440  0.500000  1
  Rb  Rb2  1  0.255560  0.755560  0.500000  1
  Na  Na3  1  0.500000  0.500000  0.000000  1
  Se  Se4  1  0.644777  0.745771  0.895761  1
  Se  Se5  1  0.850010  0.749016  0.104239  1
  Se  Se6  1  0.355223  0.254229  0.104239  1
  Se  Se7  1  0.149990  0.250984  0.895761  1
  Se  Se8  1  0.263912  0.168359  0.705214  1
  Se  Se9  1  0.253582  0.941450  0.897674  1
  Se  Se10  1  0.043775  0.355907  0.102326  1
  Se  Se11  1  0.463146  0.558699  0.294786  1
  Se  Se12  1  0.736088  0.831641  0.294786  1
  Se  Se13  1  0.746418  0.058550  0.102326  1
  Se  Se14  1  0.956225  0.644093  0.897674  1
  Se  Se15  1  0.536854  0.441301  0.705214  1
  Se  Se16  1  0.912153  0.815645  0.511315  1
  Se  Se17  1  0.585342  0.100818  0.907214  1
  Se  Se18  1  0.193605  0.678129  0.092786  1
  Se  Se19  1  0.304329  0.400837  0.488685  1
  Se  Se20  1  0.087847  0.184355  0.488685  1
  Se  Se21  1  0.414658  0.899182  0.092786  1
  Se  Se22  1  0.806396  0.321871  0.907214  1
  Se  Se23  1  0.695671  0.599163  0.511315  1
  Se  Se24  1  0.670335  0.066627  0.736961  1
  Se  Se25  1  0.830450  0.561226  0.391676  1
  Se  Se26  1  0.169550  0.438774  0.608324  1
  Se  Se27  1  0.329665  0.933373  0.263039  1
