# generated using pymatgen
data_Hf3BeAs2Ru3
_symmetry_space_group_name_H-M   'P 1'
_cell_length_a   7.59564854
_cell_length_b   7.59564895
_cell_length_c   7.59564917
_cell_angle_alpha   127.99706245
_cell_angle_beta   122.43009726
_cell_angle_gamma   81.26345943
_symmetry_Int_Tables_number   1
_chemical_formula_structural   Hf3BeAs2Ru3
_chemical_formula_sum   'Hf6 Be2 As4 Ru6'
_cell_volume   280.81974422
_cell_formula_units_Z   2
loop_
 _symmetry_equiv_pos_site_id
 _symmetry_equiv_pos_as_xyz
  1  'x, y, z'
loop_
 _atom_site_type_symbol
 _atom_site_label
 _atom_site_symmetry_multiplicity
 _atom_site_fract_x
 _atom_site_fract_y
 _atom_site_fract_z
 _atom_site_occupancy
  Hf  Hf0  1  0.446217  0.645457  0.699240  1
  Hf  Hf1  1  0.553783  0.253023  0.199240  1
  Hf  Hf2  1  0.749781  0.861579  0.611798  1
  Hf  Hf3  1  0.250219  0.862018  0.111798  1
  Hf  Hf4  1  0.054274  0.253232  0.698958  1
  Hf  Hf5  1  0.945726  0.644684  0.198958  1
  Be  Be6  1  0.250733  0.254335  0.503603  1
  Be  Be7  1  0.749267  0.252869  0.003603  1
  As  As8  1  0.333114  0.586511  0.252940  1
  As  As9  1  0.666886  0.919826  0.253397  1
  As  As10  1  0.166429  0.919826  0.752940  1
  As  As11  1  0.833571  0.586511  0.753397  1
  Ru  Ru12  1  0.500000  0.491372  0.991372  1
  Ru  Ru13  1  0.000000  0.491372  0.491372  1
  Ru  Ru14  1  0.118169  0.253244  0.133418  1
  Ru  Ru15  1  0.881831  0.015248  0.135074  1
  Ru  Ru16  1  0.380174  0.015248  0.633418  1
  Ru  Ru17  1  0.619826  0.253244  0.635074  1
