# generated using pymatgen
data_Tm5LuTiAl23Ru8
_symmetry_space_group_name_H-M   'P 1'
_cell_length_a   8.77656417
_cell_length_b   8.77656479
_cell_length_c   9.56054800
_cell_angle_alpha   89.99778665
_cell_angle_beta   90.00221210
_cell_angle_gamma   120.04597428
_symmetry_Int_Tables_number   1
_chemical_formula_structural   Tm5LuTiAl23Ru8
_chemical_formula_sum   'Tm5 Lu1 Ti1 Al23 Ru8'
_cell_volume   637.47202745
_cell_formula_units_Z   1
loop_
 _symmetry_equiv_pos_site_id
 _symmetry_equiv_pos_as_xyz
  1  'x, y, z'
loop_
 _atom_site_type_symbol
 _atom_site_label
 _atom_site_symmetry_multiplicity
 _atom_site_fract_x
 _atom_site_fract_y
 _atom_site_fract_z
 _atom_site_occupancy
  Tm  Tm0  1  0.193916  0.806084  0.250734  1
  Tm  Tm1  1  0.387505  0.193812  0.750134  1
  Tm  Tm2  1  0.612440  0.806078  0.250750  1
  Tm  Tm3  1  0.806188  0.612495  0.750134  1
  Tm  Tm4  1  0.193922  0.387560  0.250750  1
  Lu  Lu5  1  0.805135  0.194865  0.750117  1
  Ti  Ti6  1  0.666757  0.333243  0.001698  1
  Al  Al7  1  0.333352  0.666648  0.019907  1
  Al  Al8  1  0.333429  0.666571  0.478753  1
  Al  Al9  1  0.666687  0.333313  0.521044  1
  Al  Al10  1  0.838097  0.161903  0.422798  1
  Al  Al11  1  0.162866  0.837134  0.577119  1
  Al  Al12  1  0.324059  0.161931  0.422468  1
  Al  Al13  1  0.162751  0.837249  0.921103  1
  Al  Al14  1  0.674515  0.837479  0.577106  1
  Al  Al15  1  0.840949  0.159051  0.077390  1
  Al  Al16  1  0.838069  0.675941  0.422468  1
  Al  Al17  1  0.674793  0.837555  0.921104  1
  Al  Al18  1  0.162521  0.325485  0.577106  1
  Al  Al19  1  0.318392  0.159141  0.077750  1
  Al  Al20  1  0.162445  0.325207  0.921104  1
  Al  Al21  1  0.840859  0.681608  0.077750  1
  Al  Al22  1  0.437944  0.562056  0.748394  1
  Al  Al23  1  0.560259  0.439741  0.249596  1
  Al  Al24  1  0.123868  0.561736  0.748322  1
  Al  Al25  1  0.879597  0.439637  0.249637  1
  Al  Al26  1  0.438264  0.876132  0.748322  1
  Al  Al27  1  0.560363  0.120403  0.249637  1
  Al  Al28  1  0.999179  0.000821  0.749973  1
  Al  Al29  1  0.000089  0.999911  0.249963  1
  Ru  Ru30  1  0.501963  0.498037  0.997688  1
  Ru  Ru31  1  0.995888  0.497628  0.997443  1
  Ru  Ru32  1  0.500630  0.499370  0.498105  1
  Ru  Ru33  1  0.502372  0.004112  0.997443  1
  Ru  Ru34  1  0.998733  0.499101  0.498188  1
  Ru  Ru35  1  0.500899  0.001267  0.498188  1
  Ru  Ru36  1  0.000172  0.999828  0.998756  1
  Ru  Ru37  1  0.000133  0.999867  0.501058  1
