# generated using pymatgen
data_Er5Lu5In8Pt3Rh
_symmetry_space_group_name_H-M   'P 1'
_cell_length_a   3.59970100
_cell_length_b   8.05639227
_cell_length_c   18.03649574
_cell_angle_alpha   89.96186864
_cell_angle_beta   90.00000000
_cell_angle_gamma   90.00000000
_symmetry_Int_Tables_number   1
_chemical_formula_structural   Er5Lu5In8Pt3Rh
_chemical_formula_sum   'Er5 Lu5 In8 Pt3 Rh1'
_cell_volume   523.06914266
_cell_formula_units_Z   1
loop_
 _symmetry_equiv_pos_site_id
 _symmetry_equiv_pos_as_xyz
  1  'x, y, z'
loop_
 _atom_site_type_symbol
 _atom_site_label
 _atom_site_symmetry_multiplicity
 _atom_site_fract_x
 _atom_site_fract_y
 _atom_site_fract_z
 _atom_site_occupancy
  Er  Er0  1  0.000000  0.756600  0.778196  1
  Er  Er1  1  0.000000  0.256442  0.721485  1
  Er  Er2  1  0.000000  0.748476  0.278747  1
  Er  Er3  1  0.000000  0.000588  0.000411  1
  Er  Er4  1  0.000000  0.500735  0.499330  1
  Lu  Lu5  1  0.000000  0.114521  0.411594  1
  Lu  Lu6  1  0.000000  0.883230  0.585581  1
  Lu  Lu7  1  0.000000  0.384603  0.914449  1
  Lu  Lu8  1  0.000000  0.616611  0.087366  1
  Lu  Lu9  1  0.000000  0.240252  0.222584  1
  In  In10  1  0.500000  0.422469  0.352006  1
  In  In11  1  0.500000  0.573966  0.647418  1
  In  In12  1  0.500000  0.075403  0.852457  1
  In  In13  1  0.500000  0.928469  0.149204  1
  In  In14  1  0.500000  0.292570  0.067046  1
  In  In15  1  0.500000  0.708729  0.934084  1
  In  In16  1  0.500000  0.206885  0.565441  1
  In  In17  1  0.500000  0.793929  0.431711  1
  Pt  Pt18  1  0.500000  0.975531  0.695437  1
  Pt  Pt19  1  0.500000  0.475510  0.804661  1
  Pt  Pt20  1  0.500000  0.520853  0.196092  1
  Rh  Rh21  1  0.500000  0.023630  0.304700  1
