# generated using pymatgen
data_Cs4VP12H4Rh3O40
_symmetry_space_group_name_H-M   'P 1'
_cell_length_a   8.84975305
_cell_length_b   9.19477312
_cell_length_c   12.28562700
_cell_angle_alpha   69.04856361
_cell_angle_beta   89.99397892
_cell_angle_gamma   90.00321219
_symmetry_Int_Tables_number   1
_chemical_formula_structural   Cs4VP12H4Rh3O40
_chemical_formula_sum   'Cs4 V1 P12 H4 Rh3 O40'
_cell_volume   933.60324319
_cell_formula_units_Z   1
loop_
 _symmetry_equiv_pos_site_id
 _symmetry_equiv_pos_as_xyz
  1  'x, y, z'
loop_
 _atom_site_type_symbol
 _atom_site_label
 _atom_site_symmetry_multiplicity
 _atom_site_fract_x
 _atom_site_fract_y
 _atom_site_fract_z
 _atom_site_occupancy
  Cs  Cs0  1  0.561982  0.252286  0.498968  1
  Cs  Cs1  1  0.064744  0.250119  0.999869  1
  Cs  Cs2  1  0.435322  0.749847  0.500142  1
  Cs  Cs3  1  0.937992  0.747673  0.001004  1
  V  V4  1  0.250022  0.000023  0.750007  1
  P  P5  1  0.123655  0.252825  0.497737  1
  P  P6  1  0.626198  0.250242  0.000771  1
  P  P7  1  0.873796  0.749783  0.499245  1
  P  P8  1  0.376356  0.747160  0.002261  1
  P  P9  1  0.938955  0.202474  0.707205  1
  P  P10  1  0.441014  0.199943  0.210730  1
  P  P11  1  0.940499  0.300572  0.288317  1
  P  P12  1  0.441406  0.301536  0.791425  1
  P  P13  1  0.058896  0.800026  0.289245  1
  P  P14  1  0.561086  0.797511  0.792805  1
  P  P15  1  0.058573  0.698508  0.708583  1
  P  P16  1  0.559496  0.699417  0.211690  1
  H  H17  1  0.249786  0.999735  0.250153  1
  H  H18  1  0.750085  0.000078  0.749945  1
  H  H19  1  0.749994  0.500007  0.250000  1
  H  H20  1  0.249948  0.500075  0.749960  1
  Rh  Rh21  1  0.750019  0.500022  0.749998  1
  Rh  Rh22  1  0.749974  0.000019  0.249995  1
  Rh  Rh23  1  0.249983  0.499995  0.249994  1
  O  O24  1  0.018247  0.199089  0.413251  1
  O  O25  1  0.518360  0.198630  0.916732  1
  O  O26  1  0.011874  0.304720  0.580221  1
  O  O27  1  0.518888  0.301960  0.085011  1
  O  O28  1  0.981653  0.801404  0.583267  1
  O  O29  1  0.481780  0.800886  0.086744  1
  O  O30  1  0.981148  0.698080  0.414982  1
  O  O31  1  0.488111  0.695250  0.919781  1
  O  O32  1  0.812305  0.108696  0.678023  1
  O  O33  1  0.317496  0.105471  0.178591  1
  O  O34  1  0.816240  0.393709  0.321012  1
  O  O35  1  0.322609  0.401416  0.822695  1
  O  O36  1  0.182449  0.894517  0.321434  1
  O  O37  1  0.687750  0.891270  0.821968  1
  O  O38  1  0.177358  0.598651  0.677286  1
  O  O39  1  0.683794  0.606274  0.179006  1
  O  O40  1  0.890944  0.317845  0.763608  1
  O  O41  1  0.387536  0.315526  0.265001  1
  O  O42  1  0.887971  0.184693  0.233877  1
  O  O43  1  0.375497  0.184504  0.743728  1
  O  O44  1  0.112494  0.684478  0.234999  1
  O  O45  1  0.609086  0.682131  0.736377  1
  O  O46  1  0.124537  0.815582  0.756302  1
  O  O47  1  0.612037  0.815314  0.266114  1
  O  O48  1  0.212276  0.398342  0.427891  1
  O  O49  1  0.717374  0.393176  0.929412  1
  O  O50  1  0.214359  0.112655  0.569987  1
  O  O51  1  0.716504  0.106445  0.071162  1
  O  O52  1  0.782669  0.606837  0.570604  1
  O  O53  1  0.287728  0.601663  0.072097  1
  O  O54  1  0.783487  0.893574  0.428828  1
  O  O55  1  0.285642  0.887358  0.930021  1
  O  O56  1  0.062922  0.400141  0.205836  1
  O  O57  1  0.566439  0.393068  0.707754  1
  O  O58  1  0.063283  0.099820  0.784455  1
  O  O59  1  0.564021  0.101685  0.293105  1
  O  O60  1  0.933552  0.606942  0.792204  1
  O  O61  1  0.437079  0.599853  0.294152  1
  O  O62  1  0.935973  0.898337  0.206876  1
  O  O63  1  0.436746  0.900139  0.715560  1
