# generated using pymatgen
data_Dy2PaOs2
_symmetry_space_group_name_H-M   'P 1'
_cell_length_a   5.88250887
_cell_length_b   5.88250678
_cell_length_c   5.88250780
_cell_angle_alpha   137.06952742
_cell_angle_beta   121.68237323
_cell_angle_gamma   75.08473305
_symmetry_Int_Tables_number   1
_chemical_formula_structural   Dy2PaOs2
_chemical_formula_sum   'Dy2 Pa1 Os2'
_cell_volume   115.10900871
_cell_formula_units_Z   1
loop_
 _symmetry_equiv_pos_site_id
 _symmetry_equiv_pos_as_xyz
  1  'x, y, z'
loop_
 _atom_site_type_symbol
 _atom_site_label
 _atom_site_symmetry_multiplicity
 _atom_site_fract_x
 _atom_site_fract_y
 _atom_site_fract_z
 _atom_site_occupancy
  Dy  Dy0  1  0.697865  0.197866  0.499999  1
  Dy  Dy1  1  0.302134  0.802135  0.500001  1
  Pa  Pa2  1  0.000000  0.000000  0.000000  1
  Os  Os3  1  0.733208  0.500000  0.233208  1
  Os  Os4  1  0.266791  0.500001  0.766792  1
