# generated using pymatgen
data_DyEr(In2Rh)2
_symmetry_space_group_name_H-M   'P 1'
_cell_length_a   5.48715358
_cell_length_b   5.48715431
_cell_length_c   8.29353900
_cell_angle_alpha   90.00000000
_cell_angle_beta   90.00000000
_cell_angle_gamma   135.14673120
_symmetry_Int_Tables_number   1
_chemical_formula_structural   DyEr(In2Rh)2
_chemical_formula_sum   'Dy1 Er1 In4 Rh2'
_cell_volume   176.11815458
_cell_formula_units_Z   1
loop_
 _symmetry_equiv_pos_site_id
 _symmetry_equiv_pos_as_xyz
  1  'x, y, z'
loop_
 _atom_site_type_symbol
 _atom_site_label
 _atom_site_symmetry_multiplicity
 _atom_site_fract_x
 _atom_site_fract_y
 _atom_site_fract_z
 _atom_site_occupancy
  Dy  Dy0  1  0.932422  0.067578  0.750000  1
  Er  Er1  1  0.068346  0.931654  0.250000  1
  In  In2  1  0.643596  0.356404  0.548524  1
  In  In3  1  0.356389  0.643611  0.450869  1
  In  In4  1  0.643596  0.356404  0.951476  1
  In  In5  1  0.356389  0.643611  0.049131  1
  Rh  Rh6  1  0.223090  0.776910  0.750000  1
  Rh  Rh7  1  0.776172  0.223828  0.250000  1
