# generated using pymatgen
data_TbHo2Er9(GaCo2)2
_symmetry_space_group_name_H-M   'P 1'
_cell_length_a   8.22113529
_cell_length_b   8.22113648
_cell_length_c   8.19710204
_cell_angle_alpha   106.91338650
_cell_angle_beta   109.43893487
_cell_angle_gamma   112.21578380
_symmetry_Int_Tables_number   1
_chemical_formula_structural   TbHo2Er9(GaCo2)2
_chemical_formula_sum   'Tb1 Ho2 Er9 Ga2 Co4'
_cell_volume   424.98414147
_cell_formula_units_Z   1
loop_
 _symmetry_equiv_pos_site_id
 _symmetry_equiv_pos_as_xyz
  1  'x, y, z'
loop_
 _atom_site_type_symbol
 _atom_site_label
 _atom_site_symmetry_multiplicity
 _atom_site_fract_x
 _atom_site_fract_y
 _atom_site_fract_z
 _atom_site_occupancy
  Tb  Tb0  1  0.696722  0.263338  0.960061  1
  Ho  Ho1  1  0.300986  0.738206  0.039192  1
  Ho  Ho2  1  0.697677  0.738999  0.436678  1
  Er  Er3  1  0.301564  0.260961  0.562524  1
  Er  Er4  1  0.811777  0.137073  0.326984  1
  Er  Er5  1  0.810680  0.484487  0.672056  1
  Er  Er6  1  0.187569  0.861376  0.672056  1
  Er  Er7  1  0.189911  0.515207  0.326984  1
  Er  Er8  1  0.600583  0.780770  0.819930  1
  Er  Er9  1  0.961708  0.781103  0.180523  1
  Er  Er10  1  0.039162  0.219347  0.819930  1
  Er  Er11  1  0.399421  0.218815  0.180523  1
  Ga  Ga12  1  0.497253  0.502067  0.999320  1
  Ga  Ga13  1  0.498547  0.999447  0.497993  1
  Co  Co14  1  0.840628  0.500733  0.341361  1
  Co  Co15  1  0.162919  0.499258  0.662178  1
  Co  Co16  1  0.004815  0.114679  0.119494  1
  Co  Co17  1  0.998077  0.884135  0.882212  1
