# generated using pymatgen
data_Y3Sc2In3
_symmetry_space_group_name_H-M   'P 1'
_cell_length_a   8.93245801
_cell_length_b   8.93247261
_cell_length_c   6.27681000
_cell_angle_alpha   89.99992622
_cell_angle_beta   90.00011250
_cell_angle_gamma   119.99997044
_symmetry_Int_Tables_number   1
_chemical_formula_structural   Y3Sc2In3
_chemical_formula_sum   'Y6 Sc4 In6'
_cell_volume   433.72296739
_cell_formula_units_Z   2
loop_
 _symmetry_equiv_pos_site_id
 _symmetry_equiv_pos_as_xyz
  1  'x, y, z'
loop_
 _atom_site_type_symbol
 _atom_site_label
 _atom_site_symmetry_multiplicity
 _atom_site_fract_x
 _atom_site_fract_y
 _atom_site_fract_z
 _atom_site_occupancy
  Y  Y0  1  0.236869  0.000073  0.250007  1
  Y  Y1  1  0.763208  0.000078  0.750001  1
  Y  Y2  1  0.999923  0.236797  0.249994  1
  Y  Y3  1  0.763209  0.763133  0.250007  1
  Y  Y4  1  0.236868  0.236788  0.749991  1
  Y  Y5  1  0.999924  0.763127  0.749998  1
  Sc  Sc6  1  0.333330  0.666671  0.000002  1
  Sc  Sc7  1  0.666671  0.333327  0.500000  1
  Sc  Sc8  1  0.666669  0.333330  0.000004  1
  Sc  Sc9  1  0.333329  0.666669  0.500002  1
  In  In10  1  0.591063  0.000585  0.250003  1
  In  In11  1  0.409521  0.000580  0.749998  1
  In  In12  1  0.999423  0.590482  0.250001  1
  In  In13  1  0.409517  0.408942  0.250001  1
  In  In14  1  0.591054  0.590480  0.749999  1
  In  In15  1  0.999417  0.408937  0.749999  1
