# generated using pymatgen
data_La2Sm3Pb3Cl
_symmetry_space_group_name_H-M   'P 1'
_cell_length_a   9.60004300
_cell_length_b   9.58790194
_cell_length_c   6.89687500
_cell_angle_alpha   90.00000000
_cell_angle_beta   90.00000000
_cell_angle_gamma   120.04190772
_symmetry_Int_Tables_number   1
_chemical_formula_structural   La2Sm3Pb3Cl
_chemical_formula_sum   'La4 Sm6 Pb6 Cl2'
_cell_volume   549.53605963
_cell_formula_units_Z   2
loop_
 _symmetry_equiv_pos_site_id
 _symmetry_equiv_pos_as_xyz
  1  'x, y, z'
loop_
 _atom_site_type_symbol
 _atom_site_label
 _atom_site_symmetry_multiplicity
 _atom_site_fract_x
 _atom_site_fract_y
 _atom_site_fract_z
 _atom_site_occupancy
  La  La0  1  0.999192  0.259674  0.250000  1
  La  La1  1  0.000808  0.740326  0.750000  1
  La  La2  1  0.739517  0.740326  0.250000  1
  La  La3  1  0.260483  0.259674  0.750000  1
  Sm  Sm4  1  0.259679  0.000000  0.250000  1
  Sm  Sm5  1  0.740321  0.000000  0.750000  1
  Sm  Sm6  1  0.333762  0.667526  0.000000  1
  Sm  Sm7  1  0.666238  0.332474  0.000000  1
  Sm  Sm8  1  0.666238  0.332474  0.500000  1
  Sm  Sm9  1  0.333762  0.667526  0.500000  1
  Pb  Pb10  1  0.604965  0.000000  0.250000  1
  Pb  Pb11  1  0.395035  0.000000  0.750000  1
  Pb  Pb12  1  0.002952  0.613257  0.250000  1
  Pb  Pb13  1  0.997048  0.386743  0.750000  1
  Pb  Pb14  1  0.389696  0.386743  0.250000  1
  Pb  Pb15  1  0.610304  0.613257  0.750000  1
  Cl  Cl16  1  0.000000  0.000000  0.000000  1
  Cl  Cl17  1  0.000000  0.000000  0.500000  1
