# generated using pymatgen
data_DyEr5Ti2(Co4P3)4
_symmetry_space_group_name_H-M   'P 1'
_cell_length_a   3.67732400
_cell_length_b   10.56239300
_cell_length_c   12.23770600
_cell_angle_alpha   90.00000000
_cell_angle_beta   90.00000000
_cell_angle_gamma   90.00000000
_symmetry_Int_Tables_number   1
_chemical_formula_structural   DyEr5Ti2(Co4P3)4
_chemical_formula_sum   'Dy1 Er5 Ti2 Co16 P12'
_cell_volume   475.32891519
_cell_formula_units_Z   1
loop_
 _symmetry_equiv_pos_site_id
 _symmetry_equiv_pos_as_xyz
  1  'x, y, z'
loop_
 _atom_site_type_symbol
 _atom_site_label
 _atom_site_symmetry_multiplicity
 _atom_site_fract_x
 _atom_site_fract_y
 _atom_site_fract_z
 _atom_site_occupancy
  Dy  Dy0  1  0.750000  0.250000  0.474828  1
  Er  Er1  1  0.250000  0.750000  0.524916  1
  Er  Er2  1  0.250000  0.929914  0.795611  1
  Er  Er3  1  0.250000  0.570086  0.795611  1
  Er  Er4  1  0.750000  0.069981  0.204287  1
  Er  Er5  1  0.750000  0.430019  0.204287  1
  Ti  Ti6  1  0.250000  0.250000  0.846412  1
  Ti  Ti7  1  0.750000  0.750000  0.153875  1
  Co  Co8  1  0.250000  0.250000  0.297288  1
  Co  Co9  1  0.750000  0.750000  0.702061  1
  Co  Co10  1  0.750000  0.250000  0.013307  1
  Co  Co11  1  0.250000  0.750000  0.986682  1
  Co  Co12  1  0.250000  0.417818  0.006382  1
  Co  Co13  1  0.250000  0.082182  0.006382  1
  Co  Co14  1  0.750000  0.582221  0.993600  1
  Co  Co15  1  0.750000  0.917779  0.993600  1
  Co  Co16  1  0.250000  0.454653  0.568347  1
  Co  Co17  1  0.250000  0.045347  0.568347  1
  Co  Co18  1  0.750000  0.546158  0.431812  1
  Co  Co19  1  0.750000  0.953842  0.431812  1
  Co  Co20  1  0.250000  0.871842  0.293914  1
  Co  Co21  1  0.250000  0.628158  0.293914  1
  Co  Co22  1  0.750000  0.127953  0.706273  1
  Co  Co23  1  0.750000  0.372047  0.706273  1
  P  P24  1  0.250000  0.250000  0.117715  1
  P  P25  1  0.750000  0.750000  0.882133  1
  P  P26  1  0.250000  0.250000  0.646963  1
  P  P27  1  0.750000  0.750000  0.353758  1
  P  P28  1  0.250000  0.439305  0.383815  1
  P  P29  1  0.250000  0.060695  0.383815  1
  P  P30  1  0.750000  0.561332  0.615943  1
  P  P31  1  0.750000  0.938668  0.615943  1
  P  P32  1  0.250000  0.907470  0.108149  1
  P  P33  1  0.250000  0.592530  0.108149  1
  P  P34  1  0.750000  0.092478  0.891899  1
  P  P35  1  0.750000  0.407522  0.891899  1
