# generated using pymatgen
data_Sm2VTcB8
_symmetry_space_group_name_H-M   'P 1'
_cell_length_a   6.03475479
_cell_length_b   6.03475367
_cell_length_c   3.60276600
_cell_angle_alpha   90.00000000
_cell_angle_beta   90.00000000
_cell_angle_gamma   104.23859818
_symmetry_Int_Tables_number   1
_chemical_formula_structural   Sm2VTcB8
_chemical_formula_sum   'Sm2 V1 Tc1 B8'
_cell_volume   127.17578508
_cell_formula_units_Z   1
loop_
 _symmetry_equiv_pos_site_id
 _symmetry_equiv_pos_as_xyz
  1  'x, y, z'
loop_
 _atom_site_type_symbol
 _atom_site_label
 _atom_site_symmetry_multiplicity
 _atom_site_fract_x
 _atom_site_fract_y
 _atom_site_fract_z
 _atom_site_occupancy
  Sm  Sm0  1  0.302522  0.699233  0.000000  1
  Sm  Sm1  1  0.699233  0.302522  0.000000  1
  V  V2  1  0.835136  0.835136  0.000000  1
  Tc  Tc3  1  0.164119  0.164119  0.000000  1
  B  B4  1  0.378808  0.066903  0.500000  1
  B  B5  1  0.620861  0.933640  0.500000  1
  B  B6  1  0.066903  0.378808  0.500000  1
  B  B7  1  0.933640  0.620861  0.500000  1
  B  B8  1  0.370245  0.370245  0.500000  1
  B  B9  1  0.628570  0.628570  0.500000  1
  B  B10  1  0.090792  0.909170  0.500000  1
  B  B11  1  0.909170  0.090792  0.500000  1
