# generated using pymatgen
data_Cs13K3(ZrBi4)2
_symmetry_space_group_name_H-M   'P 1'
_cell_length_a   12.41802707
_cell_length_b   12.41802751
_cell_length_c   12.41802700
_cell_angle_alpha   59.29395776
_cell_angle_beta   59.29395655
_cell_angle_gamma   59.29395237
_symmetry_Int_Tables_number   1
_chemical_formula_structural   Cs13K3(ZrBi4)2
_chemical_formula_sum   'Cs13 K3 Zr2 Bi8'
_cell_volume   1332.30547958
_cell_formula_units_Z   1
loop_
 _symmetry_equiv_pos_site_id
 _symmetry_equiv_pos_as_xyz
  1  'x, y, z'
loop_
 _atom_site_type_symbol
 _atom_site_label
 _atom_site_symmetry_multiplicity
 _atom_site_fract_x
 _atom_site_fract_y
 _atom_site_fract_z
 _atom_site_occupancy
  Cs  Cs0  1  0.625000  0.625000  0.625000  1
  Cs  Cs1  1  0.029960  0.473027  0.473027  1
  Cs  Cs2  1  0.778846  0.222152  0.222152  1
  Cs  Cs3  1  0.473027  0.029960  0.473027  1
  Cs  Cs4  1  0.473027  0.473027  0.029960  1
  Cs  Cs5  1  0.027848  0.027848  0.471154  1
  Cs  Cs6  1  0.027848  0.471154  0.027848  1
  Cs  Cs7  1  0.471154  0.027848  0.027848  1
  Cs  Cs8  1  0.776973  0.220040  0.776973  1
  Cs  Cs9  1  0.222152  0.778846  0.222152  1
  Cs  Cs10  1  0.222152  0.222152  0.778846  1
  Cs  Cs11  1  0.776973  0.776973  0.220040  1
  Cs  Cs12  1  0.220040  0.776973  0.776973  1
  K  K13  1  0.625000  0.625000  0.125000  1
  K  K14  1  0.625000  0.125000  0.625000  1
  K  K15  1  0.125000  0.625000  0.625000  1
  Zr  Zr16  1  0.751466  0.751466  0.751466  1
  Zr  Zr17  1  0.498534  0.498534  0.498534  1
  Bi  Bi18  1  0.850606  0.850606  0.458706  1
  Bi  Bi19  1  0.850606  0.458706  0.850606  1
  Bi  Bi20  1  0.399394  0.399394  0.791294  1
  Bi  Bi21  1  0.399394  0.791294  0.399394  1
  Bi  Bi22  1  0.791294  0.399394  0.399394  1
  Bi  Bi23  1  0.847469  0.847469  0.847469  1
  Bi  Bi24  1  0.458706  0.850606  0.850606  1
  Bi  Bi25  1  0.402531  0.402531  0.402531  1
