# generated using pymatgen
data_Hf8Co2RePd
_symmetry_space_group_name_H-M   'P 1'
_cell_length_a   8.63352292
_cell_length_b   8.63352356
_cell_length_c   8.64272800
_cell_angle_alpha   59.96473417
_cell_angle_beta   59.96473171
_cell_angle_gamma   59.88491965
_symmetry_Int_Tables_number   1
_chemical_formula_structural   Hf8Co2RePd
_chemical_formula_sum   'Hf16 Co4 Re2 Pd2'
_cell_volume   454.88490420
_cell_formula_units_Z   2
loop_
 _symmetry_equiv_pos_site_id
 _symmetry_equiv_pos_as_xyz
  1  'x, y, z'
loop_
 _atom_site_type_symbol
 _atom_site_label
 _atom_site_symmetry_multiplicity
 _atom_site_fract_x
 _atom_site_fract_y
 _atom_site_fract_z
 _atom_site_occupancy
  Hf  Hf0  1  0.696448  0.102783  0.100384  1
  Hf  Hf1  1  0.102783  0.696448  0.100384  1
  Hf  Hf2  1  0.103156  0.103156  0.692272  1
  Hf  Hf3  1  0.103156  0.103156  0.101416  1
  Hf  Hf4  1  0.312475  0.312475  0.687525  1
  Hf  Hf5  1  0.686499  0.686499  0.313501  1
  Hf  Hf6  1  0.313693  0.677701  0.314479  1
  Hf  Hf7  1  0.677701  0.313693  0.694128  1
  Hf  Hf8  1  0.677701  0.313693  0.314479  1
  Hf  Hf9  1  0.313693  0.677701  0.694128  1
  Hf  Hf10  1  0.946815  0.946815  0.553185  1
  Hf  Hf11  1  0.547664  0.547664  0.952336  1
  Hf  Hf12  1  0.950792  0.553308  0.943359  1
  Hf  Hf13  1  0.553308  0.950792  0.552541  1
  Hf  Hf14  1  0.553308  0.950792  0.943359  1
  Hf  Hf15  1  0.950792  0.553308  0.552541  1
  Co  Co16  1  0.325513  0.893391  0.890547  1
  Co  Co17  1  0.893391  0.325513  0.890547  1
  Co  Co18  1  0.892540  0.892540  0.327151  1
  Co  Co19  1  0.892540  0.892540  0.887768  1
  Re  Re20  1  0.335334  0.335334  0.998185  1
  Re  Re21  1  0.335334  0.335334  0.331148  1
  Pd  Pd22  1  0.999111  0.336251  0.332319  1
  Pd  Pd23  1  0.336251  0.999111  0.332319  1
