# generated using pymatgen
data_PaTaCo3
_symmetry_space_group_name_H-M   'P 1'
_cell_length_a   5.23133700
_cell_length_b   7.10645600
_cell_length_c   8.15048200
_cell_angle_alpha   90.00000000
_cell_angle_beta   90.00000000
_cell_angle_gamma   90.00000000
_symmetry_Int_Tables_number   1
_chemical_formula_structural   PaTaCo3
_chemical_formula_sum   'Pa4 Ta4 Co12'
_cell_volume   303.00448859
_cell_formula_units_Z   4
loop_
 _symmetry_equiv_pos_site_id
 _symmetry_equiv_pos_as_xyz
  1  'x, y, z'
loop_
 _atom_site_type_symbol
 _atom_site_label
 _atom_site_symmetry_multiplicity
 _atom_site_fract_x
 _atom_site_fract_y
 _atom_site_fract_z
 _atom_site_occupancy
  Pa  Pa0  1  0.750000  0.885592  0.852154  1
  Pa  Pa1  1  0.750000  0.385592  0.647846  1
  Pa  Pa2  1  0.250000  0.114408  0.147846  1
  Pa  Pa3  1  0.250000  0.614408  0.352154  1
  Ta  Ta4  1  0.750000  0.946926  0.412616  1
  Ta  Ta5  1  0.750000  0.446926  0.087384  1
  Ta  Ta6  1  0.250000  0.053074  0.587384  1
  Ta  Ta7  1  0.250000  0.553074  0.912616  1
  Co  Co8  1  0.750000  0.594449  0.367447  1
  Co  Co9  1  0.750000  0.094449  0.132553  1
  Co  Co10  1  0.250000  0.405551  0.632553  1
  Co  Co11  1  0.250000  0.905551  0.867447  1
  Co  Co12  1  0.989635  0.266174  0.376438  1
  Co  Co13  1  0.510365  0.766174  0.123562  1
  Co  Co14  1  0.489635  0.733826  0.623562  1
  Co  Co15  1  0.010365  0.233826  0.876438  1
  Co  Co16  1  0.010365  0.733826  0.623562  1
  Co  Co17  1  0.489635  0.233826  0.876438  1
  Co  Co18  1  0.510365  0.266174  0.376438  1
  Co  Co19  1  0.989635  0.766174  0.123562  1
