# generated using pymatgen
data_Sr2Bi2Ir3RhO14
_symmetry_space_group_name_H-M   'P 1'
_cell_length_a   7.42451699
_cell_length_b   7.40386134
_cell_length_c   7.39544949
_cell_angle_alpha   59.50926443
_cell_angle_beta   59.86990218
_cell_angle_gamma   59.90768070
_symmetry_Int_Tables_number   1
_chemical_formula_structural   Sr2Bi2Ir3RhO14
_chemical_formula_sum   'Sr2 Bi2 Ir3 Rh1 O14'
_cell_volume   285.89902853
_cell_formula_units_Z   1
loop_
 _symmetry_equiv_pos_site_id
 _symmetry_equiv_pos_as_xyz
  1  'x, y, z'
loop_
 _atom_site_type_symbol
 _atom_site_label
 _atom_site_symmetry_multiplicity
 _atom_site_fract_x
 _atom_site_fract_y
 _atom_site_fract_z
 _atom_site_occupancy
  Sr  Sr0  1  0.125000  0.625000  0.125000  1
  Sr  Sr1  1  0.125000  0.125000  0.625000  1
  Bi  Bi2  1  0.125000  0.125000  0.125000  1
  Bi  Bi3  1  0.625000  0.125000  0.125000  1
  Ir  Ir4  1  0.625000  0.625000  0.625000  1
  Ir  Ir5  1  0.625000  0.625000  0.125000  1
  Ir  Ir6  1  0.125000  0.625000  0.625000  1
  Rh  Rh7  1  0.625000  0.125000  0.625000  1
  O  O8  1  0.262707  0.238489  0.236097  1
  O  O9  1  0.301033  0.707352  0.297726  1
  O  O10  1  0.954967  0.951107  0.538255  1
  O  O11  1  0.555672  0.951107  0.538255  1
  O  O12  1  0.693889  0.707352  0.297726  1
  O  O13  1  0.946346  0.556730  0.550577  1
  O  O14  1  0.694328  0.298893  0.711745  1
  O  O15  1  0.295033  0.298893  0.711745  1
  O  O16  1  0.703612  0.299000  0.293776  1
  O  O17  1  0.303654  0.693270  0.699423  1
  O  O18  1  0.948967  0.542648  0.952274  1
  O  O19  1  0.556111  0.542648  0.952274  1
  O  O20  1  0.987293  0.011511  0.013903  1
  O  O21  1  0.546388  0.951000  0.956224  1
