# generated using pymatgen
data_Ba8Ir3OsO20
_symmetry_space_group_name_H-M   'P 1'
_cell_length_a   5.74876900
_cell_length_b   7.46580750
_cell_length_c   11.74201590
_cell_angle_alpha   89.96635057
_cell_angle_beta   90.00000000
_cell_angle_gamma   90.00000000
_symmetry_Int_Tables_number   1
_chemical_formula_structural   Ba8Ir3OsO20
_chemical_formula_sum   'Ba8 Ir3 Os1 O20'
_cell_volume   503.95787387
_cell_formula_units_Z   1
loop_
 _symmetry_equiv_pos_site_id
 _symmetry_equiv_pos_as_xyz
  1  'x, y, z'
loop_
 _atom_site_type_symbol
 _atom_site_label
 _atom_site_symmetry_multiplicity
 _atom_site_fract_x
 _atom_site_fract_y
 _atom_site_fract_z
 _atom_site_occupancy
  Ba  Ba0  1  0.750000  0.482742  0.283279  1
  Ba  Ba1  1  0.250000  0.526270  0.714048  1
  Ba  Ba2  1  0.750000  0.978456  0.209079  1
  Ba  Ba3  1  0.250000  0.020959  0.791767  1
  Ba  Ba4  1  0.750000  0.156175  0.584833  1
  Ba  Ba5  1  0.250000  0.829540  0.417899  1
  Ba  Ba6  1  0.750000  0.664019  0.921464  1
  Ba  Ba7  1  0.250000  0.338613  0.075478  1
  Ir  Ir8  1  0.750000  0.170847  0.937366  1
  Ir  Ir9  1  0.250000  0.830661  0.064135  1
  Ir  Ir10  1  0.750000  0.667308  0.559136  1
  Os  Os11  1  0.250000  0.330387  0.439534  1
  O  O12  1  0.484837  0.178487  0.388185  1
  O  O13  1  0.991416  0.822892  0.612375  1
  O  O14  1  0.007276  0.677817  0.118715  1
  O  O15  1  0.507165  0.322478  0.882343  1
  O  O16  1  0.508584  0.822892  0.612375  1
  O  O17  1  0.015163  0.178487  0.388185  1
  O  O18  1  0.992835  0.322478  0.882343  1
  O  O19  1  0.492724  0.677817  0.118715  1
  O  O20  1  0.495458  0.497214  0.498215  1
  O  O21  1  0.004542  0.497214  0.498215  1
  O  O22  1  0.000399  0.000707  0.000647  1
  O  O23  1  0.499601  0.000707  0.000647  1
  O  O24  1  0.750000  0.290435  0.089389  1
  O  O25  1  0.250000  0.711109  0.912159  1
  O  O26  1  0.750000  0.785385  0.405548  1
  O  O27  1  0.250000  0.220417  0.590187  1
  O  O28  1  0.750000  0.026757  0.802390  1
  O  O29  1  0.250000  0.974691  0.199347  1
  O  O30  1  0.750000  0.527492  0.696287  1
  O  O31  1  0.250000  0.468545  0.305716  1
