# generated using pymatgen
data_NaLa(SeO4)2
_symmetry_space_group_name_H-M   'P 1'
_cell_length_a   7.30384169
_cell_length_b   6.74790057
_cell_length_c   7.55599331
_cell_angle_alpha   96.70694035
_cell_angle_beta   98.92010065
_cell_angle_gamma   90.11254927
_symmetry_Int_Tables_number   1
_chemical_formula_structural   NaLa(SeO4)2
_chemical_formula_sum   'Na2 La2 Se4 O16'
_cell_volume   365.30346067
_cell_formula_units_Z   2
loop_
 _symmetry_equiv_pos_site_id
 _symmetry_equiv_pos_as_xyz
  1  'x, y, z'
loop_
 _atom_site_type_symbol
 _atom_site_label
 _atom_site_symmetry_multiplicity
 _atom_site_fract_x
 _atom_site_fract_y
 _atom_site_fract_z
 _atom_site_occupancy
  Na  Na0  1  0.689853  0.059604  0.285255  1
  Na  Na1  1  0.310146  0.940395  0.714738  1
  La  La2  1  0.194628  0.359517  0.202338  1
  La  La3  1  0.805369  0.640485  0.797667  1
  Se  Se4  1  0.183370  0.867799  0.215368  1
  Se  Se5  1  0.713568  0.563719  0.286152  1
  Se  Se6  1  0.286431  0.436279  0.713846  1
  Se  Se7  1  0.816631  0.132203  0.784634  1
  O  O8  1  0.106089  0.681689  0.050275  1
  O  O9  1  0.705475  0.700487  0.114311  1
  O  O10  1  0.347427  0.010177  0.155713  1
  O  O11  1  0.017361  0.032798  0.247710  1
  O  O12  1  0.536613  0.398036  0.249278  1
  O  O13  1  0.905606  0.430656  0.314659  1
  O  O14  1  0.262601  0.743368  0.388373  1
  O  O15  1  0.707256  0.721897  0.472866  1
  O  O16  1  0.292746  0.278102  0.527132  1
  O  O17  1  0.737403  0.256635  0.611629  1
  O  O18  1  0.094393  0.569343  0.685338  1
  O  O19  1  0.463388  0.601958  0.750718  1
  O  O20  1  0.982640  0.967202  0.752293  1
  O  O21  1  0.652573  0.989827  0.844289  1
  O  O22  1  0.294523  0.299513  0.885688  1
  O  O23  1  0.893913  0.318309  0.949729  1
