# generated using pymatgen
data_Li3Pr4Ag(AsP)4
_symmetry_space_group_name_H-M   'P 1'
_cell_length_a   3.93862700
_cell_length_b   3.96701100
_cell_length_c   21.21643703
_cell_angle_alpha   89.99686747
_cell_angle_beta   90.00000000
_cell_angle_gamma   90.00000000
_symmetry_Int_Tables_number   1
_chemical_formula_structural   Li3Pr4Ag(AsP)4
_chemical_formula_sum   'Li3 Pr4 Ag1 As4 P4'
_cell_volume   331.49784572
_cell_formula_units_Z   1
loop_
 _symmetry_equiv_pos_site_id
 _symmetry_equiv_pos_as_xyz
  1  'x, y, z'
loop_
 _atom_site_type_symbol
 _atom_site_label
 _atom_site_symmetry_multiplicity
 _atom_site_fract_x
 _atom_site_fract_y
 _atom_site_fract_z
 _atom_site_occupancy
  Li  Li0  1  0.250000  0.225269  0.249977  1
  Li  Li1  1  0.750000  0.725274  0.250016  1
  Li  Li2  1  0.750000  0.774944  0.750027  1
  Pr  Pr3  1  0.250000  0.770774  0.618429  1
  Pr  Pr4  1  0.750000  0.229050  0.379969  1
  Pr  Pr5  1  0.750000  0.272287  0.881543  1
  Pr  Pr6  1  0.250000  0.729116  0.120019  1
  Ag  Ag7  1  0.250000  0.275530  0.750258  1
  As  As8  1  0.250000  0.288761  0.500770  1
  As  As9  1  0.250000  0.209973  0.001610  1
  As  As10  1  0.750000  0.789208  0.998997  1
  As  As11  1  0.750000  0.710577  0.498473  1
  P  P12  1  0.250000  0.774634  0.830617  1
  P  P13  1  0.750000  0.225504  0.173512  1
  P  P14  1  0.750000  0.273467  0.669327  1
  P  P15  1  0.250000  0.725631  0.326455  1
