# generated using pymatgen
data_Sr2Pt(RhO4)2
_symmetry_space_group_name_H-M   'P 1'
_cell_length_a   6.63037394
_cell_length_b   6.63037301
_cell_length_c   5.39701920
_cell_angle_alpha   72.08680390
_cell_angle_beta   72.08680859
_cell_angle_gamma   57.20327465
_symmetry_Int_Tables_number   1
_chemical_formula_structural   Sr2Pt(RhO4)2
_chemical_formula_sum   'Sr2 Pt1 Rh2 O8'
_cell_volume   186.80353020
_cell_formula_units_Z   1
loop_
 _symmetry_equiv_pos_site_id
 _symmetry_equiv_pos_as_xyz
  1  'x, y, z'
loop_
 _atom_site_type_symbol
 _atom_site_label
 _atom_site_symmetry_multiplicity
 _atom_site_fract_x
 _atom_site_fract_y
 _atom_site_fract_z
 _atom_site_occupancy
  Sr  Sr0  1  0.720513  0.720513  0.330867  1
  Sr  Sr1  1  0.279487  0.279487  0.669133  1
  Pt  Pt2  1  0.000000  0.000000  0.500000  1
  Rh  Rh3  1  0.743679  0.256321  0.000000  1
  Rh  Rh4  1  0.256321  0.743679  0.000000  1
  O  O5  1  0.402458  0.402458  0.955873  1
  O  O6  1  0.597542  0.597542  0.044127  1
  O  O7  1  0.906828  0.906828  0.902968  1
  O  O8  1  0.093172  0.093172  0.097032  1
  O  O9  1  0.320178  0.881936  0.611327  1
  O  O10  1  0.881936  0.320178  0.611327  1
  O  O11  1  0.118064  0.679822  0.388673  1
  O  O12  1  0.679822  0.118064  0.388673  1
