# generated using pymatgen
data_Rb2Ta6PbBr18
_symmetry_space_group_name_H-M   'P 1'
_cell_length_a   10.99850082
_cell_length_b   10.99850222
_cell_length_c   10.99850105
_cell_angle_alpha   54.98593041
_cell_angle_beta   54.98592374
_cell_angle_gamma   54.98592124
_symmetry_Int_Tables_number   1
_chemical_formula_structural   Rb2Ta6PbBr18
_chemical_formula_sum   'Rb2 Ta6 Pb1 Br18'
_cell_volume   831.01514587
_cell_formula_units_Z   1
loop_
 _symmetry_equiv_pos_site_id
 _symmetry_equiv_pos_as_xyz
  1  'x, y, z'
loop_
 _atom_site_type_symbol
 _atom_site_label
 _atom_site_symmetry_multiplicity
 _atom_site_fract_x
 _atom_site_fract_y
 _atom_site_fract_z
 _atom_site_occupancy
  Rb  Rb0  1  0.276800  0.276800  0.276800  1
  Rb  Rb1  1  0.723200  0.723200  0.723200  1
  Ta  Ta2  1  0.423429  0.310255  0.638246  1
  Ta  Ta3  1  0.361754  0.576571  0.689745  1
  Ta  Ta4  1  0.689745  0.361754  0.576571  1
  Ta  Ta5  1  0.638246  0.423429  0.310255  1
  Ta  Ta6  1  0.576571  0.689745  0.361754  1
  Ta  Ta7  1  0.310255  0.638246  0.423429  1
  Pb  Pb8  1  0.000000  0.000000  0.000000  1
  Br  Br9  1  0.639386  0.093732  0.768237  1
  Br  Br10  1  0.768237  0.639386  0.093732  1
  Br  Br11  1  0.093732  0.768237  0.639386  1
  Br  Br12  1  0.825919  0.323857  0.041779  1
  Br  Br13  1  0.168712  0.435154  0.576797  1
  Br  Br14  1  0.676143  0.958221  0.174081  1
  Br  Br15  1  0.906268  0.231763  0.360614  1
  Br  Br16  1  0.564846  0.423203  0.831288  1
  Br  Br17  1  0.423203  0.831288  0.564846  1
  Br  Br18  1  0.958221  0.174081  0.676143  1
  Br  Br19  1  0.174081  0.676143  0.958221  1
  Br  Br20  1  0.041779  0.825919  0.323857  1
  Br  Br21  1  0.323857  0.041779  0.825919  1
  Br  Br22  1  0.231763  0.360614  0.906268  1
  Br  Br23  1  0.576797  0.168712  0.435154  1
  Br  Br24  1  0.435154  0.576797  0.168712  1
  Br  Br25  1  0.360614  0.906268  0.231763  1
  Br  Br26  1  0.831288  0.564846  0.423203  1
