# generated using pymatgen
data_LuNbP7Ru12
_symmetry_space_group_name_H-M   'P 1'
_cell_length_a   9.38219200
_cell_length_b   9.38219097
_cell_length_c   3.89612500
_cell_angle_alpha   90.00000000
_cell_angle_beta   90.00000000
_cell_angle_gamma   119.99999659
_symmetry_Int_Tables_number   1
_chemical_formula_structural   LuNbP7Ru12
_chemical_formula_sum   'Lu1 Nb1 P7 Ru12'
_cell_volume   297.01071225
_cell_formula_units_Z   1
loop_
 _symmetry_equiv_pos_site_id
 _symmetry_equiv_pos_as_xyz
  1  'x, y, z'
loop_
 _atom_site_type_symbol
 _atom_site_label
 _atom_site_symmetry_multiplicity
 _atom_site_fract_x
 _atom_site_fract_y
 _atom_site_fract_z
 _atom_site_occupancy
  Lu  Lu0  1  0.333333  0.666667  0.000000  1
  Nb  Nb1  1  0.666667  0.333333  0.500000  1
  P  P2  1  0.596518  0.719095  0.500000  1
  P  P3  1  0.000000  0.000000  0.000000  1
  P  P4  1  0.280905  0.877423  0.500000  1
  P  P5  1  0.122577  0.403482  0.500000  1
  P  P6  1  0.886132  0.575033  0.000000  1
  P  P7  1  0.424967  0.311099  0.000000  1
  P  P8  1  0.688901  0.113868  0.000000  1
  Ru  Ru9  1  0.556578  0.954112  0.500000  1
  Ru  Ru10  1  0.397534  0.443422  0.500000  1
  Ru  Ru11  1  0.912961  0.124989  0.500000  1
  Ru  Ru12  1  0.212028  0.087039  0.500000  1
  Ru  Ru13  1  0.875011  0.787972  0.500000  1
  Ru  Ru14  1  0.725730  0.887933  0.000000  1
  Ru  Ru15  1  0.112067  0.837796  0.000000  1
  Ru  Ru16  1  0.162204  0.274270  0.000000  1
  Ru  Ru17  1  0.432219  0.077886  0.000000  1
  Ru  Ru18  1  0.922114  0.354334  0.000000  1
  Ru  Ru19  1  0.645666  0.567781  0.000000  1
  Ru  Ru20  1  0.045888  0.602466  0.500000  1
