# generated using pymatgen
data_CeHo3(Th5Ir3)2
_symmetry_space_group_name_H-M   'P 1'
_cell_length_a   9.96206893
_cell_length_b   9.97289661
_cell_length_c   6.35051998
_cell_angle_alpha   90.45338079
_cell_angle_beta   89.86041870
_cell_angle_gamma   119.95520056
_symmetry_Int_Tables_number   1
_chemical_formula_structural   CeHo3(Th5Ir3)2
_chemical_formula_sum   'Ce1 Ho3 Th10 Ir6'
_cell_volume   546.62865341
_cell_formula_units_Z   1
loop_
 _symmetry_equiv_pos_site_id
 _symmetry_equiv_pos_as_xyz
  1  'x, y, z'
loop_
 _atom_site_type_symbol
 _atom_site_label
 _atom_site_symmetry_multiplicity
 _atom_site_fract_x
 _atom_site_fract_y
 _atom_site_fract_z
 _atom_site_occupancy
  Ce  Ce0  1  0.254271  0.129584  0.501491  1
  Ho  Ho1  1  0.459786  0.539784  0.295630  1
  Ho  Ho2  1  0.077165  0.537647  0.303397  1
  Ho  Ho3  1  0.924012  0.462440  0.804832  1
  Th  Th4  1  0.541921  0.085363  0.791590  1
  Th  Th5  1  0.746129  0.873398  0.001952  1
  Th  Th6  1  0.664779  0.331238  0.293457  1
  Th  Th7  1  0.127456  0.869697  0.001411  1
  Th  Th8  1  0.455764  0.911323  0.289284  1
  Th  Th9  1  0.540433  0.456900  0.794779  1
  Th  Th10  1  0.874859  0.131529  0.504617  1
  Th  Th11  1  0.127205  0.257460  0.002354  1
  Th  Th12  1  0.869737  0.740290  0.501225  1
  Th  Th13  1  0.334226  0.667317  0.782383  1
  Ir  Ir14  1  0.810497  0.623535  0.054605  1
  Ir  Ir15  1  0.812933  0.188656  0.053969  1
  Ir  Ir16  1  0.626826  0.816028  0.549273  1
  Ir  Ir17  1  0.377050  0.190436  0.052145  1
  Ir  Ir18  1  0.185927  0.372768  0.553782  1
  Ir  Ir19  1  0.189023  0.814608  0.551827  1
