# generated using pymatgen
data_Nd4Sn4Sb2Rh7
_symmetry_space_group_name_H-M   'P 1'
_cell_length_a   7.73886244
_cell_length_b   7.74296954
_cell_length_c   7.73886427
_cell_angle_alpha   109.50532006
_cell_angle_beta   109.38153063
_cell_angle_gamma   109.50531786
_symmetry_Int_Tables_number   1
_chemical_formula_structural   Nd4Sn4Sb2Rh7
_chemical_formula_sum   'Nd4 Sn4 Sb2 Rh7'
_cell_volume   357.07106284
_cell_formula_units_Z   1
loop_
 _symmetry_equiv_pos_site_id
 _symmetry_equiv_pos_as_xyz
  1  'x, y, z'
loop_
 _atom_site_type_symbol
 _atom_site_label
 _atom_site_symmetry_multiplicity
 _atom_site_fract_x
 _atom_site_fract_y
 _atom_site_fract_z
 _atom_site_occupancy
  Nd  Nd0  1  0.499074  0.998147  0.999074  1
  Nd  Nd1  1  0.998995  0.492647  0.998995  1
  Nd  Nd2  1  0.999074  0.998147  0.499074  1
  Nd  Nd3  1  0.493654  0.492647  0.493654  1
  Sn  Sn4  1  0.318526  0.994478  0.318526  1
  Sn  Sn5  1  0.997054  0.683227  0.686174  1
  Sn  Sn6  1  0.686174  0.683227  0.997054  1
  Sn  Sn7  1  0.675951  0.994478  0.675951  1
  Sb  Sb8  1  0.997495  0.323237  0.325742  1
  Sb  Sb9  1  0.325742  0.323237  0.997495  1
  Rh  Rh10  1  0.251436  0.502872  0.751436  1
  Rh  Rh11  1  0.501520  0.250680  0.749160  1
  Rh  Rh12  1  0.749160  0.250680  0.501520  1
  Rh  Rh13  1  0.501450  0.748218  0.246769  1
  Rh  Rh14  1  0.006492  0.012985  0.006492  1
  Rh  Rh15  1  0.246769  0.748218  0.501450  1
  Rh  Rh16  1  0.751436  0.502872  0.251436  1
