# generated using pymatgen
data_Dy5Er11In4RuRh3
_symmetry_space_group_name_H-M   'P 1'
_cell_length_a   9.61461621
_cell_length_b   9.60690454
_cell_length_c   9.62569772
_cell_angle_alpha   59.88634550
_cell_angle_beta   59.82629199
_cell_angle_gamma   59.95498295
_symmetry_Int_Tables_number   1
_chemical_formula_structural   Dy5Er11In4RuRh3
_chemical_formula_sum   'Dy5 Er11 In4 Ru1 Rh3'
_cell_volume   627.10243474
_cell_formula_units_Z   1
loop_
 _symmetry_equiv_pos_site_id
 _symmetry_equiv_pos_as_xyz
  1  'x, y, z'
loop_
 _atom_site_type_symbol
 _atom_site_label
 _atom_site_symmetry_multiplicity
 _atom_site_fract_x
 _atom_site_fract_y
 _atom_site_fract_z
 _atom_site_occupancy
  Dy  Dy0  1  0.187824  0.192232  0.811031  1
  Dy  Dy1  1  0.438751  0.060412  0.061751  1
  Dy  Dy2  1  0.436409  0.063195  0.436064  1
  Dy  Dy3  1  0.060439  0.438458  0.061165  1
  Dy  Dy4  1  0.649288  0.048879  0.649371  1
  Er  Er5  1  0.192438  0.808469  0.809257  1
  Er  Er6  1  0.060213  0.059629  0.439485  1
  Er  Er7  1  0.809974  0.192805  0.189000  1
  Er  Er8  1  0.810174  0.808810  0.191846  1
  Er  Er9  1  0.652096  0.649185  0.046569  1
  Er  Er10  1  0.652247  0.651251  0.650683  1
  Er  Er11  1  0.059849  0.437241  0.441907  1
  Er  Er12  1  0.045568  0.649119  0.651651  1
  Er  Er13  1  0.809495  0.193648  0.809192  1
  Er  Er14  1  0.443856  0.438531  0.058550  1
  Er  Er15  1  0.191457  0.807437  0.192250  1
  In  In16  1  0.418153  0.747004  0.417963  1
  In  In17  1  0.416956  0.417810  0.748821  1
  In  In18  1  0.749527  0.416988  0.417031  1
  In  In19  1  0.415803  0.418864  0.416211  1
  Ru  Ru20  1  0.855408  0.425190  0.858159  1
  Rh  Rh21  1  0.860049  0.859584  0.422491  1
  Rh  Rh22  1  0.424312  0.855665  0.861237  1
  Rh  Rh23  1  0.859716  0.859591  0.858317  1
