# generated using pymatgen
data_Yb4AlNi(RuO6)2
_symmetry_space_group_name_H-M   'P 1'
_cell_length_a   5.29033624
_cell_length_b   5.48324055
_cell_length_c   7.55266106
_cell_angle_alpha   90.33975480
_cell_angle_beta   90.14534039
_cell_angle_gamma   89.92943653
_symmetry_Int_Tables_number   1
_chemical_formula_structural   Yb4AlNi(RuO6)2
_chemical_formula_sum   'Yb4 Al1 Ni1 Ru2 O12'
_cell_volume   219.08427963
_cell_formula_units_Z   1
loop_
 _symmetry_equiv_pos_site_id
 _symmetry_equiv_pos_as_xyz
  1  'x, y, z'
loop_
 _atom_site_type_symbol
 _atom_site_label
 _atom_site_symmetry_multiplicity
 _atom_site_fract_x
 _atom_site_fract_y
 _atom_site_fract_z
 _atom_site_occupancy
  Yb  Yb0  1  0.517060  0.559820  0.250165  1
  Yb  Yb1  1  0.986364  0.062871  0.252715  1
  Yb  Yb2  1  0.482940  0.440180  0.749835  1
  Yb  Yb3  1  0.013636  0.937129  0.747285  1
  Al  Al4  1  0.500000  0.000000  0.000000  1
  Ni  Ni5  1  0.000000  0.500000  0.500000  1
  Ru  Ru6  1  0.000000  0.500000  0.000000  1
  Ru  Ru7  1  0.500000  0.000000  0.500000  1
  O  O8  1  0.410615  0.975788  0.244204  1
  O  O9  1  0.094049  0.476255  0.244237  1
  O  O10  1  0.589385  0.024212  0.755796  1
  O  O11  1  0.905951  0.523745  0.755763  1
  O  O12  1  0.792398  0.796427  0.048444  1
  O  O13  1  0.686533  0.294174  0.453667  1
  O  O14  1  0.200632  0.190824  0.546205  1
  O  O15  1  0.298484  0.710834  0.952213  1
  O  O16  1  0.207602  0.203573  0.951556  1
  O  O17  1  0.313467  0.705826  0.546333  1
  O  O18  1  0.799368  0.809176  0.453795  1
  O  O19  1  0.701516  0.289166  0.047787  1
