# generated using pymatgen
data_Rb5Bi(MoH9)3
_symmetry_space_group_name_H-M   'P 1'
_cell_length_a   9.85071020
_cell_length_b   9.19401217
_cell_length_c   5.62443400
_cell_angle_alpha   90.00000000
_cell_angle_beta   90.00000000
_cell_angle_gamma   117.81821023
_symmetry_Int_Tables_number   1
_chemical_formula_structural   Rb5Bi(MoH9)3
_chemical_formula_sum   'Rb5 Bi1 Mo3 H27'
_cell_volume   450.52223820
_cell_formula_units_Z   1
loop_
 _symmetry_equiv_pos_site_id
 _symmetry_equiv_pos_as_xyz
  1  'x, y, z'
loop_
 _atom_site_type_symbol
 _atom_site_label
 _atom_site_symmetry_multiplicity
 _atom_site_fract_x
 _atom_site_fract_y
 _atom_site_fract_z
 _atom_site_occupancy
  Rb  Rb0  1  0.737419  0.756056  0.500000  1
  Rb  Rb1  1  0.262581  0.018637  0.500000  1
  Rb  Rb2  1  0.000000  0.619989  0.000000  1
  Rb  Rb3  1  0.424295  0.390440  0.000000  1
  Rb  Rb4  1  0.575705  0.966146  0.000000  1
  Bi  Bi5  1  0.000000  0.286274  0.500000  1
  Mo  Mo6  1  0.711291  0.314537  0.500000  1
  Mo  Mo7  1  0.288709  0.603246  0.500000  1
  Mo  Mo8  1  0.000000  0.053090  0.000000  1
  H  H9  1  0.793883  0.302387  0.772740  1
  H  H10  1  0.727537  0.459847  0.711239  1
  H  H11  1  0.562595  0.201210  0.700290  1
  H  H12  1  0.206117  0.508505  0.227260  1
  H  H13  1  0.562595  0.201210  0.299710  1
  H  H14  1  0.793883  0.302387  0.227260  1
  H  H15  1  0.727537  0.459847  0.288761  1
  H  H16  1  0.272463  0.732311  0.711239  1
  H  H17  1  0.437405  0.638615  0.700290  1
  H  H18  1  0.173406  0.045737  0.000000  1
  H  H19  1  0.826594  0.872331  0.000000  1
  H  H20  1  0.000000  0.243684  0.000000  1
  H  H21  1  0.874335  0.055782  0.225169  1
  H  H22  1  0.125665  0.181447  0.774831  1
  H  H23  1  0.000000  0.915010  0.784253  1
  H  H24  1  0.000000  0.915010  0.215747  1
  H  H25  1  0.125665  0.181447  0.225169  1
  H  H26  1  0.874335  0.055782  0.774831  1
  H  H27  1  0.118121  0.615415  0.500000  1
  H  H28  1  0.429281  0.806159  0.500000  1
  H  H29  1  0.331726  0.437792  0.500000  1
  H  H30  1  0.570719  0.376879  0.500000  1
  H  H31  1  0.881879  0.497295  0.500000  1
  H  H32  1  0.668274  0.106066  0.500000  1
  H  H33  1  0.206117  0.508505  0.772740  1
  H  H34  1  0.272463  0.732311  0.288761  1
  H  H35  1  0.437405  0.638615  0.299710  1
