# generated using pymatgen
data_HoLu(NbS2)8
_symmetry_space_group_name_H-M   'P 1'
_cell_length_a   6.68394500
_cell_length_b   6.68394734
_cell_length_c   13.45554900
_cell_angle_alpha   90.00000000
_cell_angle_beta   90.00000000
_cell_angle_gamma   120.00000328
_symmetry_Int_Tables_number   1
_chemical_formula_structural   HoLu(NbS2)8
_chemical_formula_sum   'Ho1 Lu1 Nb8 S16'
_cell_volume   520.59252320
_cell_formula_units_Z   1
loop_
 _symmetry_equiv_pos_site_id
 _symmetry_equiv_pos_as_xyz
  1  'x, y, z'
loop_
 _atom_site_type_symbol
 _atom_site_label
 _atom_site_symmetry_multiplicity
 _atom_site_fract_x
 _atom_site_fract_y
 _atom_site_fract_z
 _atom_site_occupancy
  Ho  Ho0  1  0.000000  0.000000  0.000000  1
  Lu  Lu1  1  0.000000  0.000000  0.500000  1
  Nb  Nb2  1  0.000000  0.000000  0.253688  1
  Nb  Nb3  1  0.000000  0.000000  0.746312  1
  Nb  Nb4  1  0.504869  0.009737  0.253743  1
  Nb  Nb5  1  0.495131  0.990263  0.746257  1
  Nb  Nb6  1  0.990263  0.495131  0.253743  1
  Nb  Nb7  1  0.009737  0.504869  0.746257  1
  Nb  Nb8  1  0.504869  0.495131  0.253743  1
  Nb  Nb9  1  0.495131  0.504869  0.746257  1
  S  S10  1  0.333333  0.666667  0.626858  1
  S  S11  1  0.666667  0.333333  0.373142  1
  S  S12  1  0.666667  0.333333  0.134224  1
  S  S13  1  0.333333  0.666667  0.865776  1
  S  S14  1  0.168970  0.337940  0.137139  1
  S  S15  1  0.831030  0.662060  0.862861  1
  S  S16  1  0.662060  0.831030  0.137139  1
  S  S17  1  0.830510  0.661019  0.629692  1
  S  S18  1  0.337940  0.168970  0.862861  1
  S  S19  1  0.169490  0.338981  0.370308  1
  S  S20  1  0.168970  0.831030  0.137139  1
  S  S21  1  0.338981  0.169490  0.629692  1
  S  S22  1  0.831030  0.168970  0.862861  1
  S  S23  1  0.661019  0.830510  0.370308  1
  S  S24  1  0.830510  0.169490  0.629692  1
  S  S25  1  0.169490  0.830510  0.370308  1
