# generated using pymatgen
data_Yb3Er5Si8(PdPt)4
_symmetry_space_group_name_H-M   'P 1'
_cell_length_a   4.28550900
_cell_length_b   7.39871223
_cell_length_c   14.04106973
_cell_angle_alpha   89.94855398
_cell_angle_beta   90.00000000
_cell_angle_gamma   90.00000000
_symmetry_Int_Tables_number   1
_chemical_formula_structural   Yb3Er5Si8(PdPt)4
_chemical_formula_sum   'Yb3 Er5 Si8 Pd4 Pt4'
_cell_volume   445.20349828
_cell_formula_units_Z   1
loop_
 _symmetry_equiv_pos_site_id
 _symmetry_equiv_pos_as_xyz
  1  'x, y, z'
loop_
 _atom_site_type_symbol
 _atom_site_label
 _atom_site_symmetry_multiplicity
 _atom_site_fract_x
 _atom_site_fract_y
 _atom_site_fract_z
 _atom_site_occupancy
  Yb  Yb0  1  0.000000  0.201431  0.248901  1
  Yb  Yb1  1  0.500000  0.798796  0.251225  1
  Yb  Yb2  1  0.000000  0.204889  0.750869  1
  Er  Er3  1  0.000000  0.298507  0.999757  1
  Er  Er4  1  0.500000  0.700920  0.498986  1
  Er  Er5  1  0.000000  0.292388  0.499673  1
  Er  Er6  1  0.500000  0.706322  0.000936  1
  Er  Er7  1  0.500000  0.797352  0.749630  1
  Si  Si8  1  0.000000  0.907513  0.592889  1
  Si  Si9  1  0.500000  0.091329  0.908293  1
  Si  Si10  1  0.000000  0.909336  0.409985  1
  Si  Si11  1  0.500000  0.089918  0.090593  1
  Si  Si12  1  0.000000  0.593170  0.143391  1
  Si  Si13  1  0.500000  0.406150  0.357133  1
  Si  Si14  1  0.000000  0.594131  0.854636  1
  Si  Si15  1  0.500000  0.407705  0.641900  1
  Pd  Pd16  1  0.500000  0.420062  0.156761  1
  Pd  Pd17  1  0.000000  0.579567  0.342515  1
  Pd  Pd18  1  0.500000  0.421454  0.842950  1
  Pd  Pd19  1  0.000000  0.580567  0.658617  1
  Pt  Pt20  1  0.500000  0.078881  0.608096  1
  Pt  Pt21  1  0.000000  0.920395  0.892361  1
  Pt  Pt22  1  0.500000  0.081133  0.395754  1
  Pt  Pt23  1  0.000000  0.918085  0.104148  1
