# generated using pymatgen
data_Tb7Hf9(Si4Mo)4
_symmetry_space_group_name_H-M   'P 1'
_cell_length_a   7.15640205
_cell_length_b   7.15112704
_cell_length_c   13.06900511
_cell_angle_alpha   90.13899348
_cell_angle_beta   90.03397234
_cell_angle_gamma   89.94801575
_symmetry_Int_Tables_number   1
_chemical_formula_structural   Tb7Hf9(Si4Mo)4
_chemical_formula_sum   'Tb7 Hf9 Si16 Mo4'
_cell_volume   668.82149141
_cell_formula_units_Z   1
loop_
 _symmetry_equiv_pos_site_id
 _symmetry_equiv_pos_as_xyz
  1  'x, y, z'
loop_
 _atom_site_type_symbol
 _atom_site_label
 _atom_site_symmetry_multiplicity
 _atom_site_fract_x
 _atom_site_fract_y
 _atom_site_fract_z
 _atom_site_occupancy
  Tb  Tb0  1  0.498995  0.154654  0.533536  1
  Tb  Tb1  1  0.501295  0.846086  0.035814  1
  Tb  Tb2  1  0.655735  0.002009  0.283223  1
  Tb  Tb3  1  0.345701  0.998571  0.785188  1
  Tb  Tb4  1  0.845292  0.501317  0.966426  1
  Tb  Tb5  1  0.153673  0.498313  0.465682  1
  Tb  Tb6  1  0.001134  0.654797  0.715278  1
  Hf  Hf7  1  0.005214  0.348123  0.215063  1
  Hf  Hf8  1  0.493432  0.353890  0.124859  1
  Hf  Hf9  1  0.506147  0.646287  0.623152  1
  Hf  Hf10  1  0.853672  0.007969  0.875566  1
  Hf  Hf11  1  0.143342  0.993301  0.371786  1
  Hf  Hf12  1  0.646330  0.504168  0.374089  1
  Hf  Hf13  1  0.353389  0.493828  0.877648  1
  Hf  Hf14  1  0.005999  0.854929  0.127307  1
  Hf  Hf15  1  0.992995  0.146560  0.625202  1
  Si  Si16  1  0.802802  0.145410  0.071972  1
  Si  Si17  1  0.202542  0.860634  0.565883  1
  Si  Si18  1  0.639361  0.702435  0.816643  1
  Si  Si19  1  0.353873  0.299455  0.315502  1
  Si  Si20  1  0.861167  0.205087  0.430110  1
  Si  Si21  1  0.138912  0.796508  0.934337  1
  Si  Si22  1  0.709309  0.635130  0.181727  1
  Si  Si23  1  0.297927  0.360282  0.683645  1
  Si  Si24  1  0.553110  0.206110  0.934668  1
  Si  Si25  1  0.447501  0.793972  0.432845  1
  Si  Si26  1  0.705387  0.947978  0.683939  1
  Si  Si27  1  0.292281  0.055968  0.183481  1
  Si  Si28  1  0.794674  0.448254  0.565400  1
  Si  Si29  1  0.201832  0.548622  0.068667  1
  Si  Si30  1  0.950015  0.698196  0.314584  1
  Si  Si31  1  0.052132  0.294932  0.816186  1
  Mo  Mo32  1  0.676069  0.323661  0.750051  1
  Mo  Mo33  1  0.320432  0.672521  0.249911  1
  Mo  Mo34  1  0.824279  0.822225  0.498500  1
  Mo  Mo35  1  0.174045  0.177819  0.002132  1
