# generated using pymatgen
data_CsNaPSe3
_symmetry_space_group_name_H-M   'P 1'
_cell_length_a   9.82436510
_cell_length_b   9.82436560
_cell_length_c   9.22393612
_cell_angle_alpha   83.18625826
_cell_angle_beta   96.81374447
_cell_angle_gamma   95.29799061
_symmetry_Int_Tables_number   1
_chemical_formula_structural   CsNaPSe3
_chemical_formula_sum   'Cs4 Na4 P4 Se12'
_cell_volume   874.97620567
_cell_formula_units_Z   4
loop_
 _symmetry_equiv_pos_site_id
 _symmetry_equiv_pos_as_xyz
  1  'x, y, z'
loop_
 _atom_site_type_symbol
 _atom_site_label
 _atom_site_symmetry_multiplicity
 _atom_site_fract_x
 _atom_site_fract_y
 _atom_site_fract_z
 _atom_site_occupancy
  Cs  Cs0  1  0.724885  0.776551  0.248999  1
  Cs  Cs1  1  0.776551  0.724885  0.751001  1
  Cs  Cs2  1  0.209473  0.817824  0.174055  1
  Cs  Cs3  1  0.817824  0.209473  0.825945  1
  Na  Na4  1  0.219256  0.279664  0.252013  1
  Na  Na5  1  0.668237  0.286890  0.303216  1
  Na  Na6  1  0.286890  0.668237  0.696784  1
  Na  Na7  1  0.279664  0.219256  0.747987  1
  P  P8  1  0.953204  0.102076  0.432079  1
  P  P9  1  0.404539  0.544968  0.041319  1
  P  P10  1  0.102076  0.953204  0.567921  1
  P  P11  1  0.544968  0.404539  0.958681  1
  Se  Se12  1  0.024467  0.308814  0.491672  1
  Se  Se13  1  0.742979  0.038047  0.493364  1
  Se  Se14  1  0.971955  0.079879  0.200049  1
  Se  Se15  1  0.192609  0.478299  0.957201  1
  Se  Se16  1  0.467671  0.755783  0.946277  1
  Se  Se17  1  0.308814  0.024467  0.508328  1
  Se  Se18  1  0.513058  0.438872  0.715324  1
  Se  Se19  1  0.438872  0.513058  0.284676  1
  Se  Se20  1  0.755783  0.467671  0.053723  1
  Se  Se21  1  0.478299  0.192609  0.042799  1
  Se  Se22  1  0.038047  0.742979  0.506636  1
  Se  Se23  1  0.079879  0.971955  0.799951  1
