# generated using pymatgen
data_Ho8In2RuRh
_symmetry_space_group_name_H-M   'P 1'
_cell_length_a   9.62466954
_cell_length_b   9.64290078
_cell_length_c   9.62466900
_cell_angle_alpha   59.93732201
_cell_angle_beta   59.82567613
_cell_angle_gamma   59.93732643
_symmetry_Int_Tables_number   1
_chemical_formula_structural   Ho8In2RuRh
_chemical_formula_sum   'Ho16 In4 Ru2 Rh2'
_cell_volume   630.19928566
_cell_formula_units_Z   2
loop_
 _symmetry_equiv_pos_site_id
 _symmetry_equiv_pos_as_xyz
  1  'x, y, z'
loop_
 _atom_site_type_symbol
 _atom_site_label
 _atom_site_symmetry_multiplicity
 _atom_site_fract_x
 _atom_site_fract_y
 _atom_site_fract_z
 _atom_site_occupancy
  Ho  Ho0  1  0.188992  0.190234  0.808289  1
  Ho  Ho1  1  0.598177  0.598611  0.204601  1
  Ho  Ho2  1  0.440702  0.059298  0.440702  1
  Ho  Ho3  1  0.439933  0.442146  0.060486  1
  Ho  Ho4  1  0.812579  0.187421  0.812579  1
  Ho  Ho5  1  0.192084  0.807916  0.192084  1
  Ho  Ho6  1  0.439933  0.057435  0.060486  1
  Ho  Ho7  1  0.188992  0.812485  0.808289  1
  Ho  Ho8  1  0.058098  0.441902  0.058098  1
  Ho  Ho9  1  0.808289  0.812485  0.188992  1
  Ho  Ho10  1  0.204601  0.598611  0.598177  1
  Ho  Ho11  1  0.060486  0.442146  0.439933  1
  Ho  Ho12  1  0.060486  0.057435  0.439933  1
  Ho  Ho13  1  0.808289  0.190234  0.188992  1
  Ho  Ho14  1  0.598467  0.203864  0.598467  1
  Ho  Ho15  1  0.598467  0.599202  0.598467  1
  In  In16  1  0.831934  0.832933  0.831934  1
  In  In17  1  0.832356  0.833031  0.501584  1
  In  In18  1  0.501584  0.833031  0.832356  1
  In  In19  1  0.831934  0.503199  0.831934  1
  Ru  Ru20  1  0.391731  0.828247  0.391731  1
  Ru  Ru21  1  0.391731  0.388290  0.391731  1
  Rh  Rh22  1  0.828156  0.389921  0.392002  1
  Rh  Rh23  1  0.392002  0.389921  0.828156  1
