# generated using pymatgen
data_DyHo2Co8P6Os
_symmetry_space_group_name_H-M   'P 1'
_cell_length_a   3.71139600
_cell_length_b   10.47449600
_cell_length_c   12.22600900
_cell_angle_alpha   90.00000000
_cell_angle_beta   90.00000000
_cell_angle_gamma   90.00000000
_symmetry_Int_Tables_number   1
_chemical_formula_structural   DyHo2Co8P6Os
_chemical_formula_sum   'Dy2 Ho4 Co16 P12 Os2'
_cell_volume   475.28613113
_cell_formula_units_Z   2
loop_
 _symmetry_equiv_pos_site_id
 _symmetry_equiv_pos_as_xyz
  1  'x, y, z'
loop_
 _atom_site_type_symbol
 _atom_site_label
 _atom_site_symmetry_multiplicity
 _atom_site_fract_x
 _atom_site_fract_y
 _atom_site_fract_z
 _atom_site_occupancy
  Dy  Dy0  1  0.000000  0.500000  0.524888  1
  Dy  Dy1  1  0.500000  0.000000  0.475112  1
  Ho  Ho2  1  0.500000  0.817361  0.206874  1
  Ho  Ho3  1  0.500000  0.182639  0.206874  1
  Ho  Ho4  1  0.000000  0.682639  0.793126  1
  Ho  Ho5  1  0.000000  0.317361  0.793126  1
  Co  Co6  1  0.500000  0.500000  0.703941  1
  Co  Co7  1  0.000000  0.000000  0.296059  1
  Co  Co8  1  0.000000  0.500000  0.986891  1
  Co  Co9  1  0.500000  0.000000  0.013109  1
  Co  Co10  1  0.500000  0.332769  0.990067  1
  Co  Co11  1  0.500000  0.667231  0.990067  1
  Co  Co12  1  0.000000  0.167231  0.009933  1
  Co  Co13  1  0.000000  0.832769  0.009933  1
  Co  Co14  1  0.500000  0.297538  0.430828  1
  Co  Co15  1  0.500000  0.702462  0.430828  1
  Co  Co16  1  0.000000  0.202462  0.569172  1
  Co  Co17  1  0.000000  0.797538  0.569172  1
  Co  Co18  1  0.500000  0.879393  0.708726  1
  Co  Co19  1  0.500000  0.120607  0.708726  1
  Co  Co20  1  0.000000  0.620607  0.291274  1
  Co  Co21  1  0.000000  0.379393  0.291274  1
  P  P22  1  0.500000  0.500000  0.880555  1
  P  P23  1  0.000000  0.000000  0.119445  1
  P  P24  1  0.500000  0.500000  0.350706  1
  P  P25  1  0.000000  0.000000  0.649294  1
  P  P26  1  0.500000  0.311818  0.616345  1
  P  P27  1  0.500000  0.688182  0.616345  1
  P  P28  1  0.000000  0.188182  0.383655  1
  P  P29  1  0.000000  0.811818  0.383655  1
  P  P30  1  0.500000  0.846335  0.892927  1
  P  P31  1  0.500000  0.153665  0.892927  1
  P  P32  1  0.000000  0.653665  0.107073  1
  P  P33  1  0.000000  0.346335  0.107073  1
  Os  Os34  1  0.500000  0.500000  0.158709  1
  Os  Os35  1  0.000000  0.000000  0.841291  1
