# generated using pymatgen
data_Nd2NpO6
_symmetry_space_group_name_H-M   'P 1'
_cell_length_a   5.60997600
_cell_length_b   9.55353900
_cell_length_c   10.56125800
_cell_angle_alpha   90.00000000
_cell_angle_beta   90.00000000
_cell_angle_gamma   90.00000000
_symmetry_Int_Tables_number   1
_chemical_formula_structural   Nd2NpO6
_chemical_formula_sum   'Nd8 Np4 O24'
_cell_volume   566.03193744
_cell_formula_units_Z   4
loop_
 _symmetry_equiv_pos_site_id
 _symmetry_equiv_pos_as_xyz
  1  'x, y, z'
loop_
 _atom_site_type_symbol
 _atom_site_label
 _atom_site_symmetry_multiplicity
 _atom_site_fract_x
 _atom_site_fract_y
 _atom_site_fract_z
 _atom_site_occupancy
  Nd  Nd0  1  0.473767  0.601467  0.536158  1
  Nd  Nd1  1  0.973767  0.898533  0.463842  1
  Nd  Nd2  1  0.526233  0.101467  0.963842  1
  Nd  Nd3  1  0.026233  0.398533  0.036158  1
  Nd  Nd4  1  0.960347  0.782629  0.868395  1
  Nd  Nd5  1  0.460347  0.717371  0.131605  1
  Nd  Nd6  1  0.039653  0.282629  0.631605  1
  Nd  Nd7  1  0.539653  0.217371  0.368395  1
  Np  Np8  1  0.461318  0.994422  0.648623  1
  Np  Np9  1  0.961318  0.505578  0.351377  1
  Np  Np10  1  0.538682  0.494422  0.851377  1
  Np  Np11  1  0.038682  0.005578  0.148623  1
  O  O12  1  0.251855  0.085874  0.504713  1
  O  O13  1  0.751855  0.414126  0.495287  1
  O  O14  1  0.748145  0.585874  0.995287  1
  O  O15  1  0.248145  0.914126  0.004713  1
  O  O16  1  0.734864  0.116003  0.564002  1
  O  O17  1  0.234864  0.383997  0.435998  1
  O  O18  1  0.265136  0.616003  0.935998  1
  O  O19  1  0.765136  0.883997  0.064002  1
  O  O20  1  0.589354  0.841049  0.530521  1
  O  O21  1  0.089354  0.658951  0.469479  1
  O  O22  1  0.410646  0.341049  0.969479  1
  O  O23  1  0.910646  0.158951  0.030521  1
  O  O24  1  0.179168  0.856483  0.261486  1
  O  O25  1  0.679168  0.643517  0.738514  1
  O  O26  1  0.820832  0.356483  0.238514  1
  O  O27  1  0.320832  0.143517  0.761486  1
  O  O28  1  0.825750  0.048133  0.302272  1
  O  O29  1  0.325750  0.451867  0.697728  1
  O  O30  1  0.174250  0.548133  0.197728  1
  O  O31  1  0.674250  0.951867  0.802272  1
  O  O32  1  0.329748  0.137603  0.181042  1
  O  O33  1  0.829748  0.362397  0.818958  1
  O  O34  1  0.670252  0.637603  0.318958  1
  O  O35  1  0.170252  0.862397  0.681042  1
