# generated using pymatgen
data_HfZr9BeGaSn6
_symmetry_space_group_name_H-M   'P 1'
_cell_length_a   8.68956100
_cell_length_b   8.68955989
_cell_length_c   5.85747100
_cell_angle_alpha   90.00000000
_cell_angle_beta   90.00000000
_cell_angle_gamma   120.00000804
_symmetry_Int_Tables_number   1
_chemical_formula_structural   HfZr9BeGaSn6
_chemical_formula_sum   'Hf1 Zr9 Be1 Ga1 Sn6'
_cell_volume   383.03314866
_cell_formula_units_Z   1
loop_
 _symmetry_equiv_pos_site_id
 _symmetry_equiv_pos_as_xyz
  1  'x, y, z'
loop_
 _atom_site_type_symbol
 _atom_site_label
 _atom_site_symmetry_multiplicity
 _atom_site_fract_x
 _atom_site_fract_y
 _atom_site_fract_z
 _atom_site_occupancy
  Hf  Hf0  1  0.666667  0.333333  0.500000  1
  Zr  Zr1  1  0.740541  0.740404  0.761430  1
  Zr  Zr2  1  0.259596  0.000137  0.761430  1
  Zr  Zr3  1  0.999863  0.259459  0.761430  1
  Zr  Zr4  1  0.259596  0.259459  0.238570  1
  Zr  Zr5  1  0.740541  0.000137  0.238570  1
  Zr  Zr6  1  0.999863  0.740404  0.238570  1
  Zr  Zr7  1  0.666667  0.333333  0.000000  1
  Zr  Zr8  1  0.333333  0.666667  0.000000  1
  Zr  Zr9  1  0.333333  0.666667  0.500000  1
  Be  Be10  1  0.000000  0.000000  0.000000  1
  Ga  Ga11  1  0.000000  0.000000  0.500000  1
  Sn  Sn12  1  0.388852  0.388308  0.745584  1
  Sn  Sn13  1  0.611692  0.000544  0.745584  1
  Sn  Sn14  1  0.999456  0.611148  0.745584  1
  Sn  Sn15  1  0.611692  0.611148  0.254416  1
  Sn  Sn16  1  0.388852  0.000544  0.254416  1
  Sn  Sn17  1  0.999456  0.388308  0.254416  1
