# generated using pymatgen
data_Nd2Ho2TmSi4
_symmetry_space_group_name_H-M   'P 1'
_cell_length_a   7.73714600
_cell_length_b   7.73714600
_cell_length_c   14.23875600
_cell_angle_alpha   90.00000000
_cell_angle_beta   90.00000000
_cell_angle_gamma   90.00000000
_symmetry_Int_Tables_number   1
_chemical_formula_structural   Nd2Ho2TmSi4
_chemical_formula_sum   'Nd8 Ho8 Tm4 Si16'
_cell_volume   852.38074782
_cell_formula_units_Z   4
loop_
 _symmetry_equiv_pos_site_id
 _symmetry_equiv_pos_as_xyz
  1  'x, y, z'
loop_
 _atom_site_type_symbol
 _atom_site_label
 _atom_site_symmetry_multiplicity
 _atom_site_fract_x
 _atom_site_fract_y
 _atom_site_fract_z
 _atom_site_occupancy
  Nd  Nd0  1  0.642233  0.992980  0.458918  1
  Nd  Nd1  1  0.357767  0.007020  0.958918  1
  Nd  Nd2  1  0.992980  0.642233  0.541082  1
  Nd  Nd3  1  0.492980  0.857767  0.208918  1
  Nd  Nd4  1  0.507020  0.142233  0.708918  1
  Nd  Nd5  1  0.857767  0.492980  0.791082  1
  Nd  Nd6  1  0.142233  0.507020  0.291082  1
  Nd  Nd7  1  0.007020  0.357767  0.041082  1
  Ho  Ho8  1  0.493039  0.360095  0.124280  1
  Ho  Ho9  1  0.993039  0.139905  0.625720  1
  Ho  Ho10  1  0.860095  0.006961  0.874280  1
  Ho  Ho11  1  0.139905  0.993039  0.374280  1
  Ho  Ho12  1  0.506961  0.639905  0.624280  1
  Ho  Ho13  1  0.360095  0.493039  0.875720  1
  Ho  Ho14  1  0.639905  0.506961  0.375720  1
  Ho  Ho15  1  0.006961  0.860095  0.125720  1
  Tm  Tm16  1  0.317890  0.317890  0.500000  1
  Tm  Tm17  1  0.182110  0.817890  0.750000  1
  Tm  Tm18  1  0.817890  0.182110  0.250000  1
  Tm  Tm19  1  0.682110  0.682110  0.000000  1
  Si  Si20  1  0.289827  0.937413  0.561823  1
  Si  Si21  1  0.710173  0.062587  0.061823  1
  Si  Si22  1  0.937413  0.289827  0.438177  1
  Si  Si23  1  0.437413  0.210173  0.311823  1
  Si  Si24  1  0.562587  0.789827  0.811823  1
  Si  Si25  1  0.210173  0.437413  0.688177  1
  Si  Si26  1  0.789827  0.562587  0.188177  1
  Si  Si27  1  0.062587  0.710173  0.938177  1
  Si  Si28  1  0.795649  0.848403  0.687944  1
  Si  Si29  1  0.204351  0.151597  0.187944  1
  Si  Si30  1  0.848403  0.795649  0.312056  1
  Si  Si31  1  0.348403  0.704351  0.437944  1
  Si  Si32  1  0.651597  0.295649  0.937944  1
  Si  Si33  1  0.704351  0.348403  0.562056  1
  Si  Si34  1  0.295649  0.651597  0.062056  1
  Si  Si35  1  0.151597  0.204351  0.812056  1
