# generated using pymatgen
data_Zr2Ti3Ga3Si
_symmetry_space_group_name_H-M   'P 1'
_cell_length_a   6.86398000
_cell_length_b   6.99945300
_cell_length_c   13.23113200
_cell_angle_alpha   90.00000000
_cell_angle_beta   90.00000000
_cell_angle_gamma   90.00000000
_symmetry_Int_Tables_number   1
_chemical_formula_structural   Zr2Ti3Ga3Si
_chemical_formula_sum   'Zr8 Ti12 Ga12 Si4'
_cell_volume   635.67790041
_cell_formula_units_Z   4
loop_
 _symmetry_equiv_pos_site_id
 _symmetry_equiv_pos_as_xyz
  1  'x, y, z'
loop_
 _atom_site_type_symbol
 _atom_site_label
 _atom_site_symmetry_multiplicity
 _atom_site_fract_x
 _atom_site_fract_y
 _atom_site_fract_z
 _atom_site_occupancy
  Zr  Zr0  1  0.498325  0.668358  0.096833  1
  Zr  Zr1  1  0.998325  0.831642  0.403167  1
  Zr  Zr2  1  0.501675  0.331642  0.596833  1
  Zr  Zr3  1  0.001675  0.168358  0.903167  1
  Zr  Zr4  1  0.501675  0.331642  0.903167  1
  Zr  Zr5  1  0.001675  0.168358  0.596833  1
  Zr  Zr6  1  0.498325  0.668358  0.403167  1
  Zr  Zr7  1  0.998325  0.831642  0.096833  1
  Ti  Ti8  1  0.332061  0.012361  0.250000  1
  Ti  Ti9  1  0.832061  0.487639  0.250000  1
  Ti  Ti10  1  0.667939  0.987639  0.750000  1
  Ti  Ti11  1  0.167939  0.512361  0.750000  1
  Ti  Ti12  1  0.657098  0.175369  0.131422  1
  Ti  Ti13  1  0.157098  0.324631  0.368578  1
  Ti  Ti14  1  0.342902  0.824631  0.631422  1
  Ti  Ti15  1  0.842902  0.675369  0.868578  1
  Ti  Ti16  1  0.342902  0.824631  0.868578  1
  Ti  Ti17  1  0.842902  0.675369  0.631422  1
  Ti  Ti18  1  0.657098  0.175369  0.368578  1
  Ti  Ti19  1  0.157098  0.324631  0.131422  1
  Ga  Ga20  1  0.697500  0.857308  0.250000  1
  Ga  Ga21  1  0.197500  0.642692  0.250000  1
  Ga  Ga22  1  0.302500  0.142692  0.750000  1
  Ga  Ga23  1  0.802500  0.357308  0.750000  1
  Ga  Ga24  1  0.672695  0.960529  0.961134  1
  Ga  Ga25  1  0.172695  0.539471  0.538866  1
  Ga  Ga26  1  0.327305  0.039471  0.461134  1
  Ga  Ga27  1  0.827305  0.460529  0.038866  1
  Ga  Ga28  1  0.327305  0.039471  0.038866  1
  Ga  Ga29  1  0.827305  0.460529  0.461134  1
  Ga  Ga30  1  0.672695  0.960529  0.538866  1
  Ga  Ga31  1  0.172695  0.539471  0.961134  1
  Si  Si32  1  0.458795  0.384110  0.250000  1
  Si  Si33  1  0.958795  0.115890  0.250000  1
  Si  Si34  1  0.541205  0.615890  0.750000  1
  Si  Si35  1  0.041205  0.884110  0.750000  1
