# generated using pymatgen
data_Tb3MgIn2Ag2Ir
_symmetry_space_group_name_H-M   'P 1'
_cell_length_a   7.96135514
_cell_length_b   7.95858232
_cell_length_c   3.80143900
_cell_angle_alpha   90.00000000
_cell_angle_beta   90.00000000
_cell_angle_gamma   119.75469073
_symmetry_Int_Tables_number   1
_chemical_formula_structural   Tb3MgIn2Ag2Ir
_chemical_formula_sum   'Tb3 Mg1 In2 Ag2 Ir1'
_cell_volume   209.10749600
_cell_formula_units_Z   1
loop_
 _symmetry_equiv_pos_site_id
 _symmetry_equiv_pos_as_xyz
  1  'x, y, z'
loop_
 _atom_site_type_symbol
 _atom_site_label
 _atom_site_symmetry_multiplicity
 _atom_site_fract_x
 _atom_site_fract_y
 _atom_site_fract_z
 _atom_site_occupancy
  Tb  Tb0  1  0.429409  0.394552  0.000000  1
  Tb  Tb1  1  0.605147  0.030051  0.000000  1
  Tb  Tb2  1  0.969210  0.576609  0.000000  1
  Mg  Mg3  1  0.002613  0.263920  0.500000  1
  In  In4  1  0.730785  0.737973  0.500000  1
  In  In5  1  0.263451  0.995332  0.500000  1
  Ag  Ag6  1  0.000542  0.009081  0.000000  1
  Ag  Ag7  1  0.327459  0.660119  0.500000  1
  Ir  Ir8  1  0.671383  0.332364  0.500000  1
