# generated using pymatgen
data_NaLiZrBr6
_symmetry_space_group_name_H-M   'P 1'
_cell_length_a   7.01372900
_cell_length_b   7.01372969
_cell_length_c   6.90776000
_cell_angle_alpha   90.00000000
_cell_angle_beta   90.00000000
_cell_angle_gamma   120.00000145
_symmetry_Int_Tables_number   1
_chemical_formula_structural   NaLiZrBr6
_chemical_formula_sum   'Na1 Li1 Zr1 Br6'
_cell_volume   294.28347196
_cell_formula_units_Z   1
loop_
 _symmetry_equiv_pos_site_id
 _symmetry_equiv_pos_as_xyz
  1  'x, y, z'
loop_
 _atom_site_type_symbol
 _atom_site_label
 _atom_site_symmetry_multiplicity
 _atom_site_fract_x
 _atom_site_fract_y
 _atom_site_fract_z
 _atom_site_occupancy
  Na  Na0  1  0.333333  0.666667  0.500000  1
  Li  Li1  1  0.666667  0.333333  0.500000  1
  Zr  Zr2  1  0.000000  0.000000  0.500000  1
  Br  Br3  1  0.701220  0.682691  0.724508  1
  Br  Br4  1  0.981471  0.298780  0.724508  1
  Br  Br5  1  0.317309  0.018529  0.724508  1
  Br  Br6  1  0.317309  0.298780  0.275492  1
  Br  Br7  1  0.981471  0.682691  0.275492  1
  Br  Br8  1  0.701220  0.018529  0.275492  1
