# generated using pymatgen
data_CeDy7(AlRu)8
_symmetry_space_group_name_H-M   'P 1'
_cell_length_a   4.08303900
_cell_length_b   7.02478147
_cell_length_c   15.95853902
_cell_angle_alpha   90.55613716
_cell_angle_beta   90.00000000
_cell_angle_gamma   90.00000000
_symmetry_Int_Tables_number   1
_chemical_formula_structural   CeDy7(AlRu)8
_chemical_formula_sum   'Ce1 Dy7 Al8 Ru8'
_cell_volume   457.70854253
_cell_formula_units_Z   1
loop_
 _symmetry_equiv_pos_site_id
 _symmetry_equiv_pos_as_xyz
  1  'x, y, z'
loop_
 _atom_site_type_symbol
 _atom_site_label
 _atom_site_symmetry_multiplicity
 _atom_site_fract_x
 _atom_site_fract_y
 _atom_site_fract_z
 _atom_site_occupancy
  Ce  Ce0  1  0.250000  0.537102  0.719144  1
  Dy  Dy1  1  0.750000  0.963625  0.218991  1
  Dy  Dy2  1  0.250000  0.160974  0.561193  1
  Dy  Dy3  1  0.750000  0.840184  0.437069  1
  Dy  Dy4  1  0.750000  0.463875  0.281212  1
  Dy  Dy5  1  0.750000  0.339032  0.063806  1
  Dy  Dy6  1  0.250000  0.660237  0.938066  1
  Dy  Dy7  1  0.250000  0.038242  0.781410  1
  Al  Al8  1  0.750000  0.504406  0.562393  1
  Al  Al9  1  0.750000  0.361443  0.852263  1
  Al  Al10  1  0.750000  0.996971  0.935218  1
  Al  Al11  1  0.750000  0.872737  0.650231  1
  Al  Al12  1  0.250000  0.500366  0.434458  1
  Al  Al13  1  0.250000  0.996694  0.065815  1
  Al  Al14  1  0.250000  0.633606  0.150903  1
  Al  Al15  1  0.250000  0.133824  0.349055  1
  Ru  Ru16  1  0.750000  0.736423  0.807540  1
  Ru  Ru17  1  0.250000  0.230954  0.937099  1
  Ru  Ru18  1  0.750000  0.263726  0.435980  1
  Ru  Ru19  1  0.250000  0.753810  0.312612  1
  Ru  Ru20  1  0.750000  0.762635  0.064053  1
  Ru  Ru21  1  0.750000  0.260470  0.686703  1
  Ru  Ru22  1  0.250000  0.252952  0.187476  1
  Ru  Ru23  1  0.250000  0.735712  0.567312  1
