# generated using pymatgen
data_Cs5TiBi3
_symmetry_space_group_name_H-M   'P 1'
_cell_length_a   9.76588500
_cell_length_b   10.33619711
_cell_length_c   20.37792568
_cell_angle_alpha   60.81484533
_cell_angle_beta   90.00000000
_cell_angle_gamma   90.00000000
_symmetry_Int_Tables_number   1
_chemical_formula_structural   Cs5TiBi3
_chemical_formula_sum   'Cs20 Ti4 Bi12'
_cell_volume   1795.85268943
_cell_formula_units_Z   4
loop_
 _symmetry_equiv_pos_site_id
 _symmetry_equiv_pos_as_xyz
  1  'x, y, z'
loop_
 _atom_site_type_symbol
 _atom_site_label
 _atom_site_symmetry_multiplicity
 _atom_site_fract_x
 _atom_site_fract_y
 _atom_site_fract_z
 _atom_site_occupancy
  Cs  Cs0  1  0.182935  0.156505  0.259725  1
  Cs  Cs1  1  0.682935  0.843495  0.240275  1
  Cs  Cs2  1  0.817065  0.843495  0.740275  1
  Cs  Cs3  1  0.317065  0.156505  0.759725  1
  Cs  Cs4  1  0.164746  0.838353  0.579703  1
  Cs  Cs5  1  0.664746  0.161647  0.920297  1
  Cs  Cs6  1  0.835254  0.161647  0.420297  1
  Cs  Cs7  1  0.335254  0.838353  0.079703  1
  Cs  Cs8  1  0.001943  0.905386  0.910888  1
  Cs  Cs9  1  0.501943  0.094614  0.589112  1
  Cs  Cs10  1  0.998057  0.094614  0.089112  1
  Cs  Cs11  1  0.498057  0.905386  0.410888  1
  Cs  Cs12  1  0.509958  0.722741  0.920800  1
  Cs  Cs13  1  0.009958  0.277259  0.579200  1
  Cs  Cs14  1  0.490042  0.277259  0.079200  1
  Cs  Cs15  1  0.990042  0.722741  0.420800  1
  Cs  Cs16  1  0.982828  0.454589  0.751065  1
  Cs  Cs17  1  0.482828  0.545411  0.748935  1
  Cs  Cs18  1  0.017172  0.545411  0.248935  1
  Cs  Cs19  1  0.517172  0.454589  0.251065  1
  Ti  Ti20  1  0.374596  0.506327  0.422514  1
  Ti  Ti21  1  0.874596  0.493673  0.077486  1
  Ti  Ti22  1  0.625404  0.493673  0.577486  1
  Ti  Ti23  1  0.125404  0.506327  0.922514  1
  Bi  Bi24  1  0.253565  0.262917  0.923881  1
  Bi  Bi25  1  0.753565  0.737083  0.576119  1
  Bi  Bi26  1  0.746435  0.737083  0.076119  1
  Bi  Bi27  1  0.246435  0.262917  0.423881  1
  Bi  Bi28  1  0.166125  0.509796  0.061049  1
  Bi  Bi29  1  0.666125  0.490204  0.438951  1
  Bi  Bi30  1  0.833875  0.490204  0.938951  1
  Bi  Bi31  1  0.333875  0.509796  0.561049  1
  Bi  Bi32  1  0.303789  0.763794  0.289309  1
  Bi  Bi33  1  0.803789  0.236206  0.210691  1
  Bi  Bi34  1  0.696211  0.236206  0.710691  1
  Bi  Bi35  1  0.196211  0.763794  0.789309  1
