# generated using pymatgen
data_Ba2Yb(SmPb2)2
_symmetry_space_group_name_H-M   'P 1'
_cell_length_a   8.32080400
_cell_length_b   8.79854700
_cell_length_c   16.87828200
_cell_angle_alpha   90.00000000
_cell_angle_beta   90.00000000
_cell_angle_gamma   90.00000000
_symmetry_Int_Tables_number   1
_chemical_formula_structural   Ba2Yb(SmPb2)2
_chemical_formula_sum   'Ba8 Yb4 Sm8 Pb16'
_cell_volume   1235.67565154
_cell_formula_units_Z   4
loop_
 _symmetry_equiv_pos_site_id
 _symmetry_equiv_pos_as_xyz
  1  'x, y, z'
loop_
 _atom_site_type_symbol
 _atom_site_label
 _atom_site_symmetry_multiplicity
 _atom_site_fract_x
 _atom_site_fract_y
 _atom_site_fract_z
 _atom_site_occupancy
  Ba  Ba0  1  0.506779  0.676305  0.596128  1
  Ba  Ba1  1  0.006779  0.823695  0.903872  1
  Ba  Ba2  1  0.493221  0.323695  0.096128  1
  Ba  Ba3  1  0.993221  0.176305  0.403872  1
  Ba  Ba4  1  0.493221  0.323695  0.403872  1
  Ba  Ba5  1  0.993221  0.176305  0.096128  1
  Ba  Ba6  1  0.506779  0.676305  0.903872  1
  Ba  Ba7  1  0.006779  0.823695  0.596128  1
  Yb  Yb8  1  0.840058  0.504196  0.750000  1
  Yb  Yb9  1  0.340058  0.995804  0.750000  1
  Yb  Yb10  1  0.159942  0.495804  0.250000  1
  Yb  Yb11  1  0.659942  0.004196  0.250000  1
  Sm  Sm12  1  0.674340  0.168853  0.621971  1
  Sm  Sm13  1  0.174340  0.331147  0.878029  1
  Sm  Sm14  1  0.325660  0.831147  0.121971  1
  Sm  Sm15  1  0.825660  0.668853  0.378029  1
  Sm  Sm16  1  0.325660  0.831147  0.378029  1
  Sm  Sm17  1  0.825660  0.668853  0.121971  1
  Sm  Sm18  1  0.674340  0.168853  0.878029  1
  Sm  Sm19  1  0.174340  0.331147  0.621971  1
  Pb  Pb20  1  0.661129  0.955968  0.458588  1
  Pb  Pb21  1  0.161129  0.544032  0.041412  1
  Pb  Pb22  1  0.338871  0.044032  0.958588  1
  Pb  Pb23  1  0.838871  0.455968  0.541412  1
  Pb  Pb24  1  0.338871  0.044032  0.541412  1
  Pb  Pb25  1  0.838871  0.455968  0.958588  1
  Pb  Pb26  1  0.661129  0.955968  0.041412  1
  Pb  Pb27  1  0.161129  0.544032  0.458588  1
  Pb  Pb28  1  0.474692  0.365460  0.750000  1
  Pb  Pb29  1  0.974692  0.134540  0.750000  1
  Pb  Pb30  1  0.525308  0.634540  0.250000  1
  Pb  Pb31  1  0.025308  0.865460  0.250000  1
  Pb  Pb32  1  0.711746  0.883986  0.750000  1
  Pb  Pb33  1  0.211746  0.616014  0.750000  1
  Pb  Pb34  1  0.288254  0.116014  0.250000  1
  Pb  Pb35  1  0.788254  0.383986  0.250000  1
