# generated using pymatgen
data_Rb4Na2HoErAs4
_symmetry_space_group_name_H-M   'P 1'
_cell_length_a   9.45691607
_cell_length_b   9.45691750
_cell_length_c   9.45691646
_cell_angle_alpha   135.22917540
_cell_angle_beta   135.32706763
_cell_angle_gamma   65.09840115
_symmetry_Int_Tables_number   1
_chemical_formula_structural   Rb4Na2HoErAs4
_chemical_formula_sum   'Rb4 Na2 Ho1 Er1 As4'
_cell_volume   412.73550860
_cell_formula_units_Z   1
loop_
 _symmetry_equiv_pos_site_id
 _symmetry_equiv_pos_as_xyz
  1  'x, y, z'
loop_
 _atom_site_type_symbol
 _atom_site_label
 _atom_site_symmetry_multiplicity
 _atom_site_fract_x
 _atom_site_fract_y
 _atom_site_fract_z
 _atom_site_occupancy
  Rb  Rb0  1  0.680610  0.392332  0.711877  1
  Rb  Rb1  1  0.819390  0.031266  0.211722  1
  Rb  Rb2  1  0.180457  0.968734  0.788123  1
  Rb  Rb3  1  0.319543  0.607668  0.288278  1
  Na  Na4  1  0.750000  0.000000  0.750000  1
  Na  Na5  1  0.250000  0.000000  0.250000  1
  Ho  Ho6  1  0.250000  0.500000  0.750000  1
  Er  Er7  1  0.750000  0.500000  0.250000  1
  As  As8  1  0.406442  0.184190  0.778365  1
  As  As9  1  0.594173  0.815810  0.222251  1
  As  As10  1  0.093558  0.371922  0.277749  1
  As  As11  1  0.905827  0.628078  0.721635  1
