# generated using pymatgen
data_La2In3AgRh2
_symmetry_space_group_name_H-M   'P 1'
_cell_length_a   5.44017254
_cell_length_b   5.44017292
_cell_length_c   8.65307722
_cell_angle_alpha   89.92782711
_cell_angle_beta   90.07217206
_cell_angle_gamma   133.58448109
_symmetry_Int_Tables_number   1
_chemical_formula_structural   La2In3AgRh2
_chemical_formula_sum   'La2 In3 Ag1 Rh2'
_cell_volume   185.50225093
_cell_formula_units_Z   1
loop_
 _symmetry_equiv_pos_site_id
 _symmetry_equiv_pos_as_xyz
  1  'x, y, z'
loop_
 _atom_site_type_symbol
 _atom_site_label
 _atom_site_symmetry_multiplicity
 _atom_site_fract_x
 _atom_site_fract_y
 _atom_site_fract_z
 _atom_site_occupancy
  La  La0  1  0.061239  0.938761  0.258077  1
  La  La1  1  0.941492  0.058508  0.737816  1
  In  In2  1  0.344778  0.655222  0.460396  1
  In  In3  1  0.650296  0.349704  0.947570  1
  In  In4  1  0.352149  0.647851  0.048880  1
  Ag  Ag5  1  0.641526  0.358474  0.541931  1
  Rh  Rh6  1  0.217412  0.782588  0.759302  1
  Rh  Rh7  1  0.791107  0.208893  0.246028  1
