# generated using pymatgen
data_Ho2Si2Os2C
_symmetry_space_group_name_H-M   'P 1'
_cell_length_a   5.79652456
_cell_length_b   5.79652442
_cell_length_c   6.82244835
_cell_angle_alpha   125.56078179
_cell_angle_beta   125.56078074
_cell_angle_gamma   41.05989436
_symmetry_Int_Tables_number   1
_chemical_formula_structural   Ho2Si2Os2C
_chemical_formula_sum   'Ho2 Si2 Os2 C1'
_cell_volume   118.01800069
_cell_formula_units_Z   1
loop_
 _symmetry_equiv_pos_site_id
 _symmetry_equiv_pos_as_xyz
  1  'x, y, z'
loop_
 _atom_site_type_symbol
 _atom_site_label
 _atom_site_symmetry_multiplicity
 _atom_site_fract_x
 _atom_site_fract_y
 _atom_site_fract_z
 _atom_site_occupancy
  Ho  Ho0  1  0.436259  0.436259  0.169613  1
  Ho  Ho1  1  0.563741  0.563741  0.830388  1
  Si  Si2  1  0.849137  0.849137  0.394380  1
  Si  Si3  1  0.150863  0.150863  0.605621  1
  Os  Os4  1  0.206874  0.206874  0.308542  1
  Os  Os5  1  0.793126  0.793126  0.691458  1
  C  C6  1  0.000000  0.000000  0.000000  1
