# generated using pymatgen
data_Dy2YTlSi2Ag3
_symmetry_space_group_name_H-M   'P 1'
_cell_length_a   7.32799606
_cell_length_b   7.32799606
_cell_length_c   4.20957700
_cell_angle_alpha   90.00000000
_cell_angle_beta   90.00000000
_cell_angle_gamma   120.00555508
_symmetry_Int_Tables_number   1
_chemical_formula_structural   Dy2YTlSi2Ag3
_chemical_formula_sum   'Dy2 Y1 Tl1 Si2 Ag3'
_cell_volume   195.75606694
_cell_formula_units_Z   1
loop_
 _symmetry_equiv_pos_site_id
 _symmetry_equiv_pos_as_xyz
  1  'x, y, z'
loop_
 _atom_site_type_symbol
 _atom_site_label
 _atom_site_symmetry_multiplicity
 _atom_site_fract_x
 _atom_site_fract_y
 _atom_site_fract_z
 _atom_site_occupancy
  Dy  Dy0  1  0.573140  0.000154  0.500000  1
  Dy  Dy1  1  0.000154  0.573140  0.500000  1
  Y  Y2  1  0.426354  0.426354  0.500000  1
  Tl  Tl3  1  0.998840  0.998840  0.500000  1
  Si  Si4  1  0.667148  0.333451  0.000000  1
  Si  Si5  1  0.333451  0.667148  0.000000  1
  Ag  Ag6  1  0.724827  0.724827  0.000000  1
  Ag  Ag7  1  0.275307  0.000778  0.000000  1
  Ag  Ag8  1  0.000778  0.275307  0.000000  1
