# generated using pymatgen
data_CsCaCuH4
_symmetry_space_group_name_H-M   'P 1'
_cell_length_a   7.90623900
_cell_length_b   7.90623900
_cell_length_c   7.90623900
_cell_angle_alpha   90.00000000
_cell_angle_beta   90.00000000
_cell_angle_gamma   90.00000000
_symmetry_Int_Tables_number   1
_chemical_formula_structural   CsCaCuH4
_chemical_formula_sum   'Cs4 Ca4 Cu4 H16'
_cell_volume   494.20805074
_cell_formula_units_Z   4
loop_
 _symmetry_equiv_pos_site_id
 _symmetry_equiv_pos_as_xyz
  1  'x, y, z'
loop_
 _atom_site_type_symbol
 _atom_site_label
 _atom_site_symmetry_multiplicity
 _atom_site_fract_x
 _atom_site_fract_y
 _atom_site_fract_z
 _atom_site_occupancy
  Cs  Cs0  1  0.153802  0.653802  0.846198  1
  Cs  Cs1  1  0.653802  0.846198  0.153802  1
  Cs  Cs2  1  0.846198  0.153802  0.653802  1
  Cs  Cs3  1  0.346198  0.346198  0.346198  1
  Ca  Ca4  1  0.851693  0.351693  0.148307  1
  Ca  Ca5  1  0.351693  0.148307  0.851693  1
  Ca  Ca6  1  0.148307  0.851693  0.351693  1
  Ca  Ca7  1  0.648307  0.648307  0.648307  1
  Cu  Cu8  1  0.431734  0.931734  0.568266  1
  Cu  Cu9  1  0.931734  0.568266  0.431734  1
  Cu  Cu10  1  0.568266  0.431734  0.931734  1
  Cu  Cu11  1  0.068266  0.068266  0.068266  1
  H  H12  1  0.548221  0.048221  0.451779  1
  H  H13  1  0.048221  0.451779  0.548221  1
  H  H14  1  0.451779  0.548221  0.048221  1
  H  H15  1  0.951779  0.951779  0.951779  1
  H  H16  1  0.259605  0.983500  0.095480  1
  H  H17  1  0.904520  0.759605  0.516500  1
  H  H18  1  0.483500  0.404520  0.740395  1
  H  H19  1  0.759605  0.516500  0.904520  1
  H  H20  1  0.404520  0.740395  0.483500  1
  H  H21  1  0.983500  0.095480  0.259605  1
  H  H22  1  0.740395  0.483500  0.404520  1
  H  H23  1  0.095480  0.259605  0.983500  1
  H  H24  1  0.516500  0.904520  0.759605  1
  H  H25  1  0.240395  0.016500  0.595480  1
  H  H26  1  0.595480  0.240395  0.016500  1
  H  H27  1  0.016500  0.595480  0.240395  1
