# generated using pymatgen
data_Pr8Hf11Si16Mo
_symmetry_space_group_name_H-M   'P 1'
_cell_length_a   7.38133429
_cell_length_b   7.38133476
_cell_length_c   13.58639649
_cell_angle_alpha   89.90490644
_cell_angle_beta   90.09509484
_cell_angle_gamma   90.00707157
_symmetry_Int_Tables_number   1
_chemical_formula_structural   Pr8Hf11Si16Mo
_chemical_formula_sum   'Pr8 Hf11 Si16 Mo1'
_cell_volume   740.24053294
_cell_formula_units_Z   1
loop_
 _symmetry_equiv_pos_site_id
 _symmetry_equiv_pos_as_xyz
  1  'x, y, z'
loop_
 _atom_site_type_symbol
 _atom_site_label
 _atom_site_symmetry_multiplicity
 _atom_site_fract_x
 _atom_site_fract_y
 _atom_site_fract_z
 _atom_site_occupancy
  Pr  Pr0  1  0.996731  0.342026  0.212269  1
  Pr  Pr1  1  0.006479  0.657390  0.716834  1
  Pr  Pr2  1  0.158930  0.492382  0.465475  1
  Pr  Pr3  1  0.503715  0.843763  0.033918  1
  Pr  Pr4  1  0.843763  0.503715  0.966082  1
  Pr  Pr5  1  0.492382  0.158930  0.534525  1
  Pr  Pr6  1  0.342026  0.996731  0.787731  1
  Pr  Pr7  1  0.657390  0.006479  0.283166  1
  Hf  Hf8  1  0.826236  0.826236  0.500000  1
  Hf  Hf9  1  0.323768  0.674717  0.249119  1
  Hf  Hf10  1  0.674717  0.323768  0.750881  1
  Hf  Hf11  1  0.150677  0.995432  0.372500  1
  Hf  Hf12  1  0.851612  0.006035  0.876589  1
  Hf  Hf13  1  0.506179  0.651133  0.623585  1
  Hf  Hf14  1  0.346213  0.489246  0.879846  1
  Hf  Hf15  1  0.489246  0.346213  0.120154  1
  Hf  Hf16  1  0.651133  0.506179  0.376415  1
  Hf  Hf17  1  0.995432  0.150677  0.627500  1
  Hf  Hf18  1  0.006035  0.851612  0.123411  1
  Si  Si19  1  0.366628  0.298423  0.312064  1
  Si  Si20  1  0.632243  0.702128  0.814687  1
  Si  Si21  1  0.202737  0.866104  0.563849  1
  Si  Si22  1  0.133185  0.798588  0.936134  1
  Si  Si23  1  0.798588  0.133185  0.063866  1
  Si  Si24  1  0.866104  0.202737  0.436151  1
  Si  Si25  1  0.298423  0.366628  0.687936  1
  Si  Si26  1  0.702128  0.632243  0.185313  1
  Si  Si27  1  0.290218  0.051905  0.182140  1
  Si  Si28  1  0.708096  0.950869  0.685863  1
  Si  Si29  1  0.449821  0.792018  0.434597  1
  Si  Si30  1  0.207407  0.550034  0.064981  1
  Si  Si31  1  0.550034  0.207407  0.935019  1
  Si  Si32  1  0.792018  0.449821  0.565403  1
  Si  Si33  1  0.051905  0.290218  0.817860  1
  Si  Si34  1  0.950869  0.708096  0.314137  1
  Mo  Mo35  1  0.176930  0.176930  0.000000  1
