# generated using pymatgen
data_TbDy3Er4(B6Os)4
_symmetry_space_group_name_H-M   'P 1'
_cell_length_a   3.64409800
_cell_length_b   9.12670488
_cell_length_c   11.51243727
_cell_angle_alpha   90.00076007
_cell_angle_beta   90.00000000
_cell_angle_gamma   90.00000000
_symmetry_Int_Tables_number   1
_chemical_formula_structural   TbDy3Er4(B6Os)4
_chemical_formula_sum   'Tb1 Dy3 Er4 B24 Os4'
_cell_volume   382.88762657
_cell_formula_units_Z   1
loop_
 _symmetry_equiv_pos_site_id
 _symmetry_equiv_pos_as_xyz
  1  'x, y, z'
loop_
 _atom_site_type_symbol
 _atom_site_label
 _atom_site_symmetry_multiplicity
 _atom_site_fract_x
 _atom_site_fract_y
 _atom_site_fract_z
 _atom_site_occupancy
  Tb  Tb0  1  0.000000  0.178115  0.914040  1
  Dy  Dy1  1  0.000000  0.321856  0.414123  1
  Dy  Dy2  1  0.000000  0.678279  0.585871  1
  Dy  Dy3  1  0.000000  0.821747  0.085929  1
  Er  Er4  1  0.000000  0.943760  0.372933  1
  Er  Er5  1  0.000000  0.056143  0.627068  1
  Er  Er6  1  0.000000  0.443902  0.127223  1
  Er  Er7  1  0.000000  0.556257  0.872861  1
  B  B8  1  0.500000  0.554084  0.432934  1
  B  B9  1  0.500000  0.446020  0.566980  1
  B  B10  1  0.500000  0.053936  0.067330  1
  B  B11  1  0.500000  0.945696  0.932878  1
  B  B12  1  0.500000  0.748510  0.419593  1
  B  B13  1  0.500000  0.251509  0.580307  1
  B  B14  1  0.500000  0.248577  0.080763  1
  B  B15  1  0.500000  0.751386  0.919543  1
  B  B16  1  0.500000  0.791015  0.266283  1
  B  B17  1  0.500000  0.209118  0.733499  1
  B  B18  1  0.500000  0.291042  0.233936  1
  B  B19  1  0.500000  0.708915  0.766160  1
  B  B20  1  0.500000  0.631158  0.185024  1
  B  B21  1  0.500000  0.369094  0.814832  1
  B  B22  1  0.500000  0.131097  0.315124  1
  B  B23  1  0.500000  0.868780  0.684886  1
  B  B24  1  0.500000  0.982841  0.213342  1
  B  B25  1  0.500000  0.016816  0.786613  1
  B  B26  1  0.500000  0.482954  0.286848  1
  B  B27  1  0.500000  0.517175  0.713094  1
  B  B28  1  0.500000  0.605972  0.029293  1
  B  B29  1  0.500000  0.394414  0.970828  1
  B  B30  1  0.500000  0.106081  0.470684  1
  B  B31  1  0.500000  0.893878  0.529296  1
  Os  Os32  1  0.000000  0.637628  0.321002  1
  Os  Os33  1  0.000000  0.362500  0.678804  1
  Os  Os34  1  0.000000  0.137479  0.179189  1
  Os  Os35  1  0.000000  0.862266  0.820888  1
