# generated using pymatgen
data_Cs2Dy2InAgTe6
_symmetry_space_group_name_H-M   'P 1'
_cell_length_a   8.97175534
_cell_length_b   8.97175553
_cell_length_c   11.83882300
_cell_angle_alpha   90.00000000
_cell_angle_beta   90.00000000
_cell_angle_gamma   150.61106535
_symmetry_Int_Tables_number   1
_chemical_formula_structural   Cs2Dy2InAgTe6
_chemical_formula_sum   'Cs2 Dy2 In1 Ag1 Te6'
_cell_volume   467.63913372
_cell_formula_units_Z   1
loop_
 _symmetry_equiv_pos_site_id
 _symmetry_equiv_pos_as_xyz
  1  'x, y, z'
loop_
 _atom_site_type_symbol
 _atom_site_label
 _atom_site_symmetry_multiplicity
 _atom_site_fract_x
 _atom_site_fract_y
 _atom_site_fract_z
 _atom_site_occupancy
  Cs  Cs0  1  0.749411  0.250587  0.250000  1
  Cs  Cs1  1  0.245518  0.754480  0.750000  1
  Dy  Dy2  1  0.004482  0.995518  0.978305  1
  Dy  Dy3  1  0.004482  0.995518  0.521695  1
  In  In4  1  0.463143  0.536855  0.250000  1
  Ag  Ag5  1  0.534913  0.465085  0.750000  1
  Te  Te6  1  0.381766  0.618232  0.049283  1
  Te  Te7  1  0.063507  0.936491  0.250000  1
  Te  Te8  1  0.381766  0.618232  0.450716  1
  Te  Te9  1  0.620071  0.379927  0.545525  1
  Te  Te10  1  0.930858  0.069140  0.750000  1
  Te  Te11  1  0.620071  0.379927  0.954475  1
