# generated using pymatgen
data_Te(PO3)4
_symmetry_space_group_name_H-M   'P 1'
_cell_length_a   8.48690100
_cell_length_b   7.16860988
_cell_length_c   7.70570956
_cell_angle_alpha   88.84403943
_cell_angle_beta   90.00000000
_cell_angle_gamma   90.00000000
_symmetry_Int_Tables_number   1
_chemical_formula_structural   Te(PO3)4
_chemical_formula_sum   'Te2 P8 O24'
_cell_volume   468.71442980
_cell_formula_units_Z   2
loop_
 _symmetry_equiv_pos_site_id
 _symmetry_equiv_pos_as_xyz
  1  'x, y, z'
loop_
 _atom_site_type_symbol
 _atom_site_label
 _atom_site_symmetry_multiplicity
 _atom_site_fract_x
 _atom_site_fract_y
 _atom_site_fract_z
 _atom_site_occupancy
  Te  Te0  1  0.719593  0.749843  0.242536  1
  Te  Te1  1  0.219593  0.250157  0.757464  1
  P  P2  1  0.906747  0.989565  0.619049  1
  P  P3  1  0.406747  0.010435  0.380951  1
  P  P4  1  0.174986  0.918219  0.094067  1
  P  P5  1  0.992189  0.598943  0.588399  1
  P  P6  1  0.376284  0.563538  0.085107  1
  P  P7  1  0.876284  0.436462  0.914893  1
  P  P8  1  0.492189  0.401057  0.411601  1
  P  P9  1  0.674986  0.081781  0.905933  1
  O  O10  1  0.816210  0.985423  0.801775  1
  O  O11  1  0.689380  0.997129  0.088950  1
  O  O12  1  0.798103  0.972820  0.468867  1
  O  O13  1  0.022649  0.920518  0.184702  1
  O  O14  1  0.015727  0.809696  0.650329  1
  O  O15  1  0.514267  0.839040  0.381923  1
  O  O16  1  0.232938  0.702957  0.072600  1
  O  O17  1  0.534395  0.664809  0.067117  1
  O  O18  1  0.938026  0.591675  0.406191  1
  O  O19  1  0.852703  0.590965  0.040989  1
  O  O20  1  0.857642  0.518763  0.719789  1
  O  O21  1  0.148353  0.506868  0.636543  1
  O  O22  1  0.648353  0.493132  0.363457  1
  O  O23  1  0.357642  0.481237  0.280211  1
  O  O24  1  0.352703  0.409035  0.959011  1
  O  O25  1  0.438026  0.408325  0.593809  1
  O  O26  1  0.034395  0.335191  0.932883  1
  O  O27  1  0.732938  0.297043  0.927400  1
  O  O28  1  0.014267  0.160960  0.618077  1
  O  O29  1  0.515727  0.190304  0.349671  1
  O  O30  1  0.522649  0.079482  0.815298  1
  O  O31  1  0.298103  0.027180  0.531133  1
  O  O32  1  0.189380  0.002871  0.911050  1
  O  O33  1  0.316210  0.014577  0.198225  1
