# generated using pymatgen
data_Rb4Zn2Sn21
_symmetry_space_group_name_H-M   'P 1'
_cell_length_a   11.97782600
_cell_length_b   11.97782639
_cell_length_c   11.98141700
_cell_angle_alpha   90.00000000
_cell_angle_beta   90.00000000
_cell_angle_gamma   90.03615838
_symmetry_Int_Tables_number   1
_chemical_formula_structural   Rb4Zn2Sn21
_chemical_formula_sum   'Rb8 Zn4 Sn42'
_cell_volume   1718.95342950
_cell_formula_units_Z   2
loop_
 _symmetry_equiv_pos_site_id
 _symmetry_equiv_pos_as_xyz
  1  'x, y, z'
loop_
 _atom_site_type_symbol
 _atom_site_label
 _atom_site_symmetry_multiplicity
 _atom_site_fract_x
 _atom_site_fract_y
 _atom_site_fract_z
 _atom_site_occupancy
  Rb  Rb0  1  0.252428  0.497775  0.250000  1
  Rb  Rb1  1  0.502225  0.747572  0.750000  1
  Rb  Rb2  1  0.997712  0.002288  0.500000  1
  Rb  Rb3  1  0.747678  0.497776  0.250000  1
  Rb  Rb4  1  0.502224  0.252322  0.750000  1
  Rb  Rb5  1  0.997712  0.002288  0.000000  1
  Rb  Rb6  1  0.501385  0.001505  0.250000  1
  Rb  Rb7  1  0.998495  0.498615  0.750000  1
  Zn  Zn8  1  0.500149  0.499851  0.500000  1
  Zn  Zn9  1  0.749948  0.000271  0.750000  1
  Zn  Zn10  1  0.999729  0.250052  0.250000  1
  Zn  Zn11  1  0.500149  0.499851  0.000000  1
  Sn  Sn12  1  0.319445  0.814374  0.431932  1
  Sn  Sn13  1  0.681523  0.182467  0.068263  1
  Sn  Sn14  1  0.681523  0.182467  0.431737  1
  Sn  Sn15  1  0.319445  0.814374  0.068068  1
  Sn  Sn16  1  0.317618  0.184768  0.070341  1
  Sn  Sn17  1  0.679647  0.816502  0.434157  1
  Sn  Sn18  1  0.679647  0.816502  0.065843  1
  Sn  Sn19  1  0.317618  0.184768  0.429659  1
  Sn  Sn20  1  0.185626  0.680555  0.931932  1
  Sn  Sn21  1  0.817533  0.318477  0.568263  1
  Sn  Sn22  1  0.817533  0.318477  0.931737  1
  Sn  Sn23  1  0.185626  0.680555  0.568068  1
  Sn  Sn24  1  0.815232  0.682382  0.570341  1
  Sn  Sn25  1  0.183498  0.320353  0.934157  1
  Sn  Sn26  1  0.183498  0.320353  0.565843  1
  Sn  Sn27  1  0.815232  0.682382  0.929659  1
  Sn  Sn28  1  0.500466  0.676469  0.369171  1
  Sn  Sn29  1  0.388452  0.000633  0.558414  1
  Sn  Sn30  1  0.190905  0.888828  0.250000  1
  Sn  Sn31  1  0.500644  0.322247  0.130469  1
  Sn  Sn32  1  0.625107  0.000478  0.927685  1
  Sn  Sn33  1  0.821719  0.125009  0.250000  1
  Sn  Sn34  1  0.500644  0.322247  0.369531  1
  Sn  Sn35  1  0.625107  0.000478  0.572315  1
  Sn  Sn36  1  0.500466  0.676469  0.130829  1
  Sn  Sn37  1  0.388452  0.000633  0.941586  1
  Sn  Sn38  1  0.176628  0.124535  0.250000  1
  Sn  Sn39  1  0.807898  0.888283  0.250000  1
  Sn  Sn40  1  0.323531  0.499534  0.869171  1
  Sn  Sn41  1  0.999367  0.611548  0.058414  1
  Sn  Sn42  1  0.111172  0.809095  0.750000  1
  Sn  Sn43  1  0.677753  0.499356  0.630469  1
  Sn  Sn44  1  0.999522  0.374893  0.427685  1
  Sn  Sn45  1  0.874991  0.178281  0.750000  1
  Sn  Sn46  1  0.677753  0.499356  0.869531  1
  Sn  Sn47  1  0.999522  0.374893  0.072315  1
  Sn  Sn48  1  0.323531  0.499534  0.630829  1
  Sn  Sn49  1  0.999367  0.611548  0.441586  1
  Sn  Sn50  1  0.875465  0.823372  0.750000  1
  Sn  Sn51  1  0.111717  0.192102  0.750000  1
  Sn  Sn52  1  0.249987  0.000245  0.750000  1
  Sn  Sn53  1  0.999755  0.750013  0.250000  1
