# generated using pymatgen
data_Tb6TcNiSn
_symmetry_space_group_name_H-M   'P 1'
_cell_length_a   8.49219753
_cell_length_b   8.49219825
_cell_length_c   8.49219725
_cell_angle_alpha   104.48934340
_cell_angle_beta   110.53007668
_cell_angle_gamma   113.52199303
_symmetry_Int_Tables_number   1
_chemical_formula_structural   Tb6TcNiSn
_chemical_formula_sum   'Tb12 Tc2 Ni2 Sn2'
_cell_volume   468.45919556
_cell_formula_units_Z   2
loop_
 _symmetry_equiv_pos_site_id
 _symmetry_equiv_pos_as_xyz
  1  'x, y, z'
loop_
 _atom_site_type_symbol
 _atom_site_label
 _atom_site_symmetry_multiplicity
 _atom_site_fract_x
 _atom_site_fract_y
 _atom_site_fract_z
 _atom_site_occupancy
  Tb  Tb0  1  0.701002  0.260256  0.961257  1
  Tb  Tb1  1  0.298998  0.739744  0.038743  1
  Tb  Tb2  1  0.701002  0.739744  0.440746  1
  Tb  Tb3  1  0.298998  0.260256  0.559254  1
  Tb  Tb4  1  0.814657  0.145878  0.331221  1
  Tb  Tb5  1  0.814657  0.483436  0.668779  1
  Tb  Tb6  1  0.185343  0.854122  0.668779  1
  Tb  Tb7  1  0.185343  0.516564  0.331221  1
  Tb  Tb8  1  0.601196  0.784701  0.816496  1
  Tb  Tb9  1  0.968206  0.784701  0.183504  1
  Tb  Tb10  1  0.031794  0.215299  0.816496  1
  Tb  Tb11  1  0.398804  0.215299  0.183504  1
  Tc  Tc12  1  0.825891  0.500000  0.325891  1
  Tc  Tc13  1  0.174109  0.500000  0.674109  1
  Ni  Ni14  1  0.000000  0.116202  0.116202  1
  Ni  Ni15  1  0.000000  0.883798  0.883798  1
  Sn  Sn16  1  0.500000  0.500000  0.000000  1
  Sn  Sn17  1  0.500000  0.000000  0.500000  1
