# generated using pymatgen
data_La2Cu3H3Pd14
_symmetry_space_group_name_H-M   'P 1'
_cell_length_a   6.93940523
_cell_length_b   6.93940417
_cell_length_c   6.93940394
_cell_angle_alpha   83.63153270
_cell_angle_beta   83.63153181
_cell_angle_gamma   83.63154909
_symmetry_Int_Tables_number   1
_chemical_formula_structural   La2Cu3H3Pd14
_chemical_formula_sum   'La2 Cu3 H3 Pd14'
_cell_volume   328.40847527
_cell_formula_units_Z   1
loop_
 _symmetry_equiv_pos_site_id
 _symmetry_equiv_pos_as_xyz
  1  'x, y, z'
loop_
 _atom_site_type_symbol
 _atom_site_label
 _atom_site_symmetry_multiplicity
 _atom_site_fract_x
 _atom_site_fract_y
 _atom_site_fract_z
 _atom_site_occupancy
  La  La0  1  0.663576  0.663576  0.663576  1
  La  La1  1  0.336424  0.336424  0.336424  1
  Cu  Cu2  1  0.000000  0.000000  0.500000  1
  Cu  Cu3  1  0.500000  0.000000  0.000000  1
  Cu  Cu4  1  0.000000  0.500000  0.000000  1
  H  H5  1  0.500000  0.500000  0.000000  1
  H  H6  1  0.000000  0.500000  0.500000  1
  H  H7  1  0.500000  0.000000  0.500000  1
  Pd  Pd8  1  0.706834  0.293166  0.000000  1
  Pd  Pd9  1  0.000000  0.706834  0.293166  1
  Pd  Pd10  1  0.293166  0.000000  0.706834  1
  Pd  Pd11  1  0.000000  0.293166  0.706834  1
  Pd  Pd12  1  0.706834  0.000000  0.293166  1
  Pd  Pd13  1  0.293166  0.706834  0.000000  1
  Pd  Pd14  1  0.347437  0.347437  0.856018  1
  Pd  Pd15  1  0.856018  0.347437  0.347437  1
  Pd  Pd16  1  0.347437  0.856018  0.347437  1
  Pd  Pd17  1  0.652563  0.652563  0.143982  1
  Pd  Pd18  1  0.143982  0.652563  0.652563  1
  Pd  Pd19  1  0.652563  0.143982  0.652563  1
  Pd  Pd20  1  0.897096  0.897096  0.897096  1
  Pd  Pd21  1  0.102904  0.102904  0.102904  1
