# generated using pymatgen
data_Na4InGa11Se20
_symmetry_space_group_name_H-M   'P 1'
_cell_length_a   9.81447192
_cell_length_b   9.81847770
_cell_length_c   9.86265618
_cell_angle_alpha   90.75080408
_cell_angle_beta   90.66543788
_cell_angle_gamma   90.42346671
_symmetry_Int_Tables_number   1
_chemical_formula_structural   Na4InGa11Se20
_chemical_formula_sum   'Na4 In1 Ga11 Se20'
_cell_volume   950.22411924
_cell_formula_units_Z   1
loop_
 _symmetry_equiv_pos_site_id
 _symmetry_equiv_pos_as_xyz
  1  'x, y, z'
loop_
 _atom_site_type_symbol
 _atom_site_label
 _atom_site_symmetry_multiplicity
 _atom_site_fract_x
 _atom_site_fract_y
 _atom_site_fract_z
 _atom_site_occupancy
  Na  Na0  1  0.258012  0.000858  0.743287  1
  Na  Na1  1  0.743345  0.256398  0.999763  1
  Na  Na2  1  0.000012  0.742435  0.254703  1
  Na  Na3  1  0.498909  0.499505  0.499321  1
  In  In4  1  0.842775  0.876094  0.574916  1
  Ga  Ga5  1  0.570571  0.838358  0.881266  1
  Ga  Ga6  1  0.879090  0.571957  0.843169  1
  Ga  Ga7  1  0.161705  0.427344  0.120877  1
  Ga  Ga8  1  0.124730  0.162842  0.425399  1
  Ga  Ga9  1  0.427651  0.121338  0.160423  1
  Ga  Ga10  1  0.744431  0.166465  0.343542  1
  Ga  Ga11  1  0.341992  0.746529  0.165178  1
  Ga  Ga12  1  0.164154  0.343296  0.746469  1
  Ga  Ga13  1  0.253870  0.657109  0.835655  1
  Ga  Ga14  1  0.833941  0.255905  0.656166  1
  Ga  Ga15  1  0.655475  0.832981  0.251331  1
  Se  Se16  1  0.177408  0.822538  0.999970  1
  Se  Se17  1  0.821859  0.998986  0.181339  1
  Se  Se18  1  0.177501  0.177852  0.175865  1
  Se  Se19  1  0.822799  0.821644  0.839674  1
  Se  Se20  1  0.999215  0.177177  0.820013  1
  Se  Se21  1  0.926205  0.497558  0.075603  1
  Se  Se22  1  0.091454  0.926164  0.492187  1
  Se  Se23  1  0.499853  0.074068  0.926367  1
  Se  Se24  1  0.745217  0.680659  0.418430  1
  Se  Se25  1  0.430072  0.749093  0.694031  1
  Se  Se26  1  0.693504  0.432510  0.750108  1
  Se  Se27  1  0.250429  0.570435  0.306395  1
  Se  Se28  1  0.307800  0.254187  0.570783  1
  Se  Se29  1  0.569551  0.308310  0.248172  1
  Se  Se30  1  0.669277  0.081863  0.569170  1
  Se  Se31  1  0.566194  0.676939  0.070404  1
  Se  Se32  1  0.069880  0.570537  0.680787  1
  Se  Se33  1  0.321066  0.430376  0.928029  1
  Se  Se34  1  0.929040  0.320610  0.430744  1
  Se  Se35  1  0.431014  0.929077  0.320464  1
