# generated using pymatgen
data_Lu5(RuO6)2
_symmetry_space_group_name_H-M   'P 1'
_cell_length_a   6.70668068
_cell_length_b   6.70668097
_cell_length_c   7.30370715
_cell_angle_alpha   74.00175160
_cell_angle_beta   74.00175016
_cell_angle_gamma   49.39562961
_symmetry_Int_Tables_number   1
_chemical_formula_structural   Lu5(RuO6)2
_chemical_formula_sum   'Lu5 Ru2 O12'
_cell_volume   237.66428445
_cell_formula_units_Z   1
loop_
 _symmetry_equiv_pos_site_id
 _symmetry_equiv_pos_as_xyz
  1  'x, y, z'
loop_
 _atom_site_type_symbol
 _atom_site_label
 _atom_site_symmetry_multiplicity
 _atom_site_fract_x
 _atom_site_fract_y
 _atom_site_fract_z
 _atom_site_occupancy
  Lu  Lu0  1  0.698702  0.698702  0.640123  1
  Lu  Lu1  1  0.301298  0.301298  0.359877  1
  Lu  Lu2  1  0.687333  0.687333  0.174204  1
  Lu  Lu3  1  0.312667  0.312667  0.825796  1
  Lu  Lu4  1  0.000000  0.000000  0.500000  1
  Ru  Ru5  1  0.777407  0.222593  0.000000  1
  Ru  Ru6  1  0.222593  0.777407  0.000000  1
  O  O7  1  0.001163  0.001163  0.205830  1
  O  O8  1  0.998837  0.998837  0.794170  1
  O  O9  1  0.576285  0.085637  0.088504  1
  O  O10  1  0.423715  0.914363  0.911496  1
  O  O11  1  0.914363  0.423715  0.911496  1
  O  O12  1  0.085637  0.576285  0.088504  1
  O  O13  1  0.498854  0.498854  0.182726  1
  O  O14  1  0.501146  0.501146  0.817274  1
  O  O15  1  0.404129  0.900862  0.428113  1
  O  O16  1  0.595871  0.099138  0.571887  1
  O  O17  1  0.099138  0.595871  0.571887  1
  O  O18  1  0.900862  0.404129  0.428113  1
