# generated using pymatgen
data_Y5Lu11Cd4OsPd3
_symmetry_space_group_name_H-M   'P 1'
_cell_length_a   9.59752230
_cell_length_b   9.58115086
_cell_length_c   9.58115152
_cell_angle_alpha   59.34610432
_cell_angle_beta   59.36065957
_cell_angle_gamma   59.36065992
_symmetry_Int_Tables_number   1
_chemical_formula_structural   Y5Lu11Cd4OsPd3
_chemical_formula_sum   'Y5 Lu11 Cd4 Os1 Pd3'
_cell_volume   613.85261648
_cell_formula_units_Z   1
loop_
 _symmetry_equiv_pos_site_id
 _symmetry_equiv_pos_as_xyz
  1  'x, y, z'
loop_
 _atom_site_type_symbol
 _atom_site_label
 _atom_site_symmetry_multiplicity
 _atom_site_fract_x
 _atom_site_fract_y
 _atom_site_fract_z
 _atom_site_occupancy
  Y  Y0  1  0.556319  0.939415  0.939415  1
  Y  Y1  1  0.565865  0.934830  0.564229  1
  Y  Y2  1  0.938748  0.557164  0.937407  1
  Y  Y3  1  0.565865  0.564229  0.934830  1
  Y  Y4  1  0.938748  0.937407  0.557164  1
  Lu  Lu5  1  0.352789  0.353514  0.353514  1
  Lu  Lu6  1  0.349988  0.350681  0.946212  1
  Lu  Lu7  1  0.349988  0.946212  0.350681  1
  Lu  Lu8  1  0.945055  0.350835  0.350835  1
  Lu  Lu9  1  0.816994  0.187200  0.187200  1
  Lu  Lu10  1  0.186659  0.811924  0.811924  1
  Lu  Lu11  1  0.186234  0.816713  0.187825  1
  Lu  Lu12  1  0.812393  0.187532  0.811273  1
  Lu  Lu13  1  0.186234  0.187825  0.816713  1
  Lu  Lu14  1  0.812393  0.811273  0.187532  1
  Lu  Lu15  1  0.937348  0.563547  0.563547  1
  Cd  Cd16  1  0.581161  0.579808  0.579808  1
  Cd  Cd17  1  0.580301  0.580251  0.256447  1
  Cd  Cd18  1  0.580301  0.256447  0.580251  1
  Cd  Cd19  1  0.254835  0.580537  0.580537  1
  Os  Os20  1  0.143928  0.144205  0.144205  1
  Pd  Pd21  1  0.144161  0.145549  0.568624  1
  Pd  Pd22  1  0.144161  0.568624  0.145549  1
  Pd  Pd23  1  0.569526  0.144275  0.144275  1
