# generated using pymatgen
data_Tb5Er5(Bi3S)2
_symmetry_space_group_name_H-M   'P 1'
_cell_length_a   9.20943600
_cell_length_b   9.20943632
_cell_length_c   6.56681500
_cell_angle_alpha   90.00000000
_cell_angle_beta   90.00000000
_cell_angle_gamma   120.01893018
_symmetry_Int_Tables_number   1
_chemical_formula_structural   Tb5Er5(Bi3S)2
_chemical_formula_sum   'Tb5 Er5 Bi6 S2'
_cell_volume   482.24598655
_cell_formula_units_Z   1
loop_
 _symmetry_equiv_pos_site_id
 _symmetry_equiv_pos_as_xyz
  1  'x, y, z'
loop_
 _atom_site_type_symbol
 _atom_site_label
 _atom_site_symmetry_multiplicity
 _atom_site_fract_x
 _atom_site_fract_y
 _atom_site_fract_z
 _atom_site_occupancy
  Tb  Tb0  1  0.247124  0.000145  0.250000  1
  Tb  Tb1  1  0.000145  0.247124  0.250000  1
  Tb  Tb2  1  0.246747  0.246747  0.750000  1
  Tb  Tb3  1  0.753312  0.999873  0.750000  1
  Tb  Tb4  1  0.999873  0.753312  0.750000  1
  Er  Er5  1  0.666606  0.333253  0.500095  1
  Er  Er6  1  0.333253  0.666606  0.500095  1
  Er  Er7  1  0.333253  0.666606  0.999905  1
  Er  Er8  1  0.666606  0.333253  0.999905  1
  Er  Er9  1  0.754514  0.754514  0.250000  1
  Bi  Bi10  1  0.399124  0.399124  0.250000  1
  Bi  Bi11  1  0.602544  0.998814  0.250000  1
  Bi  Bi12  1  0.998814  0.602544  0.250000  1
  Bi  Bi13  1  0.602406  0.602406  0.750000  1
  Bi  Bi14  1  0.397677  0.000169  0.750000  1
  Bi  Bi15  1  0.000169  0.397677  0.750000  1
  S  S16  1  0.998917  0.998917  0.499060  1
  S  S17  1  0.998917  0.998917  0.000940  1
