# generated using pymatgen
data_YHo9Al4(InC4)2
_symmetry_space_group_name_H-M   'P 1'
_cell_length_a   10.94916903
_cell_length_b   10.94866615
_cell_length_c   3.51868000
_cell_angle_alpha   90.00000000
_cell_angle_beta   90.00000000
_cell_angle_gamma   89.98582890
_symmetry_Int_Tables_number   1
_chemical_formula_structural   YHo9Al4(InC4)2
_chemical_formula_sum   'Y1 Ho9 Al4 In2 C8'
_cell_volume   421.81511051
_cell_formula_units_Z   1
loop_
 _symmetry_equiv_pos_site_id
 _symmetry_equiv_pos_as_xyz
  1  'x, y, z'
loop_
 _atom_site_type_symbol
 _atom_site_label
 _atom_site_symmetry_multiplicity
 _atom_site_fract_x
 _atom_site_fract_y
 _atom_site_fract_z
 _atom_site_occupancy
  Y  Y0  1  0.767383  0.950201  0.500000  1
  Ho  Ho1  1  0.549268  0.733526  0.500000  1
  Ho  Ho2  1  0.450165  0.266458  0.500000  1
  Ho  Ho3  1  0.049753  0.766175  0.500000  1
  Ho  Ho4  1  0.950500  0.233904  0.500000  1
  Ho  Ho5  1  0.266284  0.549588  0.500000  1
  Ho  Ho6  1  0.733773  0.450315  0.500000  1
  Ho  Ho7  1  0.233983  0.049711  0.500000  1
  Ho  Ho8  1  0.500108  0.000030  0.000000  1
  Ho  Ho9  1  0.000047  0.500026  0.000000  1
  Al  Al10  1  0.703637  0.204347  0.000000  1
  Al  Al11  1  0.296004  0.796121  0.000000  1
  Al  Al12  1  0.203918  0.296049  0.000000  1
  Al  Al13  1  0.795756  0.703378  0.000000  1
  In  In14  1  0.499978  0.499832  0.000000  1
  In  In15  1  0.001084  0.000361  0.000000  1
  C  C16  1  0.630740  0.132574  0.500000  1
  C  C17  1  0.368330  0.868441  0.500000  1
  C  C18  1  0.131544  0.368521  0.500000  1
  C  C19  1  0.868574  0.631463  0.500000  1
  C  C20  1  0.161545  0.661502  0.000000  1
  C  C21  1  0.838538  0.338579  0.000000  1
  C  C22  1  0.660592  0.837347  0.000000  1
  C  C23  1  0.338495  0.161548  0.000000  1
