# generated using pymatgen
data_Sm3Dy7(SiHg)4
_symmetry_space_group_name_H-M   'P 1'
_cell_length_a   9.02969551
_cell_length_b   8.65584173
_cell_length_c   7.59064956
_cell_angle_alpha   89.94460025
_cell_angle_beta   89.99907610
_cell_angle_gamma   129.25110519
_symmetry_Int_Tables_number   1
_chemical_formula_structural   Sm3Dy7(SiHg)4
_chemical_formula_sum   'Sm3 Dy7 Si4 Hg4'
_cell_volume   459.42580271
_cell_formula_units_Z   1
loop_
 _symmetry_equiv_pos_site_id
 _symmetry_equiv_pos_as_xyz
  1  'x, y, z'
loop_
 _atom_site_type_symbol
 _atom_site_label
 _atom_site_symmetry_multiplicity
 _atom_site_fract_x
 _atom_site_fract_y
 _atom_site_fract_z
 _atom_site_occupancy
  Sm  Sm0  1  0.066019  0.333478  0.321654  1
  Sm  Sm1  1  0.935881  0.667960  0.677971  1
  Sm  Sm2  1  0.433988  0.167745  0.821900  1
  Dy  Dy3  1  0.791574  0.546297  0.177247  1
  Dy  Dy4  1  0.564990  0.826841  0.176104  1
  Dy  Dy5  1  0.208104  0.455701  0.821661  1
  Dy  Dy6  1  0.708392  0.954745  0.679100  1
  Dy  Dy7  1  0.290225  0.046550  0.321679  1
  Dy  Dy8  1  0.000360  0.000903  0.999776  1
  Dy  Dy9  1  0.499680  0.500963  0.499915  1
  Si  Si10  1  0.382020  0.385869  0.119703  1
  Si  Si11  1  0.618365  0.616674  0.880442  1
  Si  Si12  1  0.117196  0.116404  0.619710  1
  Si  Si13  1  0.880023  0.884203  0.379207  1
  Hg  Hg14  1  0.805379  0.242126  0.985661  1
  Hg  Hg15  1  0.194129  0.751471  0.024865  1
  Hg  Hg16  1  0.688576  0.250118  0.478900  1
  Hg  Hg17  1  0.315099  0.751952  0.514505  1
