# generated using pymatgen
data_Y2Pa(GaPt)3
_symmetry_space_group_name_H-M   'P 1'
_cell_length_a   7.32003100
_cell_length_b   7.32123040
_cell_length_c   3.89040500
_cell_angle_alpha   90.00000000
_cell_angle_beta   90.00000000
_cell_angle_gamma   119.99457635
_symmetry_Int_Tables_number   1
_chemical_formula_structural   Y2Pa(GaPt)3
_chemical_formula_sum   'Y2 Pa1 Ga3 Pt3'
_cell_volume   180.57023931
_cell_formula_units_Z   1
loop_
 _symmetry_equiv_pos_site_id
 _symmetry_equiv_pos_as_xyz
  1  'x, y, z'
loop_
 _atom_site_type_symbol
 _atom_site_label
 _atom_site_symmetry_multiplicity
 _atom_site_fract_x
 _atom_site_fract_y
 _atom_site_fract_z
 _atom_site_occupancy
  Y  Y0  1  0.998522  0.406030  0.500000  1
  Y  Y1  1  0.592491  0.593970  0.500000  1
  Pa  Pa2  1  0.413242  0.000000  0.500000  1
  Ga  Ga3  1  0.758383  0.000000  0.000000  1
  Ga  Ga4  1  0.251923  0.262717  0.000000  1
  Ga  Ga5  1  0.989207  0.737283  0.000000  1
  Pt  Pt6  1  0.013170  0.000000  0.500000  1
  Pt  Pt7  1  0.649191  0.315318  0.000000  1
  Pt  Pt8  1  0.333872  0.684682  0.000000  1
