# generated using pymatgen
data_K3Ag2As2Au
_symmetry_space_group_name_H-M   'P 1'
_cell_length_a   7.86819402
_cell_length_b   7.98699781
_cell_length_c   7.86819445
_cell_angle_alpha   45.92263239
_cell_angle_beta   45.58418755
_cell_angle_gamma   45.92263238
_symmetry_Int_Tables_number   1
_chemical_formula_structural   K3Ag2As2Au
_chemical_formula_sum   'K3 Ag2 As2 Au1'
_cell_volume   231.77622734
_cell_formula_units_Z   1
loop_
 _symmetry_equiv_pos_site_id
 _symmetry_equiv_pos_as_xyz
  1  'x, y, z'
loop_
 _atom_site_type_symbol
 _atom_site_label
 _atom_site_symmetry_multiplicity
 _atom_site_fract_x
 _atom_site_fract_y
 _atom_site_fract_z
 _atom_site_occupancy
  K  K0  1  0.089703  0.089931  0.089703  1
  K  K1  1  0.910297  0.910069  0.910297  1
  K  K2  1  0.500000  0.500000  0.500000  1
  Ag  Ag3  1  0.000000  0.500000  0.500000  1
  Ag  Ag4  1  0.500000  0.500000  0.000000  1
  As  As5  1  0.753226  0.755769  0.753226  1
  As  As6  1  0.246774  0.244231  0.246774  1
  Au  Au7  1  0.500000  0.000000  0.500000  1
