# generated using pymatgen
data_CaAcInHg
_symmetry_space_group_name_H-M   'P 1'
_cell_length_a   5.63919464
_cell_length_b   5.63919457
_cell_length_c   5.63919500
_cell_angle_alpha   60.00000337
_cell_angle_beta   60.00000375
_cell_angle_gamma   59.99999534
_symmetry_Int_Tables_number   1
_chemical_formula_structural   CaAcInHg
_chemical_formula_sum   'Ca1 Ac1 In1 Hg1'
_cell_volume   126.80497337
_cell_formula_units_Z   1
loop_
 _symmetry_equiv_pos_site_id
 _symmetry_equiv_pos_as_xyz
  1  'x, y, z'
loop_
 _atom_site_type_symbol
 _atom_site_label
 _atom_site_symmetry_multiplicity
 _atom_site_fract_x
 _atom_site_fract_y
 _atom_site_fract_z
 _atom_site_occupancy
  Ca  Ca0  1  0.250000  0.250000  0.250000  1
  Ac  Ac1  1  0.750000  0.750000  0.750000  1
  In  In2  1  0.000000  0.000000  0.000000  1
  Hg  Hg3  1  0.500000  0.500000  0.500000  1
