# generated using pymatgen
data_CsInBr4
_symmetry_space_group_name_H-M   'P 1'
_cell_length_a   8.56524600
_cell_length_b   11.53820200
_cell_length_c   11.30747300
_cell_angle_alpha   90.00000000
_cell_angle_beta   90.00000000
_cell_angle_gamma   90.00000000
_symmetry_Int_Tables_number   1
_chemical_formula_structural   CsInBr4
_chemical_formula_sum   'Cs4 In4 Br16'
_cell_volume   1117.48972356
_cell_formula_units_Z   4
loop_
 _symmetry_equiv_pos_site_id
 _symmetry_equiv_pos_as_xyz
  1  'x, y, z'
loop_
 _atom_site_type_symbol
 _atom_site_label
 _atom_site_symmetry_multiplicity
 _atom_site_fract_x
 _atom_site_fract_y
 _atom_site_fract_z
 _atom_site_occupancy
  Cs  Cs0  1  0.318946  0.250000  0.250000  1
  Cs  Cs1  1  0.681054  0.750000  0.750000  1
  Cs  Cs2  1  0.181054  0.750000  0.250000  1
  Cs  Cs3  1  0.818946  0.250000  0.750000  1
  In  In4  1  0.250000  0.000000  0.679473  1
  In  In5  1  0.750000  0.000000  0.320527  1
  In  In6  1  0.250000  0.500000  0.820527  1
  In  In7  1  0.750000  0.500000  0.179473  1
  Br  Br8  1  0.165556  0.173062  0.555562  1
  Br  Br9  1  0.834444  0.826938  0.444438  1
  Br  Br10  1  0.334444  0.826938  0.555562  1
  Br  Br11  1  0.334444  0.673062  0.944438  1
  Br  Br12  1  0.665556  0.173062  0.444438  1
  Br  Br13  1  0.665556  0.326938  0.055562  1
  Br  Br14  1  0.165556  0.326938  0.944438  1
  Br  Br15  1  0.834444  0.673062  0.055562  1
  Br  Br16  1  0.983358  0.042725  0.186934  1
  Br  Br17  1  0.016642  0.957275  0.813066  1
  Br  Br18  1  0.516642  0.957275  0.186934  1
  Br  Br19  1  0.516642  0.542725  0.313066  1
  Br  Br20  1  0.483358  0.042725  0.813066  1
  Br  Br21  1  0.483358  0.457275  0.686934  1
  Br  Br22  1  0.983358  0.457275  0.313066  1
  Br  Br23  1  0.016642  0.542725  0.686934  1
