# generated using pymatgen
data_NdSmEr4(Co3P2)6
_symmetry_space_group_name_H-M   'P 1'
_cell_length_a   3.70597800
_cell_length_b   10.52402100
_cell_length_c   12.19486000
_cell_angle_alpha   90.00000000
_cell_angle_beta   90.00000000
_cell_angle_gamma   90.00000000
_symmetry_Int_Tables_number   1
_chemical_formula_structural   NdSmEr4(Co3P2)6
_chemical_formula_sum   'Nd1 Sm1 Er4 Co18 P12'
_cell_volume   475.62137243
_cell_formula_units_Z   1
loop_
 _symmetry_equiv_pos_site_id
 _symmetry_equiv_pos_as_xyz
  1  'x, y, z'
loop_
 _atom_site_type_symbol
 _atom_site_label
 _atom_site_symmetry_multiplicity
 _atom_site_fract_x
 _atom_site_fract_y
 _atom_site_fract_z
 _atom_site_occupancy
  Nd  Nd0  1  0.250000  0.750000  0.522382  1
  Sm  Sm1  1  0.750000  0.250000  0.477968  1
  Er  Er2  1  0.250000  0.933020  0.795382  1
  Er  Er3  1  0.250000  0.566980  0.795382  1
  Er  Er4  1  0.750000  0.067600  0.204876  1
  Er  Er5  1  0.750000  0.432400  0.204876  1
  Co  Co6  1  0.250000  0.250000  0.842539  1
  Co  Co7  1  0.750000  0.750000  0.156635  1
  Co  Co8  1  0.250000  0.250000  0.293802  1
  Co  Co9  1  0.750000  0.750000  0.706994  1
  Co  Co10  1  0.750000  0.250000  0.013955  1
  Co  Co11  1  0.250000  0.750000  0.986332  1
  Co  Co12  1  0.250000  0.416656  0.005038  1
  Co  Co13  1  0.250000  0.083344  0.005038  1
  Co  Co14  1  0.750000  0.583115  0.994938  1
  Co  Co15  1  0.750000  0.916885  0.994938  1
  Co  Co16  1  0.250000  0.452273  0.570799  1
  Co  Co17  1  0.250000  0.047727  0.570799  1
  Co  Co18  1  0.750000  0.545627  0.429083  1
  Co  Co19  1  0.750000  0.954373  0.429083  1
  Co  Co20  1  0.250000  0.871088  0.287530  1
  Co  Co21  1  0.250000  0.628912  0.287530  1
  Co  Co22  1  0.750000  0.129543  0.712252  1
  Co  Co23  1  0.750000  0.370457  0.712252  1
  P  P24  1  0.250000  0.250000  0.116741  1
  P  P25  1  0.750000  0.750000  0.883621  1
  P  P26  1  0.250000  0.250000  0.658796  1
  P  P27  1  0.750000  0.750000  0.339700  1
  P  P28  1  0.250000  0.440727  0.382287  1
  P  P29  1  0.250000  0.059273  0.382287  1
  P  P30  1  0.750000  0.557533  0.618159  1
  P  P31  1  0.750000  0.942467  0.618159  1
  P  P32  1  0.250000  0.903501  0.106156  1
  P  P33  1  0.250000  0.596499  0.106156  1
  P  P34  1  0.750000  0.097004  0.893768  1
  P  P35  1  0.750000  0.402996  0.893768  1
