# generated using pymatgen
data_AcSi3Rh
_symmetry_space_group_name_H-M   'P 1'
_cell_length_a   4.37716147
_cell_length_b   4.37716097
_cell_length_c   5.86862983
_cell_angle_alpha   111.89636333
_cell_angle_beta   111.89635811
_cell_angle_gamma   89.99999705
_symmetry_Int_Tables_number   1
_chemical_formula_structural   AcSi3Rh
_chemical_formula_sum   'Ac1 Si3 Rh1'
_cell_volume   95.53108935
_cell_formula_units_Z   1
loop_
 _symmetry_equiv_pos_site_id
 _symmetry_equiv_pos_as_xyz
  1  'x, y, z'
loop_
 _atom_site_type_symbol
 _atom_site_label
 _atom_site_symmetry_multiplicity
 _atom_site_fract_x
 _atom_site_fract_y
 _atom_site_fract_z
 _atom_site_occupancy
  Ac  Ac0  1  0.005549  0.005549  0.011098  1
  Si  Si1  1  0.763000  0.262999  0.525999  1
  Si  Si2  1  0.262999  0.763000  0.525999  1
  Si  Si3  1  0.409811  0.409811  0.819622  1
  Rh  Rh4  1  0.656643  0.656643  0.313284  1
