# generated using pymatgen
data_Sm2BeB3Rh5
_symmetry_space_group_name_H-M   'P 1'
_cell_length_a   7.60752485
_cell_length_b   6.42392659
_cell_length_c   5.61725736
_cell_angle_alpha   77.25354538
_cell_angle_beta   55.70129210
_cell_angle_gamma   46.25086271
_symmetry_Int_Tables_number   1
_chemical_formula_structural   Sm2BeB3Rh5
_chemical_formula_sum   'Sm2 Be1 B3 Rh5'
_cell_volume   157.11194333
_cell_formula_units_Z   1
loop_
 _symmetry_equiv_pos_site_id
 _symmetry_equiv_pos_as_xyz
  1  'x, y, z'
loop_
 _atom_site_type_symbol
 _atom_site_label
 _atom_site_symmetry_multiplicity
 _atom_site_fract_x
 _atom_site_fract_y
 _atom_site_fract_z
 _atom_site_occupancy
  Sm  Sm0  1  0.864197  0.862060  0.137940  1
  Sm  Sm1  1  0.144763  0.144640  0.855360  1
  Be  Be2  1  0.782193  0.484011  0.515989  1
  B  B3  1  0.203716  0.531522  0.468478  1
  B  B4  1  0.536620  0.207107  0.792893  1
  B  B5  1  0.472072  0.786612  0.213388  1
  Rh  Rh6  1  0.750895  0.752811  0.756776  1
  Rh  Rh7  1  0.497082  0.500194  0.004764  1
  Rh  Rh8  1  0.485939  0.492582  0.507418  1
  Rh  Rh9  1  0.002040  0.995236  0.499806  1
  Rh  Rh10  1  0.260482  0.243224  0.247189  1
