# generated using pymatgen
data_PrCo2(Sb6Os)2
_symmetry_space_group_name_H-M   'P 1'
_cell_length_a   8.10293221
_cell_length_b   8.04322474
_cell_length_c   8.04322500
_cell_angle_alpha   109.11069670
_cell_angle_beta   109.45472613
_cell_angle_gamma   109.54746341
_symmetry_Int_Tables_number   1
_chemical_formula_structural   PrCo2(Sb6Os)2
_chemical_formula_sum   'Pr1 Co2 Sb12 Os2'
_cell_volume   405.02064448
_cell_formula_units_Z   1
loop_
 _symmetry_equiv_pos_site_id
 _symmetry_equiv_pos_as_xyz
  1  'x, y, z'
loop_
 _atom_site_type_symbol
 _atom_site_label
 _atom_site_symmetry_multiplicity
 _atom_site_fract_x
 _atom_site_fract_y
 _atom_site_fract_z
 _atom_site_occupancy
  Pr  Pr0  1  0.000000  0.000000  0.000000  1
  Co  Co1  1  0.500000  0.500000  0.500000  1
  Co  Co2  1  0.500000  0.000000  0.000000  1
  Sb  Sb3  1  0.164984  0.495700  0.342349  1
  Sb  Sb4  1  0.506118  0.666852  0.839265  1
  Sb  Sb5  1  0.341392  0.846750  0.177471  1
  Sb  Sb6  1  0.816188  0.659668  0.156520  1
  Sb  Sb7  1  0.658608  0.836078  0.505359  1
  Sb  Sb8  1  0.183812  0.340332  0.843480  1
  Sb  Sb9  1  0.658608  0.153250  0.822529  1
  Sb  Sb10  1  0.341392  0.163922  0.494641  1
  Sb  Sb11  1  0.493882  0.333148  0.160735  1
  Sb  Sb12  1  0.835016  0.504300  0.657651  1
  Sb  Sb13  1  0.835016  0.177367  0.330715  1
  Sb  Sb14  1  0.164984  0.822633  0.669285  1
  Os  Os15  1  0.000000  0.500000  0.000000  1
  Os  Os16  1  0.000000  0.000000  0.500000  1
