# generated using pymatgen
data_K4Cu3AgF12
_symmetry_space_group_name_H-M   'P 1'
_cell_length_a   7.20829939
_cell_length_b   7.20829896
_cell_length_c   7.20829900
_cell_angle_alpha   109.47121794
_cell_angle_beta   109.47121674
_cell_angle_gamma   109.47121778
_symmetry_Int_Tables_number   1
_chemical_formula_structural   K4Cu3AgF12
_chemical_formula_sum   'K4 Cu3 Ag1 F12'
_cell_volume   288.32118842
_cell_formula_units_Z   1
loop_
 _symmetry_equiv_pos_site_id
 _symmetry_equiv_pos_as_xyz
  1  'x, y, z'
loop_
 _atom_site_type_symbol
 _atom_site_label
 _atom_site_symmetry_multiplicity
 _atom_site_fract_x
 _atom_site_fract_y
 _atom_site_fract_z
 _atom_site_occupancy
  K  K0  1  0.500000  0.500000  0.500000  1
  K  K1  1  0.000000  0.500000  0.000000  1
  K  K2  1  0.500000  0.000000  0.000000  1
  K  K3  1  0.000000  0.000000  0.500000  1
  Cu  Cu4  1  0.500000  0.500000  0.000000  1
  Cu  Cu5  1  0.000000  0.500000  0.500000  1
  Cu  Cu6  1  0.500000  0.000000  0.500000  1
  Ag  Ag7  1  0.000000  0.000000  0.000000  1
  F  F8  1  0.250000  0.500000  0.750000  1
  F  F9  1  0.270394  0.270394  0.000000  1
  F  F10  1  0.000000  0.729606  0.729606  1
  F  F11  1  0.000000  0.270394  0.270394  1
  F  F12  1  0.270394  0.000000  0.270394  1
  F  F13  1  0.729606  0.729606  0.000000  1
  F  F14  1  0.729606  0.000000  0.729606  1
  F  F15  1  0.750000  0.500000  0.250000  1
  F  F16  1  0.500000  0.750000  0.250000  1
  F  F17  1  0.500000  0.250000  0.750000  1
  F  F18  1  0.750000  0.250000  0.500000  1
  F  F19  1  0.250000  0.750000  0.500000  1
