# generated using pymatgen
data_Rb4Li2SmInSb4
_symmetry_space_group_name_H-M   'P 1'
_cell_length_a   9.93808479
_cell_length_b   9.93820473
_cell_length_c   9.93806115
_cell_angle_alpha   137.50712033
_cell_angle_beta   61.48991619
_cell_angle_gamma   137.72706440
_symmetry_Int_Tables_number   1
_chemical_formula_structural   Rb4Li2SmInSb4
_chemical_formula_sum   'Rb4 Li2 Sm1 In1 Sb4'
_cell_volume   440.93271519
_cell_formula_units_Z   1
loop_
 _symmetry_equiv_pos_site_id
 _symmetry_equiv_pos_as_xyz
  1  'x, y, z'
loop_
 _atom_site_type_symbol
 _atom_site_label
 _atom_site_symmetry_multiplicity
 _atom_site_fract_x
 _atom_site_fract_y
 _atom_site_fract_z
 _atom_site_occupancy
  Rb  Rb0  1  0.815326  0.256299  0.091023  1
  Rb  Rb1  1  0.684665  0.775691  0.440970  1
  Rb  Rb2  1  0.334721  0.243701  0.559031  1
  Rb  Rb3  1  0.165271  0.724307  0.908976  1
  Li  Li4  1  0.750007  0.250006  0.500005  1
  Li  Li5  1  0.249998  0.749996  0.499994  1
  Sm  Sm6  1  0.250000  0.249997  0.000001  1
  In  In7  1  0.750028  0.750003  0.000011  1
  Sb  Sb8  1  0.410415  0.754461  0.150360  1
  Sb  Sb9  1  0.089574  0.239928  0.344023  1
  Sb  Sb10  1  0.895899  0.745539  0.655958  1
  Sb  Sb11  1  0.604095  0.260075  0.849648  1
