# generated using pymatgen
data_Y20CoBi8Ru3
_symmetry_space_group_name_H-M   'P 1'
_cell_length_a   7.99419091
_cell_length_b   9.02966400
_cell_length_c   12.46740873
_cell_angle_alpha   90.00000000
_cell_angle_beta   90.22008162
_cell_angle_gamma   90.00000000
_symmetry_Int_Tables_number   1
_chemical_formula_structural   Y20CoBi8Ru3
_chemical_formula_sum   'Y20 Co1 Bi8 Ru3'
_cell_volume   899.95148842
_cell_formula_units_Z   1
loop_
 _symmetry_equiv_pos_site_id
 _symmetry_equiv_pos_as_xyz
  1  'x, y, z'
loop_
 _atom_site_type_symbol
 _atom_site_label
 _atom_site_symmetry_multiplicity
 _atom_site_fract_x
 _atom_site_fract_y
 _atom_site_fract_z
 _atom_site_occupancy
  Y  Y0  1  0.844461  0.750000  0.798006  1
  Y  Y1  1  0.156919  0.250000  0.206896  1
  Y  Y2  1  0.342658  0.250000  0.708252  1
  Y  Y3  1  0.655798  0.750000  0.293678  1
  Y  Y4  1  0.375342  0.750000  0.694031  1
  Y  Y5  1  0.623708  0.250000  0.306486  1
  Y  Y6  1  0.875197  0.250000  0.807138  1
  Y  Y7  1  0.121228  0.750000  0.189025  1
  Y  Y8  1  0.947107  0.750000  0.504526  1
  Y  Y9  1  0.052745  0.250000  0.496104  1
  Y  Y10  1  0.450375  0.250000  0.996625  1
  Y  Y11  1  0.551527  0.750000  0.003177  1
  Y  Y12  1  0.676279  0.040778  0.565264  1
  Y  Y13  1  0.322954  0.958174  0.434482  1
  Y  Y14  1  0.176580  0.958344  0.935088  1
  Y  Y15  1  0.322954  0.541826  0.434482  1
  Y  Y16  1  0.824425  0.036286  0.063991  1
  Y  Y17  1  0.676279  0.459222  0.565264  1
  Y  Y18  1  0.824425  0.463714  0.063991  1
  Y  Y19  1  0.176580  0.541656  0.935088  1
  Co  Co20  1  0.931498  0.750000  0.009213  1
  Bi  Bi21  1  0.570494  0.492822  0.827789  1
  Bi  Bi22  1  0.430300  0.507661  0.171864  1
  Bi  Bi23  1  0.068993  0.507456  0.673084  1
  Bi  Bi24  1  0.430300  0.992339  0.171864  1
  Bi  Bi25  1  0.930419  0.493102  0.326890  1
  Bi  Bi26  1  0.570494  0.007178  0.827789  1
  Bi  Bi27  1  0.930419  0.006898  0.326890  1
  Bi  Bi28  1  0.068993  0.992544  0.673084  1
  Ru  Ru29  1  0.572809  0.750000  0.511156  1
  Ru  Ru30  1  0.426324  0.250000  0.489195  1
  Ru  Ru31  1  0.071414  0.250000  0.989592  1
