# generated using pymatgen
data_Tb3Ho5Re(B8Ru)3
_symmetry_space_group_name_H-M   'P 1'
_cell_length_a   3.66715500
_cell_length_b   9.14031208
_cell_length_c   11.53031701
_cell_angle_alpha   90.13069506
_cell_angle_beta   90.00000000
_cell_angle_gamma   90.00000000
_symmetry_Int_Tables_number   1
_chemical_formula_structural   Tb3Ho5Re(B8Ru)3
_chemical_formula_sum   'Tb3 Ho5 Re1 B24 Ru3'
_cell_volume   386.48301178
_cell_formula_units_Z   1
loop_
 _symmetry_equiv_pos_site_id
 _symmetry_equiv_pos_as_xyz
  1  'x, y, z'
loop_
 _atom_site_type_symbol
 _atom_site_label
 _atom_site_symmetry_multiplicity
 _atom_site_fract_x
 _atom_site_fract_y
 _atom_site_fract_z
 _atom_site_occupancy
  Tb  Tb0  1  0.000000  0.323074  0.415030  1
  Tb  Tb1  1  0.000000  0.679815  0.587988  1
  Tb  Tb2  1  0.000000  0.822829  0.083635  1
  Ho  Ho3  1  0.000000  0.176150  0.913462  1
  Ho  Ho4  1  0.000000  0.943127  0.370953  1
  Ho  Ho5  1  0.000000  0.056513  0.627859  1
  Ho  Ho6  1  0.000000  0.442498  0.128582  1
  Ho  Ho7  1  0.000000  0.555876  0.872416  1
  Re  Re8  1  0.000000  0.862568  0.821123  1
  B  B9  1  0.500000  0.554269  0.432962  1
  B  B10  1  0.500000  0.446024  0.567414  1
  B  B11  1  0.500000  0.054073  0.067482  1
  B  B12  1  0.500000  0.947239  0.933004  1
  B  B13  1  0.500000  0.748473  0.419145  1
  B  B14  1  0.500000  0.251883  0.580644  1
  B  B15  1  0.500000  0.248096  0.080698  1
  B  B16  1  0.500000  0.751296  0.919027  1
  B  B17  1  0.500000  0.790141  0.265980  1
  B  B18  1  0.500000  0.209245  0.733334  1
  B  B19  1  0.500000  0.290607  0.234016  1
  B  B20  1  0.500000  0.708489  0.766064  1
  B  B21  1  0.500000  0.630753  0.185398  1
  B  B22  1  0.500000  0.368250  0.814467  1
  B  B23  1  0.500000  0.131562  0.314744  1
  B  B24  1  0.500000  0.869022  0.685542  1
  B  B25  1  0.500000  0.983799  0.212553  1
  B  B26  1  0.500000  0.017989  0.787382  1
  B  B27  1  0.500000  0.483538  0.287887  1
  B  B28  1  0.500000  0.516360  0.712763  1
  B  B29  1  0.500000  0.605026  0.029900  1
  B  B30  1  0.500000  0.392392  0.970847  1
  B  B31  1  0.500000  0.106844  0.469971  1
  B  B32  1  0.500000  0.894064  0.528611  1
  Ru  Ru33  1  0.000000  0.637879  0.320960  1
  Ru  Ru34  1  0.000000  0.362129  0.678810  1
  Ru  Ru35  1  0.000000  0.138104  0.179346  1
