# generated using pymatgen
data_Ac2Pd17
_symmetry_space_group_name_H-M   'P 1'
_cell_length_a   7.03319314
_cell_length_b   7.03319254
_cell_length_c   7.03319253
_cell_angle_alpha   82.87813812
_cell_angle_beta   82.87814045
_cell_angle_gamma   82.87814445
_symmetry_Int_Tables_number   1
_chemical_formula_structural   Ac2Pd17
_chemical_formula_sum   'Ac2 Pd17'
_cell_volume   340.46455294
_cell_formula_units_Z   1
loop_
 _symmetry_equiv_pos_site_id
 _symmetry_equiv_pos_as_xyz
  1  'x, y, z'
loop_
 _atom_site_type_symbol
 _atom_site_label
 _atom_site_symmetry_multiplicity
 _atom_site_fract_x
 _atom_site_fract_y
 _atom_site_fract_z
 _atom_site_occupancy
  Ac  Ac0  1  0.664609  0.664609  0.664609  1
  Ac  Ac1  1  0.335391  0.335391  0.335391  1
  Pd  Pd2  1  0.348875  0.348875  0.844264  1
  Pd  Pd3  1  0.844264  0.348875  0.348875  1
  Pd  Pd4  1  0.101199  0.101199  0.101199  1
  Pd  Pd5  1  0.898801  0.898801  0.898801  1
  Pd  Pd6  1  0.000000  0.000000  0.500000  1
  Pd  Pd7  1  0.000000  0.500000  0.000000  1
  Pd  Pd8  1  0.500000  0.000000  0.000000  1
  Pd  Pd9  1  0.295939  0.704061  0.000000  1
  Pd  Pd10  1  0.704061  0.000000  0.295939  1
  Pd  Pd11  1  0.000000  0.295939  0.704061  1
  Pd  Pd12  1  0.704061  0.295939  0.000000  1
  Pd  Pd13  1  0.295939  0.000000  0.704061  1
  Pd  Pd14  1  0.000000  0.704061  0.295939  1
  Pd  Pd15  1  0.155736  0.651125  0.651125  1
  Pd  Pd16  1  0.651125  0.651125  0.155736  1
  Pd  Pd17  1  0.651125  0.155736  0.651125  1
  Pd  Pd18  1  0.348875  0.844264  0.348875  1
