# generated using pymatgen
data_K3RbCaMnIn2F14
_symmetry_space_group_name_H-M   'P 1'
_cell_length_a   8.12589242
_cell_length_b   8.12589069
_cell_length_c   8.17096300
_cell_angle_alpha   120.91569576
_cell_angle_beta   117.82553686
_cell_angle_gamma   90.80240620
_symmetry_Int_Tables_number   1
_chemical_formula_structural   K3RbCaMnIn2F14
_chemical_formula_sum   'K3 Rb1 Ca1 Mn1 In2 F14'
_cell_volume   385.76799481
_cell_formula_units_Z   1
loop_
 _symmetry_equiv_pos_site_id
 _symmetry_equiv_pos_as_xyz
  1  'x, y, z'
loop_
 _atom_site_type_symbol
 _atom_site_label
 _atom_site_symmetry_multiplicity
 _atom_site_fract_x
 _atom_site_fract_y
 _atom_site_fract_z
 _atom_site_occupancy
  K  K0  1  0.500000  0.500000  0.000000  1
  K  K1  1  0.000000  0.000000  0.000000  1
  K  K2  1  0.000000  0.000000  0.500000  1
  Rb  Rb3  1  0.000000  0.500000  0.000000  1
  Ca  Ca4  1  0.500000  0.000000  0.000000  1
  Mn  Mn5  1  0.500000  0.500000  0.500000  1
  In  In6  1  0.000000  0.500000  0.500000  1
  In  In7  1  0.500000  0.000000  0.500000  1
  F  F8  1  0.867570  0.592352  0.285452  1
  F  F9  1  0.193099  0.917882  0.285452  1
  F  F10  1  0.174420  0.811258  0.761303  1
  F  F11  1  0.455420  0.693214  0.384407  1
  F  F12  1  0.450043  0.086883  0.761303  1
  F  F13  1  0.191193  0.428987  0.384407  1
  F  F14  1  0.808807  0.571013  0.615593  1
  F  F15  1  0.549957  0.913117  0.238697  1
  F  F16  1  0.544580  0.306786  0.615593  1
  F  F17  1  0.825580  0.188742  0.238697  1
  F  F18  1  0.399767  0.260710  0.160476  1
  F  F19  1  0.132430  0.407648  0.714548  1
  F  F20  1  0.806901  0.082118  0.714548  1
  F  F21  1  0.600233  0.739290  0.839524  1
