# generated using pymatgen
data_HfTa3(VSi)4
_symmetry_space_group_name_H-M   'P 1'
_cell_length_a   3.40616300
_cell_length_b   6.62798582
_cell_length_c   7.96633902
_cell_angle_alpha   90.29122045
_cell_angle_beta   90.00000000
_cell_angle_gamma   90.00000000
_symmetry_Int_Tables_number   1
_chemical_formula_structural   HfTa3(VSi)4
_chemical_formula_sum   'Hf1 Ta3 V4 Si4'
_cell_volume   179.84574727
_cell_formula_units_Z   1
loop_
 _symmetry_equiv_pos_site_id
 _symmetry_equiv_pos_as_xyz
  1  'x, y, z'
loop_
 _atom_site_type_symbol
 _atom_site_label
 _atom_site_symmetry_multiplicity
 _atom_site_fract_x
 _atom_site_fract_y
 _atom_site_fract_z
 _atom_site_occupancy
  Hf  Hf0  1  0.750000  0.545271  0.833211  1
  Ta  Ta1  1  0.250000  0.954975  0.332308  1
  Ta  Ta2  1  0.250000  0.453618  0.170535  1
  Ta  Ta3  1  0.750000  0.046104  0.665062  1
  V  V4  1  0.250000  0.369379  0.560290  1
  V  V5  1  0.250000  0.873477  0.940238  1
  V  V6  1  0.750000  0.630852  0.437043  1
  V  V7  1  0.750000  0.128798  0.062285  1
  Si  Si8  1  0.250000  0.748409  0.635326  1
  Si  Si9  1  0.250000  0.239620  0.861746  1
  Si  Si10  1  0.750000  0.254308  0.362778  1
  Si  Si11  1  0.750000  0.755187  0.139179  1
