# generated using pymatgen
data_Hf4Ta2Al7
_symmetry_space_group_name_H-M   'P 1'
_cell_length_a   10.08659496
_cell_length_b   10.08659491
_cell_length_c   10.08659529
_cell_angle_alpha   30.13514987
_cell_angle_beta   30.13516192
_cell_angle_gamma   30.13515642
_symmetry_Int_Tables_number   1
_chemical_formula_structural   Hf4Ta2Al7
_chemical_formula_sum   'Hf4 Ta2 Al7'
_cell_volume   229.15377129
_cell_formula_units_Z   1
loop_
 _symmetry_equiv_pos_site_id
 _symmetry_equiv_pos_as_xyz
  1  'x, y, z'
loop_
 _atom_site_type_symbol
 _atom_site_label
 _atom_site_symmetry_multiplicity
 _atom_site_fract_x
 _atom_site_fract_y
 _atom_site_fract_z
 _atom_site_occupancy
  Hf  Hf0  1  0.834447  0.834447  0.834447  1
  Hf  Hf1  1  0.165553  0.165553  0.165553  1
  Hf  Hf2  1  0.648330  0.648330  0.648330  1
  Hf  Hf3  1  0.351670  0.351670  0.351670  1
  Ta  Ta4  1  0.544592  0.544592  0.544592  1
  Ta  Ta5  1  0.455408  0.455408  0.455408  1
  Al  Al6  1  0.000000  0.000000  0.000000  1
  Al  Al7  1  0.908402  0.414722  0.908402  1
  Al  Al8  1  0.908402  0.908402  0.414722  1
  Al  Al9  1  0.414722  0.908402  0.908402  1
  Al  Al10  1  0.091598  0.585278  0.091598  1
  Al  Al11  1  0.091598  0.091598  0.585278  1
  Al  Al12  1  0.585278  0.091598  0.091598  1
