# generated using pymatgen
data_Tm5SiTe4
_symmetry_space_group_name_H-M   'P 1'
_cell_length_a   7.44838991
_cell_length_b   7.44838906
_cell_length_c   10.48774735
_cell_angle_alpha   61.49348857
_cell_angle_beta   61.49349296
_cell_angle_gamma   33.02267886
_symmetry_Int_Tables_number   1
_chemical_formula_structural   Tm5SiTe4
_chemical_formula_sum   'Tm5 Si1 Te4'
_cell_volume   275.01080493
_cell_formula_units_Z   1
loop_
 _symmetry_equiv_pos_site_id
 _symmetry_equiv_pos_as_xyz
  1  'x, y, z'
loop_
 _atom_site_type_symbol
 _atom_site_label
 _atom_site_symmetry_multiplicity
 _atom_site_fract_x
 _atom_site_fract_y
 _atom_site_fract_z
 _atom_site_occupancy
  Tm  Tm0  1  0.000000  0.000000  0.500000  1
  Tm  Tm1  1  0.582335  0.582335  0.087788  1
  Tm  Tm2  1  0.183122  0.183122  0.731567  1
  Tm  Tm3  1  0.816878  0.816878  0.268433  1
  Tm  Tm4  1  0.417665  0.417665  0.912212  1
  Si  Si5  1  0.000000  0.000000  0.000000  1
  Te  Te6  1  0.609090  0.609090  0.588857  1
  Te  Te7  1  0.194616  0.194616  0.193796  1
  Te  Te8  1  0.805384  0.805384  0.806204  1
  Te  Te9  1  0.390910  0.390910  0.411143  1
