# generated using pymatgen
data_FeCo(MoH2)2
_symmetry_space_group_name_H-M   'P 1'
_cell_length_a   4.70078994
_cell_length_b   4.70078786
_cell_length_c   2.74807900
_cell_angle_alpha   90.00000000
_cell_angle_beta   90.00000000
_cell_angle_gamma   98.78164535
_symmetry_Int_Tables_number   1
_chemical_formula_structural   FeCo(MoH2)2
_chemical_formula_sum   'Fe1 Co1 Mo2 H4'
_cell_volume   60.01358188
_cell_formula_units_Z   1
loop_
 _symmetry_equiv_pos_site_id
 _symmetry_equiv_pos_as_xyz
  1  'x, y, z'
loop_
 _atom_site_type_symbol
 _atom_site_label
 _atom_site_symmetry_multiplicity
 _atom_site_fract_x
 _atom_site_fract_y
 _atom_site_fract_z
 _atom_site_occupancy
  Fe  Fe0  1  0.698878  0.698878  0.000000  1
  Co  Co1  1  0.296634  0.296634  0.000000  1
  Mo  Mo2  1  0.212929  0.790777  0.500000  1
  Mo  Mo3  1  0.790777  0.212929  0.500000  1
  H  H4  1  0.503048  0.997074  0.000000  1
  H  H5  1  0.994720  0.994720  0.000000  1
  H  H6  1  0.997074  0.503048  0.000000  1
  H  H7  1  0.505941  0.505941  0.500000  1
