# generated using pymatgen
data_SrCaHgN
_symmetry_space_group_name_H-M   'P 1'
_cell_length_a   10.57429200
_cell_length_b   10.57428984
_cell_length_c   5.14934300
_cell_angle_alpha   90.00000000
_cell_angle_beta   90.00000000
_cell_angle_gamma   160.99130658
_symmetry_Int_Tables_number   1
_chemical_formula_structural   SrCaHgN
_chemical_formula_sum   'Sr2 Ca2 Hg2 N2'
_cell_volume   187.53726311
_cell_formula_units_Z   2
loop_
 _symmetry_equiv_pos_site_id
 _symmetry_equiv_pos_as_xyz
  1  'x, y, z'
loop_
 _atom_site_type_symbol
 _atom_site_label
 _atom_site_symmetry_multiplicity
 _atom_site_fract_x
 _atom_site_fract_y
 _atom_site_fract_z
 _atom_site_occupancy
  Sr  Sr0  1  0.382251  0.617749  0.750000  1
  Sr  Sr1  1  0.617749  0.382251  0.250000  1
  Ca  Ca2  1  0.221145  0.778855  0.750000  1
  Ca  Ca3  1  0.778855  0.221145  0.250000  1
  Hg  Hg4  1  0.041894  0.958106  0.750000  1
  Hg  Hg5  1  0.958106  0.041894  0.250000  1
  N  N6  1  0.797985  0.202015  0.750000  1
  N  N7  1  0.202015  0.797985  0.250000  1
