# generated using pymatgen
data_K2V(TeO4)3
_symmetry_space_group_name_H-M   'P 1'
_cell_length_a   7.13723634
_cell_length_b   7.25865780
_cell_length_c   7.13643929
_cell_angle_alpha   90.00027798
_cell_angle_beta   61.13144136
_cell_angle_gamma   120.56827271
_symmetry_Int_Tables_number   1
_chemical_formula_structural   K2V(TeO4)3
_chemical_formula_sum   'K2 V1 Te3 O12'
_cell_volume   263.58080804
_cell_formula_units_Z   1
loop_
 _symmetry_equiv_pos_site_id
 _symmetry_equiv_pos_as_xyz
  1  'x, y, z'
loop_
 _atom_site_type_symbol
 _atom_site_label
 _atom_site_symmetry_multiplicity
 _atom_site_fract_x
 _atom_site_fract_y
 _atom_site_fract_z
 _atom_site_occupancy
  K  K0  1  0.262756  0.128584  0.631287  1
  K  K1  1  0.737245  0.865824  0.368711  1
  V  V2  1  0.000008  0.497412  0.999994  1
  Te  Te3  1  0.499983  0.497275  0.999997  1
  Te  Te4  1  0.500018  0.997292  0.000002  1
  Te  Te5  1  0.999999  0.497300  0.500001  1
  O  O6  1  0.653973  0.824321  0.928843  1
  O  O7  1  0.859231  0.427013  0.320609  1
  O  O8  1  0.250289  0.426982  0.929579  1
  O  O9  1  0.255769  0.824304  0.327009  1
  O  O10  1  0.250227  0.818007  0.929616  1
  O  O11  1  0.255819  0.426194  0.326996  1
  O  O12  1  0.346028  0.170321  0.071157  1
  O  O13  1  0.140765  0.567767  0.679396  1
  O  O14  1  0.749736  0.567781  0.070401  1
  O  O15  1  0.744168  0.170362  0.673019  1
  O  O16  1  0.749744  0.176727  0.070406  1
  O  O17  1  0.744242  0.568536  0.672977  1
