# generated using pymatgen
data_Tm12Fe4CuSn
_symmetry_space_group_name_H-M   'P 1'
_cell_length_a   8.20575594
_cell_length_b   8.20575540
_cell_length_c   8.20575532
_cell_angle_alpha   110.87684425
_cell_angle_beta   111.10843492
_cell_angle_gamma   106.46953267
_symmetry_Int_Tables_number   1
_chemical_formula_structural   Tm12Fe4CuSn
_chemical_formula_sum   'Tm12 Fe4 Cu1 Sn1'
_cell_volume   424.46609748
_cell_formula_units_Z   1
loop_
 _symmetry_equiv_pos_site_id
 _symmetry_equiv_pos_as_xyz
  1  'x, y, z'
loop_
 _atom_site_type_symbol
 _atom_site_label
 _atom_site_symmetry_multiplicity
 _atom_site_fract_x
 _atom_site_fract_y
 _atom_site_fract_z
 _atom_site_occupancy
  Tm  Tm0  1  0.422425  0.219965  0.202460  1
  Tm  Tm1  1  0.577575  0.780035  0.797540  1
  Tm  Tm2  1  0.017504  0.219965  0.797540  1
  Tm  Tm3  1  0.982496  0.780035  0.202460  1
  Tm  Tm4  1  0.187003  0.287129  0.474131  1
  Tm  Tm5  1  0.812997  0.712871  0.525869  1
  Tm  Tm6  1  0.187003  0.712871  0.899874  1
  Tm  Tm7  1  0.812997  0.287129  0.100126  1
  Tm  Tm8  1  0.311980  0.613831  0.301849  1
  Tm  Tm9  1  0.688020  0.386169  0.698151  1
  Tm  Tm10  1  0.311980  0.010132  0.698151  1
  Tm  Tm11  1  0.688020  0.989868  0.301849  1
  Fe  Fe12  1  0.382874  0.000000  0.382874  1
  Fe  Fe13  1  0.617126  0.000000  0.617126  1
  Fe  Fe14  1  0.108775  0.608775  0.500000  1
  Fe  Fe15  1  0.891225  0.391225  0.500000  1
  Cu  Cu16  1  0.000000  0.000000  0.000000  1
  Sn  Sn17  1  0.500000  0.500000  0.000000  1
