# generated using pymatgen
data_Tm4MnNiC8
_symmetry_space_group_name_H-M   'P 1'
_cell_length_a   6.51151167
_cell_length_b   6.51151129
_cell_length_c   6.51151103
_cell_angle_alpha   134.78304006
_cell_angle_beta   109.70020020
_cell_angle_gamma   87.62023695
_symmetry_Int_Tables_number   1
_chemical_formula_structural   Tm4MnNiC8
_chemical_formula_sum   'Tm4 Mn1 Ni1 C8'
_cell_volume   176.38179065
_cell_formula_units_Z   1
loop_
 _symmetry_equiv_pos_site_id
 _symmetry_equiv_pos_as_xyz
  1  'x, y, z'
loop_
 _atom_site_type_symbol
 _atom_site_label
 _atom_site_symmetry_multiplicity
 _atom_site_fract_x
 _atom_site_fract_y
 _atom_site_fract_z
 _atom_site_occupancy
  Tm  Tm0  1  0.511201  0.355367  0.156179  1
  Tm  Tm1  1  0.488799  0.644978  0.844166  1
  Tm  Tm2  1  0.199186  0.855022  0.343821  1
  Tm  Tm3  1  0.800814  0.144633  0.655834  1
  Mn  Mn4  1  0.000000  0.750000  0.750000  1
  Ni  Ni5  1  0.000000  0.250000  0.250000  1
  C  C6  1  0.253713  0.052200  0.144674  1
  C  C7  1  0.746287  0.890962  0.798488  1
  C  C8  1  0.907527  0.609038  0.355326  1
  C  C9  1  0.092473  0.447800  0.701512  1
  C  C10  1  0.471889  0.133439  0.347324  1
  C  C11  1  0.528111  0.875434  0.661549  1
  C  C12  1  0.786115  0.624566  0.152676  1
  C  C13  1  0.213885  0.366561  0.838451  1
