# generated using pymatgen
data_TmLu11OsRh3
_symmetry_space_group_name_H-M   'P 1'
_cell_length_a   7.11713907
_cell_length_b   8.99079700
_cell_length_c   6.26417000
_cell_angle_alpha   90.00000000
_cell_angle_beta   90.00823555
_cell_angle_gamma   90.00000000
_symmetry_Int_Tables_number   1
_chemical_formula_structural   TmLu11OsRh3
_chemical_formula_sum   'Tm1 Lu11 Os1 Rh3'
_cell_volume   400.83642043
_cell_formula_units_Z   1
loop_
 _symmetry_equiv_pos_site_id
 _symmetry_equiv_pos_as_xyz
  1  'x, y, z'
loop_
 _atom_site_type_symbol
 _atom_site_label
 _atom_site_symmetry_multiplicity
 _atom_site_fract_x
 _atom_site_fract_y
 _atom_site_fract_z
 _atom_site_occupancy
  Tm  Tm0  1  0.537121  0.250000  0.879203  1
  Lu  Lu1  1  0.677520  0.056135  0.331310  1
  Lu  Lu2  1  0.178498  0.439460  0.174891  1
  Lu  Lu3  1  0.322285  0.562417  0.673646  1
  Lu  Lu4  1  0.819892  0.936594  0.821300  1
  Lu  Lu5  1  0.322285  0.937583  0.673646  1
  Lu  Lu6  1  0.819892  0.563406  0.821300  1
  Lu  Lu7  1  0.677520  0.443865  0.331310  1
  Lu  Lu8  1  0.178498  0.060540  0.174891  1
  Lu  Lu9  1  0.033470  0.250000  0.623190  1
  Lu  Lu10  1  0.464684  0.750000  0.120000  1
  Lu  Lu11  1  0.966947  0.750000  0.378185  1
  Os  Os12  1  0.612464  0.750000  0.532719  1
  Rh  Rh13  1  0.891874  0.250000  0.042059  1
  Rh  Rh14  1  0.386241  0.250000  0.458681  1
  Rh  Rh15  1  0.110807  0.750000  0.963666  1
