# generated using pymatgen
data_NbAgF7
_symmetry_space_group_name_H-M   'P 1'
_cell_length_a   5.71260000
_cell_length_b   8.69370172
_cell_length_c   13.02243795
_cell_angle_alpha   68.58438113
_cell_angle_beta   90.00000000
_cell_angle_gamma   90.00000000
_symmetry_Int_Tables_number   1
_chemical_formula_structural   NbAgF7
_chemical_formula_sum   'Nb4 Ag4 F28'
_cell_volume   602.08824757
_cell_formula_units_Z   4
loop_
 _symmetry_equiv_pos_site_id
 _symmetry_equiv_pos_as_xyz
  1  'x, y, z'
loop_
 _atom_site_type_symbol
 _atom_site_label
 _atom_site_symmetry_multiplicity
 _atom_site_fract_x
 _atom_site_fract_y
 _atom_site_fract_z
 _atom_site_occupancy
  Nb  Nb0  1  0.209210  0.290866  0.440288  1
  Nb  Nb1  1  0.709210  0.709134  0.059712  1
  Nb  Nb2  1  0.790790  0.709134  0.559712  1
  Nb  Nb3  1  0.290790  0.290866  0.940288  1
  Ag  Ag4  1  0.286710  0.859114  0.714434  1
  Ag  Ag5  1  0.786710  0.140886  0.785566  1
  Ag  Ag6  1  0.713290  0.140886  0.285566  1
  Ag  Ag7  1  0.213290  0.859114  0.214434  1
  F  F8  1  0.576551  0.980542  0.741131  1
  F  F9  1  0.076551  0.019458  0.758869  1
  F  F10  1  0.423449  0.019458  0.258869  1
  F  F11  1  0.923449  0.980542  0.241131  1
  F  F12  1  0.385441  0.319369  0.554713  1
  F  F13  1  0.885441  0.680631  0.945287  1
  F  F14  1  0.614559  0.680631  0.445287  1
  F  F15  1  0.114559  0.319369  0.054713  1
  F  F16  1  0.471613  0.257750  0.815960  1
  F  F17  1  0.971613  0.742250  0.684040  1
  F  F18  1  0.528387  0.742250  0.184040  1
  F  F19  1  0.028387  0.257750  0.315960  1
  F  F20  1  0.005597  0.292754  0.849032  1
  F  F21  1  0.505597  0.707246  0.650968  1
  F  F22  1  0.994403  0.707246  0.150968  1
  F  F23  1  0.494403  0.292754  0.349032  1
  F  F24  1  0.246353  0.053766  0.003836  1
  F  F25  1  0.746353  0.946234  0.496164  1
  F  F26  1  0.753647  0.946234  0.996164  1
  F  F27  1  0.253647  0.053766  0.503836  1
  F  F28  1  0.316002  0.523641  0.860765  1
  F  F29  1  0.816002  0.476359  0.639235  1
  F  F30  1  0.683998  0.476359  0.139235  1
  F  F31  1  0.183998  0.523641  0.360765  1
  F  F32  1  0.580689  0.272800  0.014206  1
  F  F33  1  0.080689  0.727200  0.485794  1
  F  F34  1  0.419311  0.727200  0.985794  1
  F  F35  1  0.919311  0.272800  0.514206  1
