# generated using pymatgen
data_HoU3Ga12Tc
_symmetry_space_group_name_H-M   'P 1'
_cell_length_a   7.46056044
_cell_length_b   7.46055991
_cell_length_c   7.46055905
_cell_angle_alpha   109.38959689
_cell_angle_beta   109.38959228
_cell_angle_gamma   109.38961029
_symmetry_Int_Tables_number   1
_chemical_formula_structural   HoU3Ga12Tc
_chemical_formula_sum   'Ho1 U3 Ga12 Tc1'
_cell_volume   320.62535096
_cell_formula_units_Z   1
loop_
 _symmetry_equiv_pos_site_id
 _symmetry_equiv_pos_as_xyz
  1  'x, y, z'
loop_
 _atom_site_type_symbol
 _atom_site_label
 _atom_site_symmetry_multiplicity
 _atom_site_fract_x
 _atom_site_fract_y
 _atom_site_fract_z
 _atom_site_occupancy
  Ho  Ho0  1  0.500000  0.500000  0.500000  1
  U  U1  1  0.000000  0.000000  0.500000  1
  U  U2  1  0.000000  0.500000  0.000000  1
  U  U3  1  0.500000  0.000000  0.000000  1
  Ga  Ga4  1  0.500000  0.749833  0.250167  1
  Ga  Ga5  1  0.500000  0.250167  0.749833  1
  Ga  Ga6  1  0.250167  0.500000  0.749833  1
  Ga  Ga7  1  0.749833  0.500000  0.250167  1
  Ga  Ga8  1  0.749833  0.250167  0.500000  1
  Ga  Ga9  1  0.250167  0.749833  0.500000  1
  Ga  Ga10  1  0.998715  0.290458  0.290458  1
  Ga  Ga11  1  0.001285  0.709542  0.709542  1
  Ga  Ga12  1  0.290458  0.998715  0.290458  1
  Ga  Ga13  1  0.709542  0.001285  0.709542  1
  Ga  Ga14  1  0.290458  0.290458  0.998715  1
  Ga  Ga15  1  0.709542  0.709542  0.001285  1
  Tc  Tc16  1  0.000000  0.000000  0.000000  1
