# generated using pymatgen
data_Li2B2RuRh2
_symmetry_space_group_name_H-M   'P 1'
_cell_length_a   2.87351600
_cell_length_b   5.78458200
_cell_length_c   9.47285000
_cell_angle_alpha   90.00000000
_cell_angle_beta   90.00000000
_cell_angle_gamma   90.00000000
_symmetry_Int_Tables_number   1
_chemical_formula_structural   Li2B2RuRh2
_chemical_formula_sum   'Li4 B4 Ru2 Rh4'
_cell_volume   157.45855512
_cell_formula_units_Z   2
loop_
 _symmetry_equiv_pos_site_id
 _symmetry_equiv_pos_as_xyz
  1  'x, y, z'
loop_
 _atom_site_type_symbol
 _atom_site_label
 _atom_site_symmetry_multiplicity
 _atom_site_fract_x
 _atom_site_fract_y
 _atom_site_fract_z
 _atom_site_occupancy
  Li  Li0  1  0.500000  0.339540  0.071312  1
  Li  Li1  1  0.500000  0.664135  0.926005  1
  Li  Li2  1  0.500000  0.160460  0.571312  1
  Li  Li3  1  0.500000  0.835865  0.426005  1
  B  B4  1  0.500000  0.068622  0.830059  1
  B  B5  1  0.500000  0.561282  0.672139  1
  B  B6  1  0.500000  0.431378  0.330059  1
  B  B7  1  0.500000  0.938718  0.172139  1
  Ru  Ru8  1  0.000000  0.334983  0.778267  1
  Ru  Ru9  1  0.000000  0.165017  0.278267  1
  Rh  Rh10  1  0.000000  0.499699  0.500326  1
  Rh  Rh11  1  0.000000  0.664577  0.221893  1
  Rh  Rh12  1  0.000000  0.835423  0.721893  1
  Rh  Rh13  1  0.000000  0.000301  0.000326  1
