# generated using pymatgen
data_Cs5(PuI4)3
_symmetry_space_group_name_H-M   'P 1'
_cell_length_a   15.59519500
_cell_length_b   15.59519421
_cell_length_c   5.11277000
_cell_angle_alpha   90.00000000
_cell_angle_beta   90.00000000
_cell_angle_gamma   119.99999531
_symmetry_Int_Tables_number   1
_chemical_formula_structural   Cs5(PuI4)3
_chemical_formula_sum   'Cs5 Pu3 I12'
_cell_volume   1076.88296105
_cell_formula_units_Z   1
loop_
 _symmetry_equiv_pos_site_id
 _symmetry_equiv_pos_as_xyz
  1  'x, y, z'
loop_
 _atom_site_type_symbol
 _atom_site_label
 _atom_site_symmetry_multiplicity
 _atom_site_fract_x
 _atom_site_fract_y
 _atom_site_fract_z
 _atom_site_occupancy
  Cs  Cs0  1  0.333333  0.666667  0.000000  1
  Cs  Cs1  1  0.666667  0.333333  0.000000  1
  Cs  Cs2  1  0.713348  0.000000  0.000000  1
  Cs  Cs3  1  0.000000  0.713348  0.000000  1
  Cs  Cs4  1  0.286652  0.286652  0.000000  1
  Pu  Pu5  1  0.327917  0.000000  0.500000  1
  Pu  Pu6  1  0.000000  0.327917  0.500000  1
  Pu  Pu7  1  0.672083  0.672083  0.500000  1
  I  I8  1  0.193135  0.000000  0.000000  1
  I  I9  1  0.000000  0.193135  0.000000  1
  I  I10  1  0.806865  0.806865  0.000000  1
  I  I11  1  0.457730  0.000000  0.000000  1
  I  I12  1  0.000000  0.457730  0.000000  1
  I  I13  1  0.542270  0.542270  0.000000  1
  I  I14  1  0.235353  0.442512  0.500000  1
  I  I15  1  0.557488  0.792840  0.500000  1
  I  I16  1  0.442512  0.235353  0.500000  1
  I  I17  1  0.207160  0.764647  0.500000  1
  I  I18  1  0.792840  0.557488  0.500000  1
  I  I19  1  0.764647  0.207160  0.500000  1
