# generated using pymatgen
data_CsHo3(SbAu)4
_symmetry_space_group_name_H-M   'P 1'
_cell_length_a   4.61911800
_cell_length_b   4.61911891
_cell_length_c   17.54224700
_cell_angle_alpha   90.00000000
_cell_angle_beta   90.00000000
_cell_angle_gamma   120.00000783
_symmetry_Int_Tables_number   1
_chemical_formula_structural   CsHo3(SbAu)4
_chemical_formula_sum   'Cs1 Ho3 Sb4 Au4'
_cell_volume   324.14103765
_cell_formula_units_Z   1
loop_
 _symmetry_equiv_pos_site_id
 _symmetry_equiv_pos_as_xyz
  1  'x, y, z'
loop_
 _atom_site_type_symbol
 _atom_site_label
 _atom_site_symmetry_multiplicity
 _atom_site_fract_x
 _atom_site_fract_y
 _atom_site_fract_z
 _atom_site_occupancy
  Cs  Cs0  1  0.000000  0.000000  0.250000  1
  Ho  Ho1  1  0.000000  0.000000  0.521480  1
  Ho  Ho2  1  0.000000  0.000000  0.978520  1
  Ho  Ho3  1  0.000000  0.000000  0.750000  1
  Sb  Sb4  1  0.333333  0.666667  0.403572  1
  Sb  Sb5  1  0.666667  0.333333  0.621501  1
  Sb  Sb6  1  0.666667  0.333333  0.878499  1
  Sb  Sb7  1  0.333333  0.666667  0.096428  1
  Au  Au8  1  0.666667  0.333333  0.444893  1
  Au  Au9  1  0.333333  0.666667  0.668757  1
  Au  Au10  1  0.333333  0.666667  0.831243  1
  Au  Au11  1  0.666667  0.333333  0.055107  1
