# generated using pymatgen
data_Er10SnBi3Ir2
_symmetry_space_group_name_H-M   'P 1'
_cell_length_a   7.90622033
_cell_length_b   8.97561691
_cell_length_c   12.39114139
_cell_angle_alpha   90.09293774
_cell_angle_beta   90.10536353
_cell_angle_gamma   90.00064902
_symmetry_Int_Tables_number   1
_chemical_formula_structural   Er10SnBi3Ir2
_chemical_formula_sum   'Er20 Sn2 Bi6 Ir4'
_cell_volume   879.31246167
_cell_formula_units_Z   2
loop_
 _symmetry_equiv_pos_site_id
 _symmetry_equiv_pos_as_xyz
  1  'x, y, z'
loop_
 _atom_site_type_symbol
 _atom_site_label
 _atom_site_symmetry_multiplicity
 _atom_site_fract_x
 _atom_site_fract_y
 _atom_site_fract_z
 _atom_site_occupancy
  Er  Er0  1  0.666122  0.753888  0.707751  1
  Er  Er1  1  0.333878  0.246112  0.292249  1
  Er  Er2  1  0.159001  0.246385  0.790413  1
  Er  Er3  1  0.840999  0.753615  0.209587  1
  Er  Er4  1  0.124280  0.753864  0.807955  1
  Er  Er5  1  0.875720  0.246136  0.192045  1
  Er  Er6  1  0.632600  0.246585  0.690434  1
  Er  Er7  1  0.367400  0.753415  0.309566  1
  Er  Er8  1  0.555254  0.749250  0.998014  1
  Er  Er9  1  0.444746  0.250750  0.001986  1
  Er  Er10  1  0.052733  0.243856  0.502698  1
  Er  Er11  1  0.947267  0.756144  0.497302  1
  Er  Er12  1  0.825222  0.457350  0.932511  1
  Er  Er13  1  0.174778  0.542650  0.067489  1
  Er  Er14  1  0.325815  0.541259  0.567725  1
  Er  Er15  1  0.172055  0.958829  0.071703  1
  Er  Er16  1  0.674185  0.458741  0.432275  1
  Er  Er17  1  0.827945  0.041171  0.928297  1
  Er  Er18  1  0.679306  0.040823  0.434074  1
  Er  Er19  1  0.320694  0.959177  0.565926  1
  Sn  Sn20  1  0.937212  0.005803  0.671792  1
  Sn  Sn21  1  0.062788  0.994197  0.328208  1
  Bi  Bi22  1  0.435350  0.992417  0.827885  1
  Bi  Bi23  1  0.064589  0.506943  0.328367  1
  Bi  Bi24  1  0.564650  0.007583  0.172115  1
  Bi  Bi25  1  0.935411  0.493057  0.671633  1
  Bi  Bi26  1  0.564098  0.492555  0.173688  1
  Bi  Bi27  1  0.435902  0.507445  0.826312  1
  Ir  Ir28  1  0.928006  0.749785  0.991920  1
  Ir  Ir29  1  0.071994  0.250215  0.008080  1
  Ir  Ir30  1  0.430013  0.250344  0.508326  1
  Ir  Ir31  1  0.569987  0.749656  0.491674  1
