# generated using pymatgen
data_Pr3Th5Zn8(RuRh)4
_symmetry_space_group_name_H-M   'P 1'
_cell_length_a   3.96514400
_cell_length_b   7.42403160
_cell_length_c   16.65947287
_cell_angle_alpha   89.64209736
_cell_angle_beta   90.00000000
_cell_angle_gamma   90.00000000
_symmetry_Int_Tables_number   1
_chemical_formula_structural   Pr3Th5Zn8(RuRh)4
_chemical_formula_sum   'Pr3 Th5 Zn8 Ru4 Rh4'
_cell_volume   490.40123865
_cell_formula_units_Z   1
loop_
 _symmetry_equiv_pos_site_id
 _symmetry_equiv_pos_as_xyz
  1  'x, y, z'
loop_
 _atom_site_type_symbol
 _atom_site_label
 _atom_site_symmetry_multiplicity
 _atom_site_fract_x
 _atom_site_fract_y
 _atom_site_fract_z
 _atom_site_occupancy
  Pr  Pr0  1  0.250000  0.557711  0.786120  1
  Pr  Pr1  1  0.750000  0.328347  0.440485  1
  Pr  Pr2  1  0.250000  0.672968  0.559667  1
  Th  Th3  1  0.750000  0.448160  0.219063  1
  Th  Th4  1  0.750000  0.951797  0.283012  1
  Th  Th5  1  0.750000  0.819971  0.061556  1
  Th  Th6  1  0.250000  0.056568  0.711693  1
  Th  Th7  1  0.250000  0.164465  0.939324  1
  Zn  Zn8  1  0.250000  0.005264  0.441777  1
  Zn  Zn9  1  0.750000  0.505478  0.938963  1
  Zn  Zn10  1  0.750000  0.002290  0.556285  1
  Zn  Zn11  1  0.250000  0.619045  0.350423  1
  Zn  Zn12  1  0.750000  0.390582  0.653363  1
  Zn  Zn13  1  0.750000  0.877422  0.849607  1
  Zn  Zn14  1  0.250000  0.490167  0.059088  1
  Zn  Zn15  1  0.250000  0.118006  0.148735  1
  Ru  Ru16  1  0.250000  0.242174  0.573763  1
  Ru  Ru17  1  0.250000  0.236978  0.302638  1
  Ru  Ru18  1  0.250000  0.759260  0.943366  1
  Ru  Ru19  1  0.250000  0.729291  0.187145  1
  Rh  Rh20  1  0.750000  0.240875  0.059036  1
  Rh  Rh21  1  0.750000  0.247472  0.817299  1
  Rh  Rh22  1  0.750000  0.773850  0.688321  1
  Rh  Rh23  1  0.750000  0.761859  0.429273  1
