# generated using pymatgen
data_Dy4B16Ru13Rh3
_symmetry_space_group_name_H-M   'P 1'
_cell_length_a   9.22315223
_cell_length_b   7.48840840
_cell_length_c   7.49831588
_cell_angle_alpha   90.01660340
_cell_angle_beta   114.08055047
_cell_angle_gamma   114.14455813
_symmetry_Int_Tables_number   1
_chemical_formula_structural   Dy4B16Ru13Rh3
_chemical_formula_sum   'Dy4 B16 Ru13 Rh3'
_cell_volume   422.67359204
_cell_formula_units_Z   1
loop_
 _symmetry_equiv_pos_site_id
 _symmetry_equiv_pos_as_xyz
  1  'x, y, z'
loop_
 _atom_site_type_symbol
 _atom_site_label
 _atom_site_symmetry_multiplicity
 _atom_site_fract_x
 _atom_site_fract_y
 _atom_site_fract_z
 _atom_site_occupancy
  Dy  Dy0  1  0.749935  0.874713  0.123943  1
  Dy  Dy1  1  0.250859  0.626112  0.373526  1
  Dy  Dy2  1  0.749462  0.375728  0.625464  1
  Dy  Dy3  1  0.248102  0.123173  0.874513  1
  B  B4  1  0.911499  0.283420  0.069165  1
  B  B5  1  0.414892  0.560357  0.124685  1
  B  B6  1  0.088124  0.216630  0.155844  1
  B  B7  1  0.588535  0.155458  0.211215  1
  B  B8  1  0.418252  0.070100  0.294739  1
  B  B9  1  0.913334  0.624166  0.356461  1
  B  B10  1  0.586011  0.651040  0.375114  1
  B  B11  1  0.085842  0.876158  0.442392  1
  B  B12  1  0.913193  0.124707  0.563982  1
  B  B13  1  0.413016  0.347758  0.622898  1
  B  B14  1  0.087189  0.375030  0.653738  1
  B  B15  1  0.587846  0.934875  0.710262  1
  B  B16  1  0.414330  0.844805  0.783916  1
  B  B17  1  0.911258  0.789855  0.844148  1
  B  B18  1  0.582078  0.431781  0.875042  1
  B  B19  1  0.082766  0.707367  0.926611  1
  Ru  Ru20  1  0.627541  0.461065  0.176644  1
  Ru  Ru21  1  0.372056  0.332409  0.320286  1
  Ru  Ru22  1  0.873834  0.323138  0.335682  1
  Ru  Ru23  1  0.625623  0.961225  0.446803  1
  Ru  Ru24  1  0.126668  0.176938  0.460779  1
  Ru  Ru25  1  0.873056  0.823147  0.539249  1
  Ru  Ru26  1  0.371347  0.036675  0.550104  1
  Ru  Ru27  1  0.129047  0.678037  0.666642  1
  Ru  Ru28  1  0.624202  0.665282  0.675878  1
  Ru  Ru29  1  0.373881  0.538337  0.824080  1
  Ru  Ru30  1  0.872999  0.054368  0.833659  1
  Ru  Ru31  1  0.627865  0.167306  0.947660  1
  Ru  Ru32  1  0.129668  0.449944  0.963702  1
  Rh  Rh33  1  0.876507  0.553522  0.038511  1
  Rh  Rh34  1  0.376974  0.839082  0.051199  1
  Rh  Rh35  1  0.122213  0.946297  0.161473  1
