# generated using pymatgen
data_Ba2CdSi3
_symmetry_space_group_name_H-M   'P 1'
_cell_length_a   12.71925333
_cell_length_b   11.10978174
_cell_length_c   8.70623483
_cell_angle_alpha   78.83865266
_cell_angle_beta   58.97484417
_cell_angle_gamma   42.18650947
_symmetry_Int_Tables_number   1
_chemical_formula_structural   Ba2CdSi3
_chemical_formula_sum   'Ba8 Cd4 Si12'
_cell_volume   668.99970255
_cell_formula_units_Z   4
loop_
 _symmetry_equiv_pos_site_id
 _symmetry_equiv_pos_as_xyz
  1  'x, y, z'
loop_
 _atom_site_type_symbol
 _atom_site_label
 _atom_site_symmetry_multiplicity
 _atom_site_fract_x
 _atom_site_fract_y
 _atom_site_fract_z
 _atom_site_occupancy
  Ba  Ba0  1  0.125829  0.125829  0.374171  1
  Ba  Ba1  1  0.875829  0.875829  0.124171  1
  Ba  Ba2  1  0.124171  0.124171  0.875829  1
  Ba  Ba3  1  0.374171  0.374171  0.125829  1
  Ba  Ba4  1  0.622229  0.622229  0.377771  1
  Ba  Ba5  1  0.377771  0.377771  0.622229  1
  Ba  Ba6  1  0.627771  0.627771  0.872229  1
  Ba  Ba7  1  0.872229  0.872229  0.627771  1
  Cd  Cd8  1  0.082431  0.417569  0.082431  1
  Cd  Cd9  1  0.167569  0.832431  0.167569  1
  Cd  Cd10  1  0.417569  0.082431  0.417569  1
  Cd  Cd11  1  0.832431  0.167569  0.832431  1
  Si  Si12  1  0.337530  0.655426  0.820590  1
  Si  Si13  1  0.186453  0.820590  0.655426  1
  Si  Si14  1  0.820590  0.186453  0.337530  1
  Si  Si15  1  0.655426  0.337530  0.186453  1
  Si  Si16  1  0.912470  0.594574  0.429410  1
  Si  Si17  1  0.063547  0.429410  0.594574  1
  Si  Si18  1  0.429410  0.063547  0.912470  1
  Si  Si19  1  0.909414  0.590586  0.909414  1
  Si  Si20  1  0.659414  0.340586  0.659414  1
  Si  Si21  1  0.340586  0.659414  0.340586  1
  Si  Si22  1  0.590586  0.909414  0.590586  1
  Si  Si23  1  0.594574  0.912470  0.063547  1
