# generated using pymatgen
data_PmAlGaAu2
_symmetry_space_group_name_H-M   'P 1'
_cell_length_a   6.13496969
_cell_length_b   6.13496891
_cell_length_c   6.13496900
_cell_angle_alpha   137.63138625
_cell_angle_beta   137.63137824
_cell_angle_gamma   61.46802077
_symmetry_Int_Tables_number   1
_chemical_formula_structural   PmAlGaAu2
_chemical_formula_sum   'Pm1 Al1 Ga1 Au2'
_cell_volume   103.67407314
_cell_formula_units_Z   1
loop_
 _symmetry_equiv_pos_site_id
 _symmetry_equiv_pos_as_xyz
  1  'x, y, z'
loop_
 _atom_site_type_symbol
 _atom_site_label
 _atom_site_symmetry_multiplicity
 _atom_site_fract_x
 _atom_site_fract_y
 _atom_site_fract_z
 _atom_site_occupancy
  Pm  Pm0  1  0.999091  0.999091  0.000000  1
  Al  Al1  1  0.622403  0.622403  0.000000  1
  Ga  Ga2  1  0.384546  0.384546  0.000000  1
  Au  Au3  1  0.746980  0.246980  0.500000  1
  Au  Au4  1  0.246980  0.746980  0.500000  1
