# generated using pymatgen
data_Nd3DySn10(IrRh2)2
_symmetry_space_group_name_H-M   'P 1'
_cell_length_a   13.57553989
_cell_length_b   13.57553951
_cell_length_c   7.25310932
_cell_angle_alpha   89.84347543
_cell_angle_beta   90.15652444
_cell_angle_gamma   160.81932382
_symmetry_Int_Tables_number   1
_chemical_formula_structural   Nd3DySn10(IrRh2)2
_chemical_formula_sum   'Nd3 Dy1 Sn10 Ir2 Rh4'
_cell_volume   439.17312495
_cell_formula_units_Z   1
loop_
 _symmetry_equiv_pos_site_id
 _symmetry_equiv_pos_as_xyz
  1  'x, y, z'
loop_
 _atom_site_type_symbol
 _atom_site_label
 _atom_site_symmetry_multiplicity
 _atom_site_fract_x
 _atom_site_fract_y
 _atom_site_fract_z
 _atom_site_occupancy
  Nd  Nd0  1  0.172133  0.827867  0.753514  1
  Nd  Nd1  1  0.827831  0.172169  0.254008  1
  Nd  Nd2  1  0.476836  0.523164  0.737895  1
  Dy  Dy3  1  0.523998  0.476002  0.238499  1
  Sn  Sn4  1  0.879296  0.120704  0.732646  1
  Sn  Sn5  1  0.120158  0.879842  0.232663  1
  Sn  Sn6  1  0.704158  0.295842  0.047974  1
  Sn  Sn7  1  0.295202  0.704798  0.548191  1
  Sn  Sn8  1  0.596846  0.403154  0.610206  1
  Sn  Sn9  1  0.403761  0.596239  0.111563  1
  Sn  Sn10  1  0.953013  0.046987  0.400628  1
  Sn  Sn11  1  0.047822  0.952178  0.903696  1
  Sn  Sn12  1  0.290039  0.709961  0.975649  1
  Sn  Sn13  1  0.709799  0.290201  0.475047  1
  Ir  Ir14  1  0.050853  0.949147  0.515315  1
  Ir  Ir15  1  0.949563  0.050437  0.021255  1
  Rh  Rh16  1  0.777330  0.222670  0.763936  1
  Rh  Rh17  1  0.222337  0.777663  0.263660  1
  Rh  Rh18  1  0.394833  0.605167  0.483527  1
  Rh  Rh19  1  0.604190  0.395810  0.986126  1
