# generated using pymatgen
data_TbTm2(CdGa)3
_symmetry_space_group_name_H-M   'P 1'
_cell_length_a   7.25901467
_cell_length_b   7.25901519
_cell_length_c   4.40088900
_cell_angle_alpha   90.00000000
_cell_angle_beta   90.00000000
_cell_angle_gamma   120.22921326
_symmetry_Int_Tables_number   1
_chemical_formula_structural   TbTm2(CdGa)3
_chemical_formula_sum   'Tb1 Tm2 Cd3 Ga3'
_cell_volume   200.36353843
_cell_formula_units_Z   1
loop_
 _symmetry_equiv_pos_site_id
 _symmetry_equiv_pos_as_xyz
  1  'x, y, z'
loop_
 _atom_site_type_symbol
 _atom_site_label
 _atom_site_symmetry_multiplicity
 _atom_site_fract_x
 _atom_site_fract_y
 _atom_site_fract_z
 _atom_site_occupancy
  Tb  Tb0  1  0.424680  0.424680  0.500000  1
  Tm  Tm1  1  0.576120  0.000569  0.500000  1
  Tm  Tm2  1  0.000569  0.576120  0.500000  1
  Cd  Cd3  1  0.751125  0.751125  0.000000  1
  Cd  Cd4  1  0.249576  0.999450  0.000000  1
  Cd  Cd5  1  0.999450  0.249576  0.000000  1
  Ga  Ga6  1  0.667660  0.332415  0.000000  1
  Ga  Ga7  1  0.332415  0.667660  0.000000  1
  Ga  Ga8  1  0.998405  0.998405  0.500000  1
