# generated using pymatgen
data_La5Nd3Cd2TcPt
_symmetry_space_group_name_H-M   'P 1'
_cell_length_a   10.07831335
_cell_length_b   10.07831339
_cell_length_c   10.20972700
_cell_angle_alpha   59.56772293
_cell_angle_beta   59.56772279
_cell_angle_gamma   59.35602577
_symmetry_Int_Tables_number   1
_chemical_formula_structural   La5Nd3Cd2TcPt
_chemical_formula_sum   'La10 Nd6 Cd4 Tc2 Pt2'
_cell_volume   724.89573882
_cell_formula_units_Z   2
loop_
 _symmetry_equiv_pos_site_id
 _symmetry_equiv_pos_as_xyz
  1  'x, y, z'
loop_
 _atom_site_type_symbol
 _atom_site_label
 _atom_site_symmetry_multiplicity
 _atom_site_fract_x
 _atom_site_fract_y
 _atom_site_fract_z
 _atom_site_occupancy
  La  La0  1  0.346770  0.346770  0.354171  1
  La  La1  1  0.346770  0.346770  0.952289  1
  La  La2  1  0.342731  0.961448  0.347910  1
  La  La3  1  0.961448  0.342731  0.347910  1
  La  La4  1  0.816766  0.190303  0.191120  1
  La  La5  1  0.190303  0.816766  0.801810  1
  La  La6  1  0.190303  0.816766  0.191120  1
  La  La7  1  0.816766  0.190303  0.801810  1
  La  La8  1  0.190392  0.190392  0.809608  1
  La  La9  1  0.804536  0.804536  0.195464  1
  Nd  Nd10  1  0.935458  0.560628  0.567659  1
  Nd  Nd11  1  0.560628  0.935458  0.936254  1
  Nd  Nd12  1  0.560628  0.935458  0.567659  1
  Nd  Nd13  1  0.935458  0.560628  0.936254  1
  Nd  Nd14  1  0.564709  0.564709  0.935291  1
  Nd  Nd15  1  0.936193  0.936193  0.563807  1
  Cd  Cd16  1  0.580764  0.580764  0.579542  1
  Cd  Cd17  1  0.580764  0.580764  0.258931  1
  Cd  Cd18  1  0.580774  0.257075  0.581075  1
  Cd  Cd19  1  0.257075  0.580774  0.581075  1
  Tc  Tc20  1  0.137756  0.137756  0.132129  1
  Tc  Tc21  1  0.137756  0.137756  0.592359  1
  Pt  Pt22  1  0.146808  0.578443  0.137375  1
  Pt  Pt23  1  0.578443  0.146808  0.137375  1
