# generated using pymatgen
data_Dy3Tm3TcIr
_symmetry_space_group_name_H-M   'P 1'
_cell_length_a   6.29811280
_cell_length_b   7.32683300
_cell_length_c   9.09427979
_cell_angle_alpha   90.00000000
_cell_angle_beta   90.51873625
_cell_angle_gamma   90.00000000
_symmetry_Int_Tables_number   1
_chemical_formula_structural   Dy3Tm3TcIr
_chemical_formula_sum   'Dy6 Tm6 Tc2 Ir2'
_cell_volume   419.64034888
_cell_formula_units_Z   2
loop_
 _symmetry_equiv_pos_site_id
 _symmetry_equiv_pos_as_xyz
  1  'x, y, z'
loop_
 _atom_site_type_symbol
 _atom_site_label
 _atom_site_symmetry_multiplicity
 _atom_site_fract_x
 _atom_site_fract_y
 _atom_site_fract_z
 _atom_site_occupancy
  Dy  Dy0  1  0.330103  0.677552  0.065647  1
  Dy  Dy1  1  0.169897  0.177552  0.434353  1
  Dy  Dy2  1  0.873261  0.538616  0.250280  1
  Dy  Dy3  1  0.626739  0.038616  0.249720  1
  Dy  Dy4  1  0.133402  0.460316  0.750180  1
  Dy  Dy5  1  0.366598  0.960316  0.749820  1
  Tm  Tm6  1  0.667519  0.323113  0.561189  1
  Tm  Tm7  1  0.832481  0.823113  0.938811  1
  Tm  Tm8  1  0.665979  0.323191  0.937912  1
  Tm  Tm9  1  0.834021  0.823191  0.562088  1
  Tm  Tm10  1  0.333086  0.676106  0.435311  1
  Tm  Tm11  1  0.166914  0.176106  0.064689  1
  Tc  Tc12  1  0.035843  0.885981  0.250526  1
  Tc  Tc13  1  0.464157  0.385981  0.249474  1
  Ir  Ir14  1  0.951461  0.115124  0.753206  1
  Ir  Ir15  1  0.548539  0.615124  0.746794  1
