# generated using pymatgen
data_Dy2Lu8TlBi5
_symmetry_space_group_name_H-M   'P 1'
_cell_length_a   8.11317400
_cell_length_b   9.35305300
_cell_length_c   11.88044700
_cell_angle_alpha   90.00000000
_cell_angle_beta   90.00000000
_cell_angle_gamma   90.00000000
_symmetry_Int_Tables_number   1
_chemical_formula_structural   Dy2Lu8TlBi5
_chemical_formula_sum   'Dy4 Lu16 Tl2 Bi10'
_cell_volume   901.52332315
_cell_formula_units_Z   2
loop_
 _symmetry_equiv_pos_site_id
 _symmetry_equiv_pos_as_xyz
  1  'x, y, z'
loop_
 _atom_site_type_symbol
 _atom_site_label
 _atom_site_symmetry_multiplicity
 _atom_site_fract_x
 _atom_site_fract_y
 _atom_site_fract_z
 _atom_site_occupancy
  Dy  Dy0  1  0.311859  0.250000  0.217476  1
  Dy  Dy1  1  0.811859  0.250000  0.282524  1
  Dy  Dy2  1  0.685113  0.750000  0.783571  1
  Dy  Dy3  1  0.185113  0.750000  0.716429  1
  Lu  Lu4  1  0.352085  0.750000  0.213059  1
  Lu  Lu5  1  0.852085  0.750000  0.286941  1
  Lu  Lu6  1  0.651307  0.250000  0.781659  1
  Lu  Lu7  1  0.151307  0.250000  0.718341  1
  Lu  Lu8  1  0.688923  0.569634  0.059570  1
  Lu  Lu9  1  0.188923  0.930366  0.440430  1
  Lu  Lu10  1  0.306999  0.059697  0.939761  1
  Lu  Lu11  1  0.806999  0.440303  0.560239  1
  Lu  Lu12  1  0.306999  0.440303  0.939761  1
  Lu  Lu13  1  0.806999  0.059697  0.560239  1
  Lu  Lu14  1  0.688923  0.930366  0.059570  1
  Lu  Lu15  1  0.188923  0.569634  0.440430  1
  Lu  Lu16  1  0.479149  0.250000  0.490014  1
  Lu  Lu17  1  0.979149  0.250000  0.009986  1
  Lu  Lu18  1  0.529147  0.750000  0.508810  1
  Lu  Lu19  1  0.029147  0.750000  0.991190  1
  Tl  Tl20  1  0.403352  0.750000  0.958652  1
  Tl  Tl21  1  0.903352  0.750000  0.541348  1
  Bi  Bi22  1  0.597375  0.250000  0.040187  1
  Bi  Bi23  1  0.097375  0.250000  0.459813  1
  Bi  Bi24  1  0.561130  0.995590  0.324714  1
  Bi  Bi25  1  0.061130  0.504410  0.175286  1
  Bi  Bi26  1  0.438255  0.495889  0.674650  1
  Bi  Bi27  1  0.938255  0.004111  0.825350  1
  Bi  Bi28  1  0.438255  0.004111  0.674650  1
  Bi  Bi29  1  0.938255  0.495889  0.825350  1
  Bi  Bi30  1  0.561130  0.504410  0.324714  1
  Bi  Bi31  1  0.061130  0.995590  0.175286  1
