# generated using pymatgen
data_Tb9Yb(Hg2Pd)4
_symmetry_space_group_name_H-M   'P 1'
_cell_length_a   8.02347969
_cell_length_b   17.99228636
_cell_length_c   3.71228500
_cell_angle_alpha   90.00000000
_cell_angle_beta   90.00000000
_cell_angle_gamma   89.81028415
_symmetry_Int_Tables_number   1
_chemical_formula_structural   Tb9Yb(Hg2Pd)4
_chemical_formula_sum   'Tb9 Yb1 Hg8 Pd4'
_cell_volume   535.90528725
_cell_formula_units_Z   1
loop_
 _symmetry_equiv_pos_site_id
 _symmetry_equiv_pos_as_xyz
  1  'x, y, z'
loop_
 _atom_site_type_symbol
 _atom_site_label
 _atom_site_symmetry_multiplicity
 _atom_site_fract_x
 _atom_site_fract_y
 _atom_site_fract_z
 _atom_site_occupancy
  Tb  Tb0  1  0.000000  0.000000  0.000000  1
  Tb  Tb1  1  0.730594  0.288016  0.000000  1
  Tb  Tb2  1  0.269406  0.711984  0.000000  1
  Tb  Tb3  1  0.768930  0.787005  0.000000  1
  Tb  Tb4  1  0.231070  0.212995  0.000000  1
  Tb  Tb5  1  0.613896  0.085288  0.000000  1
  Tb  Tb6  1  0.386104  0.914712  0.000000  1
  Tb  Tb7  1  0.884044  0.584206  0.000000  1
  Tb  Tb8  1  0.115956  0.415794  0.000000  1
  Yb  Yb9  1  0.500000  0.500000  0.000000  1
  Hg  Hg10  1  0.709885  0.936306  0.500000  1
  Hg  Hg11  1  0.290115  0.063694  0.500000  1
  Hg  Hg12  1  0.791531  0.437653  0.500000  1
  Hg  Hg13  1  0.208469  0.562347  0.500000  1
  Hg  Hg14  1  0.587926  0.648099  0.500000  1
  Hg  Hg15  1  0.412074  0.351901  0.500000  1
  Hg  Hg16  1  0.913103  0.147698  0.500000  1
  Hg  Hg17  1  0.086897  0.852302  0.500000  1
  Pd  Pd18  1  0.522242  0.196994  0.500000  1
  Pd  Pd19  1  0.477758  0.803006  0.500000  1
  Pd  Pd20  1  0.976217  0.696369  0.500000  1
  Pd  Pd21  1  0.023783  0.303631  0.500000  1
