# generated using pymatgen
data_Er3Tm3TcSb2
_symmetry_space_group_name_H-M   'P 1'
_cell_length_a   8.07696500
_cell_length_b   8.07696536
_cell_length_c   4.22967100
_cell_angle_alpha   90.00000000
_cell_angle_beta   90.00000000
_cell_angle_gamma   120.00000263
_symmetry_Int_Tables_number   1
_chemical_formula_structural   Er3Tm3TcSb2
_chemical_formula_sum   'Er3 Tm3 Tc1 Sb2'
_cell_volume   238.96463258
_cell_formula_units_Z   1
loop_
 _symmetry_equiv_pos_site_id
 _symmetry_equiv_pos_as_xyz
  1  'x, y, z'
loop_
 _atom_site_type_symbol
 _atom_site_label
 _atom_site_symmetry_multiplicity
 _atom_site_fract_x
 _atom_site_fract_y
 _atom_site_fract_z
 _atom_site_occupancy
  Er  Er0  1  0.603869  0.000000  0.000000  1
  Er  Er1  1  0.000000  0.603869  0.000000  1
  Er  Er2  1  0.396131  0.396131  0.000000  1
  Tm  Tm3  1  0.235001  0.000000  0.500000  1
  Tm  Tm4  1  0.000000  0.235001  0.500000  1
  Tm  Tm5  1  0.764999  0.764999  0.500000  1
  Tc  Tc6  1  0.000000  0.000000  0.000000  1
  Sb  Sb7  1  0.333333  0.666667  0.500000  1
  Sb  Sb8  1  0.666667  0.333333  0.500000  1
