# generated using pymatgen
data_Ho16In4CoRu3
_symmetry_space_group_name_H-M   'P 1'
_cell_length_a   9.53978826
_cell_length_b   9.56629219
_cell_length_c   9.56629200
_cell_angle_alpha   60.00000067
_cell_angle_beta   59.90805419
_cell_angle_gamma   59.90806101
_symmetry_Int_Tables_number   1
_chemical_formula_structural   Ho16In4CoRu3
_chemical_formula_sum   'Ho16 In4 Co1 Ru3'
_cell_volume   616.46166029
_cell_formula_units_Z   1
loop_
 _symmetry_equiv_pos_site_id
 _symmetry_equiv_pos_as_xyz
  1  'x, y, z'
loop_
 _atom_site_type_symbol
 _atom_site_label
 _atom_site_symmetry_multiplicity
 _atom_site_fract_x
 _atom_site_fract_y
 _atom_site_fract_z
 _atom_site_occupancy
  Ho  Ho0  1  0.439777  0.436715  0.061754  1
  Ho  Ho1  1  0.647462  0.653653  0.045234  1
  Ho  Ho2  1  0.191815  0.810333  0.187517  1
  Ho  Ho3  1  0.058544  0.440977  0.059500  1
  Ho  Ho4  1  0.191815  0.810333  0.810333  1
  Ho  Ho5  1  0.058544  0.440977  0.440977  1
  Ho  Ho6  1  0.810417  0.190100  0.190100  1
  Ho  Ho7  1  0.647462  0.653653  0.653653  1
  Ho  Ho8  1  0.810417  0.190100  0.809383  1
  Ho  Ho9  1  0.191815  0.187517  0.810333  1
  Ho  Ho10  1  0.050956  0.649681  0.649681  1
  Ho  Ho11  1  0.439777  0.061754  0.061754  1
  Ho  Ho12  1  0.058544  0.059500  0.440977  1
  Ho  Ho13  1  0.647462  0.045234  0.653653  1
  Ho  Ho14  1  0.810417  0.809383  0.190100  1
  Ho  Ho15  1  0.439777  0.061754  0.436715  1
  In  In16  1  0.418905  0.416219  0.416219  1
  In  In17  1  0.418905  0.416219  0.748658  1
  In  In18  1  0.418905  0.748658  0.416219  1
  In  In19  1  0.746718  0.417761  0.417761  1
  Co  Co20  1  0.422879  0.859040  0.859040  1
  Ru  Ru21  1  0.859561  0.858321  0.858321  1
  Ru  Ru22  1  0.859561  0.423795  0.858321  1
  Ru  Ru23  1  0.859561  0.858321  0.423795  1
