# generated using pymatgen
data_Sr5Tc2N7
_symmetry_space_group_name_H-M   'P 1'
_cell_length_a   6.45260604
_cell_length_b   9.26949663
_cell_length_c   9.32821277
_cell_angle_alpha   114.99521671
_cell_angle_beta   98.11613748
_cell_angle_gamma   89.61054781
_symmetry_Int_Tables_number   1
_chemical_formula_structural   Sr5Tc2N7
_chemical_formula_sum   'Sr10 Tc4 N14'
_cell_volume   499.75324755
_cell_formula_units_Z   2
loop_
 _symmetry_equiv_pos_site_id
 _symmetry_equiv_pos_as_xyz
  1  'x, y, z'
loop_
 _atom_site_type_symbol
 _atom_site_label
 _atom_site_symmetry_multiplicity
 _atom_site_fract_x
 _atom_site_fract_y
 _atom_site_fract_z
 _atom_site_occupancy
  Sr  Sr0  1  0.853039  0.596089  0.329601  1
  Sr  Sr1  1  0.268297  0.985469  0.564259  1
  Sr  Sr2  1  0.703027  0.413940  0.853721  1
  Sr  Sr3  1  0.296973  0.586060  0.146279  1
  Sr  Sr4  1  0.402614  0.791316  0.915026  1
  Sr  Sr5  1  0.597386  0.208684  0.084974  1
  Sr  Sr6  1  0.146961  0.403911  0.670399  1
  Sr  Sr7  1  0.889801  0.849428  0.760757  1
  Sr  Sr8  1  0.110199  0.150572  0.239243  1
  Sr  Sr9  1  0.731703  0.014531  0.435741  1
  Tc  Tc10  1  0.578105  0.360082  0.476075  1
  Tc  Tc11  1  0.421895  0.639918  0.523925  1
  Tc  Tc12  1  0.120536  0.218660  0.916761  1
  Tc  Tc13  1  0.879464  0.781340  0.083239  1
  N  N14  1  0.530529  0.549659  0.673399  1
  N  N15  1  0.469471  0.450341  0.326601  1
  N  N16  1  0.159448  0.712685  0.569907  1
  N  N17  1  0.840552  0.287315  0.430093  1
  N  N18  1  0.415441  0.193559  0.476859  1
  N  N19  1  0.584559  0.806441  0.523141  1
  N  N20  1  0.952145  0.143065  0.718347  1
  N  N21  1  0.047855  0.856935  0.281653  1
  N  N22  1  0.227691  0.052440  0.960838  1
  N  N23  1  0.772309  0.947560  0.039162  1
  N  N24  1  0.355014  0.326846  0.904305  1
  N  N25  1  0.976629  0.351768  0.078418  1
  N  N26  1  0.023371  0.648232  0.921582  1
  N  N27  1  0.644986  0.673154  0.095695  1
