# generated using pymatgen
data_Y9Er5Th2(CdNi)4
_symmetry_space_group_name_H-M   'P 1'
_cell_length_a   9.57972176
_cell_length_b   9.57537878
_cell_length_c   9.57938984
_cell_angle_alpha   60.04806285
_cell_angle_beta   60.13662793
_cell_angle_gamma   60.28450168
_symmetry_Int_Tables_number   1
_chemical_formula_structural   Y9Er5Th2(CdNi)4
_chemical_formula_sum   'Y9 Er5 Th2 Cd4 Ni4'
_cell_volume   623.53908055
_cell_formula_units_Z   1
loop_
 _symmetry_equiv_pos_site_id
 _symmetry_equiv_pos_as_xyz
  1  'x, y, z'
loop_
 _atom_site_type_symbol
 _atom_site_label
 _atom_site_symmetry_multiplicity
 _atom_site_fract_x
 _atom_site_fract_y
 _atom_site_fract_z
 _atom_site_occupancy
  Y  Y0  1  0.063000  0.439747  0.060885  1
  Y  Y1  1  0.438066  0.437323  0.064059  1
  Y  Y2  1  0.062329  0.061922  0.438806  1
  Y  Y3  1  0.187670  0.814796  0.814189  1
  Y  Y4  1  0.812138  0.186539  0.185177  1
  Y  Y5  1  0.813947  0.187473  0.814621  1
  Y  Y6  1  0.186706  0.812842  0.184800  1
  Y  Y7  1  0.813213  0.814543  0.187178  1
  Y  Y8  1  0.186683  0.186118  0.811212  1
  Er  Er9  1  0.597874  0.200778  0.601103  1
  Er  Er10  1  0.201363  0.598081  0.600270  1
  Er  Er11  1  0.062136  0.439228  0.439370  1
  Er  Er12  1  0.440209  0.062677  0.061156  1
  Er  Er13  1  0.439167  0.062349  0.438773  1
  Th  Th14  1  0.594178  0.594219  0.598549  1
  Th  Th15  1  0.592870  0.593905  0.210580  1
  Cd  Cd16  1  0.832738  0.833030  0.829390  1
  Cd  Cd17  1  0.832851  0.832888  0.504558  1
  Cd  Cd18  1  0.834005  0.505114  0.830275  1
  Cd  Cd19  1  0.505105  0.834074  0.830330  1
  Ni  Ni20  1  0.393083  0.393185  0.392122  1
  Ni  Ni21  1  0.394218  0.391828  0.818894  1
  Ni  Ni22  1  0.398037  0.819708  0.390850  1
  Ni  Ni23  1  0.818412  0.397628  0.392855  1
