# generated using pymatgen
data_Dy5Er5(Sn3As)2
_symmetry_space_group_name_H-M   'P 1'
_cell_length_a   9.10530742
_cell_length_b   9.10052402
_cell_length_c   6.65871700
_cell_angle_alpha   90.00000000
_cell_angle_beta   90.00000000
_cell_angle_gamma   119.98262613
_symmetry_Int_Tables_number   1
_chemical_formula_structural   Dy5Er5(Sn3As)2
_chemical_formula_sum   'Dy5 Er5 Sn6 As2'
_cell_volume   477.92330499
_cell_formula_units_Z   1
loop_
 _symmetry_equiv_pos_site_id
 _symmetry_equiv_pos_as_xyz
  1  'x, y, z'
loop_
 _atom_site_type_symbol
 _atom_site_label
 _atom_site_symmetry_multiplicity
 _atom_site_fract_x
 _atom_site_fract_y
 _atom_site_fract_z
 _atom_site_occupancy
  Dy  Dy0  1  0.750245  0.750186  0.750000  1
  Dy  Dy1  1  0.249755  0.999941  0.750000  1
  Dy  Dy2  1  0.000000  0.249758  0.750000  1
  Dy  Dy3  1  0.249820  0.249778  0.250000  1
  Dy  Dy4  1  0.750180  0.999958  0.250000  1
  Er  Er5  1  0.666708  0.333422  0.000034  1
  Er  Er6  1  0.333292  0.666715  0.000034  1
  Er  Er7  1  0.333292  0.666715  0.499966  1
  Er  Er8  1  0.666708  0.333422  0.499966  1
  Er  Er9  1  0.000000  0.750669  0.250000  1
  Sn  Sn10  1  0.396836  0.396945  0.750000  1
  Sn  Sn11  1  0.603164  0.000109  0.750000  1
  Sn  Sn12  1  0.000000  0.603088  0.750000  1
  Sn  Sn13  1  0.604151  0.603438  0.250000  1
  Sn  Sn14  1  0.395849  0.999287  0.250000  1
  Sn  Sn15  1  0.000000  0.397454  0.250000  1
  As  As16  1  0.000000  0.999556  0.000399  1
  As  As17  1  0.000000  0.999556  0.499601  1
