# generated using pymatgen
data_Ho5Co16(TcP4)3
_symmetry_space_group_name_H-M   'P 1'
_cell_length_a   12.03684900
_cell_length_b   12.03684924
_cell_length_c   3.70288200
_cell_angle_alpha   90.00000000
_cell_angle_beta   90.00000000
_cell_angle_gamma   120.00000210
_symmetry_Int_Tables_number   1
_chemical_formula_structural   Ho5Co16(TcP4)3
_chemical_formula_sum   'Ho5 Co16 Tc3 P12'
_cell_volume   464.61810426
_cell_formula_units_Z   1
loop_
 _symmetry_equiv_pos_site_id
 _symmetry_equiv_pos_as_xyz
  1  'x, y, z'
loop_
 _atom_site_type_symbol
 _atom_site_label
 _atom_site_symmetry_multiplicity
 _atom_site_fract_x
 _atom_site_fract_y
 _atom_site_fract_z
 _atom_site_occupancy
  Ho  Ho0  1  0.666667  0.333333  0.000000  1
  Ho  Ho1  1  0.333333  0.666667  0.000000  1
  Ho  Ho2  1  0.815350  0.815350  0.500000  1
  Ho  Ho3  1  0.184650  0.000000  0.500000  1
  Ho  Ho4  1  0.000000  0.184650  0.500000  1
  Co  Co5  1  0.873857  0.356728  0.500000  1
  Co  Co6  1  0.643272  0.517130  0.500000  1
  Co  Co7  1  0.482870  0.126143  0.500000  1
  Co  Co8  1  0.356728  0.873857  0.500000  1
  Co  Co9  1  0.517130  0.643272  0.500000  1
  Co  Co10  1  0.126143  0.482870  0.500000  1
  Co  Co11  1  0.803310  0.179021  0.000000  1
  Co  Co12  1  0.820979  0.624288  0.000000  1
  Co  Co13  1  0.375712  0.196690  0.000000  1
  Co  Co14  1  0.179021  0.803310  0.000000  1
  Co  Co15  1  0.624288  0.820979  0.000000  1
  Co  Co16  1  0.196690  0.375712  0.000000  1
  Co  Co17  1  0.282008  0.282008  0.500000  1
  Co  Co18  1  0.717992  0.000000  0.500000  1
  Co  Co19  1  0.000000  0.717992  0.500000  1
  Co  Co20  1  0.000000  0.000000  0.000000  1
  Tc  Tc21  1  0.445528  0.445528  0.000000  1
  Tc  Tc22  1  0.554472  0.000000  0.000000  1
  Tc  Tc23  1  0.000000  0.554472  0.000000  1
  P  P24  1  0.686006  0.165113  0.500000  1
  P  P25  1  0.834887  0.520893  0.500000  1
  P  P26  1  0.479107  0.313994  0.500000  1
  P  P27  1  0.165113  0.686006  0.500000  1
  P  P28  1  0.520893  0.834887  0.500000  1
  P  P29  1  0.313994  0.479107  0.500000  1
  P  P30  1  0.178747  0.178747  0.000000  1
  P  P31  1  0.821253  0.000000  0.000000  1
  P  P32  1  0.000000  0.821253  0.000000  1
  P  P33  1  0.636925  0.636925  0.000000  1
  P  P34  1  0.363075  0.000000  0.000000  1
  P  P35  1  0.000000  0.363075  0.000000  1
