# generated using pymatgen
data_Ti6Ga6Ir11Rh
_symmetry_space_group_name_H-M   'P 1'
_cell_length_a   4.10575700
_cell_length_b   6.94273800
_cell_length_c   12.32052300
_cell_angle_alpha   89.99976820
_cell_angle_beta   90.00019535
_cell_angle_gamma   90.00151281
_symmetry_Int_Tables_number   1
_chemical_formula_structural   Ti6Ga6Ir11Rh
_chemical_formula_sum   'Ti6 Ga6 Ir11 Rh1'
_cell_volume   351.19891231
_cell_formula_units_Z   1
loop_
 _symmetry_equiv_pos_site_id
 _symmetry_equiv_pos_as_xyz
  1  'x, y, z'
loop_
 _atom_site_type_symbol
 _atom_site_label
 _atom_site_symmetry_multiplicity
 _atom_site_fract_x
 _atom_site_fract_y
 _atom_site_fract_z
 _atom_site_occupancy
  Ti  Ti0  1  0.999999  0.500002  0.999939  1
  Ti  Ti1  1  0.500011  0.999871  0.166683  1
  Ti  Ti2  1  0.000009  0.499996  0.333323  1
  Ti  Ti3  1  0.499999  0.999873  0.499976  1
  Ti  Ti4  1  0.999992  0.500004  0.666739  1
  Ti  Ti5  1  0.499991  0.000259  0.833343  1
  Ga  Ga6  1  0.000000  0.999387  0.999584  1
  Ga  Ga7  1  0.500012  0.499948  0.166733  1
  Ga  Ga8  1  0.000008  0.999969  0.333317  1
  Ga  Ga9  1  0.500000  0.499947  0.499920  1
  Ga  Ga10  1  0.999992  0.999390  0.667100  1
  Ga  Ga11  1  0.499987  0.501364  0.833348  1
  Ir  Ir12  1  0.500019  0.249906  0.000194  1
  Ir  Ir13  1  0.499980  0.750014  0.999793  1
  Ir  Ir14  1  0.999992  0.250205  0.166592  1
  Ir  Ir15  1  0.000028  0.750079  0.166821  1
  Ir  Ir16  1  0.500023  0.250019  0.333335  1
  Ir  Ir17  1  0.499988  0.750114  0.333337  1
  Ir  Ir18  1  0.999985  0.250210  0.500080  1
  Ir  Ir19  1  0.000015  0.750070  0.499850  1
  Ir  Ir20  1  0.500008  0.249913  0.666472  1
  Ir  Ir21  1  0.499977  0.750010  0.666868  1
  Ir  Ir22  1  0.999973  0.249658  0.833331  1
  Rh  Rh23  1  0.000009  0.749800  0.833320  1
