# generated using pymatgen
data_UVCl10
_symmetry_space_group_name_H-M   'P 1'
_cell_length_a   7.50806227
_cell_length_b   7.97864284
_cell_length_c   14.83801835
_cell_angle_alpha   91.49941394
_cell_angle_beta   90.45591556
_cell_angle_gamma   105.75138520
_symmetry_Int_Tables_number   1
_chemical_formula_structural   UVCl10
_chemical_formula_sum   'U2 V2 Cl20'
_cell_volume   855.08330578
_cell_formula_units_Z   2
loop_
 _symmetry_equiv_pos_site_id
 _symmetry_equiv_pos_as_xyz
  1  'x, y, z'
loop_
 _atom_site_type_symbol
 _atom_site_label
 _atom_site_symmetry_multiplicity
 _atom_site_fract_x
 _atom_site_fract_y
 _atom_site_fract_z
 _atom_site_occupancy
  U  U0  1  0.000000  0.000000  0.000000  1
  U  U1  1  0.000000  0.000000  0.500000  1
  V  V2  1  0.383240  0.587176  0.262742  1
  V  V3  1  0.616760  0.412824  0.737258  1
  Cl  Cl4  1  0.233757  0.846878  0.952022  1
  Cl  Cl5  1  0.766243  0.153122  0.047978  1
  Cl  Cl6  1  0.773231  0.711968  0.022370  1
  Cl  Cl7  1  0.226769  0.288032  0.977630  1
  Cl  Cl8  1  0.891072  0.995708  0.840730  1
  Cl  Cl9  1  0.108928  0.004292  0.159270  1
  Cl  Cl10  1  0.873008  0.168153  0.388926  1
  Cl  Cl11  1  0.126992  0.831847  0.611074  1
  Cl  Cl12  1  0.301941  0.077057  0.421810  1
  Cl  Cl13  1  0.698059  0.922943  0.578190  1
  Cl  Cl14  1  0.893621  0.732543  0.401262  1
  Cl  Cl15  1  0.106379  0.267457  0.598738  1
  Cl  Cl16  1  0.123714  0.520227  0.194268  1
  Cl  Cl17  1  0.876286  0.479773  0.805732  1
  Cl  Cl18  1  0.530101  0.841372  0.226003  1
  Cl  Cl19  1  0.469899  0.158628  0.773997  1
  Cl  Cl20  1  0.532446  0.405443  0.225750  1
  Cl  Cl21  1  0.467554  0.594557  0.774250  1
  Cl  Cl22  1  0.344539  0.581923  0.403946  1
  Cl  Cl23  1  0.655461  0.418077  0.596054  1
