# generated using pymatgen
data_SrNd3(Si5Pt3)2
_symmetry_space_group_name_H-M   'P 1'
_cell_length_a   8.30185361
_cell_length_b   8.29658680
_cell_length_c   8.29658606
_cell_angle_alpha   136.68739254
_cell_angle_beta   105.40100662
_cell_angle_gamma   90.38001494
_symmetry_Int_Tables_number   1
_chemical_formula_structural   SrNd3(Si5Pt3)2
_chemical_formula_sum   'Sr1 Nd3 Si10 Pt6'
_cell_volume   360.25031261
_cell_formula_units_Z   1
loop_
 _symmetry_equiv_pos_site_id
 _symmetry_equiv_pos_as_xyz
  1  'x, y, z'
loop_
 _atom_site_type_symbol
 _atom_site_label
 _atom_site_symmetry_multiplicity
 _atom_site_fract_x
 _atom_site_fract_y
 _atom_site_fract_z
 _atom_site_occupancy
  Sr  Sr0  1  0.894360  0.128625  0.765735  1
  Nd  Nd1  1  0.639204  0.371687  0.267515  1
  Nd  Nd2  1  0.360397  0.628371  0.732026  1
  Nd  Nd3  1  0.103612  0.871447  0.232165  1
  Si  Si4  1  0.272080  0.521605  0.250098  1
  Si  Si5  1  0.729603  0.480127  0.750667  1
  Si  Si6  1  0.729603  0.978938  0.249476  1
  Si  Si7  1  0.272080  0.021980  0.750474  1
  Si  Si8  1  0.462163  0.111711  0.350451  1
  Si  Si9  1  0.536094  0.886551  0.649544  1
  Si  Si10  1  0.762063  0.611705  0.150358  1
  Si  Si11  1  0.239269  0.388770  0.850498  1
  Si  Si12  1  0.999338  0.248524  0.249455  1
  Si  Si13  1  0.999338  0.749883  0.750814  1
  Pt  Pt14  1  0.247933  0.136664  0.111268  1
  Pt  Pt15  1  0.752801  0.863286  0.889515  1
  Pt  Pt16  1  0.027596  0.636391  0.391205  1
  Pt  Pt17  1  0.974395  0.363709  0.610685  1
  Pt  Pt18  1  0.499037  0.249917  0.748927  1
  Pt  Pt19  1  0.499037  0.750110  0.249121  1
