# generated using pymatgen
data_Hf6SiGe5Os6
_symmetry_space_group_name_H-M   'P 1'
_cell_length_a   7.70128781
_cell_length_b   7.69959001
_cell_length_c   7.70128762
_cell_angle_alpha   127.71356792
_cell_angle_beta   122.08710920
_cell_angle_gamma   81.78899336
_symmetry_Int_Tables_number   1
_chemical_formula_structural   Hf6SiGe5Os6
_chemical_formula_sum   'Hf6 Si1 Ge5 Os6'
_cell_volume   294.55322708
_cell_formula_units_Z   1
loop_
 _symmetry_equiv_pos_site_id
 _symmetry_equiv_pos_as_xyz
  1  'x, y, z'
loop_
 _atom_site_type_symbol
 _atom_site_label
 _atom_site_symmetry_multiplicity
 _atom_site_fract_x
 _atom_site_fract_y
 _atom_site_fract_z
 _atom_site_occupancy
  Hf  Hf0  1  0.556449  0.102909  0.046460  1
  Hf  Hf1  1  0.447631  0.495567  0.547935  1
  Hf  Hf2  1  0.972205  0.490055  0.017851  1
  Hf  Hf3  1  0.029579  0.051747  0.522168  1
  Hf  Hf4  1  0.751988  0.916330  0.664342  1
  Hf  Hf5  1  0.246571  0.908808  0.162237  1
  Si  Si6  1  0.220624  0.482020  0.761395  1
  Ge  Ge7  1  0.337843  0.828673  0.501672  1
  Ge  Ge8  1  0.660276  0.161949  0.488074  1
  Ge  Ge9  1  0.827000  0.828673  0.990828  1
  Ge  Ge10  1  0.173874  0.161949  0.001673  1
  Ge  Ge11  1  0.778227  0.527651  0.249425  1
  Os  Os12  1  0.159053  0.743073  0.656282  1
  Os  Os13  1  0.852056  0.498805  0.597326  1
  Os  Os14  1  0.586792  0.743073  0.084021  1
  Os  Os15  1  0.401479  0.498805  0.146749  1
  Os  Os16  1  0.483588  0.251956  0.737192  1
  Os  Os17  1  0.014765  0.251956  0.268368  1
