# generated using pymatgen
data_Tb9Tm7(ZnCo)4
_symmetry_space_group_name_H-M   'P 1'
_cell_length_a   9.32705035
_cell_length_b   9.32977852
_cell_length_c   9.32478563
_cell_angle_alpha   59.99834490
_cell_angle_beta   59.96618309
_cell_angle_gamma   59.97426976
_symmetry_Int_Tables_number   1
_chemical_formula_structural   Tb9Tm7(ZnCo)4
_chemical_formula_sum   'Tb9 Tm7 Zn4 Co4'
_cell_volume   573.50669385
_cell_formula_units_Z   1
loop_
 _symmetry_equiv_pos_site_id
 _symmetry_equiv_pos_as_xyz
  1  'x, y, z'
loop_
 _atom_site_type_symbol
 _atom_site_label
 _atom_site_symmetry_multiplicity
 _atom_site_fract_x
 _atom_site_fract_y
 _atom_site_fract_z
 _atom_site_occupancy
  Tb  Tb0  1  0.809528  0.190472  0.809528  1
  Tb  Tb1  1  0.190516  0.189275  0.810803  1
  Tb  Tb2  1  0.810803  0.809406  0.190516  1
  Tb  Tb3  1  0.939296  0.561709  0.560562  1
  Tb  Tb4  1  0.560562  0.938433  0.939296  1
  Tb  Tb5  1  0.560994  0.939006  0.560994  1
  Tb  Tb6  1  0.938658  0.561342  0.938658  1
  Tb  Tb7  1  0.560616  0.561719  0.939240  1
  Tb  Tb8  1  0.939240  0.938425  0.560616  1
  Tm  Tm9  1  0.349867  0.349989  0.348202  1
  Tm  Tm10  1  0.348495  0.350323  0.952471  1
  Tm  Tm11  1  0.348202  0.951942  0.349867  1
  Tm  Tm12  1  0.952471  0.348709  0.348495  1
  Tm  Tm13  1  0.809591  0.190470  0.191601  1
  Tm  Tm14  1  0.191601  0.808338  0.809591  1
  Tm  Tm15  1  0.190506  0.809494  0.190506  1
  Zn  Zn16  1  0.576788  0.577681  0.577724  1
  Zn  Zn17  1  0.577122  0.577065  0.267843  1
  Zn  Zn18  1  0.577724  0.267807  0.576788  1
  Zn  Zn19  1  0.267843  0.577970  0.577122  1
  Co  Co20  1  0.141644  0.141919  0.142123  1
  Co  Co21  1  0.142045  0.141823  0.573763  1
  Co  Co22  1  0.142123  0.574313  0.141644  1
  Co  Co23  1  0.573763  0.142367  0.142045  1
