# generated using pymatgen
data_Sr10ScFe4(MoO6)5
_symmetry_space_group_name_H-M   'P 1'
_cell_length_a   8.04758850
_cell_length_b   9.80454926
_cell_length_c   9.91720281
_cell_angle_alpha   81.21140135
_cell_angle_beta   113.89871386
_cell_angle_gamma   114.16873371
_symmetry_Int_Tables_number   1
_chemical_formula_structural   Sr10ScFe4(MoO6)5
_chemical_formula_sum   'Sr10 Sc1 Fe4 Mo5 O30'
_cell_volume   652.61768663
_cell_formula_units_Z   1
loop_
 _symmetry_equiv_pos_site_id
 _symmetry_equiv_pos_as_xyz
  1  'x, y, z'
loop_
 _atom_site_type_symbol
 _atom_site_label
 _atom_site_symmetry_multiplicity
 _atom_site_fract_x
 _atom_site_fract_y
 _atom_site_fract_z
 _atom_site_occupancy
  Sr  Sr0  1  0.045617  0.398375  0.198110  1
  Sr  Sr1  1  0.553369  0.398830  0.201263  1
  Sr  Sr2  1  0.245317  0.997872  0.999162  1
  Sr  Sr3  1  0.754683  0.002128  0.000838  1
  Sr  Sr4  1  0.446631  0.601170  0.798737  1
  Sr  Sr5  1  0.954383  0.601625  0.801890  1
  Sr  Sr6  1  0.649811  0.196781  0.597706  1
  Sr  Sr7  1  0.140848  0.193329  0.598393  1
  Sr  Sr8  1  0.859152  0.806671  0.401607  1
  Sr  Sr9  1  0.350189  0.803219  0.402294  1
  Sc  Sc10  1  0.500000  0.500000  0.500000  1
  Fe  Fe11  1  0.697877  0.097009  0.301167  1
  Fe  Fe12  1  0.899538  0.699001  0.101282  1
  Fe  Fe13  1  0.100462  0.300999  0.898718  1
  Fe  Fe14  1  0.302123  0.902991  0.698833  1
  Mo  Mo15  1  0.199770  0.100958  0.297314  1
  Mo  Mo16  1  0.402076  0.701971  0.099038  1
  Mo  Mo17  1  0.597924  0.298029  0.900962  1
  Mo  Mo18  1  0.800230  0.899042  0.702686  1
  Mo  Mo19  1  0.000000  0.500000  0.500000  1
  O  O20  1  0.923453  0.070521  0.281261  1
  O  O21  1  0.100655  0.911049  0.208560  1
  O  O22  1  0.500326  0.899073  0.195882  1
  O  O23  1  0.140042  0.666940  0.081986  1
  O  O24  1  0.449510  0.607090  0.293066  1
  O  O25  1  0.666465  0.743153  0.121096  1
  O  O26  1  0.308869  0.513749  0.006185  1
  O  O27  1  0.151721  0.201278  0.101459  1
  O  O28  1  0.691131  0.486251  0.993815  1
  O  O29  1  0.333535  0.256847  0.878904  1
  O  O30  1  0.647060  0.200813  0.094577  1
  O  O31  1  0.859958  0.333060  0.918014  1
  O  O32  1  0.499674  0.100927  0.804118  1
  O  O33  1  0.352940  0.799187  0.905423  1
  O  O34  1  0.899345  0.088951  0.791440  1
  O  O35  1  0.521577  0.861989  0.683240  1
  O  O36  1  0.848279  0.798722  0.898541  1
  O  O37  1  0.076547  0.929479  0.718739  1
  O  O38  1  0.699375  0.706796  0.603466  1
  O  O39  1  0.550490  0.392910  0.706934  1
  O  O40  1  0.105700  0.693218  0.599947  1
  O  O41  1  0.725826  0.464225  0.482795  1
  O  O42  1  0.051239  0.402016  0.698699  1
  O  O43  1  0.274174  0.535775  0.517205  1
  O  O44  1  0.894300  0.306782  0.400053  1
  O  O45  1  0.749149  0.999044  0.497687  1
  O  O46  1  0.300625  0.293204  0.396534  1
  O  O47  1  0.250851  0.000956  0.502313  1
  O  O48  1  0.478423  0.138011  0.316760  1
  O  O49  1  0.948761  0.597984  0.301301  1
