# generated using pymatgen
data_Dy8Tm2Ir3Ru
_symmetry_space_group_name_H-M   'P 1'
_cell_length_a   6.44870691
_cell_length_b   7.19760491
_cell_length_c   8.46881633
_cell_angle_alpha   96.49515047
_cell_angle_beta   112.03554640
_cell_angle_gamma   90.05226285
_symmetry_Int_Tables_number   1
_chemical_formula_structural   Dy8Tm2Ir3Ru
_chemical_formula_sum   'Dy8 Tm2 Ir3 Ru1'
_cell_volume   361.62801480
_cell_formula_units_Z   1
loop_
 _symmetry_equiv_pos_site_id
 _symmetry_equiv_pos_as_xyz
  1  'x, y, z'
loop_
 _atom_site_type_symbol
 _atom_site_label
 _atom_site_symmetry_multiplicity
 _atom_site_fract_x
 _atom_site_fract_y
 _atom_site_fract_z
 _atom_site_occupancy
  Dy  Dy0  1  0.971356  0.916908  0.182669  1
  Dy  Dy1  1  0.789605  0.581390  0.818730  1
  Dy  Dy2  1  0.028309  0.081225  0.817941  1
  Dy  Dy3  1  0.209745  0.418786  0.182896  1
  Dy  Dy4  1  0.653123  0.816071  0.438702  1
  Dy  Dy5  1  0.212272  0.683880  0.560026  1
  Dy  Dy6  1  0.347595  0.183685  0.560599  1
  Dy  Dy7  1  0.786788  0.317201  0.437984  1
  Tm  Tm8  1  0.428915  0.750251  0.000008  1
  Tm  Tm9  1  0.572181  0.250877  0.000691  1
  Ir  Ir10  1  0.604272  0.927977  0.782308  1
  Ir  Ir11  1  0.177785  0.426871  0.782508  1
  Ir  Ir12  1  0.394549  0.072613  0.217596  1
  Ru  Ru13  1  0.823506  0.572266  0.217342  1
