# generated using pymatgen
data_Ho3ErPd2(PtO7)2
_symmetry_space_group_name_H-M   'P 1'
_cell_length_a   7.23911676
_cell_length_b   7.24851963
_cell_length_c   7.24072531
_cell_angle_alpha   59.96438038
_cell_angle_beta   59.89021836
_cell_angle_gamma   59.95701681
_symmetry_Int_Tables_number   1
_chemical_formula_structural   Ho3ErPd2(PtO7)2
_chemical_formula_sum   'Ho3 Er1 Pd2 Pt2 O14'
_cell_volume   268.27644107
_cell_formula_units_Z   1
loop_
 _symmetry_equiv_pos_site_id
 _symmetry_equiv_pos_as_xyz
  1  'x, y, z'
loop_
 _atom_site_type_symbol
 _atom_site_label
 _atom_site_symmetry_multiplicity
 _atom_site_fract_x
 _atom_site_fract_y
 _atom_site_fract_z
 _atom_site_occupancy
  Ho  Ho0  1  0.625000  0.625000  0.125000  1
  Ho  Ho1  1  0.625000  0.625000  0.625000  1
  Ho  Ho2  1  0.625000  0.125000  0.625000  1
  Er  Er3  1  0.125000  0.625000  0.625000  1
  Pd  Pd4  1  0.125000  0.125000  0.125000  1
  Pd  Pd5  1  0.125000  0.625000  0.125000  1
  Pt  Pt6  1  0.625000  0.125000  0.125000  1
  Pt  Pt7  1  0.125000  0.125000  0.625000  1
  O  O8  1  0.033485  0.465601  0.467965  1
  O  O9  1  0.782205  0.784575  0.216747  1
  O  O10  1  0.782205  0.216473  0.216747  1
  O  O11  1  0.751067  0.749758  0.749417  1
  O  O12  1  0.033939  0.466460  0.033141  1
  O  O13  1  0.467226  0.032789  0.467197  1
  O  O14  1  0.033485  0.032948  0.467965  1
  O  O15  1  0.498933  0.500242  0.500583  1
  O  O16  1  0.216515  0.217052  0.782035  1
  O  O17  1  0.216061  0.783540  0.216859  1
  O  O18  1  0.782774  0.217211  0.782803  1
  O  O19  1  0.467795  0.033527  0.033253  1
  O  O20  1  0.467795  0.465425  0.033253  1
  O  O21  1  0.216515  0.784399  0.782035  1
