# generated using pymatgen
data_PrOsI18
_symmetry_space_group_name_H-M   'P 1'
_cell_length_a   10.30786938
_cell_length_b   10.30786907
_cell_length_c   10.30787013
_cell_angle_alpha   93.41664790
_cell_angle_beta   93.41664911
_cell_angle_gamma   93.41665695
_symmetry_Int_Tables_number   1
_chemical_formula_structural   PrOsI18
_chemical_formula_sum   'Pr1 Os1 I18'
_cell_volume   1089.14984501
_cell_formula_units_Z   1
loop_
 _symmetry_equiv_pos_site_id
 _symmetry_equiv_pos_as_xyz
  1  'x, y, z'
loop_
 _atom_site_type_symbol
 _atom_site_label
 _atom_site_symmetry_multiplicity
 _atom_site_fract_x
 _atom_site_fract_y
 _atom_site_fract_z
 _atom_site_occupancy
  Pr  Pr0  1  0.000000  0.000000  0.000000  1
  Os  Os1  1  0.500000  0.500000  0.500000  1
  I  I2  1  0.728969  0.137872  0.597437  1
  I  I3  1  0.977217  0.033265  0.697025  1
  I  I4  1  0.597437  0.728969  0.137872  1
  I  I5  1  0.966735  0.302975  0.022783  1
  I  I6  1  0.697025  0.977217  0.033265  1
  I  I7  1  0.033265  0.697025  0.977217  1
  I  I8  1  0.022783  0.966735  0.302975  1
  I  I9  1  0.862128  0.402563  0.271031  1
  I  I10  1  0.302975  0.022783  0.966735  1
  I  I11  1  0.271031  0.862128  0.402563  1
  I  I12  1  0.137872  0.597437  0.728969  1
  I  I13  1  0.402563  0.271031  0.862128  1
  I  I14  1  0.762034  0.523034  0.506347  1
  I  I15  1  0.523034  0.506347  0.762034  1
  I  I16  1  0.237966  0.476966  0.493653  1
  I  I17  1  0.476966  0.493653  0.237966  1
  I  I18  1  0.506347  0.762034  0.523034  1
  I  I19  1  0.493653  0.237966  0.476966  1
