# generated using pymatgen
data_La11(ThIr2)3
_symmetry_space_group_name_H-M   'P 1'
_cell_length_a   10.02433400
_cell_length_b   10.25562481
_cell_length_c   6.53630942
_cell_angle_alpha   89.96282378
_cell_angle_beta   90.00000000
_cell_angle_gamma   119.25672277
_symmetry_Int_Tables_number   1
_chemical_formula_structural   La11(ThIr2)3
_chemical_formula_sum   'La11 Th3 Ir6'
_cell_volume   586.25295167
_cell_formula_units_Z   1
loop_
 _symmetry_equiv_pos_site_id
 _symmetry_equiv_pos_as_xyz
  1  'x, y, z'
loop_
 _atom_site_type_symbol
 _atom_site_label
 _atom_site_symmetry_multiplicity
 _atom_site_fract_x
 _atom_site_fract_y
 _atom_site_fract_z
 _atom_site_occupancy
  La  La0  1  0.461617  0.535315  0.302234  1
  La  La1  1  0.073697  0.535315  0.302234  1
  La  La2  1  0.928652  0.465589  0.804538  1
  La  La3  1  0.248916  0.124364  0.501846  1
  La  La4  1  0.535625  0.071249  0.810686  1
  La  La5  1  0.749747  0.874885  0.002204  1
  La  La6  1  0.666366  0.332731  0.274749  1
  La  La7  1  0.125138  0.874885  0.002204  1
  La  La8  1  0.462442  0.924885  0.309686  1
  La  La9  1  0.536938  0.465589  0.804538  1
  La  La10  1  0.875448  0.124364  0.501846  1
  Th  Th11  1  0.127747  0.255493  0.991666  1
  Th  Th12  1  0.873715  0.747431  0.491375  1
  Th  Th13  1  0.334088  0.668177  0.770128  1
  Ir  Ir14  1  0.813309  0.626618  0.065682  1
  Ir  Ir15  1  0.826329  0.192874  0.041078  1
  Ir  Ir16  1  0.625154  0.802419  0.548436  1
  Ir  Ir17  1  0.366545  0.192874  0.041078  1
  Ir  Ir18  1  0.191263  0.382527  0.569358  1
  Ir  Ir19  1  0.177265  0.802419  0.548436  1
