# generated using pymatgen
data_Nd16Cd3AgIr4
_symmetry_space_group_name_H-M   'P 1'
_cell_length_a   9.95477799
_cell_length_b   9.95477895
_cell_length_c   9.95477895
_cell_angle_alpha   60.04080643
_cell_angle_beta   60.04080158
_cell_angle_gamma   60.04080762
_symmetry_Int_Tables_number   1
_chemical_formula_structural   Nd16Cd3AgIr4
_chemical_formula_sum   'Nd16 Cd3 Ag1 Ir4'
_cell_volume   698.20237819
_cell_formula_units_Z   1
loop_
 _symmetry_equiv_pos_site_id
 _symmetry_equiv_pos_as_xyz
  1  'x, y, z'
loop_
 _atom_site_type_symbol
 _atom_site_label
 _atom_site_symmetry_multiplicity
 _atom_site_fract_x
 _atom_site_fract_y
 _atom_site_fract_z
 _atom_site_occupancy
  Nd  Nd0  1  0.347964  0.347964  0.347964  1
  Nd  Nd1  1  0.348902  0.348902  0.953348  1
  Nd  Nd2  1  0.348902  0.953348  0.348902  1
  Nd  Nd3  1  0.953348  0.348902  0.348902  1
  Nd  Nd4  1  0.809469  0.190586  0.190586  1
  Nd  Nd5  1  0.190102  0.808836  0.808836  1
  Nd  Nd6  1  0.190586  0.809469  0.190586  1
  Nd  Nd7  1  0.808836  0.190102  0.808836  1
  Nd  Nd8  1  0.190586  0.190586  0.809469  1
  Nd  Nd9  1  0.808836  0.808836  0.190102  1
  Nd  Nd10  1  0.936911  0.561115  0.561115  1
  Nd  Nd11  1  0.560949  0.938416  0.938416  1
  Nd  Nd12  1  0.561115  0.936911  0.561115  1
  Nd  Nd13  1  0.938416  0.560949  0.938416  1
  Nd  Nd14  1  0.561115  0.561115  0.936911  1
  Nd  Nd15  1  0.938416  0.938416  0.560949  1
  Cd  Cd16  1  0.580079  0.580079  0.261733  1
  Cd  Cd17  1  0.580079  0.261733  0.580079  1
  Cd  Cd18  1  0.261733  0.580079  0.580079  1
  Ag  Ag19  1  0.582046  0.582046  0.582046  1
  Ir  Ir20  1  0.141674  0.141674  0.141674  1
  Ir  Ir21  1  0.142155  0.142155  0.575625  1
  Ir  Ir22  1  0.142155  0.575625  0.142155  1
  Ir  Ir23  1  0.575625  0.142155  0.142155  1
