# generated using pymatgen
data_NaSr4As10(Ir2Ru3)2
_symmetry_space_group_name_H-M   'P 1'
_cell_length_a   9.28180600
_cell_length_b   8.83624121
_cell_length_c   9.28180600
_cell_angle_alpha   58.31746803
_cell_angle_beta   90.00000000
_cell_angle_gamma   58.31745279
_symmetry_Int_Tables_number   1
_chemical_formula_structural   NaSr4As10(Ir2Ru3)2
_chemical_formula_sum   'Na1 Sr4 As10 Ir4 Ru6'
_cell_volume   509.70492740
_cell_formula_units_Z   1
loop_
 _symmetry_equiv_pos_site_id
 _symmetry_equiv_pos_as_xyz
  1  'x, y, z'
loop_
 _atom_site_type_symbol
 _atom_site_label
 _atom_site_symmetry_multiplicity
 _atom_site_fract_x
 _atom_site_fract_y
 _atom_site_fract_z
 _atom_site_occupancy
  Na  Na0  1  0.000000  0.000000  0.000000  1
  Sr  Sr1  1  0.198710  0.998833  0.604727  1
  Sr  Sr2  1  0.395273  0.001167  0.197543  1
  Sr  Sr3  1  0.603560  0.001167  0.801290  1
  Sr  Sr4  1  0.802457  0.998833  0.396440  1
  As  As5  1  0.160138  0.278140  0.761465  1
  As  As6  1  0.361570  0.276860  0.361570  1
  As  As7  1  0.561722  0.278140  0.960394  1
  As  As8  1  0.760431  0.280950  0.557180  1
  As  As9  1  0.958618  0.280950  0.161869  1
  As  As10  1  0.638430  0.723140  0.638430  1
  As  As11  1  0.838131  0.719050  0.239569  1
  As  As12  1  0.039605  0.721860  0.839862  1
  As  As13  1  0.238535  0.721860  0.438278  1
  As  As14  1  0.442820  0.719050  0.041381  1
  Ir  Ir15  1  0.949581  0.501490  0.850128  1
  Ir  Ir16  1  0.149872  0.498510  0.451071  1
  Ir  Ir17  1  0.351617  0.498510  0.050419  1
  Ir  Ir18  1  0.548929  0.501490  0.648383  1
  Ru  Ru19  1  0.750000  0.500000  0.250000  1
  Ru  Ru20  1  0.849221  0.501017  0.550973  1
  Ru  Ru21  1  0.051989  0.498983  0.150779  1
  Ru  Ru22  1  0.250000  0.500000  0.750000  1
  Ru  Ru23  1  0.449027  0.498983  0.350238  1
  Ru  Ru24  1  0.649762  0.501017  0.948011  1
