# generated using pymatgen
data_Pr5BiPb2Br
_symmetry_space_group_name_H-M   'P 1'
_cell_length_a   9.74603918
_cell_length_b   9.74603925
_cell_length_c   6.81495600
_cell_angle_alpha   90.00000000
_cell_angle_beta   90.00000000
_cell_angle_gamma   120.27555706
_symmetry_Int_Tables_number   1
_chemical_formula_structural   Pr5BiPb2Br
_chemical_formula_sum   'Pr10 Bi2 Pb4 Br2'
_cell_volume   559.03292087
_cell_formula_units_Z   2
loop_
 _symmetry_equiv_pos_site_id
 _symmetry_equiv_pos_as_xyz
  1  'x, y, z'
loop_
 _atom_site_type_symbol
 _atom_site_label
 _atom_site_symmetry_multiplicity
 _atom_site_fract_x
 _atom_site_fract_y
 _atom_site_fract_z
 _atom_site_occupancy
  Pr  Pr0  1  0.267203  0.997277  0.750000  1
  Pr  Pr1  1  0.732797  0.002723  0.250000  1
  Pr  Pr2  1  0.997277  0.267203  0.750000  1
  Pr  Pr3  1  0.002723  0.732797  0.250000  1
  Pr  Pr4  1  0.733491  0.733491  0.750000  1
  Pr  Pr5  1  0.266509  0.266509  0.250000  1
  Pr  Pr6  1  0.332159  0.667841  0.500000  1
  Pr  Pr7  1  0.667841  0.332159  0.500000  1
  Pr  Pr8  1  0.667841  0.332159  0.000000  1
  Pr  Pr9  1  0.332159  0.667841  0.000000  1
  Bi  Bi10  1  0.384666  0.384666  0.750000  1
  Bi  Bi11  1  0.615334  0.615334  0.250000  1
  Pb  Pb12  1  0.614200  0.999352  0.750000  1
  Pb  Pb13  1  0.385800  0.000648  0.250000  1
  Pb  Pb14  1  0.999352  0.614200  0.750000  1
  Pb  Pb15  1  0.000648  0.385800  0.250000  1
  Br  Br16  1  0.000000  0.000000  0.500000  1
  Br  Br17  1  0.000000  0.000000  0.000000  1
