# generated using pymatgen
data_Tm3Lu3HfCo17P12
_symmetry_space_group_name_H-M   'P 1'
_cell_length_a   3.67789100
_cell_length_b   10.53743305
_cell_length_c   12.20697106
_cell_angle_alpha   89.98839150
_cell_angle_beta   90.00000000
_cell_angle_gamma   90.00000000
_symmetry_Int_Tables_number   1
_chemical_formula_structural   Tm3Lu3HfCo17P12
_chemical_formula_sum   'Tm3 Lu3 Hf1 Co17 P12'
_cell_volume   473.08762587
_cell_formula_units_Z   1
loop_
 _symmetry_equiv_pos_site_id
 _symmetry_equiv_pos_as_xyz
  1  'x, y, z'
loop_
 _atom_site_type_symbol
 _atom_site_label
 _atom_site_symmetry_multiplicity
 _atom_site_fract_x
 _atom_site_fract_y
 _atom_site_fract_z
 _atom_site_occupancy
  Tm  Tm0  1  0.000000  0.499985  0.529584  1
  Tm  Tm1  1  0.500000  0.000017  0.476304  1
  Tm  Tm2  1  0.500000  0.822308  0.207529  1
  Lu  Lu3  1  0.500000  0.177750  0.207595  1
  Lu  Lu4  1  0.000000  0.681930  0.796171  1
  Lu  Lu5  1  0.000000  0.318070  0.796104  1
  Hf  Hf6  1  0.500000  0.499905  0.154963  1
  Co  Co7  1  0.000000  0.999988  0.835423  1
  Co  Co8  1  0.500000  0.499988  0.703085  1
  Co  Co9  1  0.000000  0.000411  0.296511  1
  Co  Co10  1  0.000000  0.499974  0.984400  1
  Co  Co11  1  0.500000  0.000106  0.013861  1
  Co  Co12  1  0.500000  0.327364  0.988535  1
  Co  Co13  1  0.500000  0.672548  0.988443  1
  Co  Co14  1  0.000000  0.162037  0.001751  1
  Co  Co15  1  0.000000  0.838006  0.001611  1
  Co  Co16  1  0.500000  0.294526  0.434560  1
  Co  Co17  1  0.500000  0.705442  0.434698  1
  Co  Co18  1  0.000000  0.201834  0.570359  1
  Co  Co19  1  0.000000  0.798193  0.570404  1
  Co  Co20  1  0.500000  0.879138  0.707001  1
  Co  Co21  1  0.500000  0.120863  0.706994  1
  Co  Co22  1  0.000000  0.623457  0.295830  1
  Co  Co23  1  0.000000  0.376207  0.295690  1
  P  P24  1  0.500000  0.500023  0.880594  1
  P  P25  1  0.000000  0.000273  0.117471  1
  P  P26  1  0.500000  0.500067  0.362902  1
  P  P27  1  0.000000  0.000013  0.652585  1
  P  P28  1  0.500000  0.310936  0.618816  1
  P  P29  1  0.500000  0.689043  0.618828  1
  P  P30  1  0.000000  0.187037  0.385486  1
  P  P31  1  0.000000  0.812908  0.385830  1
  P  P32  1  0.500000  0.851404  0.887419  1
  P  P33  1  0.500000  0.148562  0.887318  1
  P  P34  1  0.000000  0.665406  0.102518  1
  P  P35  1  0.000000  0.334281  0.102826  1
