# generated using pymatgen
data_ZrPaCoNi
_symmetry_space_group_name_H-M   'P 1'
_cell_length_a   5.42872527
_cell_length_b   5.42872501
_cell_length_c   3.98329700
_cell_angle_alpha   90.00000000
_cell_angle_beta   90.00000000
_cell_angle_gamma   142.61029347
_symmetry_Int_Tables_number   1
_chemical_formula_structural   ZrPaCoNi
_chemical_formula_sum   'Zr1 Pa1 Co1 Ni1'
_cell_volume   71.28429192
_cell_formula_units_Z   1
loop_
 _symmetry_equiv_pos_site_id
 _symmetry_equiv_pos_as_xyz
  1  'x, y, z'
loop_
 _atom_site_type_symbol
 _atom_site_label
 _atom_site_symmetry_multiplicity
 _atom_site_fract_x
 _atom_site_fract_y
 _atom_site_fract_z
 _atom_site_occupancy
  Zr  Zr0  1  0.143448  0.856552  0.000000  1
  Pa  Pa1  1  0.867874  0.132126  0.500000  1
  Co  Co2  1  0.404069  0.595931  0.000000  1
  Ni  Ni3  1  0.584609  0.415391  0.500000  1
