# generated using pymatgen
data_YbPr3Sc6(Si5Ir2)4
_symmetry_space_group_name_H-M   'P 1'
_cell_length_a   12.60875359
_cell_length_b   12.60875229
_cell_length_c   4.16003400
_cell_angle_alpha   90.00000000
_cell_angle_beta   90.00000000
_cell_angle_gamma   90.12350960
_symmetry_Int_Tables_number   1
_chemical_formula_structural   YbPr3Sc6(Si5Ir2)4
_chemical_formula_sum   'Yb1 Pr3 Sc6 Si20 Ir8'
_cell_volume   661.36337530
_cell_formula_units_Z   1
loop_
 _symmetry_equiv_pos_site_id
 _symmetry_equiv_pos_as_xyz
  1  'x, y, z'
loop_
 _atom_site_type_symbol
 _atom_site_label
 _atom_site_symmetry_multiplicity
 _atom_site_fract_x
 _atom_site_fract_y
 _atom_site_fract_z
 _atom_site_occupancy
  Yb  Yb0  1  0.383459  0.116541  0.500000  1
  Pr  Pr1  1  0.116016  0.615838  0.500000  1
  Pr  Pr2  1  0.884162  0.383984  0.500000  1
  Pr  Pr3  1  0.615842  0.884158  0.500000  1
  Sc  Sc4  1  0.675173  0.177101  0.500000  1
  Sc  Sc5  1  0.322899  0.824827  0.500000  1
  Sc  Sc6  1  0.176434  0.323566  0.500000  1
  Sc  Sc7  1  0.824621  0.675379  0.500000  1
  Sc  Sc8  1  0.000819  0.000360  0.000000  1
  Sc  Sc9  1  0.499640  0.499181  0.000000  1
  Si  Si10  1  0.568543  0.069133  0.000000  1
  Si  Si11  1  0.430867  0.931457  0.000000  1
  Si  Si12  1  0.069757  0.430243  0.000000  1
  Si  Si13  1  0.930591  0.569409  0.000000  1
  Si  Si14  1  0.201543  0.164020  0.000000  1
  Si  Si15  1  0.800091  0.836476  0.000000  1
  Si  Si16  1  0.163586  0.800912  0.000000  1
  Si  Si17  1  0.699088  0.336414  0.000000  1
  Si  Si18  1  0.836604  0.199711  0.000000  1
  Si  Si19  1  0.300289  0.663396  0.000000  1
  Si  Si20  1  0.663524  0.699909  0.000000  1
  Si  Si21  1  0.335980  0.298457  0.000000  1
  Si  Si22  1  0.010688  0.149233  0.500000  1
  Si  Si23  1  0.992244  0.851377  0.500000  1
  Si  Si24  1  0.150745  0.993439  0.500000  1
  Si  Si25  1  0.506561  0.349255  0.500000  1
  Si  Si26  1  0.851894  0.010605  0.500000  1
  Si  Si27  1  0.489395  0.648106  0.500000  1
  Si  Si28  1  0.648623  0.507756  0.500000  1
  Si  Si29  1  0.350767  0.489312  0.500000  1
  Ir  Ir30  1  0.024130  0.241547  0.000000  1
  Ir  Ir31  1  0.975416  0.758745  0.000000  1
  Ir  Ir32  1  0.244055  0.977258  0.000000  1
  Ir  Ir33  1  0.522742  0.255945  0.000000  1
  Ir  Ir34  1  0.757657  0.024151  0.000000  1
  Ir  Ir35  1  0.475849  0.742343  0.000000  1
  Ir  Ir36  1  0.741255  0.524584  0.000000  1
  Ir  Ir37  1  0.258453  0.475870  0.000000  1
