# generated using pymatgen
data_Yb9ScPb6F2
_symmetry_space_group_name_H-M   'P 1'
_cell_length_a   9.42573486
_cell_length_b   9.42573385
_cell_length_c   9.42573337
_cell_angle_alpha   128.96113885
_cell_angle_beta   128.96114817
_cell_angle_gamma   75.07310807
_symmetry_Int_Tables_number   1
_chemical_formula_structural   Yb9ScPb6F2
_chemical_formula_sum   'Yb9 Sc1 Pb6 F2'
_cell_volume   492.99823099
_cell_formula_units_Z   1
loop_
 _symmetry_equiv_pos_site_id
 _symmetry_equiv_pos_as_xyz
  1  'x, y, z'
loop_
 _atom_site_type_symbol
 _atom_site_label
 _atom_site_symmetry_multiplicity
 _atom_site_fract_x
 _atom_site_fract_y
 _atom_site_fract_z
 _atom_site_occupancy
  Yb  Yb0  1  0.500000  0.500000  0.000000  1
  Yb  Yb1  1  0.505460  0.002296  0.813599  1
  Yb  Yb2  1  0.188697  0.691861  0.186401  1
  Yb  Yb3  1  0.002296  0.188697  0.496836  1
  Yb  Yb4  1  0.691861  0.505460  0.503164  1
  Yb  Yb5  1  0.494540  0.997704  0.186401  1
  Yb  Yb6  1  0.811303  0.308139  0.813599  1
  Yb  Yb7  1  0.997704  0.811303  0.503164  1
  Yb  Yb8  1  0.308139  0.494540  0.496836  1
  Sc  Sc9  1  0.000000  0.000000  0.000000  1
  Pb  Pb10  1  0.248201  0.248201  0.000000  1
  Pb  Pb11  1  0.751799  0.751799  0.000000  1
  Pb  Pb12  1  0.869688  0.355209  0.224898  1
  Pb  Pb13  1  0.130312  0.644791  0.775103  1
  Pb  Pb14  1  0.355209  0.130312  0.485521  1
  Pb  Pb15  1  0.644791  0.869688  0.514479  1
  F  F16  1  0.250000  0.750000  0.500000  1
  F  F17  1  0.750000  0.250000  0.500000  1
