# generated using pymatgen
data_Nd8Be2ZnSi12Pt
_symmetry_space_group_name_H-M   'P 1'
_cell_length_a   8.08231400
_cell_length_b   8.08231502
_cell_length_c   8.60924300
_cell_angle_alpha   90.00000000
_cell_angle_beta   90.00000000
_cell_angle_gamma   119.99998764
_symmetry_Int_Tables_number   1
_chemical_formula_structural   Nd8Be2ZnSi12Pt
_chemical_formula_sum   'Nd8 Be2 Zn1 Si12 Pt1'
_cell_volume   487.04281905
_cell_formula_units_Z   1
loop_
 _symmetry_equiv_pos_site_id
 _symmetry_equiv_pos_as_xyz
  1  'x, y, z'
loop_
 _atom_site_type_symbol
 _atom_site_label
 _atom_site_symmetry_multiplicity
 _atom_site_fract_x
 _atom_site_fract_y
 _atom_site_fract_z
 _atom_site_occupancy
  Nd  Nd0  1  0.499896  0.500104  0.754703  1
  Nd  Nd1  1  0.500019  0.499981  0.245326  1
  Nd  Nd2  1  0.000208  0.500104  0.754703  1
  Nd  Nd3  1  0.999962  0.499981  0.245326  1
  Nd  Nd4  1  0.499896  0.999792  0.754703  1
  Nd  Nd5  1  0.500019  0.000038  0.245326  1
  Nd  Nd6  1  0.000000  0.000000  0.752418  1
  Nd  Nd7  1  0.000000  0.000000  0.247606  1
  Be  Be8  1  0.666667  0.333333  0.999241  1
  Be  Be9  1  0.333333  0.666667  0.000660  1
  Zn  Zn10  1  0.333333  0.666667  0.499643  1
  Si  Si11  1  0.827477  0.172523  0.000030  1
  Si  Si12  1  0.172298  0.827702  0.000019  1
  Si  Si13  1  0.345047  0.172523  0.000030  1
  Si  Si14  1  0.163962  0.836038  0.499884  1
  Si  Si15  1  0.655403  0.827702  0.000019  1
  Si  Si16  1  0.832553  0.167447  0.500162  1
  Si  Si17  1  0.827477  0.654953  0.000030  1
  Si  Si18  1  0.672076  0.836038  0.499884  1
  Si  Si19  1  0.172298  0.344597  0.000019  1
  Si  Si20  1  0.334892  0.167447  0.500162  1
  Si  Si21  1  0.163962  0.327924  0.499884  1
  Si  Si22  1  0.832553  0.665108  0.500162  1
  Pt  Pt23  1  0.666667  0.333333  0.500056  1
