# generated using pymatgen
data_Tb3Y5(LuIn5)4
_symmetry_space_group_name_H-M   'P 1'
_cell_length_a   6.54318102
_cell_length_b   10.35364209
_cell_length_c   12.17509800
_cell_angle_alpha   90.00389032
_cell_angle_beta   89.99550788
_cell_angle_gamma   90.00653028
_symmetry_Int_Tables_number   1
_chemical_formula_structural   Tb3Y5(LuIn5)4
_chemical_formula_sum   'Tb3 Y5 Lu4 In20'
_cell_volume   824.81118935
_cell_formula_units_Z   1
loop_
 _symmetry_equiv_pos_site_id
 _symmetry_equiv_pos_as_xyz
  1  'x, y, z'
loop_
 _atom_site_type_symbol
 _atom_site_label
 _atom_site_symmetry_multiplicity
 _atom_site_fract_x
 _atom_site_fract_y
 _atom_site_fract_z
 _atom_site_occupancy
  Tb  Tb0  1  0.887065  0.488874  0.141941  1
  Tb  Tb1  1  0.612906  0.011122  0.641960  1
  Tb  Tb2  1  0.112930  0.988941  0.858071  1
  Y  Y3  1  0.387359  0.511295  0.358509  1
  Y  Y4  1  0.112885  0.511214  0.858202  1
  Y  Y5  1  0.387171  0.988699  0.358148  1
  Y  Y6  1  0.887478  0.011317  0.141665  1
  Y  Y7  1  0.612517  0.488542  0.641778  1
  Lu  Lu8  1  0.352556  0.749999  0.052156  1
  Lu  Lu9  1  0.147402  0.750032  0.552146  1
  Lu  Lu10  1  0.647414  0.249969  0.947845  1
  Lu  Lu11  1  0.852570  0.249965  0.447873  1
  In  In12  1  0.610248  0.749838  0.505756  1
  In  In13  1  0.889607  0.750084  0.005666  1
  In  In14  1  0.389718  0.250102  0.494130  1
  In  In15  1  0.110443  0.250079  0.994283  1
  In  In16  1  0.650118  0.749981  0.241573  1
  In  In17  1  0.849935  0.750113  0.741578  1
  In  In18  1  0.349914  0.249975  0.758408  1
  In  In19  1  0.150026  0.250024  0.258436  1
  In  In20  1  0.118061  0.750030  0.277908  1
  In  In21  1  0.381931  0.749946  0.777809  1
  In  In22  1  0.881968  0.250009  0.722142  1
  In  In23  1  0.618069  0.249926  0.222170  1
  In  In24  1  0.871007  0.543016  0.401381  1
  In  In25  1  0.628717  0.956912  0.901462  1
  In  In26  1  0.128753  0.043109  0.598539  1
  In  In27  1  0.371328  0.456999  0.098553  1
  In  In28  1  0.128850  0.456983  0.598616  1
  In  In29  1  0.371106  0.043038  0.098558  1
  In  In30  1  0.871305  0.956880  0.401344  1
  In  In31  1  0.628639  0.542987  0.901392  1
