# generated using pymatgen
data_BaCdSb2Pd
_symmetry_space_group_name_H-M   'P 1'
_cell_length_a   4.91414100
_cell_length_b   4.91414100
_cell_length_c   11.48779900
_cell_angle_alpha   90.00000000
_cell_angle_beta   90.00000000
_cell_angle_gamma   90.00000000
_symmetry_Int_Tables_number   1
_chemical_formula_structural   BaCdSb2Pd
_chemical_formula_sum   'Ba2 Cd2 Sb4 Pd2'
_cell_volume   277.41635104
_cell_formula_units_Z   2
loop_
 _symmetry_equiv_pos_site_id
 _symmetry_equiv_pos_as_xyz
  1  'x, y, z'
loop_
 _atom_site_type_symbol
 _atom_site_label
 _atom_site_symmetry_multiplicity
 _atom_site_fract_x
 _atom_site_fract_y
 _atom_site_fract_z
 _atom_site_occupancy
  Ba  Ba0  1  0.000000  0.500000  0.265411  1
  Ba  Ba1  1  0.500000  0.000000  0.734589  1
  Cd  Cd2  1  0.000000  0.000000  0.000000  1
  Cd  Cd3  1  0.500000  0.500000  0.000000  1
  Sb  Sb4  1  0.000000  0.000000  0.500000  1
  Sb  Sb5  1  0.500000  0.500000  0.500000  1
  Sb  Sb6  1  0.000000  0.500000  0.847131  1
  Sb  Sb7  1  0.500000  0.000000  0.152869  1
  Pd  Pd8  1  0.000000  0.500000  0.606597  1
  Pd  Pd9  1  0.500000  0.000000  0.393403  1
