# generated using pymatgen
data_Zr6Al3(GaCu4)4
_symmetry_space_group_name_H-M   'P 1'
_cell_length_a   8.43679013
_cell_length_b   8.44363877
_cell_length_c   8.43408500
_cell_angle_alpha   119.96257421
_cell_angle_beta   90.00000000
_cell_angle_gamma   119.92484420
_symmetry_Int_Tables_number   1
_chemical_formula_structural   Zr6Al3(GaCu4)4
_chemical_formula_sum   'Zr6 Al3 Ga4 Cu16'
_cell_volume   425.56624449
_cell_formula_units_Z   1
loop_
 _symmetry_equiv_pos_site_id
 _symmetry_equiv_pos_as_xyz
  1  'x, y, z'
loop_
 _atom_site_type_symbol
 _atom_site_label
 _atom_site_symmetry_multiplicity
 _atom_site_fract_x
 _atom_site_fract_y
 _atom_site_fract_z
 _atom_site_occupancy
  Zr  Zr0  1  0.295336  0.001059  0.295341  1
  Zr  Zr1  1  0.295727  0.589222  0.294611  1
  Zr  Zr2  1  0.704664  0.998941  0.294282  1
  Zr  Zr3  1  0.295336  0.001059  0.705718  1
  Zr  Zr4  1  0.704664  0.998941  0.704659  1
  Zr  Zr5  1  0.704273  0.410777  0.705389  1
  Al  Al6  1  0.000000  0.000000  0.000000  1
  Al  Al7  1  0.000000  0.500000  0.000000  1
  Al  Al8  1  0.000000  0.500000  0.500000  1
  Ga  Ga9  1  0.500000  0.000000  0.000000  1
  Ga  Ga10  1  0.500000  0.500000  0.000000  1
  Ga  Ga11  1  0.000000  0.000000  0.500000  1
  Ga  Ga12  1  0.500000  0.500000  0.500000  1
  Cu  Cu13  1  0.671897  0.341750  0.011736  1
  Cu  Cu14  1  0.356632  0.237690  0.118845  1
  Cu  Cu15  1  0.882485  0.240397  0.120198  1
  Cu  Cu16  1  0.881860  0.760920  0.118272  1
  Cu  Cu17  1  0.671897  0.341750  0.330015  1
  Cu  Cu18  1  0.670660  0.659010  0.329505  1
  Cu  Cu19  1  0.988225  0.657626  0.328813  1
  Cu  Cu20  1  0.118139  0.239079  0.357351  1
  Cu  Cu21  1  0.881860  0.760920  0.642648  1
  Cu  Cu22  1  0.011776  0.342374  0.671188  1
  Cu  Cu23  1  0.329341  0.340990  0.670496  1
  Cu  Cu24  1  0.328104  0.658250  0.669986  1
  Cu  Cu25  1  0.118139  0.239079  0.881727  1
  Cu  Cu26  1  0.117514  0.759602  0.879801  1
  Cu  Cu27  1  0.643367  0.762309  0.881154  1
  Cu  Cu28  1  0.328104  0.658250  0.988265  1
