# generated using pymatgen
data_SmUReB6
_symmetry_space_group_name_H-M   'P 1'
_cell_length_a   3.67286800
_cell_length_b   9.36295700
_cell_length_c   11.48344400
_cell_angle_alpha   90.00000000
_cell_angle_beta   90.00000000
_cell_angle_gamma   90.00000000
_symmetry_Int_Tables_number   1
_chemical_formula_structural   SmUReB6
_chemical_formula_sum   'Sm4 U4 Re4 B24'
_cell_volume   394.90306652
_cell_formula_units_Z   4
loop_
 _symmetry_equiv_pos_site_id
 _symmetry_equiv_pos_as_xyz
  1  'x, y, z'
loop_
 _atom_site_type_symbol
 _atom_site_label
 _atom_site_symmetry_multiplicity
 _atom_site_fract_x
 _atom_site_fract_y
 _atom_site_fract_z
 _atom_site_occupancy
  Sm  Sm0  1  0.000000  0.336849  0.407807  1
  Sm  Sm1  1  0.000000  0.663151  0.592193  1
  Sm  Sm2  1  0.000000  0.836849  0.092193  1
  Sm  Sm3  1  0.000000  0.163151  0.907807  1
  U  U4  1  0.000000  0.956944  0.396398  1
  U  U5  1  0.000000  0.043056  0.603602  1
  U  U6  1  0.000000  0.456944  0.103602  1
  U  U7  1  0.000000  0.543056  0.896398  1
  Re  Re8  1  0.000000  0.646675  0.317660  1
  Re  Re9  1  0.000000  0.353325  0.682340  1
  Re  Re10  1  0.000000  0.146675  0.182340  1
  Re  Re11  1  0.000000  0.853325  0.817660  1
  B  B12  1  0.500000  0.553919  0.429575  1
  B  B13  1  0.500000  0.446081  0.570425  1
  B  B14  1  0.500000  0.053919  0.070425  1
  B  B15  1  0.500000  0.946081  0.929575  1
  B  B16  1  0.500000  0.744428  0.421809  1
  B  B17  1  0.500000  0.255572  0.578191  1
  B  B18  1  0.500000  0.244428  0.078191  1
  B  B19  1  0.500000  0.755572  0.921809  1
  B  B20  1  0.500000  0.802144  0.275165  1
  B  B21  1  0.500000  0.197856  0.724835  1
  B  B22  1  0.500000  0.302144  0.224835  1
  B  B23  1  0.500000  0.697856  0.775165  1
  B  B24  1  0.500000  0.643989  0.188184  1
  B  B25  1  0.500000  0.356011  0.811816  1
  B  B26  1  0.500000  0.143989  0.311816  1
  B  B27  1  0.500000  0.856011  0.688184  1
  B  B28  1  0.500000  0.990993  0.220323  1
  B  B29  1  0.500000  0.009007  0.779677  1
  B  B30  1  0.500000  0.490993  0.279677  1
  B  B31  1  0.500000  0.509007  0.720323  1
  B  B32  1  0.500000  0.637697  0.037761  1
  B  B33  1  0.500000  0.362303  0.962239  1
  B  B34  1  0.500000  0.137697  0.462239  1
  B  B35  1  0.500000  0.862303  0.537761  1
