# generated using pymatgen
data_TbCr4(CuO4)3
_symmetry_space_group_name_H-M   'P 1'
_cell_length_a   6.40597588
_cell_length_b   6.40598179
_cell_length_c   6.40600601
_cell_angle_alpha   109.46494977
_cell_angle_beta   109.47149723
_cell_angle_gamma   109.47714771
_symmetry_Int_Tables_number   1
_chemical_formula_structural   TbCr4(CuO4)3
_chemical_formula_sum   'Tb1 Cr4 Cu3 O12'
_cell_volume   202.36565499
_cell_formula_units_Z   1
loop_
 _symmetry_equiv_pos_site_id
 _symmetry_equiv_pos_as_xyz
  1  'x, y, z'
loop_
 _atom_site_type_symbol
 _atom_site_label
 _atom_site_symmetry_multiplicity
 _atom_site_fract_x
 _atom_site_fract_y
 _atom_site_fract_z
 _atom_site_occupancy
  Tb  Tb0  1  0.000000  0.000000  0.000000  1
  Cr  Cr1  1  0.000000  0.000000  0.500000  1
  Cr  Cr2  1  0.000000  0.500000  0.000000  1
  Cr  Cr3  1  0.500000  0.000000  0.000000  1
  Cr  Cr4  1  0.500000  0.500000  0.500000  1
  Cu  Cu5  1  0.000000  0.500000  0.500000  1
  Cu  Cu6  1  0.500000  0.000000  0.500000  1
  Cu  Cu7  1  0.500000  0.500000  0.000000  1
  O  O8  1  0.306625  0.140442  0.833815  1
  O  O9  1  0.693375  0.859558  0.166185  1
  O  O10  1  0.693370  0.527184  0.833811  1
  O  O11  1  0.472868  0.166218  0.306647  1
  O  O12  1  0.166202  0.306657  0.472859  1
  O  O13  1  0.833795  0.306660  0.140456  1
  O  O14  1  0.859570  0.166217  0.693355  1
  O  O15  1  0.833798  0.693343  0.527141  1
  O  O16  1  0.306630  0.472816  0.166189  1
  O  O17  1  0.527132  0.833782  0.693353  1
  O  O18  1  0.166205  0.693340  0.859544  1
  O  O19  1  0.140430  0.833783  0.306645  1
