# generated using pymatgen
data_Zr3Ga3PtRh2
_symmetry_space_group_name_H-M   'P 1'
_cell_length_a   7.23528100
_cell_length_b   7.23528062
_cell_length_c   6.97191700
_cell_angle_alpha   90.00000000
_cell_angle_beta   90.00000000
_cell_angle_gamma   119.99998924
_symmetry_Int_Tables_number   1
_chemical_formula_structural   Zr3Ga3PtRh2
_chemical_formula_sum   'Zr6 Ga6 Pt2 Rh4'
_cell_volume   316.07756399
_cell_formula_units_Z   2
loop_
 _symmetry_equiv_pos_site_id
 _symmetry_equiv_pos_as_xyz
  1  'x, y, z'
loop_
 _atom_site_type_symbol
 _atom_site_label
 _atom_site_symmetry_multiplicity
 _atom_site_fract_x
 _atom_site_fract_y
 _atom_site_fract_z
 _atom_site_occupancy
  Zr  Zr0  1  0.398037  0.396071  0.750000  1
  Zr  Zr1  1  0.998034  0.601963  0.750000  1
  Zr  Zr2  1  0.603929  0.001966  0.750000  1
  Zr  Zr3  1  0.612226  0.015010  0.250000  1
  Zr  Zr4  1  0.984990  0.597216  0.250000  1
  Zr  Zr5  1  0.402784  0.387774  0.250000  1
  Ga  Ga6  1  0.266435  0.999662  0.999841  1
  Ga  Ga7  1  0.733227  0.733565  0.999841  1
  Ga  Ga8  1  0.000338  0.266773  0.999841  1
  Ga  Ga9  1  0.733227  0.733565  0.500159  1
  Ga  Ga10  1  0.266435  0.999662  0.500159  1
  Ga  Ga11  1  0.000338  0.266773  0.500159  1
  Pt  Pt12  1  0.333333  0.666667  0.488494  1
  Pt  Pt13  1  0.333333  0.666667  0.011506  1
  Rh  Rh14  1  0.666667  0.333333  0.990749  1
  Rh  Rh15  1  0.000000  0.000000  0.750000  1
  Rh  Rh16  1  0.666667  0.333333  0.509251  1
  Rh  Rh17  1  0.000000  0.000000  0.250000  1
