# generated using pymatgen
data_DyEr7Sc12Si15Ir
_symmetry_space_group_name_H-M   'P 1'
_cell_length_a   7.06130607
_cell_length_b   7.41648592
_cell_length_c   13.91685916
_cell_angle_alpha   90.01650387
_cell_angle_beta   90.00473547
_cell_angle_gamma   90.14350436
_symmetry_Int_Tables_number   1
_chemical_formula_structural   DyEr7Sc12Si15Ir
_chemical_formula_sum   'Dy1 Er7 Sc12 Si15 Ir1'
_cell_volume   728.82466737
_cell_formula_units_Z   1
loop_
 _symmetry_equiv_pos_site_id
 _symmetry_equiv_pos_as_xyz
  1  'x, y, z'
loop_
 _atom_site_type_symbol
 _atom_site_label
 _atom_site_symmetry_multiplicity
 _atom_site_fract_x
 _atom_site_fract_y
 _atom_site_fract_z
 _atom_site_occupancy
  Dy  Dy0  1  0.011763  0.179771  0.096111  1
  Er  Er1  1  0.990464  0.825201  0.904544  1
  Er  Er2  1  0.489011  0.676803  0.905152  1
  Er  Er3  1  0.990469  0.825255  0.595460  1
  Er  Er4  1  0.511450  0.323343  0.096146  1
  Er  Er5  1  0.011799  0.179962  0.403735  1
  Er  Er6  1  0.511467  0.323335  0.403850  1
  Er  Er7  1  0.488980  0.676817  0.594818  1
  Sc  Sc8  1  0.157529  0.502644  0.750005  1
  Sc  Sc9  1  0.838758  0.496847  0.250044  1
  Sc  Sc10  1  0.340515  0.006224  0.250035  1
  Sc  Sc11  1  0.666991  0.995933  0.750015  1
  Sc  Sc12  1  0.318670  0.171832  0.627394  1
  Sc  Sc13  1  0.672418  0.826022  0.373578  1
  Sc  Sc14  1  0.171376  0.678187  0.374045  1
  Sc  Sc15  1  0.672397  0.825976  0.126425  1
  Sc  Sc16  1  0.835510  0.319512  0.627356  1
  Sc  Sc17  1  0.318753  0.171809  0.872573  1
  Sc  Sc18  1  0.835443  0.319580  0.872616  1
  Sc  Sc19  1  0.171394  0.678168  0.125981  1
  Si  Si20  1  0.970434  0.887623  0.250071  1
  Si  Si21  1  0.469737  0.613777  0.250016  1
  Si  Si22  1  0.529097  0.388797  0.749993  1
  Si  Si23  1  0.287139  0.864890  0.749999  1
  Si  Si24  1  0.714186  0.132541  0.250128  1
  Si  Si25  1  0.214162  0.370879  0.250132  1
  Si  Si26  1  0.778465  0.626234  0.749994  1
  Si  Si27  1  0.160197  0.467809  0.537700  1
  Si  Si28  1  0.842179  0.535651  0.461590  1
  Si  Si29  1  0.344320  0.966878  0.460243  1
  Si  Si30  1  0.842079  0.535869  0.038351  1
  Si  Si31  1  0.656457  0.033962  0.538453  1
  Si  Si32  1  0.160258  0.468030  0.962225  1
  Si  Si33  1  0.656356  0.033926  0.961528  1
  Si  Si34  1  0.344643  0.966714  0.039695  1
  Ir  Ir35  1  0.025134  0.103200  0.750001  1
