# generated using pymatgen
data_Tm2Tc(BRu)4
_symmetry_space_group_name_H-M   'P 1'
_cell_length_a   3.07512800
_cell_length_b   8.73016602
_cell_length_c   10.17159269
_cell_angle_alpha   90.28452697
_cell_angle_beta   90.00000000
_cell_angle_gamma   90.00000000
_symmetry_Int_Tables_number   1
_chemical_formula_structural   Tm2Tc(BRu)4
_chemical_formula_sum   'Tm4 Tc2 B8 Ru8'
_cell_volume   273.06705503
_cell_formula_units_Z   2
loop_
 _symmetry_equiv_pos_site_id
 _symmetry_equiv_pos_as_xyz
  1  'x, y, z'
loop_
 _atom_site_type_symbol
 _atom_site_label
 _atom_site_symmetry_multiplicity
 _atom_site_fract_x
 _atom_site_fract_y
 _atom_site_fract_z
 _atom_site_occupancy
  Tm  Tm0  1  0.500000  0.840062  0.179453  1
  Tm  Tm1  1  0.500000  0.159938  0.820547  1
  Tm  Tm2  1  0.500000  0.659125  0.684508  1
  Tm  Tm3  1  0.500000  0.340875  0.315492  1
  Tc  Tc4  1  0.000000  0.659291  0.953521  1
  Tc  Tc5  1  0.000000  0.340709  0.046479  1
  B  B6  1  0.500000  0.966234  0.589338  1
  B  B7  1  0.500000  0.033766  0.410662  1
  B  B8  1  0.500000  0.848342  0.902859  1
  B  B9  1  0.500000  0.151658  0.097141  1
  B  B10  1  0.500000  0.646490  0.398645  1
  B  B11  1  0.500000  0.353510  0.601355  1
  B  B12  1  0.500000  0.465419  0.914271  1
  B  B13  1  0.500000  0.534581  0.085729  1
  Ru  Ru14  1  0.000000  0.841913  0.454246  1
  Ru  Ru15  1  0.000000  0.158087  0.545754  1
  Ru  Ru16  1  0.000000  0.000000  0.000000  1
  Ru  Ru17  1  0.000000  0.405329  0.759759  1
  Ru  Ru18  1  0.000000  0.594671  0.240241  1
  Ru  Ru19  1  0.000000  0.500000  0.500000  1
  Ru  Ru20  1  0.000000  0.907706  0.738350  1
  Ru  Ru21  1  0.000000  0.092294  0.261650  1
