# generated using pymatgen
data_Lu3Sc13(Ga3Ni)2
_symmetry_space_group_name_H-M   'P 1'
_cell_length_a   9.51192300
_cell_length_b   9.51201307
_cell_length_c   6.42474700
_cell_angle_alpha   90.00018289
_cell_angle_beta   89.99920113
_cell_angle_gamma   119.99959587
_symmetry_Int_Tables_number   1
_chemical_formula_structural   Lu3Sc13(Ga3Ni)2
_chemical_formula_sum   'Lu3 Sc13 Ga6 Ni2'
_cell_volume   503.41852728
_cell_formula_units_Z   1
loop_
 _symmetry_equiv_pos_site_id
 _symmetry_equiv_pos_as_xyz
  1  'x, y, z'
loop_
 _atom_site_type_symbol
 _atom_site_label
 _atom_site_symmetry_multiplicity
 _atom_site_fract_x
 _atom_site_fract_y
 _atom_site_fract_z
 _atom_site_occupancy
  Lu  Lu0  1  0.333336  0.666671  0.394428  1
  Lu  Lu1  1  0.000000  0.999995  0.502921  1
  Lu  Lu2  1  0.999987  0.999983  0.004587  1
  Sc  Sc3  1  0.532172  0.064339  0.529485  1
  Sc  Sc4  1  0.935668  0.467838  0.529517  1
  Sc  Sc5  1  0.532161  0.467832  0.529505  1
  Sc  Sc6  1  0.471265  0.942526  0.025760  1
  Sc  Sc7  1  0.057481  0.528742  0.025794  1
  Sc  Sc8  1  0.471260  0.528740  0.025778  1
  Sc  Sc9  1  0.174927  0.349866  0.735876  1
  Sc  Sc10  1  0.650132  0.825074  0.735881  1
  Sc  Sc11  1  0.174935  0.825056  0.735899  1
  Sc  Sc12  1  0.824375  0.648739  0.232877  1
  Sc  Sc13  1  0.351249  0.175624  0.232859  1
  Sc  Sc14  1  0.824373  0.175630  0.232877  1
  Sc  Sc15  1  0.666673  0.333338  0.898281  1
  Ga  Ga16  1  0.834587  0.669183  0.767577  1
  Ga  Ga17  1  0.330835  0.165409  0.767559  1
  Ga  Ga18  1  0.834569  0.165407  0.767565  1
  Ga  Ga19  1  0.162634  0.325257  0.263388  1
  Ga  Ga20  1  0.674735  0.837371  0.263369  1
  Ga  Ga21  1  0.162644  0.837374  0.263387  1
  Ni  Ni22  1  0.666672  0.333346  0.292225  1
  Ni  Ni23  1  0.333330  0.666656  0.798288  1
