# generated using pymatgen
data_Ho2GaSiRu2
_symmetry_space_group_name_H-M   'P 1'
_cell_length_a   4.39359900
_cell_length_b   7.03153909
_cell_length_c   7.18139938
_cell_angle_alpha   90.66523818
_cell_angle_beta   90.00000000
_cell_angle_gamma   90.00000000
_symmetry_Int_Tables_number   1
_chemical_formula_structural   Ho2GaSiRu2
_chemical_formula_sum   'Ho4 Ga2 Si2 Ru4'
_cell_volume   221.84549754
_cell_formula_units_Z   2
loop_
 _symmetry_equiv_pos_site_id
 _symmetry_equiv_pos_as_xyz
  1  'x, y, z'
loop_
 _atom_site_type_symbol
 _atom_site_label
 _atom_site_symmetry_multiplicity
 _atom_site_fract_x
 _atom_site_fract_y
 _atom_site_fract_z
 _atom_site_occupancy
  Ho  Ho0  1  0.250000  0.986062  0.807006  1
  Ho  Ho1  1  0.750000  0.013938  0.192994  1
  Ho  Ho2  1  0.250000  0.483355  0.689760  1
  Ho  Ho3  1  0.750000  0.516645  0.310240  1
  Ga  Ga4  1  0.250000  0.306445  0.107732  1
  Ga  Ga5  1  0.750000  0.693555  0.892268  1
  Si  Si6  1  0.250000  0.802951  0.400064  1
  Si  Si7  1  0.750000  0.197049  0.599936  1
  Ru  Ru8  1  0.750000  0.851145  0.554443  1
  Ru  Ru9  1  0.250000  0.148855  0.445557  1
  Ru  Ru10  1  0.750000  0.327538  0.918636  1
  Ru  Ru11  1  0.250000  0.672462  0.081364  1
