# generated using pymatgen
data_Tb20Bi7Pt4Pb
_symmetry_space_group_name_H-M   'P 1'
_cell_length_a   8.11121448
_cell_length_b   9.06399030
_cell_length_c   12.47372658
_cell_angle_alpha   90.01628814
_cell_angle_beta   90.03099402
_cell_angle_gamma   90.02453155
_symmetry_Int_Tables_number   1
_chemical_formula_structural   Tb20Bi7Pt4Pb
_chemical_formula_sum   'Tb20 Bi7 Pt4 Pb1'
_cell_volume   917.06774112
_cell_formula_units_Z   1
loop_
 _symmetry_equiv_pos_site_id
 _symmetry_equiv_pos_as_xyz
  1  'x, y, z'
loop_
 _atom_site_type_symbol
 _atom_site_label
 _atom_site_symmetry_multiplicity
 _atom_site_fract_x
 _atom_site_fract_y
 _atom_site_fract_z
 _atom_site_occupancy
  Tb  Tb0  1  0.836929  0.748588  0.790670  1
  Tb  Tb1  1  0.161709  0.249792  0.209114  1
  Tb  Tb2  1  0.339706  0.251511  0.710159  1
  Tb  Tb3  1  0.661181  0.750054  0.290671  1
  Tb  Tb4  1  0.373676  0.748494  0.698806  1
  Tb  Tb5  1  0.627726  0.250048  0.302103  1
  Tb  Tb6  1  0.870277  0.251527  0.801895  1
  Tb  Tb7  1  0.128129  0.749944  0.198070  1
  Tb  Tb8  1  0.951092  0.750036  0.500033  1
  Tb  Tb9  1  0.049676  0.250093  0.499946  1
  Tb  Tb10  1  0.451987  0.252280  0.998619  1
  Tb  Tb11  1  0.549471  0.747539  0.998941  1
  Tb  Tb12  1  0.680580  0.045265  0.566307  1
  Tb  Tb13  1  0.319742  0.954250  0.433531  1
  Tb  Tb14  1  0.179900  0.954413  0.933510  1
  Tb  Tb15  1  0.319679  0.545584  0.433415  1
  Tb  Tb16  1  0.819869  0.045200  0.066616  1
  Tb  Tb17  1  0.679395  0.454876  0.568174  1
  Tb  Tb18  1  0.818988  0.454854  0.065404  1
  Tb  Tb19  1  0.182186  0.544924  0.933209  1
  Bi  Bi20  1  0.430094  0.509199  0.173567  1
  Bi  Bi21  1  0.069558  0.509262  0.672729  1
  Bi  Bi22  1  0.430508  0.990966  0.172808  1
  Bi  Bi23  1  0.930494  0.490742  0.327086  1
  Bi  Bi24  1  0.569389  0.008896  0.827156  1
  Bi  Bi25  1  0.930357  0.009239  0.327117  1
  Bi  Bi26  1  0.069457  0.990928  0.672985  1
  Pt  Pt27  1  0.574618  0.750177  0.511389  1
  Pt  Pt28  1  0.425112  0.249739  0.488099  1
  Pt  Pt29  1  0.073876  0.249848  0.988390  1
  Pt  Pt30  1  0.925117  0.750405  0.012295  1
  Pb  Pb31  1  0.569522  0.491327  0.827187  1
