# generated using pymatgen
data_Dy2ScB4Ru10W3
_symmetry_space_group_name_H-M   'P 1'
_cell_length_a   9.55066151
_cell_length_b   9.55523574
_cell_length_c   3.05147800
_cell_angle_alpha   90.00000000
_cell_angle_beta   90.00000000
_cell_angle_gamma   90.07820600
_symmetry_Int_Tables_number   1
_chemical_formula_structural   Dy2ScB4Ru10W3
_chemical_formula_sum   'Dy2 Sc1 B4 Ru10 W3'
_cell_volume   278.47402875
_cell_formula_units_Z   1
loop_
 _symmetry_equiv_pos_site_id
 _symmetry_equiv_pos_as_xyz
  1  'x, y, z'
loop_
 _atom_site_type_symbol
 _atom_site_label
 _atom_site_symmetry_multiplicity
 _atom_site_fract_x
 _atom_site_fract_y
 _atom_site_fract_z
 _atom_site_occupancy
  Dy  Dy0  1  0.174559  0.823983  0.000000  1
  Dy  Dy1  1  0.326185  0.325193  0.000000  1
  Sc  Sc2  1  0.675776  0.677349  0.000000  1
  B  B3  1  0.624415  0.378753  0.000000  1
  B  B4  1  0.385121  0.618213  0.000000  1
  B  B5  1  0.117470  0.120967  0.000000  1
  B  B6  1  0.874488  0.877992  0.000000  1
  Ru  Ru7  1  0.511044  0.501794  0.500000  1
  Ru  Ru8  1  0.987200  0.008872  0.500000  1
  Ru  Ru9  1  0.583979  0.211979  0.500000  1
  Ru  Ru10  1  0.437297  0.782128  0.500000  1
  Ru  Ru11  1  0.055837  0.280735  0.500000  1
  Ru  Ru12  1  0.923235  0.717091  0.500000  1
  Ru  Ru13  1  0.279623  0.070145  0.500000  1
  Ru  Ru14  1  0.715831  0.940140  0.500000  1
  Ru  Ru15  1  0.219196  0.567169  0.500000  1
  Ru  Ru16  1  0.789414  0.418963  0.500000  1
  W  W17  1  0.496461  0.996544  0.000000  1
  W  W18  1  0.001010  0.504138  0.000000  1
  W  W19  1  0.821858  0.177851  0.000000  1
