# generated using pymatgen
data_Tb5ThCoNi
_symmetry_space_group_name_H-M   'P 1'
_cell_length_a   6.35668900
_cell_length_b   6.91720700
_cell_length_c   9.65314100
_cell_angle_alpha   90.00000000
_cell_angle_beta   90.00000000
_cell_angle_gamma   90.00000000
_symmetry_Int_Tables_number   1
_chemical_formula_structural   Tb5ThCoNi
_chemical_formula_sum   'Tb10 Th2 Co2 Ni2'
_cell_volume   424.45376115
_cell_formula_units_Z   2
loop_
 _symmetry_equiv_pos_site_id
 _symmetry_equiv_pos_as_xyz
  1  'x, y, z'
loop_
 _atom_site_type_symbol
 _atom_site_label
 _atom_site_symmetry_multiplicity
 _atom_site_fract_x
 _atom_site_fract_y
 _atom_site_fract_z
 _atom_site_occupancy
  Tb  Tb0  1  0.328411  0.674001  0.069647  1
  Tb  Tb1  1  0.171589  0.174001  0.430353  1
  Tb  Tb2  1  0.675784  0.324371  0.567982  1
  Tb  Tb3  1  0.824216  0.824371  0.932018  1
  Tb  Tb4  1  0.675784  0.324371  0.932018  1
  Tb  Tb5  1  0.824216  0.824371  0.567982  1
  Tb  Tb6  1  0.328411  0.674001  0.430353  1
  Tb  Tb7  1  0.171589  0.174001  0.069647  1
  Tb  Tb8  1  0.145470  0.464832  0.750000  1
  Tb  Tb9  1  0.354530  0.964832  0.750000  1
  Th  Th10  1  0.846107  0.553282  0.250000  1
  Th  Th11  1  0.653893  0.053282  0.250000  1
  Co  Co12  1  0.031956  0.871829  0.250000  1
  Co  Co13  1  0.468044  0.371829  0.250000  1
  Ni  Ni14  1  0.943290  0.113314  0.750000  1
  Ni  Ni15  1  0.556710  0.613314  0.750000  1
