# generated using pymatgen
data_CaYb6SmBi6
_symmetry_space_group_name_H-M   'P 1'
_cell_length_a   8.32096818
_cell_length_b   8.38242031
_cell_length_c   8.38241955
_cell_angle_alpha   109.61924719
_cell_angle_beta   109.32277581
_cell_angle_gamma   109.32278384
_symmetry_Int_Tables_number   1
_chemical_formula_structural   CaYb6SmBi6
_chemical_formula_sum   'Ca1 Yb6 Sm1 Bi6'
_cell_volume   450.90303548
_cell_formula_units_Z   1
loop_
 _symmetry_equiv_pos_site_id
 _symmetry_equiv_pos_as_xyz
  1  'x, y, z'
loop_
 _atom_site_type_symbol
 _atom_site_label
 _atom_site_symmetry_multiplicity
 _atom_site_fract_x
 _atom_site_fract_y
 _atom_site_fract_z
 _atom_site_occupancy
  Ca  Ca0  1  0.148552  0.500000  0.000000  1
  Yb  Yb1  1  0.499683  0.996571  0.644638  1
  Yb  Yb2  1  0.349845  0.350094  0.350060  1
  Yb  Yb3  1  0.499752  0.999966  0.149906  1
  Yb  Yb4  1  0.003112  0.648066  0.503429  1
  Yb  Yb5  1  0.855045  0.855362  0.851934  1
  Yb  Yb6  1  0.999786  0.149940  0.500034  1
  Sm  Sm7  1  0.644037  0.500000  0.000000  1
  Bi  Bi8  1  0.379925  0.627186  0.751408  1
  Bi  Bi9  1  0.872055  0.252481  0.124677  1
  Bi  Bi10  1  0.628517  0.748592  0.375777  1
  Bi  Bi11  1  0.119574  0.872195  0.247519  1
  Bi  Bi12  1  0.252739  0.124223  0.872814  1
  Bi  Bi13  1  0.747379  0.375323  0.627805  1
