# generated using pymatgen
data_K3CoP6Os5
_symmetry_space_group_name_H-M   'P 1'
_cell_length_a   8.99148244
_cell_length_b   8.99692237
_cell_length_c   8.99692413
_cell_angle_alpha   154.48063844
_cell_angle_beta   87.00087745
_cell_angle_gamma   98.62345602
_symmetry_Int_Tables_number   1
_chemical_formula_structural   K3CoP6Os5
_chemical_formula_sum   'K3 Co1 P6 Os5'
_cell_volume   304.06720404
_cell_formula_units_Z   1
loop_
 _symmetry_equiv_pos_site_id
 _symmetry_equiv_pos_as_xyz
  1  'x, y, z'
loop_
 _atom_site_type_symbol
 _atom_site_label
 _atom_site_symmetry_multiplicity
 _atom_site_fract_x
 _atom_site_fract_y
 _atom_site_fract_z
 _atom_site_occupancy
  K  K0  1  0.333842  0.333592  0.000250  1
  K  K1  1  0.663893  0.667098  0.996795  1
  K  K2  1  0.999388  0.999109  0.000279  1
  Co  Co3  1  0.925482  0.166641  0.758841  1
  P  P4  1  0.319794  0.666468  0.653326  1
  P  P5  1  0.680247  0.336679  0.343568  1
  P  P6  1  0.981882  0.324663  0.657219  1
  P  P7  1  0.341015  0.996940  0.344075  1
  P  P8  1  0.014338  0.666530  0.347808  1
  P  P9  1  0.665537  0.008826  0.656710  1
  Os  Os10  1  0.585337  0.837055  0.748281  1
  Os  Os11  1  0.245205  0.496338  0.748867  1
  Os  Os12  1  0.755394  0.507457  0.247937  1
  Os  Os13  1  0.074459  0.825942  0.248516  1
  Os  Os14  1  0.414189  0.166663  0.247528  1
