# generated using pymatgen
data_Tb3Sm2Zr3(Co4As3)4
_symmetry_space_group_name_H-M   'P 1'
_cell_length_a   12.76498100
_cell_length_b   12.76497967
_cell_length_c   3.85607200
_cell_angle_alpha   90.00000000
_cell_angle_beta   90.00000000
_cell_angle_gamma   120.00000604
_symmetry_Int_Tables_number   1
_chemical_formula_structural   Tb3Sm2Zr3(Co4As3)4
_chemical_formula_sum   'Tb3 Sm2 Zr3 Co16 As12'
_cell_volume   544.14675025
_cell_formula_units_Z   1
loop_
 _symmetry_equiv_pos_site_id
 _symmetry_equiv_pos_as_xyz
  1  'x, y, z'
loop_
 _atom_site_type_symbol
 _atom_site_label
 _atom_site_symmetry_multiplicity
 _atom_site_fract_x
 _atom_site_fract_y
 _atom_site_fract_z
 _atom_site_occupancy
  Tb  Tb0  1  0.182940  0.182940  0.500000  1
  Tb  Tb1  1  0.817060  0.000000  0.500000  1
  Tb  Tb2  1  0.000000  0.817060  0.500000  1
  Sm  Sm3  1  0.333333  0.666667  0.000000  1
  Sm  Sm4  1  0.666667  0.333333  0.000000  1
  Zr  Zr5  1  0.561460  0.561460  0.000000  1
  Zr  Zr6  1  0.438540  0.000000  0.000000  1
  Zr  Zr7  1  0.000000  0.438540  0.000000  1
  Co  Co8  1  0.720624  0.720624  0.500000  1
  Co  Co9  1  0.279376  0.000000  0.500000  1
  Co  Co10  1  0.000000  0.279376  0.500000  1
  Co  Co11  1  0.177425  0.373038  0.000000  1
  Co  Co12  1  0.626962  0.804387  0.000000  1
  Co  Co13  1  0.195613  0.822575  0.000000  1
  Co  Co14  1  0.804387  0.626962  0.000000  1
  Co  Co15  1  0.822575  0.195613  0.000000  1
  Co  Co16  1  0.373038  0.177425  0.000000  1
  Co  Co17  1  0.357051  0.478597  0.500000  1
  Co  Co18  1  0.521403  0.878456  0.500000  1
  Co  Co19  1  0.121544  0.642949  0.500000  1
  Co  Co20  1  0.878456  0.521403  0.500000  1
  Co  Co21  1  0.642949  0.121544  0.500000  1
  Co  Co22  1  0.478597  0.357051  0.500000  1
  Co  Co23  1  0.000000  0.000000  0.000000  1
  As  As24  1  0.822766  0.822766  0.000000  1
  As  As25  1  0.177234  0.000000  0.000000  1
  As  As26  1  0.000000  0.177234  0.000000  1
  As  As27  1  0.172144  0.479496  0.500000  1
  As  As28  1  0.520504  0.692649  0.500000  1
  As  As29  1  0.307351  0.827856  0.500000  1
  As  As30  1  0.692649  0.520504  0.500000  1
  As  As31  1  0.827856  0.307351  0.500000  1
  As  As32  1  0.479496  0.172144  0.500000  1
  As  As33  1  0.352457  0.352457  0.000000  1
  As  As34  1  0.647543  0.000000  0.000000  1
  As  As35  1  0.000000  0.647543  0.000000  1
