# generated using pymatgen
data_La7Pr4Nd(SiBr3)4
_symmetry_space_group_name_H-M   'P 1'
_cell_length_a   10.61620100
_cell_length_b   10.59016038
_cell_length_c   10.61620065
_cell_angle_alpha   109.43889909
_cell_angle_beta   109.57645764
_cell_angle_gamma   109.43890861
_symmetry_Int_Tables_number   1
_chemical_formula_structural   La7Pr4Nd(SiBr3)4
_chemical_formula_sum   'La7 Pr4 Nd1 Si4 Br12'
_cell_volume   918.33355913
_cell_formula_units_Z   1
loop_
 _symmetry_equiv_pos_site_id
 _symmetry_equiv_pos_as_xyz
  1  'x, y, z'
loop_
 _atom_site_type_symbol
 _atom_site_label
 _atom_site_symmetry_multiplicity
 _atom_site_fract_x
 _atom_site_fract_y
 _atom_site_fract_z
 _atom_site_occupancy
  La  La0  1  0.240487  0.479825  0.489716  1
  La  La1  1  0.010284  0.020175  0.259513  1
  La  La2  1  0.011180  0.491034  0.749890  1
  La  La3  1  0.490803  0.240127  0.479222  1
  La  La4  1  0.750110  0.008966  0.488820  1
  La  La5  1  0.020778  0.259873  0.009197  1
  La  La6  1  0.260760  0.750000  0.239240  1
  Pr  Pr7  1  0.749442  0.236910  0.261869  1
  Pr  Pr8  1  0.238131  0.263090  0.750558  1
  Pr  Pr9  1  0.475085  0.486111  0.234924  1
  Pr  Pr10  1  0.265076  0.013889  0.024915  1
  Nd  Nd11  1  0.487025  0.750000  0.012975  1
  Si  Si12  1  0.250000  0.250000  0.250000  1
  Si  Si13  1  0.000003  0.250000  0.499997  1
  Si  Si14  1  0.249567  0.500455  0.999591  1
  Si  Si15  1  0.500409  0.999545  0.250433  1
  Br  Br16  1  0.000285  0.993194  0.747107  1
  Br  Br17  1  0.750753  0.743858  0.246870  1
  Br  Br18  1  0.993543  0.747866  0.994702  1
  Br  Br19  1  0.250449  0.997409  0.505493  1
  Br  Br20  1  0.743598  0.995604  0.992809  1
  Br  Br21  1  0.503173  0.250000  0.996827  1
  Br  Br22  1  0.746035  0.250000  0.753965  1
  Br  Br23  1  0.505298  0.752134  0.506457  1
  Br  Br24  1  0.752893  0.506806  0.499715  1
  Br  Br25  1  0.253130  0.756142  0.749247  1
  Br  Br26  1  0.507191  0.504396  0.756402  1
  Br  Br27  1  0.994507  0.502591  0.249551  1
