# generated using pymatgen
data_La3PrF12
_symmetry_space_group_name_H-M   'P 1'
_cell_length_a   4.56781242
_cell_length_b   6.94346396
_cell_length_c   7.33109100
_cell_angle_alpha   90.00000000
_cell_angle_beta   90.00000000
_cell_angle_gamma   89.74044178
_symmetry_Int_Tables_number   1
_chemical_formula_structural   La3PrF12
_chemical_formula_sum   'La3 Pr1 F12'
_cell_volume   232.51372876
_cell_formula_units_Z   1
loop_
 _symmetry_equiv_pos_site_id
 _symmetry_equiv_pos_as_xyz
  1  'x, y, z'
loop_
 _atom_site_type_symbol
 _atom_site_label
 _atom_site_symmetry_multiplicity
 _atom_site_fract_x
 _atom_site_fract_y
 _atom_site_fract_z
 _atom_site_occupancy
  La  La0  1  0.938181  0.631788  0.750000  1
  La  La1  1  0.436716  0.867821  0.250000  1
  La  La2  1  0.562855  0.133951  0.750000  1
  Pr  Pr3  1  0.065453  0.367987  0.250000  1
  F  F4  1  0.075964  0.980356  0.750000  1
  F  F5  1  0.578177  0.515392  0.250000  1
  F  F6  1  0.425633  0.481609  0.750000  1
  F  F7  1  0.922565  0.023276  0.250000  1
  F  F8  1  0.386638  0.166026  0.065128  1
  F  F9  1  0.889762  0.335574  0.936955  1
  F  F10  1  0.110923  0.661103  0.433365  1
  F  F11  1  0.609907  0.836206  0.564575  1
  F  F12  1  0.609907  0.836206  0.935425  1
  F  F13  1  0.110923  0.661103  0.066635  1
  F  F14  1  0.889762  0.335574  0.563045  1
  F  F15  1  0.386638  0.166026  0.434872  1
