# generated using pymatgen
data_Er3Tm9Ir3Os
_symmetry_space_group_name_H-M   'P 1'
_cell_length_a   7.22431381
_cell_length_b   8.93028400
_cell_length_c   6.35762001
_cell_angle_alpha   90.00000000
_cell_angle_beta   90.03041405
_cell_angle_gamma   90.00000000
_symmetry_Int_Tables_number   1
_chemical_formula_structural   Er3Tm9Ir3Os
_chemical_formula_sum   'Er3 Tm9 Ir3 Os1'
_cell_volume   410.16290336
_cell_formula_units_Z   1
loop_
 _symmetry_equiv_pos_site_id
 _symmetry_equiv_pos_as_xyz
  1  'x, y, z'
loop_
 _atom_site_type_symbol
 _atom_site_label
 _atom_site_symmetry_multiplicity
 _atom_site_fract_x
 _atom_site_fract_y
 _atom_site_fract_z
 _atom_site_occupancy
  Er  Er0  1  0.033978  0.250000  0.623781  1
  Er  Er1  1  0.964811  0.750000  0.375030  1
  Er  Er2  1  0.465607  0.750000  0.126477  1
  Tm  Tm3  1  0.534573  0.250000  0.875619  1
  Tm  Tm4  1  0.175771  0.062955  0.170835  1
  Tm  Tm5  1  0.823005  0.940533  0.831731  1
  Tm  Tm6  1  0.323116  0.938894  0.671680  1
  Tm  Tm7  1  0.823005  0.559467  0.831731  1
  Tm  Tm8  1  0.678208  0.063243  0.325752  1
  Tm  Tm9  1  0.175771  0.437045  0.170835  1
  Tm  Tm10  1  0.678208  0.436757  0.325752  1
  Tm  Tm11  1  0.323116  0.561106  0.671680  1
  Ir  Ir12  1  0.385534  0.250000  0.462759  1
  Ir  Ir13  1  0.614826  0.750000  0.540757  1
  Ir  Ir14  1  0.115824  0.750000  0.960278  1
  Os  Os15  1  0.884648  0.250000  0.035306  1
