# generated using pymatgen
data_Tb3NdNi4(SnH)4
_symmetry_space_group_name_H-M   'P 1'
_cell_length_a   4.31776000
_cell_length_b   7.15662801
_cell_length_c   8.33645901
_cell_angle_alpha   90.00644007
_cell_angle_beta   90.00000000
_cell_angle_gamma   90.00000000
_symmetry_Int_Tables_number   1
_chemical_formula_structural   Tb3NdNi4(SnH)4
_chemical_formula_sum   'Tb3 Nd1 Ni4 Sn4 H4'
_cell_volume   257.60160179
_cell_formula_units_Z   1
loop_
 _symmetry_equiv_pos_site_id
 _symmetry_equiv_pos_as_xyz
  1  'x, y, z'
loop_
 _atom_site_type_symbol
 _atom_site_label
 _atom_site_symmetry_multiplicity
 _atom_site_fract_x
 _atom_site_fract_y
 _atom_site_fract_z
 _atom_site_occupancy
  Tb  Tb0  1  0.750000  0.016076  0.685108  1
  Tb  Tb1  1  0.250000  0.983522  0.313533  1
  Tb  Tb2  1  0.250000  0.483786  0.186309  1
  Nd  Nd3  1  0.750000  0.515924  0.811055  1
  Ni  Ni4  1  0.750000  0.773507  0.109956  1
  Ni  Ni5  1  0.250000  0.221492  0.894715  1
  Ni  Ni6  1  0.250000  0.731020  0.603451  1
  Ni  Ni7  1  0.750000  0.273931  0.392854  1
  Sn  Sn8  1  0.750000  0.658481  0.428768  1
  Sn  Sn9  1  0.250000  0.342081  0.564432  1
  Sn  Sn10  1  0.250000  0.844106  0.932570  1
  Sn  Sn11  1  0.750000  0.155660  0.069964  1
  H  H12  1  0.250000  0.442882  0.923260  1
  H  H13  1  0.750000  0.551770  0.085000  1
  H  H14  1  0.750000  0.052873  0.419662  1
  H  H15  1  0.250000  0.952889  0.579362  1
