# generated using pymatgen
data_Tb5Th3(ReB6)4
_symmetry_space_group_name_H-M   'P 1'
_cell_length_a   3.76571500
_cell_length_b   9.26943789
_cell_length_c   11.68437538
_cell_angle_alpha   90.07316471
_cell_angle_beta   90.00000000
_cell_angle_gamma   90.00000000
_symmetry_Int_Tables_number   1
_chemical_formula_structural   Tb5Th3(ReB6)4
_chemical_formula_sum   'Tb5 Th3 Re4 B24'
_cell_volume   407.85519081
_cell_formula_units_Z   1
loop_
 _symmetry_equiv_pos_site_id
 _symmetry_equiv_pos_as_xyz
  1  'x, y, z'
loop_
 _atom_site_type_symbol
 _atom_site_label
 _atom_site_symmetry_multiplicity
 _atom_site_fract_x
 _atom_site_fract_y
 _atom_site_fract_z
 _atom_site_occupancy
  Tb  Tb0  1  0.000000  0.176994  0.913504  1
  Tb  Tb1  1  0.000000  0.944999  0.372393  1
  Tb  Tb2  1  0.000000  0.056136  0.628929  1
  Tb  Tb3  1  0.000000  0.442886  0.127319  1
  Tb  Tb4  1  0.000000  0.554894  0.871844  1
  Th  Th5  1  0.000000  0.321573  0.414098  1
  Th  Th6  1  0.000000  0.678289  0.586761  1
  Th  Th7  1  0.000000  0.823975  0.085648  1
  Re  Re8  1  0.000000  0.638982  0.320589  1
  Re  Re9  1  0.000000  0.361626  0.679238  1
  Re  Re10  1  0.000000  0.139193  0.178832  1
  Re  Re11  1  0.000000  0.860930  0.821075  1
  B  B12  1  0.500000  0.555833  0.430190  1
  B  B13  1  0.500000  0.444063  0.569924  1
  B  B14  1  0.500000  0.056041  0.067640  1
  B  B15  1  0.500000  0.946080  0.931073  1
  B  B16  1  0.500000  0.749395  0.417265  1
  B  B17  1  0.500000  0.250420  0.583526  1
  B  B18  1  0.500000  0.248592  0.080700  1
  B  B19  1  0.500000  0.751838  0.917150  1
  B  B20  1  0.500000  0.790751  0.267082  1
  B  B21  1  0.500000  0.208068  0.734269  1
  B  B22  1  0.500000  0.290347  0.231923  1
  B  B23  1  0.500000  0.709453  0.767514  1
  B  B24  1  0.500000  0.631116  0.186734  1
  B  B25  1  0.500000  0.367287  0.814345  1
  B  B26  1  0.500000  0.131380  0.312694  1
  B  B27  1  0.500000  0.869503  0.687692  1
  B  B28  1  0.500000  0.986537  0.212518  1
  B  B29  1  0.500000  0.016378  0.787624  1
  B  B30  1  0.500000  0.485667  0.286406  1
  B  B31  1  0.500000  0.513564  0.713795  1
  B  B32  1  0.500000  0.602546  0.028631  1
  B  B33  1  0.500000  0.394471  0.970342  1
  B  B34  1  0.500000  0.104628  0.471327  1
  B  B35  1  0.500000  0.895565  0.529405  1
