# generated using pymatgen
data_Tb16In3Ag(IrRh)2
_symmetry_space_group_name_H-M   'P 1'
_cell_length_a   9.67897702
_cell_length_b   9.67897627
_cell_length_c   9.65790289
_cell_angle_alpha   60.12884665
_cell_angle_beta   60.12885151
_cell_angle_gamma   60.23259985
_symmetry_Int_Tables_number   1
_chemical_formula_structural   Tb16In3Ag(IrRh)2
_chemical_formula_sum   'Tb16 In3 Ag1 Ir2 Rh2'
_cell_volume   642.14098084
_cell_formula_units_Z   1
loop_
 _symmetry_equiv_pos_site_id
 _symmetry_equiv_pos_as_xyz
  1  'x, y, z'
loop_
 _atom_site_type_symbol
 _atom_site_label
 _atom_site_symmetry_multiplicity
 _atom_site_fract_x
 _atom_site_fract_y
 _atom_site_fract_z
 _atom_site_occupancy
  Tb  Tb0  1  0.100599  0.700853  0.099910  1
  Tb  Tb1  1  0.941026  0.941026  0.558366  1
  Tb  Tb2  1  0.941386  0.558128  0.940785  1
  Tb  Tb3  1  0.313333  0.684595  0.311493  1
  Tb  Tb4  1  0.938841  0.559863  0.560454  1
  Tb  Tb5  1  0.311578  0.311578  0.685367  1
  Tb  Tb6  1  0.099447  0.099447  0.098963  1
  Tb  Tb7  1  0.559985  0.559985  0.938895  1
  Tb  Tb8  1  0.100180  0.100180  0.701276  1
  Tb  Tb9  1  0.688376  0.312128  0.688295  1
  Tb  Tb10  1  0.687770  0.687770  0.311864  1
  Tb  Tb11  1  0.684595  0.313333  0.311493  1
  Tb  Tb12  1  0.312128  0.688376  0.688295  1
  Tb  Tb13  1  0.559863  0.938841  0.560454  1
  Tb  Tb14  1  0.700853  0.100599  0.099910  1
  Tb  Tb15  1  0.558128  0.941386  0.940785  1
  In  In16  1  0.004884  0.332261  0.332206  1
  In  In17  1  0.332261  0.004884  0.332206  1
  In  In18  1  0.332166  0.332166  0.004984  1
  Ag  Ag19  1  0.332930  0.332930  0.332597  1
  Ir  Ir20  1  0.324721  0.891277  0.891872  1
  Ir  Ir21  1  0.891277  0.324721  0.891872  1
  Rh  Rh22  1  0.892216  0.892216  0.892587  1
  Rh  Rh23  1  0.891455  0.891455  0.325070  1
