# generated using pymatgen
data_Hf4CoIrN
_symmetry_space_group_name_H-M   'P 1'
_cell_length_a   8.60438085
_cell_length_b   8.60403736
_cell_length_c   8.60417604
_cell_angle_alpha   59.98933336
_cell_angle_beta   59.99306277
_cell_angle_gamma   59.99348626
_symmetry_Int_Tables_number   1
_chemical_formula_structural   Hf4CoIrN
_chemical_formula_sum   'Hf16 Co4 Ir4 N4'
_cell_volume   450.33637880
_cell_formula_units_Z   4
loop_
 _symmetry_equiv_pos_site_id
 _symmetry_equiv_pos_as_xyz
  1  'x, y, z'
loop_
 _atom_site_type_symbol
 _atom_site_label
 _atom_site_symmetry_multiplicity
 _atom_site_fract_x
 _atom_site_fract_y
 _atom_site_fract_z
 _atom_site_occupancy
  Hf  Hf0  1  0.160154  0.613274  0.613222  1
  Hf  Hf1  1  0.613268  0.160167  0.613225  1
  Hf  Hf2  1  0.613246  0.613254  0.160167  1
  Hf  Hf3  1  0.613313  0.613309  0.613272  1
  Hf  Hf4  1  0.815653  0.815650  0.184344  1
  Hf  Hf5  1  0.184344  0.184334  0.815664  1
  Hf  Hf6  1  0.815677  0.184315  0.815671  1
  Hf  Hf7  1  0.184331  0.815671  0.184336  1
  Hf  Hf8  1  0.184352  0.815645  0.815641  1
  Hf  Hf9  1  0.815652  0.184345  0.184361  1
  Hf  Hf10  1  0.436190  0.436200  0.063848  1
  Hf  Hf11  1  0.063803  0.063800  0.436195  1
  Hf  Hf12  1  0.436186  0.063833  0.436198  1
  Hf  Hf13  1  0.063796  0.436185  0.063825  1
  Hf  Hf14  1  0.063824  0.436200  0.436205  1
  Hf  Hf15  1  0.436192  0.063783  0.063814  1
  Co  Co16  1  0.794119  0.401978  0.401942  1
  Co  Co17  1  0.401974  0.794108  0.401957  1
  Co  Co18  1  0.401938  0.401958  0.794167  1
  Co  Co19  1  0.401989  0.401993  0.401967  1
  Ir  Ir20  1  0.497995  0.834009  0.833995  1
  Ir  Ir21  1  0.834011  0.497977  0.834001  1
  Ir  Ir22  1  0.834001  0.834006  0.497993  1
  Ir  Ir23  1  0.833999  0.834007  0.833990  1
  N  N24  1  0.626607  0.124458  0.124473  1
  N  N25  1  0.124458  0.626606  0.124472  1
  N  N26  1  0.124472  0.124470  0.626586  1
  N  N27  1  0.124458  0.124461  0.124469  1
