# generated using pymatgen
data_Dy2MnFe2Re14C3
_symmetry_space_group_name_H-M   'P 1'
_cell_length_a   6.93979236
_cell_length_b   6.92874313
_cell_length_c   6.92874215
_cell_angle_alpha   82.46977717
_cell_angle_beta   82.40518770
_cell_angle_gamma   82.40518678
_symmetry_Int_Tables_number   1
_chemical_formula_structural   Dy2MnFe2Re14C3
_chemical_formula_sum   'Dy2 Mn1 Fe2 Re14 C3'
_cell_volume   325.14765596
_cell_formula_units_Z   1
loop_
 _symmetry_equiv_pos_site_id
 _symmetry_equiv_pos_as_xyz
  1  'x, y, z'
loop_
 _atom_site_type_symbol
 _atom_site_label
 _atom_site_symmetry_multiplicity
 _atom_site_fract_x
 _atom_site_fract_y
 _atom_site_fract_z
 _atom_site_occupancy
  Dy  Dy0  1  0.649647  0.648779  0.648779  1
  Dy  Dy1  1  0.350353  0.351221  0.351221  1
  Mn  Mn2  1  0.500000  0.000000  0.000000  1
  Fe  Fe3  1  0.000000  0.000000  0.500000  1
  Fe  Fe4  1  0.000000  0.500000  0.000000  1
  Re  Re5  1  0.722095  0.278426  0.000240  1
  Re  Re6  1  0.000000  0.722327  0.277673  1
  Re  Re7  1  0.277905  0.999760  0.721574  1
  Re  Re8  1  0.000000  0.277673  0.722327  1
  Re  Re9  1  0.722095  0.000240  0.278426  1
  Re  Re10  1  0.277905  0.721574  0.999760  1
  Re  Re11  1  0.346143  0.346994  0.859825  1
  Re  Re12  1  0.860349  0.347237  0.347237  1
  Re  Re13  1  0.346143  0.859825  0.346994  1
  Re  Re14  1  0.653857  0.653006  0.140175  1
  Re  Re15  1  0.139651  0.652763  0.652763  1
  Re  Re16  1  0.653857  0.140175  0.653006  1
  Re  Re17  1  0.899376  0.897805  0.897805  1
  Re  Re18  1  0.100624  0.102195  0.102195  1
  C  C19  1  0.500000  0.500000  0.000000  1
  C  C20  1  0.000000  0.500000  0.500000  1
  C  C21  1  0.500000  0.000000  0.500000  1
