# generated using pymatgen
data_DyHo5(Si3Ru2)2
_symmetry_space_group_name_H-M   'P 1'
_cell_length_a   5.73217507
_cell_length_b   5.73217401
_cell_length_c   13.74420100
_cell_angle_alpha   90.00000000
_cell_angle_beta   90.00000000
_cell_angle_gamma   137.30985844
_symmetry_Int_Tables_number   1
_chemical_formula_structural   DyHo5(Si3Ru2)2
_chemical_formula_sum   'Dy1 Ho5 Si6 Ru4'
_cell_volume   306.20288263
_cell_formula_units_Z   1
loop_
 _symmetry_equiv_pos_site_id
 _symmetry_equiv_pos_as_xyz
  1  'x, y, z'
loop_
 _atom_site_type_symbol
 _atom_site_label
 _atom_site_symmetry_multiplicity
 _atom_site_fract_x
 _atom_site_fract_y
 _atom_site_fract_z
 _atom_site_occupancy
  Dy  Dy0  1  0.642753  0.357247  0.250000  1
  Ho  Ho1  1  0.923999  0.076001  0.385399  1
  Ho  Ho2  1  0.075933  0.924067  0.614639  1
  Ho  Ho3  1  0.923999  0.076001  0.114601  1
  Ho  Ho4  1  0.075933  0.924067  0.885361  1
  Ho  Ho5  1  0.356744  0.643256  0.750000  1
  Si  Si6  1  0.617342  0.382658  0.461893  1
  Si  Si7  1  0.382685  0.617315  0.538424  1
  Si  Si8  1  0.617342  0.382658  0.038107  1
  Si  Si9  1  0.382685  0.617315  0.961576  1
  Si  Si10  1  0.330957  0.669043  0.250000  1
  Si  Si11  1  0.669400  0.330600  0.750000  1
  Ru  Ru12  1  0.786735  0.213265  0.918940  1
  Ru  Ru13  1  0.213378  0.786622  0.080659  1
  Ru  Ru14  1  0.786735  0.213265  0.581060  1
  Ru  Ru15  1  0.213378  0.786622  0.419341  1
