# generated using pymatgen
data_Na4SrCa(MnN2)4
_symmetry_space_group_name_H-M   'P 1'
_cell_length_a   5.61865666
_cell_length_b   9.48862740
_cell_length_c   9.36251100
_cell_angle_alpha   90.00000000
_cell_angle_beta   90.00000000
_cell_angle_gamma   91.14297411
_symmetry_Int_Tables_number   1
_chemical_formula_structural   Na4SrCa(MnN2)4
_chemical_formula_sum   'Na8 Sr2 Ca2 Mn8 N16'
_cell_volume   499.04741359
_cell_formula_units_Z   2
loop_
 _symmetry_equiv_pos_site_id
 _symmetry_equiv_pos_as_xyz
  1  'x, y, z'
loop_
 _atom_site_type_symbol
 _atom_site_label
 _atom_site_symmetry_multiplicity
 _atom_site_fract_x
 _atom_site_fract_y
 _atom_site_fract_z
 _atom_site_occupancy
  Na  Na0  1  0.630400  0.346083  0.074239  1
  Na  Na1  1  0.869600  0.653917  0.074239  1
  Na  Na2  1  0.370964  0.851395  0.587435  1
  Na  Na3  1  0.129036  0.148605  0.587435  1
  Na  Na4  1  0.377232  0.644559  0.925062  1
  Na  Na5  1  0.122768  0.355441  0.925062  1
  Na  Na6  1  0.750000  0.500000  0.384778  1
  Na  Na7  1  0.750000  0.000000  0.102987  1
  Sr  Sr8  1  0.250000  0.500000  0.594958  1
  Sr  Sr9  1  0.250000  0.000000  0.909178  1
  Ca  Ca10  1  0.637309  0.167555  0.424709  1
  Ca  Ca11  1  0.862691  0.832445  0.424709  1
  Mn  Mn12  1  0.750000  0.500000  0.726392  1
  Mn  Mn13  1  0.750000  0.000000  0.760507  1
  Mn  Mn14  1  0.250000  0.500000  0.263674  1
  Mn  Mn15  1  0.250000  0.000000  0.246330  1
  Mn  Mn16  1  0.687322  0.250193  0.747507  1
  Mn  Mn17  1  0.812678  0.749807  0.747507  1
  Mn  Mn18  1  0.317244  0.751256  0.254876  1
  Mn  Mn19  1  0.182756  0.248744  0.254876  1
  N  N20  1  0.861211  0.350248  0.617898  1
  N  N21  1  0.638789  0.649752  0.617898  1
  N  N22  1  0.879664  0.148141  0.861766  1
  N  N23  1  0.620336  0.851859  0.861766  1
  N  N24  1  0.124964  0.644315  0.371542  1
  N  N25  1  0.375036  0.355685  0.371542  1
  N  N26  1  0.123698  0.854997  0.141017  1
  N  N27  1  0.376302  0.145003  0.141017  1
  N  N28  1  0.528384  0.400272  0.826279  1
  N  N29  1  0.971616  0.599728  0.826279  1
  N  N30  1  0.527543  0.098987  0.662038  1
  N  N31  1  0.972457  0.901013  0.662038  1
  N  N32  1  0.469606  0.603177  0.168660  1
  N  N33  1  0.030394  0.396823  0.168660  1
  N  N34  1  0.476956  0.905237  0.342571  1
  N  N35  1  0.023044  0.094763  0.342571  1
