# generated using pymatgen
data_Be3Si3OsRh5
_symmetry_space_group_name_H-M   'P 1'
_cell_length_a   4.04710200
_cell_length_b   5.77124700
_cell_length_c   12.18326400
_cell_angle_alpha   90.00001933
_cell_angle_beta   90.00039102
_cell_angle_gamma   90.00014028
_symmetry_Int_Tables_number   1
_chemical_formula_structural   Be3Si3OsRh5
_chemical_formula_sum   'Be6 Si6 Os2 Rh10'
_cell_volume   284.56236854
_cell_formula_units_Z   2
loop_
 _symmetry_equiv_pos_site_id
 _symmetry_equiv_pos_as_xyz
  1  'x, y, z'
loop_
 _atom_site_type_symbol
 _atom_site_label
 _atom_site_symmetry_multiplicity
 _atom_site_fract_x
 _atom_site_fract_y
 _atom_site_fract_z
 _atom_site_occupancy
  Be  Be0  1  0.000000  0.500000  0.000000  1
  Be  Be1  1  0.499662  0.000000  0.162140  1
  Be  Be2  1  0.999692  0.500000  0.332322  1
  Be  Be3  1  0.500000  0.000000  0.500000  1
  Be  Be4  1  0.000306  0.500000  0.667677  1
  Be  Be5  1  0.500338  0.000000  0.837860  1
  Si  Si6  1  0.000000  0.000000  0.000000  1
  Si  Si7  1  0.499789  0.500000  0.162070  1
  Si  Si8  1  0.999785  0.000000  0.333419  1
  Si  Si9  1  0.500000  0.500000  0.500000  1
  Si  Si10  1  0.000215  0.000000  0.666581  1
  Si  Si11  1  0.500211  0.500000  0.837930  1
  Os  Os12  1  0.500000  0.248992  0.000000  1
  Os  Os13  1  0.500000  0.751008  0.000000  1
  Rh  Rh14  1  0.999815  0.250076  0.171453  1
  Rh  Rh15  1  0.999815  0.749924  0.171453  1
  Rh  Rh16  1  0.499813  0.250608  0.335174  1
  Rh  Rh17  1  0.499811  0.749393  0.335174  1
  Rh  Rh18  1  0.000000  0.249887  0.500000  1
  Rh  Rh19  1  0.000000  0.750114  0.500000  1
  Rh  Rh20  1  0.500189  0.250608  0.664826  1
  Rh  Rh21  1  0.500187  0.749393  0.664826  1
  Rh  Rh22  1  0.000185  0.250077  0.828547  1
  Rh  Rh23  1  0.000185  0.749925  0.828547  1
