# generated using pymatgen
data_Y2Pa2Ge6Os7
_symmetry_space_group_name_H-M   'P 1'
_cell_length_a   7.28536668
_cell_length_b   7.26070783
_cell_length_c   7.26070745
_cell_angle_alpha   109.35729786
_cell_angle_beta   109.45944382
_cell_angle_gamma   109.45943760
_symmetry_Int_Tables_number   1
_chemical_formula_structural   Y2Pa2Ge6Os7
_chemical_formula_sum   'Y2 Pa2 Ge6 Os7'
_cell_volume   296.15684380
_cell_formula_units_Z   1
loop_
 _symmetry_equiv_pos_site_id
 _symmetry_equiv_pos_as_xyz
  1  'x, y, z'
loop_
 _atom_site_type_symbol
 _atom_site_label
 _atom_site_symmetry_multiplicity
 _atom_site_fract_x
 _atom_site_fract_y
 _atom_site_fract_z
 _atom_site_occupancy
  Y  Y0  1  0.000000  0.000000  0.500000  1
  Y  Y1  1  0.000000  0.500000  0.000000  1
  Pa  Pa2  1  0.500000  0.000000  0.000000  1
  Pa  Pa3  1  0.500000  0.500000  0.500000  1
  Ge  Ge4  1  0.693451  0.688896  0.004555  1
  Ge  Ge5  1  0.306549  0.995445  0.311104  1
  Ge  Ge6  1  0.000000  0.312256  0.312256  1
  Ge  Ge7  1  0.306549  0.311104  0.995445  1
  Ge  Ge8  1  0.693451  0.004555  0.688896  1
  Ge  Ge9  1  0.000000  0.687744  0.687744  1
  Os  Os10  1  0.741937  0.249073  0.492864  1
  Os  Os11  1  0.741937  0.492864  0.249073  1
  Os  Os12  1  0.500000  0.250000  0.750000  1
  Os  Os13  1  0.258063  0.507136  0.750927  1
  Os  Os14  1  0.258063  0.750927  0.507136  1
  Os  Os15  1  0.500000  0.750000  0.250000  1
  Os  Os16  1  0.000000  0.000000  0.000000  1
