# generated using pymatgen
data_Na4CaNpO6
_symmetry_space_group_name_H-M   'P 1'
_cell_length_a   5.89287339
_cell_length_b   5.89286681
_cell_length_c   5.87202733
_cell_angle_alpha   100.05945436
_cell_angle_beta   100.05969759
_cell_angle_gamma   119.73781358
_symmetry_Int_Tables_number   1
_chemical_formula_structural   Na4CaNpO6
_chemical_formula_sum   'Na4 Ca1 Np1 O6'
_cell_volume   165.99245426
_cell_formula_units_Z   1
loop_
 _symmetry_equiv_pos_site_id
 _symmetry_equiv_pos_as_xyz
  1  'x, y, z'
loop_
 _atom_site_type_symbol
 _atom_site_label
 _atom_site_symmetry_multiplicity
 _atom_site_fract_x
 _atom_site_fract_y
 _atom_site_fract_z
 _atom_site_occupancy
  Na  Na0  1  0.499751  0.500250  0.000000  1
  Na  Na1  1  0.000122  0.999877  0.500000  1
  Na  Na2  1  0.660542  0.339458  0.500000  1
  Na  Na3  1  0.339364  0.660636  0.500000  1
  Ca  Ca4  1  0.833345  0.166657  0.000000  1
  Np  Np5  1  0.167212  0.832789  0.000001  1
  O  O6  1  0.540433  0.917954  0.218839  1
  O  O7  1  0.952756  0.608354  0.208863  1
  O  O8  1  0.228333  0.195548  0.219621  1
  O  O9  1  0.804451  0.771665  0.780380  1
  O  O10  1  0.391646  0.047247  0.791137  1
  O  O11  1  0.082049  0.459569  0.781162  1
