# generated using pymatgen
data_Sc8CrB24Ir2Ru
_symmetry_space_group_name_H-M   'P 1'
_cell_length_a   3.45494800
_cell_length_b   8.88364573
_cell_length_c   11.20027314
_cell_angle_alpha   89.92919923
_cell_angle_beta   90.00000000
_cell_angle_gamma   90.00000000
_symmetry_Int_Tables_number   1
_chemical_formula_structural   Sc8CrB24Ir2Ru
_chemical_formula_sum   'Sc8 Cr1 B24 Ir2 Ru1'
_cell_volume   343.76450227
_cell_formula_units_Z   1
loop_
 _symmetry_equiv_pos_site_id
 _symmetry_equiv_pos_as_xyz
  1  'x, y, z'
loop_
 _atom_site_type_symbol
 _atom_site_label
 _atom_site_symmetry_multiplicity
 _atom_site_fract_x
 _atom_site_fract_y
 _atom_site_fract_z
 _atom_site_occupancy
  Sc  Sc0  1  0.000000  0.813545  0.087673  1
  Sc  Sc1  1  0.000000  0.189074  0.907922  1
  Sc  Sc2  1  0.000000  0.321822  0.420737  1
  Sc  Sc3  1  0.000000  0.675764  0.584746  1
  Sc  Sc4  1  0.000000  0.445502  0.126735  1
  Sc  Sc5  1  0.000000  0.552820  0.872157  1
  Sc  Sc6  1  0.000000  0.942017  0.374909  1
  Sc  Sc7  1  0.000000  0.059335  0.625281  1
  Cr  Cr8  1  0.000000  0.361283  0.680434  1
  B  B9  1  0.500000  0.053469  0.063834  1
  B  B10  1  0.500000  0.947018  0.935599  1
  B  B11  1  0.500000  0.552475  0.435394  1
  B  B12  1  0.500000  0.447034  0.565536  1
  B  B13  1  0.500000  0.252969  0.077278  1
  B  B14  1  0.500000  0.746580  0.921999  1
  B  B15  1  0.500000  0.750773  0.421991  1
  B  B16  1  0.500000  0.249555  0.579331  1
  B  B17  1  0.500000  0.293988  0.236194  1
  B  B18  1  0.500000  0.705250  0.763866  1
  B  B19  1  0.500000  0.793787  0.264032  1
  B  B20  1  0.500000  0.206716  0.735423  1
  B  B21  1  0.500000  0.130041  0.319155  1
  B  B22  1  0.500000  0.870031  0.681486  1
  B  B23  1  0.500000  0.629945  0.182143  1
  B  B24  1  0.500000  0.370243  0.816541  1
  B  B25  1  0.500000  0.479095  0.287633  1
  B  B26  1  0.500000  0.520342  0.712249  1
  B  B27  1  0.500000  0.978571  0.213325  1
  B  B28  1  0.500000  0.022272  0.786697  1
  B  B29  1  0.500000  0.102986  0.471841  1
  B  B30  1  0.500000  0.896884  0.528290  1
  B  B31  1  0.500000  0.602125  0.027903  1
  B  B32  1  0.500000  0.397628  0.971887  1
  Ir  Ir33  1  0.000000  0.138054  0.179042  1
  Ir  Ir34  1  0.000000  0.861758  0.821391  1
  Ru  Ru35  1  0.000000  0.639246  0.319342  1
