# generated using pymatgen
data_Yb3Y3(Si3Ru)8
_symmetry_space_group_name_H-M   'P 1'
_cell_length_a   10.16151732
_cell_length_b   10.16151839
_cell_length_c   8.14774093
_cell_angle_alpha   89.94987935
_cell_angle_beta   90.05012264
_cell_angle_gamma   132.70393925
_symmetry_Int_Tables_number   1
_chemical_formula_structural   Yb3Y3(Si3Ru)8
_chemical_formula_sum   'Yb3 Y3 Si24 Ru8'
_cell_volume   618.24911030
_cell_formula_units_Z   1
loop_
 _symmetry_equiv_pos_site_id
 _symmetry_equiv_pos_as_xyz
  1  'x, y, z'
loop_
 _atom_site_type_symbol
 _atom_site_label
 _atom_site_symmetry_multiplicity
 _atom_site_fract_x
 _atom_site_fract_y
 _atom_site_fract_z
 _atom_site_occupancy
  Yb  Yb0  1  0.001015  0.501015  0.250000  1
  Yb  Yb1  1  0.499121  0.999121  0.750000  1
  Yb  Yb2  1  0.998072  0.498072  0.750000  1
  Y  Y3  1  0.999567  0.999573  0.999685  1
  Y  Y4  1  0.499573  0.499567  0.500315  1
  Y  Y5  1  0.500409  0.000409  0.250000  1
  Si  Si6  1  0.291804  0.704987  0.998133  1
  Si  Si7  1  0.794127  0.207671  0.500745  1
  Si  Si8  1  0.707671  0.294127  0.999255  1
  Si  Si9  1  0.204987  0.791804  0.501867  1
  Si  Si10  1  0.832160  0.834133  0.333407  1
  Si  Si11  1  0.164165  0.167991  0.666976  1
  Si  Si12  1  0.667991  0.664165  0.833024  1
  Si  Si13  1  0.334133  0.332160  0.166593  1
  Si  Si14  1  0.623388  0.389500  0.227130  1
  Si  Si15  1  0.611577  0.376756  0.772199  1
  Si  Si16  1  0.111366  0.876425  0.727743  1
  Si  Si17  1  0.123623  0.889707  0.273008  1
  Si  Si18  1  0.376425  0.611366  0.772257  1
  Si  Si19  1  0.389707  0.623623  0.226992  1
  Si  Si20  1  0.889500  0.123388  0.272870  1
  Si  Si21  1  0.876756  0.111577  0.727801  1
  Si  Si22  1  0.845250  0.609942  0.003907  1
  Si  Si23  1  0.390178  0.156413  0.995356  1
  Si  Si24  1  0.889884  0.655151  0.504854  1
  Si  Si25  1  0.344192  0.110007  0.494715  1
  Si  Si26  1  0.155151  0.389884  0.995146  1
  Si  Si27  1  0.610007  0.844192  0.005285  1
  Si  Si28  1  0.109942  0.345250  0.496093  1
  Si  Si29  1  0.656413  0.890178  0.504644  1
  Ru  Ru30  1  0.170969  0.832858  0.001401  1
  Ru  Ru31  1  0.667538  0.330253  0.498262  1
  Ru  Ru32  1  0.830253  0.167538  0.001738  1
  Ru  Ru33  1  0.332858  0.670969  0.498599  1
  Ru  Ru34  1  0.626569  0.626912  0.125995  1
  Ru  Ru35  1  0.372798  0.373950  0.873458  1
  Ru  Ru36  1  0.873950  0.872798  0.626542  1
  Ru  Ru37  1  0.126912  0.126569  0.374005  1
