# generated using pymatgen
data_Sc8Mn3FeB24
_symmetry_space_group_name_H-M   'P 1'
_cell_length_a   3.35038700
_cell_length_b   8.82500019
_cell_length_c   11.13588016
_cell_angle_alpha   90.04760717
_cell_angle_beta   90.00000000
_cell_angle_gamma   90.00000000
_symmetry_Int_Tables_number   1
_chemical_formula_structural   Sc8Mn3FeB24
_chemical_formula_sum   'Sc8 Mn3 Fe1 B24'
_cell_volume   329.25630289
_cell_formula_units_Z   1
loop_
 _symmetry_equiv_pos_site_id
 _symmetry_equiv_pos_as_xyz
  1  'x, y, z'
loop_
 _atom_site_type_symbol
 _atom_site_label
 _atom_site_symmetry_multiplicity
 _atom_site_fract_x
 _atom_site_fract_y
 _atom_site_fract_z
 _atom_site_occupancy
  Sc  Sc0  1  0.000000  0.821782  0.085695  1
  Sc  Sc1  1  0.000000  0.176688  0.915805  1
  Sc  Sc2  1  0.000000  0.321598  0.413689  1
  Sc  Sc3  1  0.000000  0.679401  0.585253  1
  Sc  Sc4  1  0.000000  0.442630  0.130055  1
  Sc  Sc5  1  0.000000  0.557511  0.869474  1
  Sc  Sc6  1  0.000000  0.943206  0.369892  1
  Sc  Sc7  1  0.000000  0.057532  0.630587  1
  Mn  Mn8  1  0.000000  0.138874  0.180101  1
  Mn  Mn9  1  0.000000  0.860846  0.819115  1
  Mn  Mn10  1  0.000000  0.638930  0.320419  1
  Fe  Fe11  1  0.000000  0.360687  0.680316  1
  B  B12  1  0.500000  0.053044  0.066155  1
  B  B13  1  0.500000  0.946434  0.933810  1
  B  B14  1  0.500000  0.553311  0.434355  1
  B  B15  1  0.500000  0.446039  0.566388  1
  B  B16  1  0.500000  0.250096  0.080156  1
  B  B17  1  0.500000  0.749787  0.919414  1
  B  B18  1  0.500000  0.750691  0.420035  1
  B  B19  1  0.500000  0.250541  0.580738  1
  B  B20  1  0.500000  0.293026  0.235835  1
  B  B21  1  0.500000  0.706801  0.763504  1
  B  B22  1  0.500000  0.792995  0.264195  1
  B  B23  1  0.500000  0.207831  0.735809  1
  B  B24  1  0.500000  0.130518  0.316413  1
  B  B25  1  0.500000  0.869796  0.683506  1
  B  B26  1  0.500000  0.630125  0.183747  1
  B  B27  1  0.500000  0.369676  0.815885  1
  B  B28  1  0.500000  0.480691  0.288374  1
  B  B29  1  0.500000  0.518000  0.711310  1
  B  B30  1  0.500000  0.980909  0.211871  1
  B  B31  1  0.500000  0.019133  0.788424  1
  B  B32  1  0.500000  0.101222  0.472736  1
  B  B33  1  0.500000  0.899995  0.527685  1
  B  B34  1  0.500000  0.600392  0.027237  1
  B  B35  1  0.500000  0.399264  0.972017  1
