# generated using pymatgen
data_Th3Ga2Pd2PtAu
_symmetry_space_group_name_H-M   'P 1'
_cell_length_a   7.44412868
_cell_length_b   7.43464410
_cell_length_c   4.01686500
_cell_angle_alpha   90.00000000
_cell_angle_beta   90.00000000
_cell_angle_gamma   117.94808074
_symmetry_Int_Tables_number   1
_chemical_formula_structural   Th3Ga2Pd2PtAu
_chemical_formula_sum   'Th3 Ga2 Pd2 Pt1 Au1'
_cell_volume   196.38360995
_cell_formula_units_Z   1
loop_
 _symmetry_equiv_pos_site_id
 _symmetry_equiv_pos_as_xyz
  1  'x, y, z'
loop_
 _atom_site_type_symbol
 _atom_site_label
 _atom_site_symmetry_multiplicity
 _atom_site_fract_x
 _atom_site_fract_y
 _atom_site_fract_z
 _atom_site_occupancy
  Th  Th0  1  0.413429  0.416410  0.500000  1
  Th  Th1  1  0.592361  0.992054  0.500000  1
  Th  Th2  1  0.994816  0.594184  0.500000  1
  Ga  Ga3  1  0.249811  0.004953  0.000000  1
  Ga  Ga4  1  0.999416  0.246946  0.000000  1
  Pd  Pd5  1  0.663539  0.313721  0.000000  1
  Pd  Pd6  1  0.027173  0.027226  0.500000  1
  Pt  Pt7  1  0.313871  0.663071  0.000000  1
  Au  Au8  1  0.745586  0.741435  0.000000  1
