# generated using pymatgen
data_AcIn3Ni
_symmetry_space_group_name_H-M   'P 1'
_cell_length_a   4.73682261
_cell_length_b   4.73714811
_cell_length_c   6.62649000
_cell_angle_alpha   69.05691632
_cell_angle_beta   69.05844008
_cell_angle_gamma   89.99998607
_symmetry_Int_Tables_number   1
_chemical_formula_structural   AcIn3Ni
_chemical_formula_sum   'Ac1 In3 Ni1'
_cell_volume   128.29721629
_cell_formula_units_Z   1
loop_
 _symmetry_equiv_pos_site_id
 _symmetry_equiv_pos_as_xyz
  1  'x, y, z'
loop_
 _atom_site_type_symbol
 _atom_site_label
 _atom_site_symmetry_multiplicity
 _atom_site_fract_x
 _atom_site_fract_y
 _atom_site_fract_z
 _atom_site_occupancy
  Ac  Ac0  1  0.993247  0.993247  0.013505  1
  In  In1  1  0.408353  0.408353  0.183293  1
  In  In2  1  0.733698  0.233698  0.532603  1
  In  In3  1  0.233809  0.733809  0.532383  1
  Ni  Ni4  1  0.630894  0.630894  0.738214  1
