# generated using pymatgen
data_Dy4In3Au
_symmetry_space_group_name_H-M   'P 1'
_cell_length_a   3.57897300
_cell_length_b   3.57897300
_cell_length_c   16.14113100
_cell_angle_alpha   90.00000000
_cell_angle_beta   90.00000000
_cell_angle_gamma   90.00000000
_symmetry_Int_Tables_number   1
_chemical_formula_structural   Dy4In3Au
_chemical_formula_sum   'Dy4 In3 Au1'
_cell_volume   206.75251747
_cell_formula_units_Z   1
loop_
 _symmetry_equiv_pos_site_id
 _symmetry_equiv_pos_as_xyz
  1  'x, y, z'
loop_
 _atom_site_type_symbol
 _atom_site_label
 _atom_site_symmetry_multiplicity
 _atom_site_fract_x
 _atom_site_fract_y
 _atom_site_fract_z
 _atom_site_occupancy
  Dy  Dy0  1  0.500000  0.500000  0.111065  1
  Dy  Dy1  1  0.500000  0.500000  0.370386  1
  Dy  Dy2  1  0.500000  0.500000  0.629614  1
  Dy  Dy3  1  0.500000  0.500000  0.888935  1
  In  In4  1  0.000000  0.000000  0.241694  1
  In  In5  1  0.000000  0.000000  0.500000  1
  In  In6  1  0.000000  0.000000  0.758306  1
  Au  Au7  1  0.000000  0.000000  0.000000  1
