# generated using pymatgen
data_Pa2Mn2C3
_symmetry_space_group_name_H-M   'P 1'
_cell_length_a   6.00112389
_cell_length_b   6.00112343
_cell_length_c   5.34914543
_cell_angle_alpha   114.73591202
_cell_angle_beta   114.73591252
_cell_angle_gamma   31.16776142
_symmetry_Int_Tables_number   1
_chemical_formula_structural   Pa2Mn2C3
_chemical_formula_sum   'Pa2 Mn2 C3'
_cell_volume   89.80213435
_cell_formula_units_Z   1
loop_
 _symmetry_equiv_pos_site_id
 _symmetry_equiv_pos_as_xyz
  1  'x, y, z'
loop_
 _atom_site_type_symbol
 _atom_site_label
 _atom_site_symmetry_multiplicity
 _atom_site_fract_x
 _atom_site_fract_y
 _atom_site_fract_z
 _atom_site_occupancy
  Pa  Pa0  1  0.403321  0.403321  0.206945  1
  Pa  Pa1  1  0.596679  0.596679  0.793053  1
  Mn  Mn2  1  0.163927  0.163927  0.330183  1
  Mn  Mn3  1  0.836074  0.836074  0.669818  1
  C  C4  1  0.000000  0.000000  0.000000  1
  C  C5  1  0.748071  0.748071  0.264918  1
  C  C6  1  0.251929  0.251929  0.735083  1
