# generated using pymatgen
data_Er3Tm4Sn23Os6
_symmetry_space_group_name_H-M   'P 1'
_cell_length_a   9.83269660
_cell_length_b   9.88056404
_cell_length_c   10.06369510
_cell_angle_alpha   89.99999937
_cell_angle_beta   89.94111155
_cell_angle_gamma   120.16117716
_symmetry_Int_Tables_number   1
_chemical_formula_structural   Er3Tm4Sn23Os6
_chemical_formula_sum   'Er3 Tm4 Sn23 Os6'
_cell_volume   845.34605131
_cell_formula_units_Z   1
loop_
 _symmetry_equiv_pos_site_id
 _symmetry_equiv_pos_as_xyz
  1  'x, y, z'
loop_
 _atom_site_type_symbol
 _atom_site_label
 _atom_site_symmetry_multiplicity
 _atom_site_fract_x
 _atom_site_fract_y
 _atom_site_fract_z
 _atom_site_occupancy
  Er  Er0  1  0.028161  0.514081  0.304269  1
  Er  Er1  1  0.971839  0.485919  0.695731  1
  Er  Er2  1  0.000000  0.000000  0.000000  1
  Tm  Tm3  1  0.486756  0.512745  0.303009  1
  Tm  Tm4  1  0.513244  0.487255  0.696991  1
  Tm  Tm5  1  0.486756  0.974012  0.303009  1
  Tm  Tm6  1  0.513244  0.025988  0.696991  1
  Sn  Sn7  1  0.117520  0.881628  0.278340  1
  Sn  Sn8  1  0.882480  0.118372  0.721660  1
  Sn  Sn9  1  0.117520  0.235892  0.278340  1
  Sn  Sn10  1  0.882480  0.764108  0.721660  1
  Sn  Sn11  1  0.763032  0.881516  0.276345  1
  Sn  Sn12  1  0.236968  0.118484  0.723655  1
  Sn  Sn13  1  0.779084  0.222015  0.464827  1
  Sn  Sn14  1  0.220916  0.777985  0.535173  1
  Sn  Sn15  1  0.779084  0.557068  0.464827  1
  Sn  Sn16  1  0.220916  0.442932  0.535173  1
  Sn  Sn17  1  0.443757  0.221878  0.465594  1
  Sn  Sn18  1  0.556243  0.778122  0.534406  1
  Sn  Sn19  1  0.349712  0.000612  0.000226  1
  Sn  Sn20  1  0.650288  0.999388  0.999774  1
  Sn  Sn21  1  0.000000  0.349293  0.000000  1
  Sn  Sn22  1  0.000000  0.650707  0.000000  1
  Sn  Sn23  1  0.650288  0.650900  0.999774  1
  Sn  Sn24  1  0.349712  0.349100  0.000226  1
  Sn  Sn25  1  0.334013  0.667006  0.132750  1
  Sn  Sn26  1  0.665987  0.332994  0.867250  1
  Sn  Sn27  1  0.333060  0.666531  0.824710  1
  Sn  Sn28  1  0.666940  0.333469  0.175290  1
  Sn  Sn29  1  0.000000  0.000000  0.500000  1
  Os  Os30  1  0.828528  0.169694  0.202659  1
  Os  Os31  1  0.171472  0.830306  0.797341  1
  Os  Os32  1  0.828528  0.658835  0.202659  1
  Os  Os33  1  0.171472  0.341165  0.797341  1
  Os  Os34  1  0.340728  0.170364  0.203079  1
  Os  Os35  1  0.659272  0.829636  0.796921  1
