# generated using pymatgen
data_Tb2Y2Fe(NiO4)3
_symmetry_space_group_name_H-M   'P 1'
_cell_length_a   5.24288050
_cell_length_b   5.67129953
_cell_length_c   7.55090586
_cell_angle_alpha   90.35905466
_cell_angle_beta   90.12425346
_cell_angle_gamma   90.13508572
_symmetry_Int_Tables_number   1
_chemical_formula_structural   Tb2Y2Fe(NiO4)3
_chemical_formula_sum   'Tb2 Y2 Fe1 Ni3 O12'
_cell_volume   224.51265751
_cell_formula_units_Z   1
loop_
 _symmetry_equiv_pos_site_id
 _symmetry_equiv_pos_as_xyz
  1  'x, y, z'
loop_
 _atom_site_type_symbol
 _atom_site_label
 _atom_site_symmetry_multiplicity
 _atom_site_fract_x
 _atom_site_fract_y
 _atom_site_fract_z
 _atom_site_occupancy
  Tb  Tb0  1  0.477937  0.418901  0.744502  1
  Tb  Tb1  1  0.019460  0.925228  0.744607  1
  Y  Y2  1  0.521984  0.581569  0.255658  1
  Y  Y3  1  0.980704  0.075054  0.255525  1
  Fe  Fe4  1  0.000161  0.500004  0.000194  1
  Ni  Ni5  1  0.499806  0.000162  0.499730  1
  Ni  Ni6  1  0.000108  0.500036  0.499746  1
  Ni  Ni7  1  0.499908  0.000123  0.000293  1
  O  O8  1  0.698680  0.312991  0.447463  1
  O  O9  1  0.809174  0.802811  0.056152  1
  O  O10  1  0.300879  0.687479  0.551810  1
  O  O11  1  0.191394  0.197961  0.944395  1
  O  O12  1  0.194090  0.191749  0.550548  1
  O  O13  1  0.297625  0.685594  0.947114  1
  O  O14  1  0.806143  0.808823  0.448870  1
  O  O15  1  0.701819  0.315243  0.053415  1
  O  O16  1  0.108124  0.466590  0.248609  1
  O  O17  1  0.395375  0.969046  0.251064  1
  O  O18  1  0.893746  0.531501  0.751400  1
  O  O19  1  0.602880  0.029136  0.748905  1
