# generated using pymatgen
data_ErTm3(Si5Pt3)2
_symmetry_space_group_name_H-M   'P 1'
_cell_length_a   8.12403528
_cell_length_b   8.12658329
_cell_length_c   8.12658347
_cell_angle_alpha   136.37361677
_cell_angle_beta   104.07352803
_cell_angle_gamma   91.89486133
_symmetry_Int_Tables_number   1
_chemical_formula_structural   ErTm3(Si5Pt3)2
_chemical_formula_sum   'Er1 Tm3 Si10 Pt6'
_cell_volume   341.09123854
_cell_formula_units_Z   1
loop_
 _symmetry_equiv_pos_site_id
 _symmetry_equiv_pos_as_xyz
  1  'x, y, z'
loop_
 _atom_site_type_symbol
 _atom_site_label
 _atom_site_symmetry_multiplicity
 _atom_site_fract_x
 _atom_site_fract_y
 _atom_site_fract_z
 _atom_site_occupancy
  Er  Er0  1  0.098790  0.870518  0.228273  1
  Tm  Tm1  1  0.901342  0.129601  0.771742  1
  Tm  Tm2  1  0.642046  0.370372  0.271674  1
  Tm  Tm3  1  0.357948  0.629585  0.728363  1
  Si  Si4  1  0.000054  0.749822  0.749641  1
  Si  Si5  1  0.000054  0.250413  0.250233  1
  Si  Si6  1  0.271258  0.021146  0.749927  1
  Si  Si7  1  0.728588  0.478525  0.749802  1
  Si  Si8  1  0.728588  0.978786  0.250063  1
  Si  Si9  1  0.271258  0.521331  0.250112  1
  Si  Si10  1  0.763065  0.612033  0.151031  1
  Si  Si11  1  0.236602  0.387723  0.848880  1
  Si  Si12  1  0.461252  0.112491  0.348760  1
  Si  Si13  1  0.539088  0.887667  0.651420  1
  Pt  Pt14  1  0.499994  0.750302  0.250482  1
  Pt  Pt15  1  0.499994  0.249512  0.749691  1
  Pt  Pt16  1  0.022774  0.637514  0.385260  1
  Pt  Pt17  1  0.977026  0.362479  0.614546  1
  Pt  Pt18  1  0.252143  0.137669  0.114474  1
  Pt  Pt19  1  0.748136  0.862512  0.885625  1
