# generated using pymatgen
data_Y6Ho10MgAg3Rh4
_symmetry_space_group_name_H-M   'P 1'
_cell_length_a   9.55165386
_cell_length_b   9.57599031
_cell_length_c   9.57582578
_cell_angle_alpha   60.16749720
_cell_angle_beta   60.15412001
_cell_angle_gamma   60.15374687
_symmetry_Int_Tables_number   1
_chemical_formula_structural   Y6Ho10MgAg3Rh4
_chemical_formula_sum   'Y6 Ho10 Mg1 Ag3 Rh4'
_cell_volume   621.55472220
_cell_formula_units_Z   1
loop_
 _symmetry_equiv_pos_site_id
 _symmetry_equiv_pos_as_xyz
  1  'x, y, z'
loop_
 _atom_site_type_symbol
 _atom_site_label
 _atom_site_symmetry_multiplicity
 _atom_site_fract_x
 _atom_site_fract_y
 _atom_site_fract_z
 _atom_site_occupancy
  Y  Y0  1  0.185900  0.813100  0.813107  1
  Y  Y1  1  0.814978  0.185879  0.185875  1
  Y  Y2  1  0.813298  0.186836  0.814257  1
  Y  Y3  1  0.185455  0.813187  0.187028  1
  Y  Y4  1  0.813288  0.814279  0.186852  1
  Y  Y5  1  0.185453  0.187034  0.813172  1
  Ho  Ho6  1  0.601282  0.598291  0.598306  1
  Ho  Ho7  1  0.599790  0.598253  0.204242  1
  Ho  Ho8  1  0.599776  0.204241  0.598266  1
  Ho  Ho9  1  0.186409  0.604717  0.604713  1
  Ho  Ho10  1  0.060274  0.437988  0.437977  1
  Ho  Ho11  1  0.435264  0.063319  0.063303  1
  Ho  Ho12  1  0.435454  0.063446  0.435852  1
  Ho  Ho13  1  0.059836  0.438277  0.061101  1
  Ho  Ho14  1  0.435460  0.435848  0.063434  1
  Ho  Ho15  1  0.059839  0.061104  0.438270  1
  Mg  Mg16  1  0.539268  0.820801  0.820852  1
  Ag  Ag17  1  0.831735  0.834378  0.834380  1
  Ag  Ag18  1  0.832737  0.834922  0.500200  1
  Ag  Ag19  1  0.832745  0.500196  0.834909  1
  Rh  Rh20  1  0.388564  0.394443  0.394461  1
  Rh  Rh21  1  0.390481  0.395948  0.820534  1
  Rh  Rh22  1  0.390485  0.820548  0.395920  1
  Rh  Rh23  1  0.822231  0.392966  0.392988  1
