# generated using pymatgen
data_NbAgP4O13
_symmetry_space_group_name_H-M   'P 1'
_cell_length_a   7.20819700
_cell_length_b   8.41290500
_cell_length_c   18.05070900
_cell_angle_alpha   90.00000000
_cell_angle_beta   90.00000000
_cell_angle_gamma   90.00000000
_symmetry_Int_Tables_number   1
_chemical_formula_structural   NbAgP4O13
_chemical_formula_sum   'Nb4 Ag4 P16 O52'
_cell_volume   1094.62886740
_cell_formula_units_Z   4
loop_
 _symmetry_equiv_pos_site_id
 _symmetry_equiv_pos_as_xyz
  1  'x, y, z'
loop_
 _atom_site_type_symbol
 _atom_site_label
 _atom_site_symmetry_multiplicity
 _atom_site_fract_x
 _atom_site_fract_y
 _atom_site_fract_z
 _atom_site_occupancy
  Nb  Nb0  1  0.238171  0.273683  0.711297  1
  Nb  Nb1  1  0.738171  0.226317  0.288703  1
  Nb  Nb2  1  0.761829  0.773683  0.788703  1
  Nb  Nb3  1  0.261829  0.726317  0.211297  1
  Ag  Ag4  1  0.205610  0.722757  0.484832  1
  Ag  Ag5  1  0.705610  0.777243  0.515168  1
  Ag  Ag6  1  0.794390  0.222757  0.015168  1
  Ag  Ag7  1  0.294390  0.277243  0.984832  1
  P  P8  1  0.403038  0.653924  0.671022  1
  P  P9  1  0.903038  0.846076  0.328978  1
  P  P10  1  0.596962  0.153924  0.828978  1
  P  P11  1  0.096962  0.346076  0.171022  1
  P  P12  1  0.097478  0.894786  0.665822  1
  P  P13  1  0.597478  0.605214  0.334178  1
  P  P14  1  0.902522  0.394786  0.834178  1
  P  P15  1  0.402522  0.105214  0.165822  1
  P  P16  1  0.073513  0.318348  0.424983  1
  P  P17  1  0.573513  0.181652  0.575017  1
  P  P18  1  0.926487  0.818348  0.075017  1
  P  P19  1  0.426487  0.681652  0.924983  1
  P  P20  1  0.920411  0.389379  0.573021  1
  P  P21  1  0.420411  0.110621  0.426979  1
  P  P22  1  0.079589  0.889379  0.926979  1
  P  P23  1  0.579589  0.610621  0.073021  1
  O  O24  1  0.432681  0.655730  0.589761  1
  O  O25  1  0.932681  0.844270  0.410239  1
  O  O26  1  0.567319  0.155730  0.910239  1
  O  O27  1  0.067319  0.344270  0.089761  1
  O  O28  1  0.336253  0.493631  0.704509  1
  O  O29  1  0.836253  0.006369  0.295491  1
  O  O30  1  0.663747  0.993631  0.795491  1
  O  O31  1  0.163747  0.506369  0.204509  1
  O  O32  1  0.574251  0.703015  0.718044  1
  O  O33  1  0.074251  0.796985  0.281956  1
  O  O34  1  0.425749  0.203015  0.781956  1
  O  O35  1  0.925749  0.296985  0.218044  1
  O  O36  1  0.093917  0.900015  0.584168  1
  O  O37  1  0.593917  0.599985  0.415832  1
  O  O38  1  0.906083  0.400015  0.915832  1
  O  O39  1  0.406083  0.099985  0.084168  1
  O  O40  1  0.919277  0.831747  0.704820  1
  O  O41  1  0.419277  0.668253  0.295180  1
  O  O42  1  0.252143  0.778421  0.700736  1
  O  O43  1  0.080723  0.331747  0.795180  1
  O  O44  1  0.141342  0.054537  0.705681  1
  O  O45  1  0.641342  0.445463  0.294319  1
  O  O46  1  0.858658  0.554537  0.794319  1
  O  O47  1  0.358658  0.945463  0.205681  1
  O  O48  1  0.466906  0.667033  0.140126  1
  O  O49  1  0.966906  0.832967  0.859874  1
  O  O50  1  0.533094  0.167033  0.359874  1
  O  O51  1  0.033094  0.332967  0.640126  1
  O  O52  1  0.787755  0.670935  0.086704  1
  O  O53  1  0.287755  0.829065  0.913296  1
  O  O54  1  0.212245  0.170935  0.413296  1
  O  O55  1  0.712245  0.329065  0.586704  1
  O  O56  1  0.505560  0.721419  0.006637  1
  O  O57  1  0.005560  0.778581  0.993363  1
  O  O58  1  0.494440  0.221419  0.493363  1
  O  O59  1  0.994440  0.278581  0.506637  1
  O  O60  1  0.578232  0.438365  0.057353  1
  O  O61  1  0.078232  0.061635  0.942647  1
  O  O62  1  0.421768  0.938365  0.442647  1
  O  O63  1  0.921768  0.561635  0.557353  1
  O  O64  1  0.589497  0.721375  0.873810  1
  O  O65  1  0.089497  0.778625  0.126190  1
  O  O66  1  0.410503  0.221375  0.626190  1
  O  O67  1  0.910503  0.278625  0.373810  1
  O  O68  1  0.337817  0.524639  0.917495  1
  O  O69  1  0.837817  0.975361  0.082505  1
  O  O70  1  0.662183  0.024639  0.582505  1
  O  O71  1  0.162183  0.475361  0.417495  1
  O  O72  1  0.247857  0.221579  0.200736  1
  O  O73  1  0.747857  0.278421  0.799264  1
  O  O74  1  0.752143  0.721579  0.299264  1
  O  O75  1  0.580723  0.168253  0.204820  1
