# generated using pymatgen
data_La6ThIrRh2
_symmetry_space_group_name_H-M   'P 1'
_cell_length_a   10.23697869
_cell_length_b   10.23698057
_cell_length_c   6.51826009
_cell_angle_alpha   90.05729713
_cell_angle_beta   89.94270163
_cell_angle_gamma   119.90644612
_symmetry_Int_Tables_number   1
_chemical_formula_structural   La6ThIrRh2
_chemical_formula_sum   'La12 Th2 Ir2 Rh4'
_cell_volume   592.12629632
_cell_formula_units_Z   2
loop_
 _symmetry_equiv_pos_site_id
 _symmetry_equiv_pos_as_xyz
  1  'x, y, z'
loop_
 _atom_site_type_symbol
 _atom_site_label
 _atom_site_symmetry_multiplicity
 _atom_site_fract_x
 _atom_site_fract_y
 _atom_site_fract_z
 _atom_site_occupancy
  La  La0  1  0.872043  0.746302  0.770099  1
  La  La1  1  0.253698  0.127957  0.770099  1
  La  La2  1  0.873478  0.126522  0.770662  1
  La  La3  1  0.127270  0.254476  0.269321  1
  La  La4  1  0.745524  0.872730  0.269321  1
  La  La5  1  0.126950  0.873050  0.269286  1
  La  La6  1  0.460137  0.919692  0.592153  1
  La  La7  1  0.080308  0.539863  0.592153  1
  La  La8  1  0.459650  0.540350  0.592685  1
  La  La9  1  0.540340  0.079804  0.091620  1
  La  La10  1  0.920196  0.459660  0.091620  1
  La  La11  1  0.539936  0.460064  0.091270  1
  Th  Th12  1  0.666654  0.333346  0.557230  1
  Th  Th13  1  0.333575  0.666425  0.057853  1
  Ir  Ir14  1  0.192055  0.384544  0.854751  1
  Ir  Ir15  1  0.615456  0.807945  0.854751  1
  Rh  Rh16  1  0.192795  0.807205  0.855318  1
  Rh  Rh17  1  0.806958  0.613345  0.355021  1
  Rh  Rh18  1  0.386655  0.193042  0.355021  1
  Rh  Rh19  1  0.806323  0.193677  0.354815  1
