# generated using pymatgen
data_Pr3MgCd2IrPd2
_symmetry_space_group_name_H-M   'P 1'
_cell_length_a   7.75205977
_cell_length_b   7.73291264
_cell_length_c   4.08972400
_cell_angle_alpha   90.00000000
_cell_angle_beta   90.00000000
_cell_angle_gamma   120.56444564
_symmetry_Int_Tables_number   1
_chemical_formula_structural   Pr3MgCd2IrPd2
_chemical_formula_sum   'Pr3 Mg1 Cd2 Ir1 Pd2'
_cell_volume   211.09915380
_cell_formula_units_Z   1
loop_
 _symmetry_equiv_pos_site_id
 _symmetry_equiv_pos_as_xyz
  1  'x, y, z'
loop_
 _atom_site_type_symbol
 _atom_site_label
 _atom_site_symmetry_multiplicity
 _atom_site_fract_x
 _atom_site_fract_y
 _atom_site_fract_z
 _atom_site_occupancy
  Pr  Pr0  1  0.414015  0.399880  0.500000  1
  Pr  Pr1  1  0.989419  0.582211  0.500000  1
  Pr  Pr2  1  0.594302  0.016838  0.500000  1
  Mg  Mg3  1  0.754494  0.754462  0.000000  1
  Cd  Cd4  1  0.246252  0.995190  0.000000  1
  Cd  Cd5  1  0.002301  0.250335  0.000000  1
  Ir  Ir6  1  0.668391  0.342935  0.000000  1
  Pd  Pd7  1  0.987928  0.988862  0.500000  1
  Pd  Pd8  1  0.342896  0.669289  0.000000  1
