# generated using pymatgen
data_La12Ni(OsI4)3
_symmetry_space_group_name_H-M   'P 1'
_cell_length_a   10.93359780
_cell_length_b   10.93065115
_cell_length_c   10.93431588
_cell_angle_alpha   109.47017474
_cell_angle_beta   109.51558230
_cell_angle_gamma   109.50490074
_symmetry_Int_Tables_number   1
_chemical_formula_structural   La12Ni(OsI4)3
_chemical_formula_sum   'La12 Ni1 Os3 I12'
_cell_volume   1004.99853767
_cell_formula_units_Z   1
loop_
 _symmetry_equiv_pos_site_id
 _symmetry_equiv_pos_as_xyz
  1  'x, y, z'
loop_
 _atom_site_type_symbol
 _atom_site_label
 _atom_site_symmetry_multiplicity
 _atom_site_fract_x
 _atom_site_fract_y
 _atom_site_fract_z
 _atom_site_occupancy
  La  La0  1  0.455864  0.481764  0.225384  1
  La  La1  1  0.750721  0.230431  0.270488  1
  La  La2  1  0.749322  0.021464  0.478113  1
  La  La3  1  0.226180  0.455749  0.481232  1
  La  La4  1  0.269519  0.749189  0.229303  1
  La  La5  1  0.044253  0.273945  0.018825  1
  La  La6  1  0.018176  0.044133  0.274968  1
  La  La7  1  0.478416  0.750571  0.021749  1
  La  La8  1  0.481626  0.225366  0.455689  1
  La  La9  1  0.021667  0.478331  0.749993  1
  La  La10  1  0.274766  0.018337  0.044311  1
  La  La11  1  0.229659  0.270289  0.750006  1
  Ni  Ni12  1  0.250792  0.249024  0.250428  1
  Os  Os13  1  0.497583  0.002368  0.249931  1
  Os  Os14  1  0.002409  0.250069  0.497634  1
  Os  Os15  1  0.249900  0.497549  0.002372  1
  I  I16  1  0.249788  0.760858  0.738981  1
  I  I17  1  0.520175  0.510112  0.760015  1
  I  I18  1  0.979729  0.740262  0.989876  1
  I  I19  1  0.739215  0.250235  0.760955  1
  I  I20  1  0.989910  0.979865  0.739935  1
  I  I21  1  0.250041  0.990007  0.510187  1
  I  I22  1  0.759797  0.520370  0.509995  1
  I  I23  1  0.510025  0.250003  0.989776  1
  I  I24  1  0.760814  0.739165  0.249959  1
  I  I25  1  0.739951  0.990087  0.979519  1
  I  I26  1  0.989700  0.510341  0.249937  1
  I  I27  1  0.510002  0.760117  0.520441  1
