# generated using pymatgen
data_AlCd2Ir3S8
_symmetry_space_group_name_H-M   'P 1'
_cell_length_a   7.22218897
_cell_length_b   7.22218900
_cell_length_c   7.22218854
_cell_angle_alpha   61.17121444
_cell_angle_beta   61.17121333
_cell_angle_gamma   61.17121506
_symmetry_Int_Tables_number   1
_chemical_formula_structural   AlCd2Ir3S8
_chemical_formula_sum   'Al1 Cd2 Ir3 S8'
_cell_volume   273.39294952
_cell_formula_units_Z   1
loop_
 _symmetry_equiv_pos_site_id
 _symmetry_equiv_pos_as_xyz
  1  'x, y, z'
loop_
 _atom_site_type_symbol
 _atom_site_label
 _atom_site_symmetry_multiplicity
 _atom_site_fract_x
 _atom_site_fract_y
 _atom_site_fract_z
 _atom_site_occupancy
  Al  Al0  1  0.125000  0.125000  0.125000  1
  Cd  Cd1  1  0.502180  0.502180  0.502180  1
  Cd  Cd2  1  0.747820  0.747820  0.747820  1
  Ir  Ir3  1  0.125000  0.125000  0.625000  1
  Ir  Ir4  1  0.125000  0.625000  0.125000  1
  Ir  Ir5  1  0.625000  0.125000  0.125000  1
  S  S6  1  0.322526  0.890383  0.890383  1
  S  S7  1  0.355526  0.355526  0.355526  1
  S  S8  1  0.894474  0.894474  0.894474  1
  S  S9  1  0.927474  0.359617  0.359617  1
  S  S10  1  0.359617  0.927474  0.359617  1
  S  S11  1  0.359617  0.359617  0.927474  1
  S  S12  1  0.890383  0.322526  0.890383  1
  S  S13  1  0.890383  0.890383  0.322526  1
