# generated using pymatgen
data_Y6Tm5Lu5(CdPt)4
_symmetry_space_group_name_H-M   'P 1'
_cell_length_a   9.59886394
_cell_length_b   9.59135687
_cell_length_c   9.59135703
_cell_angle_alpha   59.97208578
_cell_angle_beta   59.97410401
_cell_angle_gamma   59.97410960
_symmetry_Int_Tables_number   1
_chemical_formula_structural   Y6Tm5Lu5(CdPt)4
_chemical_formula_sum   'Y6 Tm5 Lu5 Cd4 Pt4'
_cell_volume   624.02678420
_cell_formula_units_Z   1
loop_
 _symmetry_equiv_pos_site_id
 _symmetry_equiv_pos_as_xyz
  1  'x, y, z'
loop_
 _atom_site_type_symbol
 _atom_site_label
 _atom_site_symmetry_multiplicity
 _atom_site_fract_x
 _atom_site_fract_y
 _atom_site_fract_z
 _atom_site_occupancy
  Y  Y0  1  0.937002  0.562998  0.562998  1
  Y  Y1  1  0.562555  0.937445  0.937445  1
  Y  Y2  1  0.562620  0.937132  0.562960  1
  Y  Y3  1  0.937287  0.562960  0.937132  1
  Y  Y4  1  0.562620  0.562960  0.937132  1
  Y  Y5  1  0.937287  0.937132  0.562960  1
  Tm  Tm6  1  0.351236  0.352026  0.352026  1
  Tm  Tm7  1  0.351916  0.352411  0.943759  1
  Tm  Tm8  1  0.351916  0.943759  0.352411  1
  Tm  Tm9  1  0.944714  0.352026  0.352026  1
  Tm  Tm10  1  0.811947  0.188053  0.188053  1
  Lu  Lu11  1  0.187713  0.812287  0.812287  1
  Lu  Lu12  1  0.188172  0.811966  0.187751  1
  Lu  Lu13  1  0.812112  0.187751  0.811966  1
  Lu  Lu14  1  0.188172  0.187751  0.811966  1
  Lu  Lu15  1  0.812112  0.811966  0.187751  1
  Cd  Cd16  1  0.581234  0.581110  0.581110  1
  Cd  Cd17  1  0.581218  0.581186  0.256380  1
  Cd  Cd18  1  0.581218  0.256380  0.581186  1
  Cd  Cd19  1  0.256547  0.581110  0.581110  1
  Pt  Pt20  1  0.143695  0.142264  0.142264  1
  Pt  Pt21  1  0.142467  0.142218  0.572847  1
  Pt  Pt22  1  0.142467  0.572847  0.142218  1
  Pt  Pt23  1  0.571776  0.142264  0.142264  1
