# generated using pymatgen
data_Ac4Si3GePd3Pt
_symmetry_space_group_name_H-M   'P 1'
_cell_length_a   6.65793967
_cell_length_b   6.65794034
_cell_length_c   6.65794100
_cell_angle_alpha   90.02567060
_cell_angle_beta   90.02567060
_cell_angle_gamma   89.97432651
_symmetry_Int_Tables_number   1
_chemical_formula_structural   Ac4Si3GePd3Pt
_chemical_formula_sum   'Ac4 Si3 Ge1 Pd3 Pt1'
_cell_volume   295.13421884
_cell_formula_units_Z   1
loop_
 _symmetry_equiv_pos_site_id
 _symmetry_equiv_pos_as_xyz
  1  'x, y, z'
loop_
 _atom_site_type_symbol
 _atom_site_label
 _atom_site_symmetry_multiplicity
 _atom_site_fract_x
 _atom_site_fract_y
 _atom_site_fract_z
 _atom_site_occupancy
  Ac  Ac0  1  0.387220  0.887220  0.612780  1
  Ac  Ac1  1  0.891614  0.612277  0.388309  1
  Ac  Ac2  1  0.611691  0.391614  0.887723  1
  Ac  Ac3  1  0.112277  0.111691  0.108386  1
  Si  Si4  1  0.172857  0.330650  0.676571  1
  Si  Si5  1  0.323429  0.672857  0.169350  1
  Si  Si6  1  0.830650  0.823429  0.827143  1
  Ge  Ge7  1  0.675579  0.175579  0.324421  1
  Pd  Pd8  1  0.589563  0.899911  0.084276  1
  Pd  Pd9  1  0.915724  0.089563  0.600089  1
  Pd  Pd10  1  0.399911  0.415724  0.410437  1
  Pt  Pt11  1  0.089486  0.589486  0.910514  1
