# generated using pymatgen
data_NaAc16Yb3Si16
_symmetry_space_group_name_H-M   'P 1'
_cell_length_a   8.05451209
_cell_length_b   8.39193019
_cell_length_c   15.96093700
_cell_angle_alpha   90.00000000
_cell_angle_beta   90.00000000
_cell_angle_gamma   89.91740212
_symmetry_Int_Tables_number   1
_chemical_formula_structural   NaAc16Yb3Si16
_chemical_formula_sum   'Na1 Ac16 Yb3 Si16'
_cell_volume   1078.84494720
_cell_formula_units_Z   1
loop_
 _symmetry_equiv_pos_site_id
 _symmetry_equiv_pos_as_xyz
  1  'x, y, z'
loop_
 _atom_site_type_symbol
 _atom_site_label
 _atom_site_symmetry_multiplicity
 _atom_site_fract_x
 _atom_site_fract_y
 _atom_site_fract_z
 _atom_site_occupancy
  Na  Na0  1  0.358750  0.020290  0.750000  1
  Ac  Ac1  1  0.311277  0.184559  0.124629  1
  Ac  Ac2  1  0.811889  0.317385  0.376743  1
  Ac  Ac3  1  0.188754  0.688345  0.875128  1
  Ac  Ac4  1  0.682954  0.818821  0.624878  1
  Ac  Ac5  1  0.311277  0.184559  0.375371  1
  Ac  Ac6  1  0.811889  0.317385  0.123257  1
  Ac  Ac7  1  0.188754  0.688345  0.624872  1
  Ac  Ac8  1  0.682954  0.818821  0.875122  1
  Ac  Ac9  1  0.957816  0.810153  0.398641  1
  Ac  Ac10  1  0.457074  0.689165  0.101910  1
  Ac  Ac11  1  0.542163  0.304619  0.604465  1
  Ac  Ac12  1  0.048804  0.188280  0.895834  1
  Ac  Ac13  1  0.048804  0.188280  0.604166  1
  Ac  Ac14  1  0.542163  0.304619  0.895535  1
  Ac  Ac15  1  0.457074  0.689165  0.398090  1
  Ac  Ac16  1  0.957816  0.810153  0.101359  1
  Yb  Yb17  1  0.860874  0.481413  0.750000  1
  Yb  Yb18  1  0.139572  0.520473  0.250000  1
  Yb  Yb19  1  0.641047  0.979713  0.250000  1
  Si  Si20  1  0.866787  0.524621  0.539210  1
  Si  Si21  1  0.366429  0.972865  0.966702  1
  Si  Si22  1  0.631971  0.024029  0.461182  1
  Si  Si23  1  0.131630  0.476382  0.036767  1
  Si  Si24  1  0.131630  0.476382  0.463233  1
  Si  Si25  1  0.631971  0.024029  0.038818  1
  Si  Si26  1  0.366429  0.972865  0.533298  1
  Si  Si27  1  0.866787  0.524621  0.960790  1
  Si  Si28  1  0.978191  0.914682  0.750000  1
  Si  Si29  1  0.485449  0.576199  0.750000  1
  Si  Si30  1  0.516729  0.418167  0.250000  1
  Si  Si31  1  0.016295  0.081475  0.250000  1
  Si  Si32  1  0.253012  0.385455  0.750000  1
  Si  Si33  1  0.762156  0.123482  0.750000  1
  Si  Si34  1  0.246042  0.879570  0.250000  1
  Si  Si35  1  0.746787  0.620631  0.250000  1
