# generated using pymatgen
data_FeIrRhS8
_symmetry_space_group_name_H-M   'P 1'
_cell_length_a   5.60669510
_cell_length_b   5.62753660
_cell_length_c   5.62113629
_cell_angle_alpha   89.85183784
_cell_angle_beta   89.85825235
_cell_angle_gamma   89.36041942
_symmetry_Int_Tables_number   1
_chemical_formula_structural   FeIrRhS8
_chemical_formula_sum   'Fe1 Ir1 Rh1 S8'
_cell_volume   177.34525530
_cell_formula_units_Z   1
loop_
 _symmetry_equiv_pos_site_id
 _symmetry_equiv_pos_as_xyz
  1  'x, y, z'
loop_
 _atom_site_type_symbol
 _atom_site_label
 _atom_site_symmetry_multiplicity
 _atom_site_fract_x
 _atom_site_fract_y
 _atom_site_fract_z
 _atom_site_occupancy
  Fe  Fe0  1  0.000000  0.500000  0.500000  1
  Ir  Ir1  1  0.500000  0.000000  0.500000  1
  Rh  Rh2  1  0.500000  0.500000  0.000000  1
  S  S3  1  0.388898  0.895077  0.106587  1
  S  S4  1  0.102343  0.397228  0.880142  1
  S  S5  1  0.895193  0.119641  0.396434  1
  S  S6  1  0.611102  0.104923  0.893413  1
  S  S7  1  0.897657  0.602772  0.119858  1
  S  S8  1  0.104807  0.880359  0.603566  1
  S  S9  1  0.626807  0.609531  0.607371  1
  S  S10  1  0.373193  0.390469  0.392629  1
