# generated using pymatgen
data_Li4Ni9As7Rh
_symmetry_space_group_name_H-M   'P 1'
_cell_length_a   9.42238537
_cell_length_b   9.44685280
_cell_length_c   3.76008200
_cell_angle_alpha   90.00000000
_cell_angle_beta   90.00000000
_cell_angle_gamma   120.12387731
_symmetry_Int_Tables_number   1
_chemical_formula_structural   Li4Ni9As7Rh
_chemical_formula_sum   'Li4 Ni9 As7 Rh1'
_cell_volume   289.48928110
_cell_formula_units_Z   1
loop_
 _symmetry_equiv_pos_site_id
 _symmetry_equiv_pos_as_xyz
  1  'x, y, z'
loop_
 _atom_site_type_symbol
 _atom_site_label
 _atom_site_symmetry_multiplicity
 _atom_site_fract_x
 _atom_site_fract_y
 _atom_site_fract_z
 _atom_site_occupancy
  Li  Li0  1  0.442170  0.214696  0.500000  1
  Li  Li1  1  0.788466  0.232293  0.500000  1
  Li  Li2  1  0.334955  0.672603  0.000000  1
  Li  Li3  1  0.998850  0.002484  0.500000  1
  Ni  Ni4  1  0.278700  0.375130  0.500000  1
  Ni  Ni5  1  0.622092  0.901010  0.500000  1
  Ni  Ni6  1  0.102095  0.719735  0.500000  1
  Ni  Ni7  1  0.496796  0.449514  0.000000  1
  Ni  Ni8  1  0.549973  0.052747  0.000000  1
  Ni  Ni9  1  0.956236  0.500602  0.000000  1
  Ni  Ni10  1  0.720397  0.761996  0.000000  1
  Ni  Ni11  1  0.237686  0.953335  0.000000  1
  Ni  Ni12  1  0.045603  0.285212  0.000000  1
  As  As13  1  0.961178  0.753982  0.000000  1
  As  As14  1  0.239803  0.202886  0.000000  1
  As  As15  1  0.793303  0.036558  0.000000  1
  As  As16  1  0.668351  0.338815  0.000000  1
  As  As17  1  0.539058  0.623466  0.500000  1
  As  As18  1  0.378069  0.917443  0.500000  1
  As  As19  1  0.089257  0.463101  0.500000  1
  Rh  Rh20  1  0.756962  0.542389  0.500000  1
