# generated using pymatgen
data_Zr5HgAu2O
_symmetry_space_group_name_H-M   'P 1'
_cell_length_a   8.56314600
_cell_length_b   8.51798899
_cell_length_c   5.42400900
_cell_angle_alpha   90.00000000
_cell_angle_beta   90.00000000
_cell_angle_gamma   120.17552339
_symmetry_Int_Tables_number   1
_chemical_formula_structural   Zr5HgAu2O
_chemical_formula_sum   'Zr10 Hg2 Au4 O2'
_cell_volume   342.01929211
_cell_formula_units_Z   2
loop_
 _symmetry_equiv_pos_site_id
 _symmetry_equiv_pos_as_xyz
  1  'x, y, z'
loop_
 _atom_site_type_symbol
 _atom_site_label
 _atom_site_symmetry_multiplicity
 _atom_site_fract_x
 _atom_site_fract_y
 _atom_site_fract_z
 _atom_site_occupancy
  Zr  Zr0  1  0.220871  0.000000  0.750000  1
  Zr  Zr1  1  0.779129  0.000000  0.250000  1
  Zr  Zr2  1  0.001336  0.228989  0.750000  1
  Zr  Zr3  1  0.998664  0.771011  0.250000  1
  Zr  Zr4  1  0.772346  0.771011  0.750000  1
  Zr  Zr5  1  0.227654  0.228989  0.250000  1
  Zr  Zr6  1  0.328128  0.656256  0.500000  1
  Zr  Zr7  1  0.671872  0.343744  0.500000  1
  Zr  Zr8  1  0.671872  0.343744  0.000000  1
  Zr  Zr9  1  0.328128  0.656256  0.000000  1
  Hg  Hg10  1  0.597121  0.000000  0.750000  1
  Hg  Hg11  1  0.402879  0.000000  0.250000  1
  Au  Au12  1  0.002302  0.600554  0.750000  1
  Au  Au13  1  0.997698  0.399446  0.250000  1
  Au  Au14  1  0.401748  0.399446  0.750000  1
  Au  Au15  1  0.598252  0.600554  0.250000  1
  O  O16  1  0.000000  0.000000  0.500000  1
  O  O17  1  0.000000  0.000000  0.000000  1
