# generated using pymatgen
data_Ca5Pr15Sn16
_symmetry_space_group_name_H-M   'P 1'
_cell_length_a   8.12866299
_cell_length_b   8.54639378
_cell_length_c   16.22692274
_cell_angle_alpha   90.07260847
_cell_angle_beta   89.40263367
_cell_angle_gamma   90.01042868
_symmetry_Int_Tables_number   1
_chemical_formula_structural   Ca5Pr15Sn16
_chemical_formula_sum   'Ca5 Pr15 Sn16'
_cell_volume   1127.23438123
_cell_formula_units_Z   1
loop_
 _symmetry_equiv_pos_site_id
 _symmetry_equiv_pos_as_xyz
  1  'x, y, z'
loop_
 _atom_site_type_symbol
 _atom_site_label
 _atom_site_symmetry_multiplicity
 _atom_site_fract_x
 _atom_site_fract_y
 _atom_site_fract_z
 _atom_site_occupancy
  Ca  Ca0  1  0.334497  0.830053  0.876418  1
  Ca  Ca1  1  0.172126  0.498464  0.750047  1
  Ca  Ca2  1  0.671024  0.005348  0.750145  1
  Ca  Ca3  1  0.828568  0.504392  0.251159  1
  Ca  Ca4  1  0.328298  0.993601  0.250740  1
  Pr  Pr5  1  0.845289  0.670818  0.623358  1
  Pr  Pr6  1  0.653946  0.169386  0.375890  1
  Pr  Pr7  1  0.162377  0.325947  0.123891  1
  Pr  Pr8  1  0.662731  0.171990  0.124057  1
  Pr  Pr9  1  0.155108  0.329468  0.376403  1
  Pr  Pr10  1  0.347134  0.829861  0.624940  1
  Pr  Pr11  1  0.838825  0.674905  0.875034  1
  Pr  Pr12  1  0.492706  0.317198  0.903612  1
  Pr  Pr13  1  0.998926  0.184151  0.595829  1
  Pr  Pr14  1  0.504404  0.682234  0.404383  1
  Pr  Pr15  1  0.006043  0.814784  0.096226  1
  Pr  Pr16  1  0.504275  0.681830  0.095597  1
  Pr  Pr17  1  0.003583  0.817332  0.403765  1
  Pr  Pr18  1  0.496237  0.315686  0.595929  1
  Pr  Pr19  1  0.993880  0.184383  0.903064  1
  Sn  Sn20  1  0.327655  0.033813  0.038387  1
  Sn  Sn21  1  0.814309  0.459526  0.463554  1
  Sn  Sn22  1  0.687864  0.961977  0.536837  1
  Sn  Sn23  1  0.173473  0.534915  0.961096  1
  Sn  Sn24  1  0.671447  0.963480  0.961840  1
  Sn  Sn25  1  0.188402  0.540872  0.536643  1
  Sn  Sn26  1  0.313603  0.038190  0.464037  1
  Sn  Sn27  1  0.824954  0.463701  0.037181  1
  Sn  Sn28  1  0.540121  0.602929  0.750233  1
  Sn  Sn29  1  0.040433  0.896489  0.749599  1
  Sn  Sn30  1  0.460172  0.395728  0.250097  1
  Sn  Sn31  1  0.960393  0.103549  0.250487  1
  Sn  Sn32  1  0.297368  0.142883  0.750460  1
  Sn  Sn33  1  0.798537  0.361785  0.750594  1
  Sn  Sn34  1  0.701074  0.858354  0.249161  1
  Sn  Sn35  1  0.200217  0.639980  0.249307  1
