# generated using pymatgen
data_Pr17Ho3Si15Pd
_symmetry_space_group_name_H-M   'P 1'
_cell_length_a   7.88661593
_cell_length_b   7.84662562
_cell_length_c   15.24779676
_cell_angle_alpha   89.96251068
_cell_angle_beta   89.58380068
_cell_angle_gamma   90.26596291
_symmetry_Int_Tables_number   1
_chemical_formula_structural   Pr17Ho3Si15Pd
_chemical_formula_sum   'Pr17 Ho3 Si15 Pd1'
_cell_volume   943.54904130
_cell_formula_units_Z   1
loop_
 _symmetry_equiv_pos_site_id
 _symmetry_equiv_pos_as_xyz
  1  'x, y, z'
loop_
 _atom_site_type_symbol
 _atom_site_label
 _atom_site_symmetry_multiplicity
 _atom_site_fract_x
 _atom_site_fract_y
 _atom_site_fract_z
 _atom_site_occupancy
  Pr  Pr0  1  0.694049  0.688593  0.498651  1
  Pr  Pr1  1  0.375022  0.010512  0.446923  1
  Pr  Pr2  1  0.491189  0.872561  0.699156  1
  Pr  Pr3  1  0.510784  0.123515  0.195580  1
  Pr  Pr4  1  0.877279  0.485865  0.300847  1
  Pr  Pr5  1  0.122238  0.511111  0.802066  1
  Pr  Pr6  1  0.626911  0.988010  0.948911  1
  Pr  Pr7  1  0.001028  0.377134  0.551653  1
  Pr  Pr8  1  0.988903  0.625276  0.053381  1
  Pr  Pr9  1  0.135206  0.985483  0.876514  1
  Pr  Pr10  1  0.519442  0.631212  0.126059  1
  Pr  Pr11  1  0.474021  0.368084  0.629978  1
  Pr  Pr12  1  0.628532  0.520447  0.874068  1
  Pr  Pr13  1  0.371223  0.479095  0.371556  1
  Pr  Pr14  1  0.873236  0.022975  0.377228  1
  Pr  Pr15  1  0.980093  0.125892  0.122466  1
  Pr  Pr16  1  0.021985  0.876407  0.622374  1
  Ho  Ho17  1  0.309739  0.309842  0.999284  1
  Ho  Ho18  1  0.187982  0.809842  0.250142  1
  Ho  Ho19  1  0.808560  0.187485  0.751861  1
  Si  Si20  1  0.329996  0.690433  0.953751  1
  Si  Si21  1  0.662286  0.304607  0.454791  1
  Si  Si22  1  0.693226  0.332179  0.046071  1
  Si  Si23  1  0.306751  0.669583  0.545466  1
  Si  Si24  1  0.810576  0.829438  0.205832  1
  Si  Si25  1  0.170586  0.190071  0.293504  1
  Si  Si26  1  0.834340  0.809861  0.795790  1
  Si  Si27  1  0.286899  0.923560  0.062137  1
  Si  Si28  1  0.574321  0.787317  0.309026  1
  Si  Si29  1  0.434649  0.208245  0.816726  1
  Si  Si30  1  0.786840  0.576874  0.690671  1
  Si  Si31  1  0.213242  0.423787  0.186438  1
  Si  Si32  1  0.707564  0.078611  0.563302  1
  Si  Si33  1  0.922813  0.287229  0.938488  1
  Si  Si34  1  0.082274  0.715430  0.436870  1
  Pd  Pd35  1  0.186215  0.173435  0.702435  1
