# generated using pymatgen
data_DyPaMn3Fe9P7
_symmetry_space_group_name_H-M   'P 1'
_cell_length_a   9.05314000
_cell_length_b   9.05314067
_cell_length_c   3.63872500
_cell_angle_alpha   90.00000000
_cell_angle_beta   90.00000000
_cell_angle_gamma   119.99999754
_symmetry_Int_Tables_number   1
_chemical_formula_structural   DyPaMn3Fe9P7
_chemical_formula_sum   'Dy1 Pa1 Mn3 Fe9 P7'
_cell_volume   258.27262835
_cell_formula_units_Z   1
loop_
 _symmetry_equiv_pos_site_id
 _symmetry_equiv_pos_as_xyz
  1  'x, y, z'
loop_
 _atom_site_type_symbol
 _atom_site_label
 _atom_site_symmetry_multiplicity
 _atom_site_fract_x
 _atom_site_fract_y
 _atom_site_fract_z
 _atom_site_occupancy
  Dy  Dy0  1  0.666667  0.333333  0.000000  1
  Pa  Pa1  1  0.333333  0.666667  0.500000  1
  Mn  Mn2  1  0.101937  0.885426  0.500000  1
  Mn  Mn3  1  0.783488  0.898063  0.500000  1
  Mn  Mn4  1  0.114574  0.216512  0.500000  1
  Fe  Fe5  1  0.064504  0.634202  0.000000  1
  Fe  Fe6  1  0.569699  0.935496  0.000000  1
  Fe  Fe7  1  0.365798  0.430301  0.000000  1
  Fe  Fe8  1  0.274280  0.122558  0.000000  1
  Fe  Fe9  1  0.848277  0.725720  0.000000  1
  Fe  Fe10  1  0.877442  0.151723  0.000000  1
  Fe  Fe11  1  0.434779  0.048949  0.500000  1
  Fe  Fe12  1  0.614170  0.565221  0.500000  1
  Fe  Fe13  1  0.951051  0.385830  0.500000  1
  P  P14  1  0.303297  0.895354  0.000000  1
  P  P15  1  0.592059  0.696703  0.000000  1
  P  P16  1  0.104646  0.407941  0.000000  1
  P  P17  1  0.406709  0.289952  0.500000  1
  P  P18  1  0.883243  0.593291  0.500000  1
  P  P19  1  0.710048  0.116757  0.500000  1
  P  P20  1  0.000000  0.000000  0.000000  1
