# generated using pymatgen
data_Pr7Sm(Sc3Ga4)4
_symmetry_space_group_name_H-M   'P 1'
_cell_length_a   7.43653711
_cell_length_b   7.69690307
_cell_length_c   14.67919500
_cell_angle_alpha   89.99680652
_cell_angle_beta   90.00971554
_cell_angle_gamma   90.00715423
_symmetry_Int_Tables_number   1
_chemical_formula_structural   Pr7Sm(Sc3Ga4)4
_chemical_formula_sum   'Pr7 Sm1 Sc12 Ga16'
_cell_volume   840.21222508
_cell_formula_units_Z   1
loop_
 _symmetry_equiv_pos_site_id
 _symmetry_equiv_pos_as_xyz
  1  'x, y, z'
loop_
 _atom_site_type_symbol
 _atom_site_label
 _atom_site_symmetry_multiplicity
 _atom_site_fract_x
 _atom_site_fract_y
 _atom_site_fract_z
 _atom_site_occupancy
  Pr  Pr0  1  0.012453  0.176063  0.404901  1
  Pr  Pr1  1  0.512411  0.323968  0.404937  1
  Pr  Pr2  1  0.487523  0.676143  0.905052  1
  Pr  Pr3  1  0.487678  0.676083  0.595127  1
  Pr  Pr4  1  0.987649  0.824012  0.595045  1
  Pr  Pr5  1  0.987815  0.824285  0.905350  1
  Pr  Pr6  1  0.512200  0.323322  0.095037  1
  Sm  Sm7  1  0.012487  0.177739  0.095614  1
  Sc  Sc8  1  0.329703  0.172901  0.625030  1
  Sc  Sc9  1  0.670330  0.827030  0.374905  1
  Sc  Sc10  1  0.661368  0.001931  0.749909  1
  Sc  Sc11  1  0.170375  0.672638  0.374757  1
  Sc  Sc12  1  0.830009  0.327035  0.875264  1
  Sc  Sc13  1  0.829555  0.327129  0.625024  1
  Sc  Sc14  1  0.838897  0.501200  0.249650  1
  Sc  Sc15  1  0.338346  0.998635  0.249667  1
  Sc  Sc16  1  0.329551  0.172886  0.875215  1
  Sc  Sc17  1  0.170138  0.672866  0.125028  1
  Sc  Sc18  1  0.670755  0.827440  0.124902  1
  Sc  Sc19  1  0.161320  0.498121  0.749875  1
  Ga  Ga20  1  0.286185  0.880106  0.750057  1
  Ga  Ga21  1  0.468601  0.622367  0.250051  1
  Ga  Ga22  1  0.031337  0.122870  0.749886  1
  Ga  Ga23  1  0.531319  0.377326  0.749904  1
  Ga  Ga24  1  0.156682  0.462066  0.540827  1
  Ga  Ga25  1  0.968792  0.878174  0.249435  1
  Ga  Ga26  1  0.715093  0.120534  0.249219  1
  Ga  Ga27  1  0.843639  0.536222  0.041199  1
  Ga  Ga28  1  0.341095  0.963240  0.041138  1
  Ga  Ga29  1  0.156370  0.460740  0.959840  1
  Ga  Ga30  1  0.656758  0.037895  0.540818  1
  Ga  Ga31  1  0.343200  0.962203  0.459243  1
  Ga  Ga32  1  0.843389  0.538047  0.459212  1
  Ga  Ga33  1  0.786083  0.620063  0.749913  1
  Ga  Ga34  1  0.213160  0.378788  0.249407  1
  Ga  Ga35  1  0.657732  0.037928  0.959554  1
