# generated using pymatgen
data_NdNi2(AsRh)3
_symmetry_space_group_name_H-M   'P 1'
_cell_length_a   3.98176500
_cell_length_b   12.61471200
_cell_length_c   11.19440600
_cell_angle_alpha   90.00000000
_cell_angle_beta   90.00000000
_cell_angle_gamma   90.00000000
_symmetry_Int_Tables_number   1
_chemical_formula_structural   NdNi2(AsRh)3
_chemical_formula_sum   'Nd4 Ni8 As12 Rh12'
_cell_volume   562.28178973
_cell_formula_units_Z   4
loop_
 _symmetry_equiv_pos_site_id
 _symmetry_equiv_pos_as_xyz
  1  'x, y, z'
loop_
 _atom_site_type_symbol
 _atom_site_label
 _atom_site_symmetry_multiplicity
 _atom_site_fract_x
 _atom_site_fract_y
 _atom_site_fract_z
 _atom_site_occupancy
  Nd  Nd0  1  0.750000  0.703128  0.087404  1
  Nd  Nd1  1  0.250000  0.296872  0.912596  1
  Nd  Nd2  1  0.250000  0.796872  0.587404  1
  Nd  Nd3  1  0.750000  0.203128  0.412596  1
  Ni  Ni4  1  0.750000  0.931805  0.969068  1
  Ni  Ni5  1  0.250000  0.068195  0.030932  1
  Ni  Ni6  1  0.250000  0.568195  0.469068  1
  Ni  Ni7  1  0.750000  0.431805  0.530932  1
  Ni  Ni8  1  0.750000  0.985072  0.592756  1
  Ni  Ni9  1  0.250000  0.014928  0.407244  1
  Ni  Ni10  1  0.250000  0.514928  0.092756  1
  Ni  Ni11  1  0.750000  0.485071  0.907244  1
  As  As12  1  0.750000  0.608451  0.584556  1
  As  As13  1  0.250000  0.391549  0.415444  1
  As  As14  1  0.250000  0.891549  0.084556  1
  As  As15  1  0.750000  0.108451  0.915444  1
  As  As16  1  0.750000  0.895943  0.406213  1
  As  As17  1  0.250000  0.104057  0.593787  1
  As  As18  1  0.250000  0.604057  0.906213  1
  As  As19  1  0.750000  0.395943  0.093787  1
  As  As20  1  0.750000  0.875728  0.771308  1
  As  As21  1  0.250000  0.124272  0.228692  1
  As  As22  1  0.250000  0.624272  0.271308  1
  As  As23  1  0.750000  0.375728  0.728692  1
  Rh  Rh24  1  0.750000  0.698346  0.388804  1
  Rh  Rh25  1  0.250000  0.301654  0.611196  1
  Rh  Rh26  1  0.250000  0.801654  0.888804  1
  Rh  Rh27  1  0.750000  0.198346  0.111196  1
  Rh  Rh28  1  0.750000  0.983093  0.209799  1
  Rh  Rh29  1  0.250000  0.016907  0.790201  1
  Rh  Rh30  1  0.250000  0.516907  0.709799  1
  Rh  Rh31  1  0.750000  0.483093  0.290201  1
  Rh  Rh32  1  0.750000  0.675771  0.782948  1
  Rh  Rh33  1  0.250000  0.324229  0.217052  1
  Rh  Rh34  1  0.250000  0.824229  0.282948  1
  Rh  Rh35  1  0.750000  0.175771  0.717052  1
