# generated using pymatgen
data_CeSeClO3
_symmetry_space_group_name_H-M   'P 1'
_cell_length_a   5.59664976
_cell_length_b   6.81059620
_cell_length_c   7.20074884
_cell_angle_alpha   94.75334503
_cell_angle_beta   94.88876436
_cell_angle_gamma   92.87608470
_symmetry_Int_Tables_number   1
_chemical_formula_structural   CeSeClO3
_chemical_formula_sum   'Ce2 Se2 Cl2 O6'
_cell_volume   272.07526168
_cell_formula_units_Z   2
loop_
 _symmetry_equiv_pos_site_id
 _symmetry_equiv_pos_as_xyz
  1  'x, y, z'
loop_
 _atom_site_type_symbol
 _atom_site_label
 _atom_site_symmetry_multiplicity
 _atom_site_fract_x
 _atom_site_fract_y
 _atom_site_fract_z
 _atom_site_occupancy
  Ce  Ce0  1  0.481148  0.340932  0.237435  1
  Ce  Ce1  1  0.518870  0.659100  0.762570  1
  Se  Se2  1  0.678648  0.825057  0.287576  1
  Se  Se3  1  0.321341  0.174987  0.712373  1
  Cl  Cl4  1  0.980112  0.285716  0.270363  1
  Cl  Cl5  1  0.019918  0.714134  0.729753  1
  O  O6  1  0.634223  0.655926  0.090028  1
  O  O7  1  0.479595  0.997544  0.234775  1
  O  O8  1  0.519814  0.673827  0.425531  1
  O  O9  1  0.480266  0.326261  0.574491  1
  O  O10  1  0.520365  0.002472  0.765134  1
  O  O11  1  0.365699  0.344045  0.909973  1
