# generated using pymatgen
data_Mo(O2F3)2
_symmetry_space_group_name_H-M   'P 1'
_cell_length_a   6.78564104
_cell_length_b   6.80301821
_cell_length_c   6.79590932
_cell_angle_alpha   119.22705224
_cell_angle_beta   118.99026906
_cell_angle_gamma   91.64287568
_symmetry_Int_Tables_number   1
_chemical_formula_structural   Mo(O2F3)2
_chemical_formula_sum   'Mo1 O4 F6'
_cell_volume   224.54513279
_cell_formula_units_Z   1
loop_
 _symmetry_equiv_pos_site_id
 _symmetry_equiv_pos_as_xyz
  1  'x, y, z'
loop_
 _atom_site_type_symbol
 _atom_site_label
 _atom_site_symmetry_multiplicity
 _atom_site_fract_x
 _atom_site_fract_y
 _atom_site_fract_z
 _atom_site_occupancy
  Mo  Mo0  1  0.007968  0.008095  0.000003  1
  O  O1  1  0.278242  0.689052  0.409708  1
  O  O2  1  0.278210  0.868269  0.588636  1
  O  O3  1  0.689448  0.278228  0.411424  1
  O  O4  1  0.867568  0.277707  0.590173  1
  F  F5  1  0.205514  0.205031  0.000324  1
  F  F6  1  0.199992  0.200635  0.384138  1
  F  F7  1  0.199868  0.816222  0.999448  1
  F  F8  1  0.810091  0.810448  0.999833  1
  F  F9  1  0.816029  0.815673  0.615898  1
  F  F10  1  0.816270  0.199839  0.000415  1
