# generated using pymatgen
data_Ba6YTmSc2O12
_symmetry_space_group_name_H-M   'P 1'
_cell_length_a   7.25847861
_cell_length_b   7.25847780
_cell_length_c   7.25847870
_cell_angle_alpha   93.19852562
_cell_angle_beta   93.19852062
_cell_angle_gamma   93.19852966
_symmetry_Int_Tables_number   1
_chemical_formula_structural   Ba6YTmSc2O12
_chemical_formula_sum   'Ba6 Y1 Tm1 Sc2 O12'
_cell_volume   380.55989509
_cell_formula_units_Z   1
loop_
 _symmetry_equiv_pos_site_id
 _symmetry_equiv_pos_as_xyz
  1  'x, y, z'
loop_
 _atom_site_type_symbol
 _atom_site_label
 _atom_site_symmetry_multiplicity
 _atom_site_fract_x
 _atom_site_fract_y
 _atom_site_fract_z
 _atom_site_occupancy
  Ba  Ba0  1  0.250000  0.888288  0.611712  1
  Ba  Ba1  1  0.888288  0.611712  0.250000  1
  Ba  Ba2  1  0.750000  0.110915  0.389085  1
  Ba  Ba3  1  0.389085  0.750000  0.110915  1
  Ba  Ba4  1  0.110915  0.389085  0.750000  1
  Ba  Ba5  1  0.611712  0.250000  0.888288  1
  Y  Y6  1  0.250000  0.250000  0.250000  1
  Tm  Tm7  1  0.750000  0.750000  0.750000  1
  Sc  Sc8  1  0.500986  0.500986  0.500986  1
  Sc  Sc9  1  0.999014  0.999014  0.999014  1
  O  O10  1  0.597909  0.782687  0.470388  1
  O  O11  1  0.470388  0.597909  0.782687  1
  O  O12  1  0.782687  0.470388  0.597909  1
  O  O13  1  0.902091  0.029612  0.717313  1
  O  O14  1  0.717313  0.902091  0.029612  1
  O  O15  1  0.029612  0.717313  0.902091  1
  O  O16  1  0.404808  0.218031  0.533630  1
  O  O17  1  0.533630  0.404808  0.218031  1
  O  O18  1  0.218031  0.533630  0.404808  1
  O  O19  1  0.095192  0.966370  0.281969  1
  O  O20  1  0.966370  0.281969  0.095192  1
  O  O21  1  0.281969  0.095192  0.966370  1
