# generated using pymatgen
data_DyY(PSe)2
_symmetry_space_group_name_H-M   'P 1'
_cell_length_a   5.46006500
_cell_length_b   5.51514600
_cell_length_c   17.18225300
_cell_angle_alpha   90.00000000
_cell_angle_beta   90.00000000
_cell_angle_gamma   90.00000000
_symmetry_Int_Tables_number   1
_chemical_formula_structural   DyY(PSe)2
_chemical_formula_sum   'Dy4 Y4 P8 Se8'
_cell_volume   517.41014069
_cell_formula_units_Z   4
loop_
 _symmetry_equiv_pos_site_id
 _symmetry_equiv_pos_as_xyz
  1  'x, y, z'
loop_
 _atom_site_type_symbol
 _atom_site_label
 _atom_site_symmetry_multiplicity
 _atom_site_fract_x
 _atom_site_fract_y
 _atom_site_fract_z
 _atom_site_occupancy
  Dy  Dy0  1  0.250000  0.014527  0.639886  1
  Dy  Dy1  1  0.250000  0.514527  0.860114  1
  Dy  Dy2  1  0.750000  0.985473  0.360114  1
  Dy  Dy3  1  0.750000  0.485473  0.139886  1
  Y  Y4  1  0.250000  0.484060  0.368861  1
  Y  Y5  1  0.250000  0.984060  0.131139  1
  Y  Y6  1  0.750000  0.515940  0.631139  1
  Y  Y7  1  0.750000  0.015940  0.868861  1
  P  P8  1  0.039901  0.299480  0.997215  1
  P  P9  1  0.460099  0.799480  0.502785  1
  P  P10  1  0.539901  0.700520  0.002785  1
  P  P11  1  0.960099  0.200520  0.497215  1
  P  P12  1  0.960099  0.700520  0.002785  1
  P  P13  1  0.539901  0.200520  0.497215  1
  P  P14  1  0.460099  0.299480  0.997215  1
  P  P15  1  0.039901  0.799480  0.502785  1
  Se  Se16  1  0.250000  0.485384  0.190013  1
  Se  Se17  1  0.250000  0.985384  0.309987  1
  Se  Se18  1  0.750000  0.514616  0.809987  1
  Se  Se19  1  0.750000  0.014616  0.690013  1
  Se  Se20  1  0.250000  0.011136  0.815366  1
  Se  Se21  1  0.250000  0.511136  0.684634  1
  Se  Se22  1  0.750000  0.988864  0.184634  1
  Se  Se23  1  0.750000  0.488864  0.315366  1
