# generated using pymatgen
data_La2ErCdFeSb3O14
_symmetry_space_group_name_H-M   'P 1'
_cell_length_a   7.35689621
_cell_length_b   7.29515422
_cell_length_c   7.29781600
_cell_angle_alpha   117.70088339
_cell_angle_beta   62.12335967
_cell_angle_gamma   117.90406106
_symmetry_Int_Tables_number   1
_chemical_formula_structural   La2ErCdFeSb3O14
_chemical_formula_sum   'La2 Er1 Cd1 Fe1 Sb3 O14'
_cell_volume   290.39467873
_cell_formula_units_Z   1
loop_
 _symmetry_equiv_pos_site_id
 _symmetry_equiv_pos_as_xyz
  1  'x, y, z'
loop_
 _atom_site_type_symbol
 _atom_site_label
 _atom_site_symmetry_multiplicity
 _atom_site_fract_x
 _atom_site_fract_y
 _atom_site_fract_z
 _atom_site_occupancy
  La  La0  1  0.500044  0.999993  0.999997  1
  La  La1  1  0.499815  0.499925  0.500045  1
  Er  Er2  1  0.999967  0.499958  0.000060  1
  Cd  Cd3  1  0.499997  0.499983  0.000056  1
  Fe  Fe4  1  0.999983  0.000127  0.500150  1
  Sb  Sb5  1  0.500035  0.999992  0.499955  1
  Sb  Sb6  1  0.999974  0.500030  0.499962  1
  Sb  Sb7  1  0.000002  0.999992  0.999971  1
  O  O8  1  0.639866  0.386994  0.113307  1
  O  O9  1  0.360143  0.612926  0.886683  1
  O  O10  1  0.076526  0.320551  0.179609  1
  O  O11  1  0.680331  0.922501  0.179786  1
  O  O12  1  0.680383  0.320301  0.576612  1
  O  O13  1  0.923509  0.679420  0.820293  1
  O  O14  1  0.319662  0.077475  0.820102  1
  O  O15  1  0.319607  0.679666  0.423375  1
  O  O16  1  0.651475  0.910740  0.589708  1
  O  O17  1  0.081585  0.349557  0.599564  1
  O  O18  1  0.082313  0.900080  0.149604  1
  O  O19  1  0.348539  0.089221  0.410279  1
  O  O20  1  0.918452  0.650639  0.400405  1
  O  O21  1  0.917794  0.099928  0.850480  1
