# generated using pymatgen
data_HoEr9(Co2Ag)2
_symmetry_space_group_name_H-M   'P 1'
_cell_length_a   8.46249573
_cell_length_b   8.47532808
_cell_length_c   8.46495607
_cell_angle_alpha   127.46139459
_cell_angle_beta   127.41849718
_cell_angle_gamma   77.56738966
_symmetry_Int_Tables_number   1
_chemical_formula_structural   HoEr9(Co2Ag)2
_chemical_formula_sum   'Ho1 Er9 Co4 Ag2'
_cell_volume   371.10662564
_cell_formula_units_Z   1
loop_
 _symmetry_equiv_pos_site_id
 _symmetry_equiv_pos_as_xyz
  1  'x, y, z'
loop_
 _atom_site_type_symbol
 _atom_site_label
 _atom_site_symmetry_multiplicity
 _atom_site_fract_x
 _atom_site_fract_y
 _atom_site_fract_z
 _atom_site_occupancy
  Ho  Ho0  1  0.973158  0.793741  0.500000  1
  Er  Er1  1  0.706349  0.527428  0.500000  1
  Er  Er2  1  0.472722  0.972526  0.179413  1
  Er  Er3  1  0.793310  0.293113  0.820587  1
  Er  Er4  1  0.527406  0.027460  0.820787  1
  Er  Er5  1  0.999892  0.999914  0.000091  1
  Er  Er6  1  0.027310  0.207043  0.500000  1
  Er  Er7  1  0.293714  0.472065  0.500000  1
  Er  Er8  1  0.206619  0.706673  0.179213  1
  Er  Er9  1  0.499801  0.499823  0.999909  1
  Co  Co10  1  0.136232  0.636086  0.772565  1
  Co  Co11  1  0.863667  0.363520  0.227435  1
  Co  Co12  1  0.635945  0.863985  0.500000  1
  Co  Co13  1  0.363751  0.135960  0.500000  1
  Ag  Ag14  1  0.250709  0.250978  0.001293  1
  Ag  Ag15  1  0.749416  0.749685  0.998707  1
