# generated using pymatgen
data_Rb6Na4TiSnP6
_symmetry_space_group_name_H-M   'P 1'
_cell_length_a   10.59969056
_cell_length_b   10.59969124
_cell_length_c   15.65000700
_cell_angle_alpha   90.00000000
_cell_angle_beta   90.00000000
_cell_angle_gamma   142.51598041
_symmetry_Int_Tables_number   1
_chemical_formula_structural   Rb6Na4TiSnP6
_chemical_formula_sum   'Rb12 Na8 Ti2 Sn2 P12'
_cell_volume   1070.01572740
_cell_formula_units_Z   2
loop_
 _symmetry_equiv_pos_site_id
 _symmetry_equiv_pos_as_xyz
  1  'x, y, z'
loop_
 _atom_site_type_symbol
 _atom_site_label
 _atom_site_symmetry_multiplicity
 _atom_site_fract_x
 _atom_site_fract_y
 _atom_site_fract_z
 _atom_site_occupancy
  Rb  Rb0  1  0.939787  0.605078  0.824912  1
  Rb  Rb1  1  0.560213  0.894922  0.324912  1
  Rb  Rb2  1  0.394922  0.060213  0.175088  1
  Rb  Rb3  1  0.057359  0.393032  0.173982  1
  Rb  Rb4  1  0.893032  0.557359  0.326018  1
  Rb  Rb5  1  0.442641  0.106968  0.673982  1
  Rb  Rb6  1  0.606968  0.942641  0.826018  1
  Rb  Rb7  1  0.271146  0.271707  0.317425  1
  Rb  Rb8  1  0.771707  0.771146  0.182575  1
  Rb  Rb9  1  0.228854  0.228293  0.817425  1
  Rb  Rb10  1  0.728293  0.728854  0.682575  1
  Rb  Rb11  1  0.105078  0.439787  0.675088  1
  Na  Na12  1  0.919918  0.080082  0.000000  1
  Na  Na13  1  0.580082  0.419918  0.500000  1
  Na  Na14  1  0.079723  0.920277  0.000000  1
  Na  Na15  1  0.420277  0.579723  0.500000  1
  Na  Na16  1  0.754898  0.245102  0.000000  1
  Na  Na17  1  0.745102  0.254898  0.500000  1
  Na  Na18  1  0.245731  0.754269  0.000000  1
  Na  Na19  1  0.254269  0.745731  0.500000  1
  Ti  Ti20  1  0.416926  0.583074  0.000000  1
  Ti  Ti21  1  0.083074  0.916926  0.500000  1
  Sn  Sn22  1  0.583522  0.416478  0.000000  1
  Sn  Sn23  1  0.916478  0.083522  0.500000  1
  P  P24  1  0.873510  0.561044  0.098031  1
  P  P25  1  0.438956  0.126490  0.901969  1
  P  P26  1  0.626490  0.938956  0.598031  1
  P  P27  1  0.949538  0.645672  0.591071  1
  P  P28  1  0.145672  0.449538  0.908929  1
  P  P29  1  0.550462  0.854328  0.091071  1
  P  P30  1  0.354328  0.050462  0.408929  1
  P  P31  1  0.204949  0.196321  0.587801  1
  P  P32  1  0.696321  0.704949  0.912199  1
  P  P33  1  0.295051  0.303679  0.087801  1
  P  P34  1  0.061044  0.373510  0.401969  1
  P  P35  1  0.803679  0.795051  0.412199  1
