# generated using pymatgen
data_PrNd11(SiBr3)4
_symmetry_space_group_name_H-M   'P 1'
_cell_length_a   10.44928220
_cell_length_b   10.47392069
_cell_length_c   10.44928122
_cell_angle_alpha   109.47271882
_cell_angle_beta   109.50789810
_cell_angle_gamma   109.47270770
_symmetry_Int_Tables_number   1
_chemical_formula_structural   PrNd11(SiBr3)4
_chemical_formula_sum   'Pr1 Nd11 Si4 Br12'
_cell_volume   879.92865198
_cell_formula_units_Z   1
loop_
 _symmetry_equiv_pos_site_id
 _symmetry_equiv_pos_as_xyz
  1  'x, y, z'
loop_
 _atom_site_type_symbol
 _atom_site_label
 _atom_site_symmetry_multiplicity
 _atom_site_fract_x
 _atom_site_fract_y
 _atom_site_fract_z
 _atom_site_occupancy
  Pr  Pr0  1  0.260149  0.750000  0.239851  1
  Nd  Nd1  1  0.487658  0.750000  0.012342  1
  Nd  Nd2  1  0.748439  0.236134  0.261172  1
  Nd  Nd3  1  0.238828  0.263866  0.751561  1
  Nd  Nd4  1  0.476490  0.487650  0.237760  1
  Nd  Nd5  1  0.262240  0.012350  0.023510  1
  Nd  Nd6  1  0.237983  0.475438  0.487250  1
  Nd  Nd7  1  0.012750  0.024562  0.262017  1
  Nd  Nd8  1  0.011415  0.487468  0.749645  1
  Nd  Nd9  1  0.488738  0.238408  0.476199  1
  Nd  Nd10  1  0.750355  0.012532  0.488585  1
  Nd  Nd11  1  0.023801  0.261592  0.011262  1
  Si  Si12  1  0.250406  0.250000  0.249594  1
  Si  Si13  1  0.000143  0.250000  0.499857  1
  Si  Si14  1  0.249906  0.500486  0.000747  1
  Si  Si15  1  0.499253  0.999514  0.250094  1
  Br  Br16  1  0.997499  0.993756  0.745990  1
  Br  Br17  1  0.754207  0.747464  0.250537  1
  Br  Br18  1  0.991382  0.747565  0.993311  1
  Br  Br19  1  0.251391  0.999917  0.506528  1
  Br  Br20  1  0.745903  0.996167  0.992629  1
  Br  Br21  1  0.503790  0.250000  0.996210  1
  Br  Br22  1  0.746269  0.250000  0.753731  1
  Br  Br23  1  0.506689  0.752435  0.508618  1
  Br  Br24  1  0.754010  0.506244  0.502501  1
  Br  Br25  1  0.249463  0.752536  0.745793  1
  Br  Br26  1  0.507371  0.503833  0.754097  1
  Br  Br27  1  0.993472  0.500083  0.248609  1
