# generated using pymatgen
data_KNdP2S7
_symmetry_space_group_name_H-M   'P 1'
_cell_length_a   9.08356300
_cell_length_b   9.88057249
_cell_length_c   12.51778300
_cell_angle_alpha   90.00000000
_cell_angle_beta   90.00000000
_cell_angle_gamma   90.24656710
_symmetry_Int_Tables_number   1
_chemical_formula_structural   KNdP2S7
_chemical_formula_sum   'K4 Nd4 P8 S28'
_cell_volume   1123.47066917
_cell_formula_units_Z   4
loop_
 _symmetry_equiv_pos_site_id
 _symmetry_equiv_pos_as_xyz
  1  'x, y, z'
loop_
 _atom_site_type_symbol
 _atom_site_label
 _atom_site_symmetry_multiplicity
 _atom_site_fract_x
 _atom_site_fract_y
 _atom_site_fract_z
 _atom_site_occupancy
  K  K0  1  0.867199  0.396345  0.692663  1
  K  K1  1  0.632801  0.603655  0.192663  1
  K  K2  1  0.132801  0.603655  0.307337  1
  K  K3  1  0.367199  0.396345  0.807337  1
  Nd  Nd4  1  0.106738  0.859878  0.641783  1
  Nd  Nd5  1  0.393262  0.140122  0.141783  1
  Nd  Nd6  1  0.893262  0.140122  0.358217  1
  Nd  Nd7  1  0.606738  0.859878  0.858217  1
  P  P8  1  0.196796  0.185628  0.536328  1
  P  P9  1  0.303204  0.814372  0.036328  1
  P  P10  1  0.803204  0.814372  0.463672  1
  P  P11  1  0.696796  0.185628  0.963672  1
  P  P12  1  0.977742  0.727900  0.895888  1
  P  P13  1  0.522258  0.272100  0.395888  1
  P  P14  1  0.022258  0.272100  0.104112  1
  P  P15  1  0.477742  0.727900  0.604112  1
  S  S16  1  0.178528  0.017753  0.442306  1
  S  S17  1  0.321472  0.982247  0.942306  1
  S  S18  1  0.821472  0.982247  0.557694  1
  S  S19  1  0.678528  0.017753  0.057694  1
  S  S20  1  0.932494  0.666146  0.523093  1
  S  S21  1  0.567506  0.333854  0.023093  1
  S  S22  1  0.067506  0.333854  0.476907  1
  S  S23  1  0.432494  0.666146  0.976907  1
  S  S24  1  0.148438  0.150205  0.692642  1
  S  S25  1  0.351562  0.849795  0.192642  1
  S  S26  1  0.851562  0.849795  0.307358  1
  S  S27  1  0.648438  0.150205  0.807358  1
  S  S28  1  0.290189  0.636191  0.556525  1
  S  S29  1  0.209811  0.363809  0.056525  1
  S  S30  1  0.709811  0.363809  0.443475  1
  S  S31  1  0.790189  0.636191  0.943475  1
  S  S32  1  0.926893  0.911337  0.830543  1
  S  S33  1  0.573107  0.088663  0.330543  1
  S  S34  1  0.073107  0.088663  0.169457  1
  S  S35  1  0.426893  0.911337  0.669457  1
  S  S36  1  0.109781  0.631644  0.790415  1
  S  S37  1  0.390219  0.368355  0.290415  1
  S  S38  1  0.890219  0.368355  0.209585  1
  S  S39  1  0.609781  0.631644  0.709585  1
  S  S40  1  0.078832  0.752235  0.049863  1
  S  S41  1  0.421168  0.247765  0.549863  1
  S  S42  1  0.921168  0.247765  0.950137  1
  S  S43  1  0.578832  0.752235  0.450137  1
