# generated using pymatgen
data_KP12Ir3Os
_symmetry_space_group_name_H-M   'P 1'
_cell_length_a   7.05039169
_cell_length_b   7.05039255
_cell_length_c   7.05039169
_cell_angle_alpha   109.49100708
_cell_angle_beta   109.49100889
_cell_angle_gamma   109.49100431
_symmetry_Int_Tables_number   1
_chemical_formula_structural   KP12Ir3Os
_chemical_formula_sum   'K1 P12 Ir3 Os1'
_cell_volume   269.58724611
_cell_formula_units_Z   1
loop_
 _symmetry_equiv_pos_site_id
 _symmetry_equiv_pos_as_xyz
  1  'x, y, z'
loop_
 _atom_site_type_symbol
 _atom_site_label
 _atom_site_symmetry_multiplicity
 _atom_site_fract_x
 _atom_site_fract_y
 _atom_site_fract_z
 _atom_site_occupancy
  K  K0  1  0.000000  0.000000  0.000000  1
  P  P1  1  0.140833  0.783423  0.642271  1
  P  P2  1  0.143837  0.498265  0.358474  1
  P  P3  1  0.856163  0.501735  0.641526  1
  P  P4  1  0.358474  0.143837  0.498265  1
  P  P5  1  0.783423  0.642271  0.140833  1
  P  P6  1  0.859167  0.216577  0.357729  1
  P  P7  1  0.642271  0.140833  0.783423  1
  P  P8  1  0.501735  0.641526  0.856163  1
  P  P9  1  0.641526  0.856163  0.501735  1
  P  P10  1  0.498265  0.358474  0.143837  1
  P  P11  1  0.357729  0.859167  0.216577  1
  P  P12  1  0.216577  0.357729  0.859167  1
  Ir  Ir13  1  0.500000  0.000000  0.000000  1
  Ir  Ir14  1  0.000000  0.500000  0.000000  1
  Ir  Ir15  1  0.000000  0.000000  0.500000  1
  Os  Os16  1  0.500000  0.500000  0.500000  1
