# generated using pymatgen
data_PrTh3Al15(GaIr2)3
_symmetry_space_group_name_H-M   'P 1'
_cell_length_a   7.65584991
_cell_length_b   7.65678035
_cell_length_c   9.59263700
_cell_angle_alpha   90.00000000
_cell_angle_beta   90.00000000
_cell_angle_gamma   119.57884371
_symmetry_Int_Tables_number   1
_chemical_formula_structural   PrTh3Al15(GaIr2)3
_chemical_formula_sum   'Pr1 Th3 Al15 Ga3 Ir6'
_cell_volume   489.03024860
_cell_formula_units_Z   1
loop_
 _symmetry_equiv_pos_site_id
 _symmetry_equiv_pos_as_xyz
  1  'x, y, z'
loop_
 _atom_site_type_symbol
 _atom_site_label
 _atom_site_symmetry_multiplicity
 _atom_site_fract_x
 _atom_site_fract_y
 _atom_site_fract_z
 _atom_site_occupancy
  Pr  Pr0  1  0.329578  0.005348  0.750000  1
  Th  Th1  1  0.996104  0.670922  0.250000  1
  Th  Th2  1  0.004180  0.329860  0.750000  1
  Th  Th3  1  0.670408  0.995774  0.250000  1
  Al  Al4  1  0.134618  0.133579  0.250000  1
  Al  Al5  1  0.004884  0.335334  0.073980  1
  Al  Al6  1  0.997728  0.667705  0.926421  1
  Al  Al7  1  0.997728  0.667705  0.573579  1
  Al  Al8  1  0.335167  0.004223  0.428491  1
  Al  Al9  1  0.004884  0.335334  0.426020  1
  Al  Al10  1  0.662752  0.995386  0.573611  1
  Al  Al11  1  0.662752  0.995386  0.926389  1
  Al  Al12  1  0.335167  0.004223  0.071509  1
  Al  Al13  1  0.336090  0.334447  0.546656  1
  Al  Al14  1  0.663089  0.663060  0.447587  1
  Al  Al15  1  0.663089  0.663060  0.052413  1
  Al  Al16  1  0.336090  0.334447  0.953344  1
  Al  Al17  1  0.340516  0.543710  0.250000  1
  Al  Al18  1  0.543837  0.339301  0.250000  1
  Ga  Ga19  1  0.868537  0.868198  0.750000  1
  Ga  Ga20  1  0.657558  0.452999  0.750000  1
  Ga  Ga21  1  0.454457  0.658777  0.750000  1
  Ir  Ir22  1  0.674818  0.330012  0.003866  1
  Ir  Ir23  1  0.328293  0.671366  0.003939  1
  Ir  Ir24  1  0.328293  0.671366  0.496061  1
  Ir  Ir25  1  0.674818  0.330012  0.496134  1
  Ir  Ir26  1  0.997283  0.999235  0.004732  1
  Ir  Ir27  1  0.997283  0.999235  0.495268  1
