# generated using pymatgen
data_AgBi3Ru2(RhO7)2
_symmetry_space_group_name_H-M   'P 1'
_cell_length_a   7.39485364
_cell_length_b   7.22333549
_cell_length_c   7.38321088
_cell_angle_alpha   58.95065216
_cell_angle_beta   59.94782078
_cell_angle_gamma   59.21136306
_symmetry_Int_Tables_number   1
_chemical_formula_structural   AgBi3Ru2(RhO7)2
_chemical_formula_sum   'Ag1 Bi3 Ru2 Rh2 O14'
_cell_volume   274.82241088
_cell_formula_units_Z   1
loop_
 _symmetry_equiv_pos_site_id
 _symmetry_equiv_pos_as_xyz
  1  'x, y, z'
loop_
 _atom_site_type_symbol
 _atom_site_label
 _atom_site_symmetry_multiplicity
 _atom_site_fract_x
 _atom_site_fract_y
 _atom_site_fract_z
 _atom_site_occupancy
  Ag  Ag0  1  0.125000  0.625000  0.125000  1
  Bi  Bi1  1  0.125000  0.125000  0.125000  1
  Bi  Bi2  1  0.625000  0.125000  0.125000  1
  Bi  Bi3  1  0.125000  0.125000  0.625000  1
  Ru  Ru4  1  0.625000  0.625000  0.625000  1
  Ru  Ru5  1  0.125000  0.625000  0.625000  1
  Rh  Rh6  1  0.625000  0.625000  0.125000  1
  Rh  Rh7  1  0.625000  0.125000  0.625000  1
  O  O8  1  0.245966  0.263334  0.244732  1
  O  O9  1  0.297482  0.704407  0.305816  1
  O  O10  1  0.956393  0.958026  0.544966  1
  O  O11  1  0.540615  0.958026  0.544966  1
  O  O12  1  0.692296  0.704407  0.305816  1
  O  O13  1  0.943783  0.546588  0.565845  1
  O  O14  1  0.709385  0.291974  0.705034  1
  O  O15  1  0.293607  0.291974  0.705034  1
  O  O16  1  0.710704  0.287039  0.291553  1
  O  O17  1  0.306217  0.703412  0.684155  1
  O  O18  1  0.952518  0.545593  0.944184  1
  O  O19  1  0.557704  0.545593  0.944184  1
  O  O20  1  0.004034  0.986666  0.005268  1
  O  O21  1  0.539296  0.962961  0.958447  1
