# generated using pymatgen
data_Rb3TaSO3
_symmetry_space_group_name_H-M   'P 1'
_cell_length_a   6.43142100
_cell_length_b   7.08392181
_cell_length_c   9.34492615
_cell_angle_alpha   78.11552218
_cell_angle_beta   90.00000000
_cell_angle_gamma   90.00000000
_symmetry_Int_Tables_number   1
_chemical_formula_structural   Rb3TaSO3
_chemical_formula_sum   'Rb6 Ta2 S2 O6'
_cell_volume   416.62580595
_cell_formula_units_Z   2
loop_
 _symmetry_equiv_pos_site_id
 _symmetry_equiv_pos_as_xyz
  1  'x, y, z'
loop_
 _atom_site_type_symbol
 _atom_site_label
 _atom_site_symmetry_multiplicity
 _atom_site_fract_x
 _atom_site_fract_y
 _atom_site_fract_z
 _atom_site_occupancy
  Rb  Rb0  1  0.750000  0.691424  0.465977  1
  Rb  Rb1  1  0.250000  0.246441  0.003092  1
  Rb  Rb2  1  0.250000  0.308576  0.534023  1
  Rb  Rb3  1  0.750000  0.753559  0.996908  1
  Rb  Rb4  1  0.250000  0.771080  0.724234  1
  Rb  Rb5  1  0.750000  0.228920  0.275766  1
  Ta  Ta6  1  0.750000  0.297338  0.788047  1
  Ta  Ta7  1  0.250000  0.702662  0.211953  1
  S  S8  1  0.750000  0.053034  0.649709  1
  S  S9  1  0.250000  0.946966  0.350291  1
  O  O10  1  0.250000  0.810442  0.013818  1
  O  O11  1  0.750000  0.189558  0.986182  1
  O  O12  1  0.983371  0.451320  0.741959  1
  O  O13  1  0.016629  0.548680  0.258041  1
  O  O14  1  0.516629  0.451320  0.741959  1
  O  O15  1  0.483371  0.548680  0.258041  1
