# generated using pymatgen
data_SmEr2CuRh8
_symmetry_space_group_name_H-M   'P 1'
_cell_length_a   5.29878618
_cell_length_b   5.29889892
_cell_length_c   17.16960200
_cell_angle_alpha   90.00000000
_cell_angle_beta   90.00000000
_cell_angle_gamma   119.99955488
_symmetry_Int_Tables_number   1
_chemical_formula_structural   SmEr2CuRh8
_chemical_formula_sum   'Sm2 Er4 Cu2 Rh16'
_cell_volume   417.49842156
_cell_formula_units_Z   2
loop_
 _symmetry_equiv_pos_site_id
 _symmetry_equiv_pos_as_xyz
  1  'x, y, z'
loop_
 _atom_site_type_symbol
 _atom_site_label
 _atom_site_symmetry_multiplicity
 _atom_site_fract_x
 _atom_site_fract_y
 _atom_site_fract_z
 _atom_site_occupancy
  Sm  Sm0  1  0.333340  0.666682  0.750000  1
  Sm  Sm1  1  0.666660  0.333318  0.250000  1
  Er  Er2  1  0.333335  0.666664  0.958377  1
  Er  Er3  1  0.666665  0.333336  0.041623  1
  Er  Er4  1  0.666665  0.333336  0.458377  1
  Er  Er5  1  0.333335  0.666664  0.541623  1
  Cu  Cu6  1  0.333295  0.666631  0.250000  1
  Cu  Cu7  1  0.666705  0.333369  0.750000  1
  Rh  Rh8  1  0.168737  0.831254  0.375222  1
  Rh  Rh9  1  0.168736  0.337485  0.375220  1
  Rh  Rh10  1  0.662491  0.831252  0.375227  1
  Rh  Rh11  1  0.831263  0.168746  0.624778  1
  Rh  Rh12  1  0.831264  0.662515  0.624780  1
  Rh  Rh13  1  0.337509  0.168748  0.624773  1
  Rh  Rh14  1  0.831263  0.168746  0.875222  1
  Rh  Rh15  1  0.831264  0.662515  0.875220  1
  Rh  Rh16  1  0.337509  0.168748  0.875227  1
  Rh  Rh17  1  0.168737  0.831254  0.124778  1
  Rh  Rh18  1  0.168736  0.337485  0.124780  1
  Rh  Rh19  1  0.662491  0.831252  0.124773  1
  Rh  Rh20  1  0.999977  0.999969  0.250000  1
  Rh  Rh21  1  0.000023  0.000031  0.750000  1
  Rh  Rh22  1  0.000000  0.000000  0.500000  1
  Rh  Rh23  1  0.000000  0.000000  0.000000  1
