# generated using pymatgen
data_Pr3P6Rh8W
_symmetry_space_group_name_H-M   'P 1'
_cell_length_a   3.98802100
_cell_length_b   11.25852900
_cell_length_c   13.02102500
_cell_angle_alpha   90.00000000
_cell_angle_beta   90.00000000
_cell_angle_gamma   90.00000000
_symmetry_Int_Tables_number   1
_chemical_formula_structural   Pr3P6Rh8W
_chemical_formula_sum   'Pr6 P12 Rh16 W2'
_cell_volume   584.63425779
_cell_formula_units_Z   2
loop_
 _symmetry_equiv_pos_site_id
 _symmetry_equiv_pos_as_xyz
  1  'x, y, z'
loop_
 _atom_site_type_symbol
 _atom_site_label
 _atom_site_symmetry_multiplicity
 _atom_site_fract_x
 _atom_site_fract_y
 _atom_site_fract_z
 _atom_site_occupancy
  Pr  Pr0  1  0.000000  0.500000  0.520016  1
  Pr  Pr1  1  0.500000  0.000000  0.479984  1
  Pr  Pr2  1  0.500000  0.816771  0.203327  1
  Pr  Pr3  1  0.500000  0.183229  0.203327  1
  Pr  Pr4  1  0.000000  0.683229  0.796673  1
  Pr  Pr5  1  0.000000  0.316771  0.796673  1
  P  P6  1  0.500000  0.500000  0.878380  1
  P  P7  1  0.000000  0.000000  0.121620  1
  P  P8  1  0.500000  0.500000  0.340185  1
  P  P9  1  0.000000  0.000000  0.659815  1
  P  P10  1  0.500000  0.311643  0.615924  1
  P  P11  1  0.500000  0.688357  0.615924  1
  P  P12  1  0.000000  0.188357  0.384076  1
  P  P13  1  0.000000  0.811643  0.384076  1
  P  P14  1  0.500000  0.849564  0.889162  1
  P  P15  1  0.500000  0.150436  0.889162  1
  P  P16  1  0.000000  0.650436  0.110838  1
  P  P17  1  0.000000  0.349564  0.110838  1
  Rh  Rh18  1  0.500000  0.500000  0.699647  1
  Rh  Rh19  1  0.000000  0.000000  0.300353  1
  Rh  Rh20  1  0.000000  0.500000  0.989180  1
  Rh  Rh21  1  0.500000  0.000000  0.010820  1
  Rh  Rh22  1  0.500000  0.332094  0.986942  1
  Rh  Rh23  1  0.500000  0.667906  0.986942  1
  Rh  Rh24  1  0.000000  0.167906  0.013058  1
  Rh  Rh25  1  0.000000  0.832094  0.013058  1
  Rh  Rh26  1  0.500000  0.291910  0.430831  1
  Rh  Rh27  1  0.500000  0.708090  0.430831  1
  Rh  Rh28  1  0.000000  0.208090  0.569169  1
  Rh  Rh29  1  0.000000  0.791910  0.569169  1
  Rh  Rh30  1  0.500000  0.877430  0.709970  1
  Rh  Rh31  1  0.500000  0.122570  0.709970  1
  Rh  Rh32  1  0.000000  0.622570  0.290030  1
  Rh  Rh33  1  0.000000  0.377430  0.290030  1
  W  W34  1  0.500000  0.500000  0.155068  1
  W  W35  1  0.000000  0.000000  0.844932  1
