# generated using pymatgen
data_TbDy3(Si3Ni5)4
_symmetry_space_group_name_H-M   'P 1'
_cell_length_a   18.78986122
_cell_length_b   3.79893800
_cell_length_c   6.57100820
_cell_angle_alpha   90.00000000
_cell_angle_beta   89.90242684
_cell_angle_gamma   90.00000000
_symmetry_Int_Tables_number   1
_chemical_formula_structural   TbDy3(Si3Ni5)4
_chemical_formula_sum   'Tb1 Dy3 Si12 Ni20'
_cell_volume   469.04785883
_cell_formula_units_Z   1
loop_
 _symmetry_equiv_pos_site_id
 _symmetry_equiv_pos_as_xyz
  1  'x, y, z'
loop_
 _atom_site_type_symbol
 _atom_site_label
 _atom_site_symmetry_multiplicity
 _atom_site_fract_x
 _atom_site_fract_y
 _atom_site_fract_z
 _atom_site_occupancy
  Tb  Tb0  1  0.643869  0.250000  0.624643  1
  Dy  Dy1  1  0.143733  0.250000  0.876523  1
  Dy  Dy2  1  0.356120  0.750000  0.376156  1
  Dy  Dy3  1  0.856163  0.750000  0.123196  1
  Si  Si4  1  0.913716  0.250000  0.421409  1
  Si  Si5  1  0.413266  0.250000  0.077988  1
  Si  Si6  1  0.086284  0.750000  0.578278  1
  Si  Si7  1  0.586462  0.750000  0.923658  1
  Si  Si8  1  0.737184  0.250000  0.118501  1
  Si  Si9  1  0.237374  0.250000  0.380480  1
  Si  Si10  1  0.262625  0.750000  0.880459  1
  Si  Si11  1  0.763076  0.750000  0.618581  1
  Si  Si12  1  0.926264  0.250000  0.843331  1
  Si  Si13  1  0.425971  0.250000  0.656974  1
  Si  Si14  1  0.074068  0.750000  0.157056  1
  Si  Si15  1  0.573726  0.750000  0.343512  1
  Ni  Ni16  1  0.801173  0.250000  0.812967  1
  Ni  Ni17  1  0.300760  0.250000  0.686539  1
  Ni  Ni18  1  0.199134  0.750000  0.186230  1
  Ni  Ni19  1  0.699180  0.750000  0.312506  1
  Ni  Ni20  1  0.994666  0.250000  0.134719  1
  Ni  Ni21  1  0.494261  0.250000  0.365720  1
  Ni  Ni22  1  0.005686  0.750000  0.865569  1
  Ni  Ni23  1  0.505327  0.750000  0.635191  1
  Ni  Ni24  1  0.515914  0.250000  0.886859  1
  Ni  Ni25  1  0.016176  0.250000  0.613951  1
  Ni  Ni26  1  0.483542  0.750000  0.114704  1
  Ni  Ni27  1  0.983848  0.750000  0.385595  1
  Ni  Ni28  1  0.615703  0.250000  0.146481  1
  Ni  Ni29  1  0.115945  0.250000  0.354604  1
  Ni  Ni30  1  0.384036  0.750000  0.853967  1
  Ni  Ni31  1  0.884543  0.750000  0.645645  1
  Ni  Ni32  1  0.793095  0.250000  0.427673  1
  Ni  Ni33  1  0.292743  0.250000  0.071215  1
  Ni  Ni34  1  0.206942  0.750000  0.571109  1
  Ni  Ni35  1  0.707430  0.750000  0.928010  1
