# generated using pymatgen
data_Y5HoAl18(Si3Ru4)2
_symmetry_space_group_name_H-M   'P 1'
_cell_length_a   8.68668303
_cell_length_b   8.66401285
_cell_length_c   9.54500200
_cell_angle_alpha   90.00000000
_cell_angle_beta   90.00000000
_cell_angle_gamma   120.07757037
_symmetry_Int_Tables_number   1
_chemical_formula_structural   Y5HoAl18(Si3Ru4)2
_chemical_formula_sum   'Y5 Ho1 Al18 Si6 Ru8'
_cell_volume   621.64110016
_cell_formula_units_Z   1
loop_
 _symmetry_equiv_pos_site_id
 _symmetry_equiv_pos_as_xyz
  1  'x, y, z'
loop_
 _atom_site_type_symbol
 _atom_site_label
 _atom_site_symmetry_multiplicity
 _atom_site_fract_x
 _atom_site_fract_y
 _atom_site_fract_z
 _atom_site_occupancy
  Y  Y0  1  0.193043  0.386073  0.250000  1
  Y  Y1  1  0.807003  0.613819  0.750000  1
  Y  Y2  1  0.611033  0.808428  0.250000  1
  Y  Y3  1  0.389050  0.191535  0.750000  1
  Y  Y4  1  0.197415  0.808410  0.250000  1
  Ho  Ho5  1  0.802237  0.191748  0.750000  1
  Al  Al6  1  0.164772  0.329672  0.580044  1
  Al  Al7  1  0.835071  0.670253  0.420036  1
  Al  Al8  1  0.670240  0.834809  0.578497  1
  Al  Al9  1  0.835071  0.670253  0.079964  1
  Al  Al10  1  0.329843  0.165370  0.421583  1
  Al  Al11  1  0.164772  0.329672  0.919956  1
  Al  Al12  1  0.164506  0.834690  0.578425  1
  Al  Al13  1  0.329843  0.165370  0.078417  1
  Al  Al14  1  0.835484  0.165315  0.421709  1
  Al  Al15  1  0.670240  0.834809  0.921503  1
  Al  Al16  1  0.835484  0.165315  0.078291  1
  Al  Al17  1  0.164506  0.834690  0.921575  1
  Al  Al18  1  0.873368  0.433618  0.250000  1
  Al  Al19  1  0.126458  0.566158  0.750000  1
  Al  Al20  1  0.560213  0.433623  0.250000  1
  Al  Al21  1  0.439768  0.566385  0.750000  1
  Al  Al22  1  0.999413  0.998862  0.250000  1
  Al  Al23  1  0.000366  0.001341  0.750000  1
  Si  Si24  1  0.331991  0.663919  0.038769  1
  Si  Si25  1  0.668147  0.335897  0.961005  1
  Si  Si26  1  0.668147  0.335897  0.538995  1
  Si  Si27  1  0.331991  0.663919  0.461231  1
  Si  Si28  1  0.563130  0.126288  0.250000  1
  Si  Si29  1  0.437193  0.873958  0.750000  1
  Ru  Ru30  1  0.500136  0.000099  0.999864  1
  Ru  Ru31  1  0.999917  0.499875  0.999856  1
  Ru  Ru32  1  0.500136  0.000099  0.500136  1
  Ru  Ru33  1  0.500025  0.499984  0.999959  1
  Ru  Ru34  1  0.999917  0.499875  0.500144  1
  Ru  Ru35  1  0.500025  0.499984  0.500041  1
  Ru  Ru36  1  0.000023  0.999995  0.000021  1
  Ru  Ru37  1  0.000023  0.999995  0.499979  1
