# generated using pymatgen
data_Ac2Hg(AsRh2)6
_symmetry_space_group_name_H-M   'P 1'
_cell_length_a   10.12373800
_cell_length_b   10.12373862
_cell_length_c   4.03585300
_cell_angle_alpha   90.00000000
_cell_angle_beta   90.00000000
_cell_angle_gamma   119.99999799
_symmetry_Int_Tables_number   1
_chemical_formula_structural   Ac2Hg(AsRh2)6
_chemical_formula_sum   'Ac2 Hg1 As6 Rh12'
_cell_volume   358.21832646
_cell_formula_units_Z   1
loop_
 _symmetry_equiv_pos_site_id
 _symmetry_equiv_pos_as_xyz
  1  'x, y, z'
loop_
 _atom_site_type_symbol
 _atom_site_label
 _atom_site_symmetry_multiplicity
 _atom_site_fract_x
 _atom_site_fract_y
 _atom_site_fract_z
 _atom_site_occupancy
  Ac  Ac0  1  0.333333  0.666667  0.758373  1
  Ac  Ac1  1  0.666667  0.333333  0.244878  1
  Hg  Hg2  1  0.000000  0.000000  0.569003  1
  As  As3  1  0.889451  0.601596  0.745351  1
  As  As4  1  0.398404  0.287855  0.745351  1
  As  As5  1  0.712145  0.110549  0.745351  1
  As  As6  1  0.107905  0.395490  0.258348  1
  As  As7  1  0.604510  0.712415  0.258348  1
  As  As8  1  0.287585  0.892095  0.258348  1
  Rh  Rh9  1  0.617101  0.555402  0.749989  1
  Rh  Rh10  1  0.444598  0.061700  0.749989  1
  Rh  Rh11  1  0.938300  0.382899  0.749989  1
  Rh  Rh12  1  0.388608  0.447215  0.253954  1
  Rh  Rh13  1  0.552785  0.941393  0.253954  1
  Rh  Rh14  1  0.058607  0.611392  0.253954  1
  Rh  Rh15  1  0.130092  0.837312  0.763812  1
  Rh  Rh16  1  0.162688  0.292779  0.763812  1
  Rh  Rh17  1  0.707221  0.869908  0.763812  1
  Rh  Rh18  1  0.872026  0.151499  0.239221  1
  Rh  Rh19  1  0.848501  0.720527  0.239221  1
  Rh  Rh20  1  0.279473  0.127974  0.239221  1
