# generated using pymatgen
data_Sc4Zn2(OsRu)3
_symmetry_space_group_name_H-M   'P 1'
_cell_length_a   5.20975550
_cell_length_b   5.20975589
_cell_length_c   8.61639500
_cell_angle_alpha   90.00000000
_cell_angle_beta   90.00000000
_cell_angle_gamma   120.86224812
_symmetry_Int_Tables_number   1
_chemical_formula_structural   Sc4Zn2(OsRu)3
_chemical_formula_sum   'Sc4 Zn2 Os3 Ru3'
_cell_volume   200.74816696
_cell_formula_units_Z   1
loop_
 _symmetry_equiv_pos_site_id
 _symmetry_equiv_pos_as_xyz
  1  'x, y, z'
loop_
 _atom_site_type_symbol
 _atom_site_label
 _atom_site_symmetry_multiplicity
 _atom_site_fract_x
 _atom_site_fract_y
 _atom_site_fract_z
 _atom_site_occupancy
  Sc  Sc0  1  0.328502  0.671498  0.443674  1
  Sc  Sc1  1  0.665650  0.334350  0.570292  1
  Sc  Sc2  1  0.665650  0.334350  0.929708  1
  Sc  Sc3  1  0.328502  0.671498  0.056326  1
  Zn  Zn4  1  0.347510  0.163680  0.250000  1
  Zn  Zn5  1  0.836320  0.652490  0.250000  1
  Os  Os6  1  0.171470  0.337637  0.750000  1
  Os  Os7  1  0.173932  0.826068  0.750000  1
  Os  Os8  1  0.662363  0.828530  0.750000  1
  Ru  Ru9  1  0.991094  0.008906  0.002153  1
  Ru  Ru10  1  0.837911  0.162089  0.250000  1
  Ru  Ru11  1  0.991094  0.008906  0.497847  1
