# generated using pymatgen
data_PrTh3(Ga5Pt3)4
_symmetry_space_group_name_H-M   'P 1'
_cell_length_a   4.12495300
_cell_length_b   7.38504511
_cell_length_c   21.20117900
_cell_angle_alpha   89.92050014
_cell_angle_beta   90.00000000
_cell_angle_gamma   90.00000000
_symmetry_Int_Tables_number   1
_chemical_formula_structural   PrTh3(Ga5Pt3)4
_chemical_formula_sum   'Pr1 Th3 Ga20 Pt12'
_cell_volume   645.85013045
_cell_formula_units_Z   1
loop_
 _symmetry_equiv_pos_site_id
 _symmetry_equiv_pos_as_xyz
  1  'x, y, z'
loop_
 _atom_site_type_symbol
 _atom_site_label
 _atom_site_symmetry_multiplicity
 _atom_site_fract_x
 _atom_site_fract_y
 _atom_site_fract_z
 _atom_site_occupancy
  Pr  Pr0  1  0.750000  0.619570  0.857608  1
  Th  Th1  1  0.250000  0.117510  0.643201  1
  Th  Th2  1  0.750000  0.879885  0.356565  1
  Th  Th3  1  0.250000  0.381026  0.142921  1
  Ga  Ga4  1  0.750000  0.357771  0.381937  1
  Ga  Ga5  1  0.750000  0.879638  0.984775  1
  Ga  Ga6  1  0.750000  0.682147  0.201653  1
  Ga  Ga7  1  0.250000  0.869546  0.491672  1
  Ga  Ga8  1  0.250000  0.629194  0.989819  1
  Ga  Ga9  1  0.250000  0.320868  0.799595  1
  Ga  Ga10  1  0.750000  0.076118  0.206322  1
  Ga  Ga11  1  0.250000  0.643694  0.616914  1
  Ga  Ga12  1  0.250000  0.575427  0.293744  1
  Ga  Ga13  1  0.250000  0.182437  0.298413  1
  Ga  Ga14  1  0.750000  0.144904  0.881517  1
  Ga  Ga15  1  0.250000  0.922577  0.794555  1
  Ga  Ga16  1  0.750000  0.370408  0.008059  1
  Ga  Ga17  1  0.750000  0.620004  0.484823  1
  Ga  Ga18  1  0.750000  0.130570  0.507825  1
  Ga  Ga19  1  0.250000  0.117890  0.016472  1
  Ga  Ga20  1  0.250000  0.856879  0.118137  1
  Ga  Ga21  1  0.250000  0.379912  0.515169  1
  Ga  Ga22  1  0.750000  0.425047  0.706508  1
  Ga  Ga23  1  0.750000  0.817912  0.700947  1
  Pt  Pt24  1  0.750000  0.381052  0.261240  1
  Pt  Pt25  1  0.250000  0.881016  0.239099  1
  Pt  Pt26  1  0.250000  0.619995  0.736738  1
  Pt  Pt27  1  0.750000  0.118648  0.760612  1
  Pt  Pt28  1  0.250000  0.155958  0.422524  1
  Pt  Pt29  1  0.750000  0.419724  0.585936  1
  Pt  Pt30  1  0.750000  0.080926  0.085894  1
  Pt  Pt31  1  0.250000  0.924820  0.915387  1
  Pt  Pt32  1  0.750000  0.844445  0.577179  1
  Pt  Pt33  1  0.250000  0.336726  0.924483  1
  Pt  Pt34  1  0.750000  0.656075  0.077420  1
  Pt  Pt35  1  0.250000  0.579683  0.414337  1
