# generated using pymatgen
data_Ho3Tl2
_symmetry_space_group_name_H-M   'P 1'
_cell_length_a   11.60216068
_cell_length_b   11.60216059
_cell_length_c   11.60216100
_cell_angle_alpha   116.85837554
_cell_angle_beta   116.85837530
_cell_angle_gamma   95.53343735
_symmetry_Int_Tables_number   1
_chemical_formula_structural   Ho3Tl2
_chemical_formula_sum   'Ho24 Tl16'
_cell_volume   1150.96707692
_cell_formula_units_Z   8
loop_
 _symmetry_equiv_pos_site_id
 _symmetry_equiv_pos_as_xyz
  1  'x, y, z'
loop_
 _atom_site_type_symbol
 _atom_site_label
 _atom_site_symmetry_multiplicity
 _atom_site_fract_x
 _atom_site_fract_y
 _atom_site_fract_z
 _atom_site_occupancy
  Ho  Ho0  1  0.147290  0.647290  0.500000  1
  Ho  Ho1  1  0.647290  0.147290  0.500000  1
  Ho  Ho2  1  0.852710  0.352710  0.500000  1
  Ho  Ho3  1  0.352710  0.852710  0.500000  1
  Ho  Ho4  1  0.668935  0.168935  0.837869  1
  Ho  Ho5  1  0.331065  0.831065  0.162131  1
  Ho  Ho6  1  0.168935  0.331065  0.500000  1
  Ho  Ho7  1  0.831065  0.668935  0.500000  1
  Ho  Ho8  1  0.068255  0.931361  0.271352  1
  Ho  Ho9  1  0.660008  0.796902  0.728648  1
  Ho  Ho10  1  0.568255  0.296902  0.136894  1
  Ho  Ho11  1  0.160008  0.431361  0.863106  1
  Ho  Ho12  1  0.796902  0.068255  0.136894  1
  Ho  Ho13  1  0.931361  0.660008  0.863106  1
  Ho  Ho14  1  0.431361  0.568255  0.271352  1
  Ho  Ho15  1  0.296902  0.160008  0.728648  1
  Ho  Ho16  1  0.931745  0.068639  0.728648  1
  Ho  Ho17  1  0.339992  0.203098  0.271352  1
  Ho  Ho18  1  0.431745  0.703098  0.863106  1
  Ho  Ho19  1  0.839992  0.568639  0.136894  1
  Ho  Ho20  1  0.203098  0.931745  0.863106  1
  Ho  Ho21  1  0.068639  0.339992  0.136894  1
  Ho  Ho22  1  0.568639  0.431745  0.728648  1
  Ho  Ho23  1  0.703098  0.839992  0.271352  1
  Tl  Tl24  1  0.750000  0.750000  0.000000  1
  Tl  Tl25  1  0.250000  0.250000  0.000000  1
  Tl  Tl26  1  0.000000  0.000000  0.000000  1
  Tl  Tl27  1  0.500000  0.500000  0.000000  1
  Tl  Tl28  1  0.118031  0.618031  0.736061  1
  Tl  Tl29  1  0.881969  0.381969  0.263939  1
  Tl  Tl30  1  0.618031  0.881969  0.500000  1
  Tl  Tl31  1  0.381969  0.118031  0.500000  1
  Tl  Tl32  1  0.871904  0.371904  0.846604  1
  Tl  Tl33  1  0.525299  0.025299  0.153396  1
  Tl  Tl34  1  0.371904  0.525299  0.500000  1
  Tl  Tl35  1  0.025299  0.871904  0.500000  1
  Tl  Tl36  1  0.128096  0.628096  0.153396  1
  Tl  Tl37  1  0.474701  0.974701  0.846604  1
  Tl  Tl38  1  0.628096  0.474701  0.500000  1
  Tl  Tl39  1  0.974701  0.128096  0.500000  1
