# generated using pymatgen
data_Tb8NbSi16Mo11
_symmetry_space_group_name_H-M   'P 1'
_cell_length_a   6.81106500
_cell_length_b   6.98554185
_cell_length_c   12.99302600
_cell_angle_alpha   90.00000000
_cell_angle_beta   90.00000000
_cell_angle_gamma   90.11679671
_symmetry_Int_Tables_number   1
_chemical_formula_structural   Tb8NbSi16Mo11
_chemical_formula_sum   'Tb8 Nb1 Si16 Mo11'
_cell_volume   618.19363459
_cell_formula_units_Z   1
loop_
 _symmetry_equiv_pos_site_id
 _symmetry_equiv_pos_as_xyz
  1  'x, y, z'
loop_
 _atom_site_type_symbol
 _atom_site_label
 _atom_site_symmetry_multiplicity
 _atom_site_fract_x
 _atom_site_fract_y
 _atom_site_fract_z
 _atom_site_occupancy
  Tb  Tb0  1  0.498305  0.332439  0.093974  1
  Tb  Tb1  1  0.995823  0.168170  0.406057  1
  Tb  Tb2  1  0.503960  0.666795  0.594481  1
  Tb  Tb3  1  0.004203  0.833876  0.905832  1
  Tb  Tb4  1  0.503960  0.666795  0.905519  1
  Tb  Tb5  1  0.004203  0.833876  0.594168  1
  Tb  Tb6  1  0.498305  0.332439  0.406026  1
  Tb  Tb7  1  0.995823  0.168170  0.093943  1
  Nb  Nb8  1  0.836171  0.505524  0.250000  1
  Si  Si9  1  0.806434  0.628687  0.750000  1
  Si  Si10  1  0.305093  0.872010  0.750000  1
  Si  Si11  1  0.201031  0.369128  0.250000  1
  Si  Si12  1  0.694544  0.123779  0.250000  1
  Si  Si13  1  0.534670  0.364525  0.750000  1
  Si  Si14  1  0.036632  0.136605  0.750000  1
  Si  Si15  1  0.459575  0.636107  0.250000  1
  Si  Si16  1  0.965718  0.870868  0.250000  1
  Si  Si17  1  0.658962  0.042882  0.547746  1
  Si  Si18  1  0.159457  0.455968  0.952285  1
  Si  Si19  1  0.339602  0.956401  0.047628  1
  Si  Si20  1  0.839763  0.543880  0.456358  1
  Si  Si21  1  0.339602  0.956401  0.452372  1
  Si  Si22  1  0.839763  0.543880  0.043642  1
  Si  Si23  1  0.658962  0.042882  0.952254  1
  Si  Si24  1  0.159457  0.455968  0.547715  1
  Mo  Mo25  1  0.667467  0.999648  0.750000  1
  Mo  Mo26  1  0.166176  0.499863  0.750000  1
  Mo  Mo27  1  0.332026  0.998614  0.250000  1
  Mo  Mo28  1  0.830371  0.336398  0.626796  1
  Mo  Mo29  1  0.331966  0.164062  0.874208  1
  Mo  Mo30  1  0.167462  0.662877  0.125030  1
  Mo  Mo31  1  0.667354  0.833574  0.375089  1
  Mo  Mo32  1  0.167462  0.662877  0.374970  1
  Mo  Mo33  1  0.667354  0.833574  0.124911  1
  Mo  Mo34  1  0.830371  0.336398  0.873204  1
  Mo  Mo35  1  0.331966  0.164062  0.625792  1
