# generated using pymatgen
data_Ba6CaMn2Ni2O15
_symmetry_space_group_name_H-M   'P 1'
_cell_length_a   7.32004313
_cell_length_b   7.32240861
_cell_length_c   7.30677870
_cell_angle_alpha   87.71429157
_cell_angle_beta   87.72519607
_cell_angle_gamma   87.60206674
_symmetry_Int_Tables_number   1
_chemical_formula_structural   Ba6CaMn2Ni2O15
_chemical_formula_sum   'Ba6 Ca1 Mn2 Ni2 O15'
_cell_volume   390.70789527
_cell_formula_units_Z   1
loop_
 _symmetry_equiv_pos_site_id
 _symmetry_equiv_pos_as_xyz
  1  'x, y, z'
loop_
 _atom_site_type_symbol
 _atom_site_label
 _atom_site_symmetry_multiplicity
 _atom_site_fract_x
 _atom_site_fract_y
 _atom_site_fract_z
 _atom_site_occupancy
  Ba  Ba0  1  0.331267  0.668736  0.000023  1
  Ba  Ba1  1  0.000001  0.331452  0.668732  1
  Ba  Ba2  1  0.668688  0.000013  0.331307  1
  Ba  Ba3  1  0.143706  0.856331  0.499994  1
  Ba  Ba4  1  0.500054  0.143833  0.856335  1
  Ba  Ba5  1  0.856267  0.500010  0.143780  1
  Ca  Ca6  1  0.499966  0.500078  0.500082  1
  Mn  Mn7  1  0.286982  0.286987  0.286896  1
  Mn  Mn8  1  0.713136  0.713136  0.713250  1
  Ni  Ni9  1  0.092730  0.092743  0.092746  1
  Ni  Ni10  1  0.907357  0.907163  0.907137  1
  O  O11  1  0.141654  0.999663  0.857850  1
  O  O12  1  0.858190  0.141506  0.999736  1
  O  O13  1  0.000232  0.858258  0.141758  1
  O  O14  1  0.030452  0.188882  0.325775  1
  O  O15  1  0.325795  0.030458  0.188711  1
  O  O16  1  0.188596  0.325620  0.030178  1
  O  O17  1  0.811092  0.969375  0.674017  1
  O  O18  1  0.674371  0.811282  0.969771  1
  O  O19  1  0.969768  0.673956  0.811184  1
  O  O20  1  0.358572  0.218048  0.526571  1
  O  O21  1  0.526288  0.358389  0.217820  1
  O  O22  1  0.217705  0.526404  0.358520  1
  O  O23  1  0.782031  0.641546  0.473582  1
  O  O24  1  0.473492  0.782319  0.641706  1
  O  O25  1  0.641607  0.473814  0.782539  1
