# generated using pymatgen
data_BaBHO3
_symmetry_space_group_name_H-M   'P 1'
_cell_length_a   3.96669452
_cell_length_b   5.64583306
_cell_length_c   7.73509576
_cell_angle_alpha   108.52187468
_cell_angle_beta   103.40342267
_cell_angle_gamma   91.20799224
_symmetry_Int_Tables_number   1
_chemical_formula_structural   BaBHO3
_chemical_formula_sum   'Ba2 B2 H2 O6'
_cell_volume   158.93814025
_cell_formula_units_Z   2
loop_
 _symmetry_equiv_pos_site_id
 _symmetry_equiv_pos_as_xyz
  1  'x, y, z'
loop_
 _atom_site_type_symbol
 _atom_site_label
 _atom_site_symmetry_multiplicity
 _atom_site_fract_x
 _atom_site_fract_y
 _atom_site_fract_z
 _atom_site_occupancy
  Ba  Ba0  1  0.270625  0.168370  0.315849  1
  Ba  Ba1  1  0.729375  0.831629  0.684151  1
  B  B2  1  0.862220  0.619629  0.240853  1
  B  B3  1  0.137781  0.380371  0.759147  1
  H  H4  1  0.537707  0.714234  0.025262  1
  H  H5  1  0.462293  0.285766  0.974738  1
  O  O6  1  0.721090  0.796811  0.153213  1
  O  O7  1  0.723809  0.373218  0.166487  1
  O  O8  1  0.131556  0.712002  0.400461  1
  O  O9  1  0.868444  0.287997  0.599538  1
  O  O10  1  0.276192  0.626782  0.833512  1
  O  O11  1  0.278909  0.203190  0.846788  1
