# generated using pymatgen
data_ErPSe
_symmetry_space_group_name_H-M   'P 1'
_cell_length_a   5.40960200
_cell_length_b   5.47526100
_cell_length_c   17.13075500
_cell_angle_alpha   90.00000000
_cell_angle_beta   90.00000000
_cell_angle_gamma   90.00000000
_symmetry_Int_Tables_number   1
_chemical_formula_structural   ErPSe
_chemical_formula_sum   'Er8 P8 Se8'
_cell_volume   507.39553866
_cell_formula_units_Z   8
loop_
 _symmetry_equiv_pos_site_id
 _symmetry_equiv_pos_as_xyz
  1  'x, y, z'
loop_
 _atom_site_type_symbol
 _atom_site_label
 _atom_site_symmetry_multiplicity
 _atom_site_fract_x
 _atom_site_fract_y
 _atom_site_fract_z
 _atom_site_occupancy
  Er  Er0  1  0.750000  0.016058  0.359902  1
  Er  Er1  1  0.250000  0.483942  0.859902  1
  Er  Er2  1  0.750000  0.516058  0.140098  1
  Er  Er3  1  0.250000  0.983942  0.640098  1
  Er  Er4  1  0.750000  0.482578  0.630355  1
  Er  Er5  1  0.250000  0.017422  0.130355  1
  Er  Er6  1  0.750000  0.982578  0.869645  1
  Er  Er7  1  0.250000  0.517422  0.369645  1
  P  P8  1  0.538100  0.297390  0.003156  1
  P  P9  1  0.461900  0.202610  0.503156  1
  P  P10  1  0.961900  0.797390  0.496844  1
  P  P11  1  0.038100  0.702610  0.996844  1
  P  P12  1  0.461900  0.702610  0.996844  1
  P  P13  1  0.538100  0.797390  0.496844  1
  P  P14  1  0.038100  0.202610  0.503156  1
  P  P15  1  0.961900  0.297390  0.003156  1
  Se  Se16  1  0.750000  0.012940  0.184024  1
  Se  Se17  1  0.250000  0.487060  0.684024  1
  Se  Se18  1  0.750000  0.512940  0.315976  1
  Se  Se19  1  0.250000  0.987060  0.815976  1
  Se  Se20  1  0.750000  0.483454  0.809417  1
  Se  Se21  1  0.250000  0.016546  0.309417  1
  Se  Se22  1  0.750000  0.983454  0.690583  1
  Se  Se23  1  0.250000  0.516546  0.190583  1
