# generated using pymatgen
data_Sr3H12RuPt
_symmetry_space_group_name_H-M   'P 1'
_cell_length_a   5.19793700
_cell_length_b   5.19793769
_cell_length_c   8.51729700
_cell_angle_alpha   90.00000000
_cell_angle_beta   90.00000000
_cell_angle_gamma   120.00000196
_symmetry_Int_Tables_number   1
_chemical_formula_structural   Sr3H12RuPt
_chemical_formula_sum   'Sr3 H12 Ru1 Pt1'
_cell_volume   199.29412456
_cell_formula_units_Z   1
loop_
 _symmetry_equiv_pos_site_id
 _symmetry_equiv_pos_as_xyz
  1  'x, y, z'
loop_
 _atom_site_type_symbol
 _atom_site_label
 _atom_site_symmetry_multiplicity
 _atom_site_fract_x
 _atom_site_fract_y
 _atom_site_fract_z
 _atom_site_occupancy
  Sr  Sr0  1  0.000000  0.000000  0.928120  1
  Sr  Sr1  1  0.666667  0.333333  0.380873  1
  Sr  Sr2  1  0.333333  0.666667  0.651530  1
  H  H3  1  0.178654  0.821346  0.360886  1
  H  H4  1  0.642691  0.821346  0.360886  1
  H  H5  1  0.178654  0.357309  0.360886  1
  H  H6  1  0.825184  0.174816  0.640568  1
  H  H7  1  0.349635  0.174816  0.640568  1
  H  H8  1  0.825184  0.650365  0.640568  1
  H  H9  1  0.514162  0.028321  0.875273  1
  H  H10  1  0.514162  0.485838  0.875273  1
  H  H11  1  0.971679  0.485838  0.875273  1
  H  H12  1  0.476234  0.952468  0.133762  1
  H  H13  1  0.476234  0.523766  0.133762  1
  H  H14  1  0.047532  0.523766  0.133762  1
  Ru  Ru15  1  0.666667  0.333333  0.756015  1
  Pt  Pt16  1  0.333333  0.666667  0.251991  1
