# generated using pymatgen
data_Tm3CoSn3Rh2
_symmetry_space_group_name_H-M   'P 1'
_cell_length_a   7.60178100
_cell_length_b   7.60178172
_cell_length_c   3.62159600
_cell_angle_alpha   90.00000000
_cell_angle_beta   90.00000000
_cell_angle_gamma   120.00000123
_symmetry_Int_Tables_number   1
_chemical_formula_structural   Tm3CoSn3Rh2
_chemical_formula_sum   'Tm3 Co1 Sn3 Rh2'
_cell_volume   181.24305619
_cell_formula_units_Z   1
loop_
 _symmetry_equiv_pos_site_id
 _symmetry_equiv_pos_as_xyz
  1  'x, y, z'
loop_
 _atom_site_type_symbol
 _atom_site_label
 _atom_site_symmetry_multiplicity
 _atom_site_fract_x
 _atom_site_fract_y
 _atom_site_fract_z
 _atom_site_occupancy
  Tm  Tm0  1  0.000000  0.402443  0.000000  1
  Tm  Tm1  1  0.597557  0.597557  0.000000  1
  Tm  Tm2  1  0.402443  0.000000  0.000000  1
  Co  Co3  1  0.000000  0.000000  0.000000  1
  Sn  Sn4  1  0.257961  0.257961  0.500000  1
  Sn  Sn5  1  0.000000  0.742039  0.500000  1
  Sn  Sn6  1  0.742039  0.000000  0.500000  1
  Rh  Rh7  1  0.666667  0.333333  0.500000  1
  Rh  Rh8  1  0.333333  0.666667  0.500000  1
