# generated using pymatgen
data_YTa5TiSn6
_symmetry_space_group_name_H-M   'P 1'
_cell_length_a   5.76894910
_cell_length_b   5.75220108
_cell_length_c   9.67533300
_cell_angle_alpha   90.00000000
_cell_angle_beta   90.00000000
_cell_angle_gamma   119.90400490
_symmetry_Int_Tables_number   1
_chemical_formula_structural   YTa5TiSn6
_chemical_formula_sum   'Y1 Ta5 Ti1 Sn6'
_cell_volume   278.32140280
_cell_formula_units_Z   1
loop_
 _symmetry_equiv_pos_site_id
 _symmetry_equiv_pos_as_xyz
  1  'x, y, z'
loop_
 _atom_site_type_symbol
 _atom_site_label
 _atom_site_symmetry_multiplicity
 _atom_site_fract_x
 _atom_site_fract_y
 _atom_site_fract_z
 _atom_site_occupancy
  Y  Y0  1  0.000000  0.000000  0.998306  1
  Ta  Ta1  1  0.500000  0.000000  0.751089  1
  Ta  Ta2  1  0.500000  0.000000  0.249913  1
  Ta  Ta3  1  0.500000  0.500000  0.249913  1
  Ta  Ta4  1  0.500000  0.500000  0.751089  1
  Ta  Ta5  1  0.000000  0.500000  0.750023  1
  Ti  Ti6  1  0.000000  0.500000  0.249729  1
  Sn  Sn7  1  0.331573  0.665787  0.499692  1
  Sn  Sn8  1  0.668427  0.334213  0.499692  1
  Sn  Sn9  1  0.331465  0.665733  0.001655  1
  Sn  Sn10  1  0.668535  0.334267  0.001655  1
  Sn  Sn11  1  0.000000  0.000000  0.321677  1
  Sn  Sn12  1  0.000000  0.000000  0.675567  1
