# generated using pymatgen
data_Ti9Rh11
_symmetry_space_group_name_H-M   'P 1'
_cell_length_a   6.80297691
_cell_length_b   7.44934535
_cell_length_c   7.44934526
_cell_angle_alpha   77.96564883
_cell_angle_beta   62.83105552
_cell_angle_gamma   62.83104920
_symmetry_Int_Tables_number   1
_chemical_formula_structural   Ti9Rh11
_chemical_formula_sum   'Ti9 Rh11'
_cell_volume   298.80455800
_cell_formula_units_Z   1
loop_
 _symmetry_equiv_pos_site_id
 _symmetry_equiv_pos_as_xyz
  1  'x, y, z'
loop_
 _atom_site_type_symbol
 _atom_site_label
 _atom_site_symmetry_multiplicity
 _atom_site_fract_x
 _atom_site_fract_y
 _atom_site_fract_z
 _atom_site_occupancy
  Ti  Ti0  1  0.000000  0.000000  0.000000  1
  Ti  Ti1  1  0.685807  0.411564  0.216824  1
  Ti  Ti2  1  0.314193  0.588436  0.783176  1
  Ti  Ti3  1  0.097369  0.216824  0.588436  1
  Ti  Ti4  1  0.902631  0.783176  0.411564  1
  Ti  Ti5  1  0.760799  0.649932  0.828470  1
  Ti  Ti6  1  0.239201  0.350068  0.171530  1
  Ti  Ti7  1  0.410731  0.828470  0.350068  1
  Ti  Ti8  1  0.589269  0.171530  0.649932  1
  Rh  Rh9  1  0.500000  0.000000  0.000000  1
  Rh  Rh10  1  0.250000  0.500000  0.500000  1
  Rh  Rh11  1  0.750000  0.500000  0.500000  1
  Rh  Rh12  1  0.676527  0.310649  0.896457  1
  Rh  Rh13  1  0.883634  0.689351  0.103543  1
  Rh  Rh14  1  0.987177  0.896457  0.689351  1
  Rh  Rh15  1  0.572985  0.103543  0.310649  1
  Rh  Rh16  1  0.323473  0.689351  0.103543  1
  Rh  Rh17  1  0.116366  0.310649  0.896457  1
  Rh  Rh18  1  0.012823  0.103543  0.310649  1
  Rh  Rh19  1  0.427015  0.896457  0.689351  1
