# generated using pymatgen
data_Sm4Co11Si6(P2Ru3)3
_symmetry_space_group_name_H-M   'P 1'
_cell_length_a   3.79538700
_cell_length_b   10.74048111
_cell_length_c   12.11473814
_cell_angle_alpha   90.05572146
_cell_angle_beta   90.00000000
_cell_angle_gamma   90.00000000
_symmetry_Int_Tables_number   1
_chemical_formula_structural   Sm4Co11Si6(P2Ru3)3
_chemical_formula_sum   'Sm4 Co11 Si6 P6 Ru9'
_cell_volume   493.84837326
_cell_formula_units_Z   1
loop_
 _symmetry_equiv_pos_site_id
 _symmetry_equiv_pos_as_xyz
  1  'x, y, z'
loop_
 _atom_site_type_symbol
 _atom_site_label
 _atom_site_symmetry_multiplicity
 _atom_site_fract_x
 _atom_site_fract_y
 _atom_site_fract_z
 _atom_site_occupancy
  Sm  Sm0  1  0.250000  0.584863  0.706848  1
  Sm  Sm1  1  0.250000  0.914729  0.207344  1
  Sm  Sm2  1  0.750000  0.415288  0.294261  1
  Sm  Sm3  1  0.750000  0.087027  0.792244  1
  Co  Co4  1  0.250000  0.274620  0.678301  1
  Co  Co5  1  0.750000  0.782121  0.821526  1
  Co  Co6  1  0.750000  0.717879  0.321582  1
  Co  Co7  1  0.250000  0.887472  0.699561  1
  Co  Co8  1  0.250000  0.613131  0.199602  1
  Co  Co9  1  0.750000  0.115200  0.308716  1
  Co  Co10  1  0.750000  0.381514  0.803447  1
  Co  Co11  1  0.250000  0.463402  0.933707  1
  Co  Co12  1  0.250000  0.036343  0.438217  1
  Co  Co13  1  0.750000  0.530462  0.068109  1
  Co  Co14  1  0.750000  0.969471  0.570291  1
  Si  Si15  1  0.750000  0.582048  0.889702  1
  Si  Si16  1  0.750000  0.917467  0.391562  1
  Si  Si17  1  0.750000  0.724881  0.129922  1
  Si  Si18  1  0.750000  0.775162  0.630625  1
  Si  Si19  1  0.750000  0.395239  0.612343  1
  Si  Si20  1  0.750000  0.104626  0.109736  1
  P  P21  1  0.250000  0.425577  0.110155  1
  P  P22  1  0.250000  0.078246  0.613134  1
  P  P23  1  0.250000  0.277022  0.864918  1
  P  P24  1  0.250000  0.223396  0.371927  1
  P  P25  1  0.250000  0.605778  0.388478  1
  P  P26  1  0.250000  0.893561  0.887008  1
  Ru  Ru27  1  0.250000  0.701460  0.983524  1
  Ru  Ru28  1  0.250000  0.798195  0.484184  1
  Ru  Ru29  1  0.750000  0.298954  0.010005  1
  Ru  Ru30  1  0.750000  0.200655  0.517302  1
  Ru  Ru31  1  0.250000  0.401812  0.487596  1
  Ru  Ru32  1  0.250000  0.097181  0.981648  1
  Ru  Ru33  1  0.750000  0.595541  0.506664  1
  Ru  Ru34  1  0.750000  0.904525  0.006224  1
  Ru  Ru35  1  0.250000  0.225151  0.179588  1
