# generated using pymatgen
data_HoEr4Lu5Pb6
_symmetry_space_group_name_H-M   'P 1'
_cell_length_a   6.49705901
_cell_length_b   8.95088080
_cell_length_c   8.95440955
_cell_angle_alpha   120.01080416
_cell_angle_beta   90.00560513
_cell_angle_gamma   90.00317171
_symmetry_Int_Tables_number   1
_chemical_formula_structural   HoEr4Lu5Pb6
_chemical_formula_sum   'Ho1 Er4 Lu5 Pb6'
_cell_volume   450.92350409
_cell_formula_units_Z   1
loop_
 _symmetry_equiv_pos_site_id
 _symmetry_equiv_pos_as_xyz
  1  'x, y, z'
loop_
 _atom_site_type_symbol
 _atom_site_label
 _atom_site_symmetry_multiplicity
 _atom_site_fract_x
 _atom_site_fract_y
 _atom_site_fract_z
 _atom_site_occupancy
  Ho  Ho0  1  0.249987  0.236913  0.236787  1
  Er  Er1  1  0.750025  0.236774  0.999830  1
  Er  Er2  1  0.750006  0.763019  0.762747  1
  Er  Er3  1  0.750007  0.000096  0.237443  1
  Er  Er4  1  0.250037  0.762971  0.999803  1
  Lu  Lu5  1  0.249984  0.999922  0.763026  1
  Lu  Lu6  1  0.499831  0.333378  0.666802  1
  Lu  Lu7  1  0.499849  0.666703  0.333348  1
  Lu  Lu8  1  0.000148  0.666735  0.333328  1
  Lu  Lu9  1  0.000168  0.333433  0.666818  1
  Pb  Pb10  1  0.750001  0.604461  0.999968  1
  Pb  Pb11  1  0.750014  0.395666  0.395687  1
  Pb  Pb12  1  0.750017  0.999957  0.604278  1
  Pb  Pb13  1  0.249983  0.394207  0.999507  1
  Pb  Pb14  1  0.249961  0.605411  0.604598  1
  Pb  Pb15  1  0.249982  0.000355  0.396033  1
