# generated using pymatgen
data_DySc2Al8(SiOs)4
_symmetry_space_group_name_H-M   'P 1'
_cell_length_a   8.60494113
_cell_length_b   8.60494112
_cell_length_c   9.35393300
_cell_angle_alpha   90.00000000
_cell_angle_beta   90.00000000
_cell_angle_gamma   120.08970699
_symmetry_Int_Tables_number   1
_chemical_formula_structural   DySc2Al8(SiOs)4
_chemical_formula_sum   'Dy2 Sc4 Al16 Si8 Os8'
_cell_volume   599.27671561
_cell_formula_units_Z   2
loop_
 _symmetry_equiv_pos_site_id
 _symmetry_equiv_pos_as_xyz
  1  'x, y, z'
loop_
 _atom_site_type_symbol
 _atom_site_label
 _atom_site_symmetry_multiplicity
 _atom_site_fract_x
 _atom_site_fract_y
 _atom_site_fract_z
 _atom_site_occupancy
  Dy  Dy0  1  0.191650  0.808350  0.250000  1
  Dy  Dy1  1  0.808350  0.191650  0.750000  1
  Sc  Sc2  1  0.194688  0.392754  0.250000  1
  Sc  Sc3  1  0.805312  0.607246  0.750000  1
  Sc  Sc4  1  0.607246  0.805312  0.250000  1
  Sc  Sc5  1  0.392754  0.194688  0.750000  1
  Al  Al6  1  0.166925  0.329468  0.577639  1
  Al  Al7  1  0.833075  0.670532  0.422361  1
  Al  Al8  1  0.670532  0.833075  0.577639  1
  Al  Al9  1  0.833075  0.670532  0.077639  1
  Al  Al10  1  0.329468  0.166925  0.422361  1
  Al  Al11  1  0.166925  0.329468  0.922361  1
  Al  Al12  1  0.164235  0.835765  0.580948  1
  Al  Al13  1  0.329468  0.166925  0.077639  1
  Al  Al14  1  0.835765  0.164235  0.419052  1
  Al  Al15  1  0.670532  0.833075  0.922361  1
  Al  Al16  1  0.835765  0.164235  0.080948  1
  Al  Al17  1  0.164235  0.835765  0.919052  1
  Al  Al18  1  0.562231  0.437769  0.250000  1
  Al  Al19  1  0.437769  0.562231  0.750000  1
  Al  Al20  1  0.993943  0.006057  0.250000  1
  Al  Al21  1  0.006057  0.993943  0.750000  1
  Si  Si22  1  0.335784  0.664216  0.046834  1
  Si  Si23  1  0.664216  0.335784  0.953166  1
  Si  Si24  1  0.664216  0.335784  0.546834  1
  Si  Si25  1  0.335784  0.664216  0.453166  1
  Si  Si26  1  0.565433  0.124491  0.250000  1
  Si  Si27  1  0.434567  0.875509  0.750000  1
  Si  Si28  1  0.875509  0.434567  0.250000  1
  Si  Si29  1  0.124491  0.565433  0.750000  1
  Os  Os30  1  0.500000  0.000000  0.000000  1
  Os  Os31  1  0.000000  0.500000  0.000000  1
  Os  Os32  1  0.500000  0.000000  0.500000  1
  Os  Os33  1  0.500000  0.500000  0.000000  1
  Os  Os34  1  0.000000  0.500000  0.500000  1
  Os  Os35  1  0.500000  0.500000  0.500000  1
  Os  Os36  1  0.000000  0.000000  0.000000  1
  Os  Os37  1  0.000000  0.000000  0.500000  1
