# generated using pymatgen
data_Li3Dy3SnPb2
_symmetry_space_group_name_H-M   'P 1'
_cell_length_a   7.36239100
_cell_length_b   7.36239193
_cell_length_c   4.65416700
_cell_angle_alpha   90.00000000
_cell_angle_beta   90.00000000
_cell_angle_gamma   119.99999133
_symmetry_Int_Tables_number   1
_chemical_formula_structural   Li3Dy3SnPb2
_chemical_formula_sum   'Li3 Dy3 Sn1 Pb2'
_cell_volume   218.47937421
_cell_formula_units_Z   1
loop_
 _symmetry_equiv_pos_site_id
 _symmetry_equiv_pos_as_xyz
  1  'x, y, z'
loop_
 _atom_site_type_symbol
 _atom_site_label
 _atom_site_symmetry_multiplicity
 _atom_site_fract_x
 _atom_site_fract_y
 _atom_site_fract_z
 _atom_site_occupancy
  Li  Li0  1  0.762723  0.770084  0.500000  1
  Li  Li1  1  0.229916  0.992639  0.500000  1
  Li  Li2  1  0.007361  0.237277  0.500000  1
  Dy  Dy3  1  0.438536  0.440688  0.000000  1
  Dy  Dy4  1  0.559312  0.997848  0.000000  1
  Dy  Dy5  1  0.002152  0.561464  0.000000  1
  Sn  Sn6  1  0.333333  0.666667  0.500000  1
  Pb  Pb7  1  0.000000  0.000000  0.000000  1
  Pb  Pb8  1  0.666667  0.333333  0.500000  1
