# generated using pymatgen
data_Ca6ReTeO12
_symmetry_space_group_name_H-M   'P 1'
_cell_length_a   6.59494648
_cell_length_b   6.59494568
_cell_length_c   6.59494700
_cell_angle_alpha   91.85617588
_cell_angle_beta   91.85617566
_cell_angle_gamma   91.85618526
_symmetry_Int_Tables_number   1
_chemical_formula_structural   Ca6ReTeO12
_chemical_formula_sum   'Ca6 Re1 Te1 O12'
_cell_volume   286.37457408
_cell_formula_units_Z   1
loop_
 _symmetry_equiv_pos_site_id
 _symmetry_equiv_pos_as_xyz
  1  'x, y, z'
loop_
 _atom_site_type_symbol
 _atom_site_label
 _atom_site_symmetry_multiplicity
 _atom_site_fract_x
 _atom_site_fract_y
 _atom_site_fract_z
 _atom_site_occupancy
  Ca  Ca0  1  0.931396  0.437330  0.744918  1
  Ca  Ca1  1  0.744918  0.931396  0.437330  1
  Ca  Ca2  1  0.562670  0.255082  0.068604  1
  Ca  Ca3  1  0.437330  0.744918  0.931396  1
  Ca  Ca4  1  0.255082  0.068604  0.562670  1
  Ca  Ca5  1  0.068604  0.562670  0.255082  1
  Re  Re6  1  0.500000  0.500000  0.500000  1
  Te  Te7  1  0.000000  0.000000  0.000000  1
  O  O8  1  0.938233  0.283619  0.068001  1
  O  O9  1  0.931999  0.061767  0.716381  1
  O  O10  1  0.781730  0.577987  0.452459  1
  O  O11  1  0.716381  0.931999  0.061767  1
  O  O12  1  0.577987  0.452459  0.781730  1
  O  O13  1  0.547541  0.218270  0.422013  1
  O  O14  1  0.452459  0.781730  0.577987  1
  O  O15  1  0.422013  0.547541  0.218270  1
  O  O16  1  0.283619  0.068001  0.938233  1
  O  O17  1  0.218270  0.422013  0.547541  1
  O  O18  1  0.068001  0.938233  0.283619  1
  O  O19  1  0.061767  0.716381  0.931999  1
