# generated using pymatgen
data_Ti8V11Si16Tc
_symmetry_space_group_name_H-M   'P 1'
_cell_length_a   6.48018738
_cell_length_b   6.48018610
_cell_length_c   11.95869379
_cell_angle_alpha   90.04322093
_cell_angle_beta   89.95677918
_cell_angle_gamma   89.69161203
_symmetry_Int_Tables_number   1
_chemical_formula_structural   Ti8V11Si16Tc
_chemical_formula_sum   'Ti8 V11 Si16 Tc1'
_cell_volume   502.17171682
_cell_formula_units_Z   1
loop_
 _symmetry_equiv_pos_site_id
 _symmetry_equiv_pos_as_xyz
  1  'x, y, z'
loop_
 _atom_site_type_symbol
 _atom_site_label
 _atom_site_symmetry_multiplicity
 _atom_site_fract_x
 _atom_site_fract_y
 _atom_site_fract_z
 _atom_site_occupancy
  Ti  Ti0  1  0.001455  0.665828  0.029484  1
  Ti  Ti1  1  0.835786  0.502077  0.279157  1
  Ti  Ti2  1  0.162472  0.497673  0.778440  1
  Ti  Ti3  1  0.502077  0.835786  0.720843  1
  Ti  Ti4  1  0.497673  0.162472  0.221560  1
  Ti  Ti5  1  0.996700  0.337193  0.529304  1
  Ti  Ti6  1  0.665828  0.001455  0.970516  1
  Ti  Ti7  1  0.337193  0.996700  0.470696  1
  V  V8  1  0.166557  0.834134  0.248993  1
  V  V9  1  0.834134  0.166557  0.751007  1
  V  V10  1  0.665151  0.665151  0.500000  1
  V  V11  1  0.000235  0.153402  0.130590  1
  V  V12  1  0.345138  0.505567  0.376935  1
  V  V13  1  0.663155  0.494924  0.875563  1
  V  V14  1  0.505567  0.345138  0.623065  1
  V  V15  1  0.494924  0.663155  0.124437  1
  V  V16  1  0.995072  0.845381  0.627304  1
  V  V17  1  0.153402  0.000235  0.869410  1
  V  V18  1  0.845381  0.995072  0.372696  1
  Si  Si19  1  0.295693  0.963025  0.063067  1
  Si  Si20  1  0.538942  0.799086  0.315986  1
  Si  Si21  1  0.460663  0.201251  0.815550  1
  Si  Si22  1  0.799086  0.538942  0.684014  1
  Si  Si23  1  0.201251  0.460663  0.184450  1
  Si  Si24  1  0.701095  0.038973  0.565111  1
  Si  Si25  1  0.963025  0.295693  0.936933  1
  Si  Si26  1  0.038973  0.701095  0.434889  1
  Si  Si27  1  0.705416  0.369905  0.075397  1
  Si  Si28  1  0.132952  0.208014  0.326012  1
  Si  Si29  1  0.867359  0.791639  0.824780  1
  Si  Si30  1  0.208014  0.132952  0.673988  1
  Si  Si31  1  0.791639  0.867359  0.175220  1
  Si  Si32  1  0.292540  0.632760  0.575028  1
  Si  Si33  1  0.369905  0.705416  0.924603  1
  Si  Si34  1  0.632760  0.292540  0.424972  1
  Tc  Tc35  1  0.332787  0.332787  0.000000  1
