# generated using pymatgen
data_Dy2MgCdIr8
_symmetry_space_group_name_H-M   'P 1'
_cell_length_a   5.28888200
_cell_length_b   5.28888099
_cell_length_c   8.57415300
_cell_angle_alpha   90.00000000
_cell_angle_beta   90.00000000
_cell_angle_gamma   120.00000634
_symmetry_Int_Tables_number   1
_chemical_formula_structural   Dy2MgCdIr8
_chemical_formula_sum   'Dy2 Mg1 Cd1 Ir8'
_cell_volume   207.70622132
_cell_formula_units_Z   1
loop_
 _symmetry_equiv_pos_site_id
 _symmetry_equiv_pos_as_xyz
  1  'x, y, z'
loop_
 _atom_site_type_symbol
 _atom_site_label
 _atom_site_symmetry_multiplicity
 _atom_site_fract_x
 _atom_site_fract_y
 _atom_site_fract_z
 _atom_site_occupancy
  Dy  Dy0  1  0.333333  0.666667  0.068492  1
  Dy  Dy1  1  0.666667  0.333333  0.571653  1
  Mg  Mg2  1  0.333333  0.666667  0.436412  1
  Cd  Cd3  1  0.666667  0.333333  0.939083  1
  Ir  Ir4  1  0.000000  0.000000  0.995103  1
  Ir  Ir5  1  0.000000  0.000000  0.495015  1
  Ir  Ir6  1  0.829245  0.658489  0.250992  1
  Ir  Ir7  1  0.170918  0.829082  0.747089  1
  Ir  Ir8  1  0.658164  0.829082  0.747089  1
  Ir  Ir9  1  0.341511  0.170755  0.250992  1
  Ir  Ir10  1  0.829245  0.170755  0.250992  1
  Ir  Ir11  1  0.170918  0.341836  0.747089  1
