# generated using pymatgen
data_Fe3Ru(PtO3)8
_symmetry_space_group_name_H-M   'P 1'
_cell_length_a   4.60013331
_cell_length_b   9.18262567
_cell_length_c   9.49655200
_cell_angle_alpha   90.00000000
_cell_angle_beta   90.00000000
_cell_angle_gamma   90.15716178
_symmetry_Int_Tables_number   1
_chemical_formula_structural   Fe3Ru(PtO3)8
_chemical_formula_sum   'Fe3 Ru1 Pt8 O24'
_cell_volume   401.14521391
_cell_formula_units_Z   1
loop_
 _symmetry_equiv_pos_site_id
 _symmetry_equiv_pos_as_xyz
  1  'x, y, z'
loop_
 _atom_site_type_symbol
 _atom_site_label
 _atom_site_symmetry_multiplicity
 _atom_site_fract_x
 _atom_site_fract_y
 _atom_site_fract_z
 _atom_site_occupancy
  Fe  Fe0  1  0.497895  0.750932  0.500000  1
  Fe  Fe1  1  0.000000  0.000000  0.000000  1
  Fe  Fe2  1  0.502105  0.249068  0.500000  1
  Ru  Ru3  1  0.000000  0.500000  0.000000  1
  Pt  Pt4  1  0.000000  0.000000  0.331771  1
  Pt  Pt5  1  0.000000  0.500000  0.333764  1
  Pt  Pt6  1  0.502038  0.250558  0.832009  1
  Pt  Pt7  1  0.497962  0.749442  0.832009  1
  Pt  Pt8  1  0.502038  0.250558  0.167991  1
  Pt  Pt9  1  0.497962  0.749442  0.167991  1
  Pt  Pt10  1  0.000000  0.000000  0.668229  1
  Pt  Pt11  1  0.000000  0.500000  0.666236  1
  O  O12  1  0.310560  0.154685  0.000000  1
  O  O13  1  0.300463  0.650456  0.000000  1
  O  O14  1  0.190073  0.404203  0.500000  1
  O  O15  1  0.192195  0.905033  0.500000  1
  O  O16  1  0.807805  0.094967  0.500000  1
  O  O17  1  0.809927  0.595797  0.500000  1
  O  O18  1  0.699537  0.349544  0.000000  1
  O  O19  1  0.689440  0.845315  0.000000  1
  O  O20  1  0.307346  0.154920  0.334686  1
  O  O21  1  0.309636  0.653438  0.337299  1
  O  O22  1  0.191044  0.405491  0.837029  1
  O  O23  1  0.191254  0.902792  0.836004  1
  O  O24  1  0.808746  0.097208  0.836004  1
  O  O25  1  0.808956  0.594509  0.837029  1
  O  O26  1  0.808746  0.097208  0.163996  1
  O  O27  1  0.808956  0.594509  0.162971  1
  O  O28  1  0.191044  0.405491  0.162971  1
  O  O29  1  0.191254  0.902792  0.163996  1
  O  O30  1  0.690364  0.346562  0.337299  1
  O  O31  1  0.692654  0.845080  0.334686  1
  O  O32  1  0.307346  0.154920  0.665314  1
  O  O33  1  0.309636  0.653438  0.662701  1
  O  O34  1  0.690364  0.346562  0.662701  1
  O  O35  1  0.692654  0.845080  0.665314  1
