# generated using pymatgen
data_Yb3Pa5(Si4Mo3)4
_symmetry_space_group_name_H-M   'P 1'
_cell_length_a   6.76886554
_cell_length_b   6.93201614
_cell_length_c   12.92164900
_cell_angle_alpha   89.99739640
_cell_angle_beta   89.70694560
_cell_angle_gamma   90.14476142
_symmetry_Int_Tables_number   1
_chemical_formula_structural   Yb3Pa5(Si4Mo3)4
_chemical_formula_sum   'Yb3 Pa5 Si16 Mo12'
_cell_volume   606.29826337
_cell_formula_units_Z   1
loop_
 _symmetry_equiv_pos_site_id
 _symmetry_equiv_pos_as_xyz
  1  'x, y, z'
loop_
 _atom_site_type_symbol
 _atom_site_label
 _atom_site_symmetry_multiplicity
 _atom_site_fract_x
 _atom_site_fract_y
 _atom_site_fract_z
 _atom_site_occupancy
  Yb  Yb0  1  0.995102  0.161752  0.087716  1
  Yb  Yb1  1  0.003097  0.837393  0.910910  1
  Yb  Yb2  1  0.503353  0.662821  0.909644  1
  Pa  Pa3  1  0.009334  0.835761  0.594921  1
  Pa  Pa4  1  0.495957  0.335864  0.092182  1
  Pa  Pa5  1  0.990694  0.163508  0.406570  1
  Pa  Pa6  1  0.490934  0.335613  0.405271  1
  Pa  Pa7  1  0.508447  0.666057  0.595031  1
  Si  Si8  1  0.036749  0.134922  0.751173  1
  Si  Si9  1  0.964669  0.863703  0.247681  1
  Si  Si10  1  0.462763  0.636290  0.250582  1
  Si  Si11  1  0.537157  0.367364  0.750496  1
  Si  Si12  1  0.304767  0.873978  0.755328  1
  Si  Si13  1  0.697706  0.126399  0.246247  1
  Si  Si14  1  0.190363  0.370201  0.247349  1
  Si  Si15  1  0.806798  0.628335  0.755284  1
  Si  Si16  1  0.159379  0.453556  0.544620  1
  Si  Si17  1  0.838833  0.546811  0.455398  1
  Si  Si18  1  0.339991  0.953902  0.454700  1
  Si  Si19  1  0.846486  0.540651  0.047444  1
  Si  Si20  1  0.660500  0.046334  0.544191  1
  Si  Si21  1  0.154172  0.461191  0.950704  1
  Si  Si22  1  0.655529  0.036727  0.952400  1
  Si  Si23  1  0.344285  0.956642  0.047158  1
  Mo  Mo24  1  0.169738  0.505295  0.744960  1
  Mo  Mo25  1  0.828122  0.492459  0.252837  1
  Mo  Mo26  1  0.331033  0.011450  0.252308  1
  Mo  Mo27  1  0.668516  0.994494  0.745247  1
  Mo  Mo28  1  0.329614  0.164490  0.624160  1
  Mo  Mo29  1  0.672963  0.839306  0.375486  1
  Mo  Mo30  1  0.171977  0.660627  0.376696  1
  Mo  Mo31  1  0.666115  0.829656  0.125683  1
  Mo  Mo32  1  0.825101  0.337817  0.624215  1
  Mo  Mo33  1  0.336729  0.176002  0.875470  1
  Mo  Mo34  1  0.830557  0.327724  0.874237  1
  Mo  Mo35  1  0.172471  0.664897  0.125706  1
