# generated using pymatgen
data_La15Y5Pb16
_symmetry_space_group_name_H-M   'P 1'
_cell_length_a   8.51116942
_cell_length_b   8.61172020
_cell_length_c   16.42299781
_cell_angle_alpha   90.04807253
_cell_angle_beta   90.26694152
_cell_angle_gamma   89.79758212
_symmetry_Int_Tables_number   1
_chemical_formula_structural   La15Y5Pb16
_chemical_formula_sum   'La15 Y5 Pb16'
_cell_volume   1203.71593785
_cell_formula_units_Z   1
loop_
 _symmetry_equiv_pos_site_id
 _symmetry_equiv_pos_as_xyz
  1  'x, y, z'
loop_
 _atom_site_type_symbol
 _atom_site_label
 _atom_site_symmetry_multiplicity
 _atom_site_fract_x
 _atom_site_fract_y
 _atom_site_fract_z
 _atom_site_occupancy
  La  La0  1  0.377743  0.842353  0.380963  1
  La  La1  1  0.624130  0.158795  0.884049  1
  La  La2  1  0.122044  0.343070  0.617549  1
  La  La3  1  0.122417  0.341418  0.882124  1
  La  La4  1  0.621654  0.158177  0.617640  1
  La  La5  1  0.378797  0.842219  0.117736  1
  La  La6  1  0.878136  0.657248  0.381725  1
  La  La7  1  0.030254  0.179816  0.099734  1
  La  La8  1  0.532126  0.321384  0.398926  1
  La  La9  1  0.468985  0.679635  0.900343  1
  La  La10  1  0.969268  0.820733  0.599851  1
  La  La11  1  0.970034  0.819710  0.902087  1
  La  La12  1  0.468712  0.679186  0.600043  1
  La  La13  1  0.530338  0.322203  0.100301  1
  La  La14  1  0.031193  0.179229  0.398857  1
  Y  Y15  1  0.874489  0.655035  0.121033  1
  Y  Y16  1  0.712286  0.995746  0.248832  1
  Y  Y17  1  0.209051  0.504103  0.248871  1
  Y  Y18  1  0.788663  0.497181  0.750783  1
  Y  Y19  1  0.289353  0.003184  0.749903  1
  Pb  Pb20  1  0.069600  0.872133  0.247863  1
  Pb  Pb21  1  0.574901  0.623284  0.247897  1
  Pb  Pb22  1  0.427883  0.376436  0.750359  1
  Pb  Pb23  1  0.927283  0.123592  0.749999  1
  Pb  Pb24  1  0.840072  0.352614  0.248165  1
  Pb  Pb25  1  0.339172  0.151379  0.249326  1
  Pb  Pb26  1  0.660899  0.850069  0.750358  1
  Pb  Pb27  1  0.161597  0.650445  0.750457  1
  Pb  Pb28  1  0.781243  0.473034  0.958086  1
  Pb  Pb29  1  0.280063  0.029608  0.546282  1
  Pb  Pb30  1  0.724278  0.962064  0.046904  1
  Pb  Pb31  1  0.220913  0.529944  0.453067  1
  Pb  Pb32  1  0.210668  0.533896  0.047272  1
  Pb  Pb33  1  0.720025  0.970361  0.452921  1
  Pb  Pb34  1  0.282047  0.030420  0.953220  1
  Pb  Pb35  1  0.779683  0.470298  0.546475  1
