# generated using pymatgen
data_Gd3YTm4(ReB6)4
_symmetry_space_group_name_H-M   'P 1'
_cell_length_a   3.66841400
_cell_length_b   9.15209302
_cell_length_c   11.54869001
_cell_angle_alpha   89.99377424
_cell_angle_beta   90.00000000
_cell_angle_gamma   90.00000000
_symmetry_Int_Tables_number   1
_chemical_formula_structural   Gd3YTm4(ReB6)4
_chemical_formula_sum   'Gd3 Y1 Tm4 Re4 B24'
_cell_volume   387.73186073
_cell_formula_units_Z   1
loop_
 _symmetry_equiv_pos_site_id
 _symmetry_equiv_pos_as_xyz
  1  'x, y, z'
loop_
 _atom_site_type_symbol
 _atom_site_label
 _atom_site_symmetry_multiplicity
 _atom_site_fract_x
 _atom_site_fract_y
 _atom_site_fract_z
 _atom_site_occupancy
  Gd  Gd0  1  0.000000  0.322763  0.414293  1
  Gd  Gd1  1  0.000000  0.677165  0.585922  1
  Gd  Gd2  1  0.000000  0.822860  0.085694  1
  Y  Y3  1  0.000000  0.177114  0.914219  1
  Tm  Tm4  1  0.000000  0.942987  0.369718  1
  Tm  Tm5  1  0.000000  0.057076  0.630333  1
  Tm  Tm6  1  0.000000  0.442874  0.129958  1
  Tm  Tm7  1  0.000000  0.557051  0.869995  1
  Re  Re8  1  0.000000  0.639250  0.319556  1
  Re  Re9  1  0.000000  0.360532  0.680601  1
  Re  Re10  1  0.000000  0.139250  0.179758  1
  Re  Re11  1  0.000000  0.861245  0.820097  1
  B  B12  1  0.500000  0.553701  0.432242  1
  B  B13  1  0.500000  0.446171  0.567953  1
  B  B14  1  0.500000  0.053655  0.067507  1
  B  B15  1  0.500000  0.946488  0.932334  1
  B  B16  1  0.500000  0.750087  0.417780  1
  B  B17  1  0.500000  0.249789  0.582386  1
  B  B18  1  0.500000  0.250259  0.081885  1
  B  B19  1  0.500000  0.749931  0.917723  1
  B  B20  1  0.500000  0.792208  0.265226  1
  B  B21  1  0.500000  0.207534  0.735022  1
  B  B22  1  0.500000  0.292273  0.234667  1
  B  B23  1  0.500000  0.707884  0.765176  1
  B  B24  1  0.500000  0.629816  0.185010  1
  B  B25  1  0.500000  0.370020  0.815215  1
  B  B26  1  0.500000  0.129998  0.314729  1
  B  B27  1  0.500000  0.870220  0.685178  1
  B  B28  1  0.500000  0.982240  0.212359  1
  B  B29  1  0.500000  0.018128  0.787531  1
  B  B30  1  0.500000  0.481979  0.287424  1
  B  B31  1  0.500000  0.517853  0.712655  1
  B  B32  1  0.500000  0.597609  0.027073  1
  B  B33  1  0.500000  0.401935  0.972751  1
  B  B34  1  0.500000  0.097663  0.472892  1
  B  B35  1  0.500000  0.902394  0.527137  1
