# generated using pymatgen
data_Er4Ge2H5
_symmetry_space_group_name_H-M   'P 1'
_cell_length_a   5.76385156
_cell_length_b   7.09302518
_cell_length_c   5.76224700
_cell_angle_alpha   52.05357532
_cell_angle_beta   104.07951492
_cell_angle_gamma   128.01624723
_symmetry_Int_Tables_number   1
_chemical_formula_structural   Er4Ge2H5
_chemical_formula_sum   'Er4 Ge2 H5'
_cell_volume   142.83861089
_cell_formula_units_Z   1
loop_
 _symmetry_equiv_pos_site_id
 _symmetry_equiv_pos_as_xyz
  1  'x, y, z'
loop_
 _atom_site_type_symbol
 _atom_site_label
 _atom_site_symmetry_multiplicity
 _atom_site_fract_x
 _atom_site_fract_y
 _atom_site_fract_z
 _atom_site_occupancy
  Er  Er0  1  0.972447  0.797597  0.954369  1
  Er  Er1  1  0.134774  0.287781  0.137350  1
  Er  Er2  1  0.645293  0.471337  0.626234  1
  Er  Er3  1  0.462056  0.960829  0.464158  1
  Ge  Ge4  1  0.053865  0.379109  0.546258  1
  Ge  Ge5  1  0.553785  0.879694  0.045096  1
  H  H6  1  0.553073  0.379002  0.044868  1
  H  H7  1  0.782632  0.865126  0.560739  1
  H  H8  1  0.067744  0.893620  0.274755  1
  H  H9  1  0.324719  0.150581  0.530663  1
  H  H10  1  0.038882  0.608010  0.816391  1
