# generated using pymatgen
data_Er2Lu4TcBi2
_symmetry_space_group_name_H-M   'P 1'
_cell_length_a   8.15380100
_cell_length_b   8.16383031
_cell_length_c   4.27849200
_cell_angle_alpha   90.00000000
_cell_angle_beta   90.00000000
_cell_angle_gamma   119.95937371
_symmetry_Int_Tables_number   1
_chemical_formula_structural   Er2Lu4TcBi2
_chemical_formula_sum   'Er2 Lu4 Tc1 Bi2'
_cell_volume   246.74768004
_cell_formula_units_Z   1
loop_
 _symmetry_equiv_pos_site_id
 _symmetry_equiv_pos_as_xyz
  1  'x, y, z'
loop_
 _atom_site_type_symbol
 _atom_site_label
 _atom_site_symmetry_multiplicity
 _atom_site_fract_x
 _atom_site_fract_y
 _atom_site_fract_z
 _atom_site_occupancy
  Er  Er0  1  0.000333  0.613682  0.000000  1
  Er  Er1  1  0.386652  0.386318  0.000000  1
  Lu  Lu2  1  0.229709  0.000000  0.500000  1
  Lu  Lu3  1  0.999566  0.230838  0.500000  1
  Lu  Lu4  1  0.768728  0.769162  0.500000  1
  Lu  Lu5  1  0.617038  0.000000  0.000000  1
  Tc  Tc6  1  0.997614  0.000000  0.000000  1
  Bi  Bi7  1  0.334058  0.667756  0.500000  1
  Bi  Bi8  1  0.666304  0.332244  0.500000  1
