# generated using pymatgen
data_Ho3Th(Sc3Ga4)2
_symmetry_space_group_name_H-M   'P 1'
_cell_length_a   7.30257594
_cell_length_b   7.58918180
_cell_length_c   14.49413008
_cell_angle_alpha   90.02387793
_cell_angle_beta   90.07066300
_cell_angle_gamma   90.07501583
_symmetry_Int_Tables_number   1
_chemical_formula_structural   Ho3Th(Sc3Ga4)2
_chemical_formula_sum   'Ho6 Th2 Sc12 Ga16'
_cell_volume   803.27167418
_cell_formula_units_Z   2
loop_
 _symmetry_equiv_pos_site_id
 _symmetry_equiv_pos_as_xyz
  1  'x, y, z'
loop_
 _atom_site_type_symbol
 _atom_site_label
 _atom_site_symmetry_multiplicity
 _atom_site_fract_x
 _atom_site_fract_y
 _atom_site_fract_z
 _atom_site_occupancy
  Ho  Ho0  1  0.489315  0.679668  0.905203  1
  Ho  Ho1  1  0.988944  0.820053  0.594433  1
  Ho  Ho2  1  0.510685  0.320332  0.094797  1
  Ho  Ho3  1  0.011056  0.179947  0.405567  1
  Ho  Ho4  1  0.511502  0.319675  0.406105  1
  Ho  Ho5  1  0.488498  0.680325  0.593895  1
  Th  Th6  1  0.011220  0.179300  0.094873  1
  Th  Th7  1  0.988780  0.820700  0.905127  1
  Sc  Sc8  1  0.163689  0.502414  0.749293  1
  Sc  Sc9  1  0.836311  0.497586  0.250707  1
  Sc  Sc10  1  0.338370  0.002730  0.250782  1
  Sc  Sc11  1  0.661630  0.997270  0.749218  1
  Sc  Sc12  1  0.329574  0.171531  0.624089  1
  Sc  Sc13  1  0.670426  0.828469  0.375911  1
  Sc  Sc14  1  0.171082  0.672095  0.375938  1
  Sc  Sc15  1  0.669574  0.827695  0.124712  1
  Sc  Sc16  1  0.828918  0.327905  0.624062  1
  Sc  Sc17  1  0.330426  0.172305  0.875288  1
  Sc  Sc18  1  0.828619  0.328261  0.875060  1
  Sc  Sc19  1  0.171381  0.671739  0.124940  1
  Ga  Ga20  1  0.030195  0.117276  0.749615  1
  Ga  Ga21  1  0.969805  0.882724  0.250385  1
  Ga  Ga22  1  0.469408  0.616824  0.249869  1
  Ga  Ga23  1  0.530592  0.383176  0.750131  1
  Ga  Ga24  1  0.285301  0.871255  0.749208  1
  Ga  Ga25  1  0.714699  0.128745  0.250792  1
  Ga  Ga26  1  0.217672  0.371856  0.250309  1
  Ga  Ga27  1  0.782328  0.628144  0.749691  1
  Ga  Ga28  1  0.161901  0.465534  0.540528  1
  Ga  Ga29  1  0.838099  0.534466  0.459472  1
  Ga  Ga30  1  0.337872  0.965115  0.459411  1
  Ga  Ga31  1  0.835607  0.535914  0.040802  1
  Ga  Ga32  1  0.662128  0.034885  0.540589  1
  Ga  Ga33  1  0.164393  0.464086  0.959198  1
  Ga  Ga34  1  0.658406  0.036174  0.959665  1
  Ga  Ga35  1  0.341594  0.963826  0.040335  1
