# generated using pymatgen
data_AlAsI6
_symmetry_space_group_name_H-M   'P 1'
_cell_length_a   10.70452478
_cell_length_b   10.70452501
_cell_length_c   7.78645114
_cell_angle_alpha   70.17529420
_cell_angle_beta   70.17529263
_cell_angle_gamma   79.68057260
_symmetry_Int_Tables_number   1
_chemical_formula_structural   AlAsI6
_chemical_formula_sum   'Al2 As2 I12'
_cell_volume   787.52758961
_cell_formula_units_Z   2
loop_
 _symmetry_equiv_pos_site_id
 _symmetry_equiv_pos_as_xyz
  1  'x, y, z'
loop_
 _atom_site_type_symbol
 _atom_site_label
 _atom_site_symmetry_multiplicity
 _atom_site_fract_x
 _atom_site_fract_y
 _atom_site_fract_z
 _atom_site_occupancy
  Al  Al0  1  0.193490  0.193490  0.663914  1
  Al  Al1  1  0.806510  0.806510  0.336086  1
  As  As2  1  0.805328  0.194672  0.000000  1
  As  As3  1  0.194672  0.805328  0.000000  1
  I  I4  1  0.212179  0.582077  0.930543  1
  I  I5  1  0.417923  0.787821  0.069457  1
  I  I6  1  0.787821  0.417923  0.069457  1
  I  I7  1  0.582077  0.212179  0.930543  1
  I  I8  1  0.032828  0.723416  0.413555  1
  I  I9  1  0.276584  0.967172  0.586445  1
  I  I10  1  0.967172  0.276584  0.586445  1
  I  I11  1  0.723416  0.032828  0.413555  1
  I  I12  1  0.863916  0.863916  0.971899  1
  I  I13  1  0.136084  0.136084  0.028101  1
  I  I14  1  0.637954  0.637954  0.531793  1
  I  I15  1  0.362046  0.362046  0.468207  1
