# generated using pymatgen
data_Ti13Al9Fe8
_symmetry_space_group_name_H-M   'P 1'
_cell_length_a   8.47721737
_cell_length_b   8.47721722
_cell_length_c   8.47721730
_cell_angle_alpha   59.96228223
_cell_angle_beta   59.96228316
_cell_angle_gamma   59.96229039
_symmetry_Int_Tables_number   1
_chemical_formula_structural   Ti13Al9Fe8
_chemical_formula_sum   'Ti13 Al9 Fe8'
_cell_volume   430.40106980
_cell_formula_units_Z   1
loop_
 _symmetry_equiv_pos_site_id
 _symmetry_equiv_pos_as_xyz
  1  'x, y, z'
loop_
 _atom_site_type_symbol
 _atom_site_label
 _atom_site_symmetry_multiplicity
 _atom_site_fract_x
 _atom_site_fract_y
 _atom_site_fract_z
 _atom_site_occupancy
  Ti  Ti0  1  0.209626  0.209626  0.797368  1
  Ti  Ti1  1  0.797368  0.209626  0.209626  1
  Ti  Ti2  1  0.209626  0.797368  0.209626  1
  Ti  Ti3  1  0.799358  0.799358  0.183327  1
  Ti  Ti4  1  0.183327  0.799358  0.799358  1
  Ti  Ti5  1  0.799358  0.183327  0.799358  1
  Ti  Ti6  1  0.381591  0.381591  0.381591  1
  Ti  Ti7  1  0.383621  0.857255  0.383621  1
  Ti  Ti8  1  0.857255  0.383621  0.383621  1
  Ti  Ti9  1  0.383621  0.383621  0.857255  1
  Ti  Ti10  1  0.842066  0.467652  0.842066  1
  Ti  Ti11  1  0.467652  0.842066  0.842066  1
  Ti  Ti12  1  0.842066  0.842066  0.467652  1
  Al  Al13  1  0.162170  0.162170  0.162170  1
  Al  Al14  1  0.161085  0.523083  0.161085  1
  Al  Al15  1  0.523083  0.161085  0.161085  1
  Al  Al16  1  0.161085  0.161085  0.523083  1
  Al  Al17  1  0.617763  0.617763  0.617763  1
  Al  Al18  1  0.618028  0.145622  0.618028  1
  Al  Al19  1  0.145622  0.618028  0.618028  1
  Al  Al20  1  0.618028  0.618028  0.145622  1
  Al  Al21  1  0.828399  0.828399  0.828399  1
  Fe  Fe22  1  0.000464  0.000464  0.499743  1
  Fe  Fe23  1  0.499743  0.000464  0.000464  1
  Fe  Fe24  1  0.000464  0.499743  0.000464  1
  Fe  Fe25  1  0.501894  0.501894  0.000075  1
  Fe  Fe26  1  0.000075  0.501894  0.501894  1
  Fe  Fe27  1  0.501894  0.000075  0.501894  1
  Fe  Fe28  1  0.499975  0.499975  0.499975  1
  Fe  Fe29  1  0.003693  0.003693  0.003693  1
