# generated using pymatgen
data_K3Sm(PPt3)8
_symmetry_space_group_name_H-M   'P 1'
_cell_length_a   8.57107866
_cell_length_b   8.57107866
_cell_length_c   8.57107866
_cell_angle_alpha   90.05041888
_cell_angle_beta   89.94958112
_cell_angle_gamma   89.94958112
_symmetry_Int_Tables_number   1
_chemical_formula_structural   K3Sm(PPt3)8
_chemical_formula_sum   'K3 Sm1 P8 Pt24'
_cell_volume   629.65975734
_cell_formula_units_Z   1
loop_
 _symmetry_equiv_pos_site_id
 _symmetry_equiv_pos_as_xyz
  1  'x, y, z'
loop_
 _atom_site_type_symbol
 _atom_site_label
 _atom_site_symmetry_multiplicity
 _atom_site_fract_x
 _atom_site_fract_y
 _atom_site_fract_z
 _atom_site_occupancy
  K  K0  1  0.500000  0.000000  0.500000  1
  K  K1  1  0.000000  0.500000  0.500000  1
  K  K2  1  0.000000  0.000000  0.000000  1
  Sm  Sm3  1  0.500000  0.500000  0.000000  1
  P  P4  1  0.808619  0.302714  0.194369  1
  P  P5  1  0.194008  0.805992  0.305992  1
  P  P6  1  0.697286  0.694369  0.691381  1
  P  P7  1  0.305631  0.191381  0.802714  1
  P  P8  1  0.191381  0.697286  0.805631  1
  P  P9  1  0.805992  0.194008  0.694008  1
  P  P10  1  0.302714  0.305631  0.308619  1
  P  P11  1  0.694369  0.808619  0.197286  1
  Pt  Pt12  1  0.422717  0.837161  0.152239  1
  Pt  Pt13  1  0.578524  0.347788  0.335646  1
  Pt  Pt14  1  0.077215  0.158308  0.655613  1
  Pt  Pt15  1  0.923657  0.656436  0.844486  1
  Pt  Pt16  1  0.164354  0.421476  0.847788  1
  Pt  Pt17  1  0.347761  0.577283  0.337161  1
  Pt  Pt18  1  0.655514  0.076343  0.156436  1
  Pt  Pt19  1  0.844387  0.922785  0.658308  1
  Pt  Pt20  1  0.841692  0.155613  0.422785  1
  Pt  Pt21  1  0.343564  0.344486  0.576343  1
  Pt  Pt22  1  0.162839  0.652239  0.077283  1
  Pt  Pt23  1  0.652212  0.835646  0.921476  1
  Pt  Pt24  1  0.577283  0.162839  0.847761  1
  Pt  Pt25  1  0.421476  0.652212  0.664354  1
  Pt  Pt26  1  0.922785  0.841692  0.344387  1
  Pt  Pt27  1  0.076343  0.343564  0.155514  1
  Pt  Pt28  1  0.835646  0.578524  0.152212  1
  Pt  Pt29  1  0.652239  0.422717  0.662839  1
  Pt  Pt30  1  0.344486  0.923657  0.843564  1
  Pt  Pt31  1  0.155613  0.077215  0.341692  1
  Pt  Pt32  1  0.158308  0.844387  0.577215  1
  Pt  Pt33  1  0.656436  0.655514  0.423657  1
  Pt  Pt34  1  0.837161  0.347761  0.922717  1
  Pt  Pt35  1  0.347788  0.164354  0.078524  1
