# generated using pymatgen
data_Dy8Nb12Si15B
_symmetry_space_group_name_H-M   'P 1'
_cell_length_a   6.85048203
_cell_length_b   7.04144544
_cell_length_c   13.40120300
_cell_angle_alpha   90.00000000
_cell_angle_beta   90.00000000
_cell_angle_gamma   89.61887806
_symmetry_Int_Tables_number   1
_chemical_formula_structural   Dy8Nb12Si15B
_chemical_formula_sum   'Dy8 Nb12 Si15 B1'
_cell_volume   646.42348716
_cell_formula_units_Z   1
loop_
 _symmetry_equiv_pos_site_id
 _symmetry_equiv_pos_as_xyz
  1  'x, y, z'
loop_
 _atom_site_type_symbol
 _atom_site_label
 _atom_site_symmetry_multiplicity
 _atom_site_fract_x
 _atom_site_fract_y
 _atom_site_fract_z
 _atom_site_occupancy
  Dy  Dy0  1  0.503802  0.666229  0.598001  1
  Dy  Dy1  1  0.005241  0.826769  0.901298  1
  Dy  Dy2  1  0.497219  0.329001  0.095917  1
  Dy  Dy3  1  0.996544  0.171784  0.404682  1
  Dy  Dy4  1  0.497219  0.329001  0.404083  1
  Dy  Dy5  1  0.996544  0.171784  0.095318  1
  Dy  Dy6  1  0.503802  0.666229  0.901999  1
  Dy  Dy7  1  0.005241  0.826769  0.598702  1
  Nb  Nb8  1  0.650176  0.187402  0.630702  1
  Nb  Nb9  1  0.171992  0.325380  0.871804  1
  Nb  Nb10  1  0.338973  0.824666  0.125004  1
  Nb  Nb11  1  0.837528  0.675788  0.374969  1
  Nb  Nb12  1  0.338973  0.824666  0.374996  1
  Nb  Nb13  1  0.837528  0.675788  0.125031  1
  Nb  Nb14  1  0.650176  0.187402  0.869298  1
  Nb  Nb15  1  0.171992  0.325380  0.628196  1
  Nb  Nb16  1  0.830463  0.491287  0.750000  1
  Nb  Nb17  1  0.337564  0.012464  0.750000  1
  Nb  Nb18  1  0.163032  0.508743  0.250000  1
  Nb  Nb19  1  0.663315  0.992530  0.250000  1
  Si  Si20  1  0.662751  0.964425  0.462251  1
  Si  Si21  1  0.163732  0.537562  0.039335  1
  Si  Si22  1  0.337108  0.034943  0.959328  1
  Si  Si23  1  0.839425  0.462380  0.541937  1
  Si  Si24  1  0.337108  0.034943  0.540672  1
  Si  Si25  1  0.839425  0.462380  0.958063  1
  Si  Si26  1  0.662751  0.964425  0.037749  1
  Si  Si27  1  0.163732  0.537562  0.460665  1
  Si  Si28  1  0.957132  0.125574  0.750000  1
  Si  Si29  1  0.542555  0.624076  0.250000  1
  Si  Si30  1  0.041751  0.877254  0.250000  1
  Si  Si31  1  0.703562  0.875854  0.750000  1
  Si  Si32  1  0.214993  0.614358  0.750000  1
  Si  Si33  1  0.295124  0.127131  0.250000  1
  Si  Si34  1  0.796241  0.373325  0.250000  1
  B  B35  1  0.445283  0.364745  0.750000  1
