# generated using pymatgen
data_PrDy(OsO3)6
_symmetry_space_group_name_H-M   'P 1'
_cell_length_a   7.45213800
_cell_length_b   5.28969980
_cell_length_c   8.23368098
_cell_angle_alpha   85.47705517
_cell_angle_beta   90.00000000
_cell_angle_gamma   90.00000000
_symmetry_Int_Tables_number   1
_chemical_formula_structural   PrDy(OsO3)6
_chemical_formula_sum   'Pr1 Dy1 Os6 O18'
_cell_volume   323.55742836
_cell_formula_units_Z   1
loop_
 _symmetry_equiv_pos_site_id
 _symmetry_equiv_pos_as_xyz
  1  'x, y, z'
loop_
 _atom_site_type_symbol
 _atom_site_label
 _atom_site_symmetry_multiplicity
 _atom_site_fract_x
 _atom_site_fract_y
 _atom_site_fract_z
 _atom_site_occupancy
  Pr  Pr0  1  0.750000  0.025481  0.572312  1
  Dy  Dy1  1  0.250000  0.967100  0.425010  1
  Os  Os2  1  0.493395  0.535054  0.692751  1
  Os  Os3  1  0.006605  0.535054  0.692751  1
  Os  Os4  1  0.997594  0.460827  0.307331  1
  Os  Os5  1  0.000917  0.997967  0.001230  1
  Os  Os6  1  0.502406  0.460827  0.307331  1
  Os  Os7  1  0.499083  0.997967  0.001230  1
  O  O8  1  0.964045  0.688291  0.123401  1
  O  O9  1  0.034946  0.307186  0.876359  1
  O  O10  1  0.064436  0.147933  0.213563  1
  O  O11  1  0.750000  0.368959  0.323920  1
  O  O12  1  0.043743  0.264080  0.526530  1
  O  O13  1  0.435564  0.147933  0.213563  1
  O  O14  1  0.535955  0.688291  0.123401  1
  O  O15  1  0.528272  0.736509  0.470885  1
  O  O16  1  0.750000  0.075687  0.018961  1
  O  O17  1  0.940424  0.843084  0.793308  1
  O  O18  1  0.750000  0.433226  0.683253  1
  O  O19  1  0.559576  0.843084  0.793308  1
  O  O20  1  0.250000  0.584116  0.311012  1
  O  O21  1  0.465054  0.307186  0.876359  1
  O  O22  1  0.971728  0.736509  0.470885  1
  O  O23  1  0.456257  0.264080  0.526530  1
  O  O24  1  0.250000  0.657271  0.669727  1
  O  O25  1  0.250000  0.926296  0.985088  1
