# generated using pymatgen
data_Zr5PaPCl15
_symmetry_space_group_name_H-M   'P 1'
_cell_length_a   9.12017668
_cell_length_b   9.12017473
_cell_length_c   9.12017600
_cell_angle_alpha   110.37860664
_cell_angle_beta   110.37860210
_cell_angle_gamma   107.67130515
_symmetry_Int_Tables_number   1
_chemical_formula_structural   Zr5PaPCl15
_chemical_formula_sum   'Zr5 Pa1 P1 Cl15'
_cell_volume   583.53571313
_cell_formula_units_Z   1
loop_
 _symmetry_equiv_pos_site_id
 _symmetry_equiv_pos_as_xyz
  1  'x, y, z'
loop_
 _atom_site_type_symbol
 _atom_site_label
 _atom_site_symmetry_multiplicity
 _atom_site_fract_x
 _atom_site_fract_y
 _atom_site_fract_z
 _atom_site_occupancy
  Zr  Zr0  1  0.779615  0.779615  0.000000  1
  Zr  Zr1  1  0.758153  0.995371  0.762783  1
  Zr  Zr2  1  0.995371  0.758153  0.762783  1
  Zr  Zr3  1  0.995371  0.232589  0.237217  1
  Zr  Zr4  1  0.232589  0.995371  0.237217  1
  Pa  Pa5  1  0.258319  0.258319  0.000000  1
  P  P6  1  0.010173  0.010173  0.000000  1
  Cl  Cl7  1  0.759238  0.514403  0.755166  1
  Cl  Cl8  1  0.508675  0.508675  0.000000  1
  Cl  Cl9  1  0.996148  0.496148  0.500000  1
  Cl  Cl10  1  0.496148  0.996148  0.500000  1
  Cl  Cl11  1  0.235601  0.976880  0.741278  1
  Cl  Cl12  1  0.976880  0.235601  0.741278  1
  Cl  Cl13  1  0.759238  0.004071  0.244834  1
  Cl  Cl14  1  0.514403  0.759238  0.755166  1
  Cl  Cl15  1  0.004071  0.759238  0.244834  1
  Cl  Cl16  1  0.244568  0.244568  0.494095  1
  Cl  Cl17  1  0.750474  0.244568  0.000000  1
  Cl  Cl18  1  0.494323  0.235601  0.258722  1
  Cl  Cl19  1  0.235601  0.494323  0.258722  1
  Cl  Cl20  1  0.750474  0.750474  0.505905  1
  Cl  Cl21  1  0.244568  0.750474  0.000000  1
