# generated using pymatgen
data_Ce5Nd3(ZnIr)8
_symmetry_space_group_name_H-M   'P 1'
_cell_length_a   3.96612700
_cell_length_b   7.34938680
_cell_length_c   16.47331187
_cell_angle_alpha   89.52745345
_cell_angle_beta   90.00000000
_cell_angle_gamma   90.00000000
_symmetry_Int_Tables_number   1
_chemical_formula_structural   Ce5Nd3(ZnIr)8
_chemical_formula_sum   'Ce5 Nd3 Zn8 Ir8'
_cell_volume   480.15767056
_cell_formula_units_Z   1
loop_
 _symmetry_equiv_pos_site_id
 _symmetry_equiv_pos_as_xyz
  1  'x, y, z'
loop_
 _atom_site_type_symbol
 _atom_site_label
 _atom_site_symmetry_multiplicity
 _atom_site_fract_x
 _atom_site_fract_y
 _atom_site_fract_z
 _atom_site_occupancy
  Ce  Ce0  1  0.250000  0.179223  0.941062  1
  Ce  Ce1  1  0.750000  0.940232  0.284130  1
  Ce  Ce2  1  0.250000  0.558531  0.784775  1
  Ce  Ce3  1  0.750000  0.445414  0.216716  1
  Ce  Ce4  1  0.750000  0.321931  0.440385  1
  Nd  Nd5  1  0.250000  0.666730  0.559357  1
  Nd  Nd6  1  0.750000  0.832210  0.059860  1
  Nd  Nd7  1  0.250000  0.054439  0.716178  1
  Zn  Zn8  1  0.250000  0.116651  0.151661  1
  Zn  Zn9  1  0.750000  0.510566  0.940814  1
  Zn  Zn10  1  0.750000  0.995417  0.560752  1
  Zn  Zn11  1  0.750000  0.381769  0.650743  1
  Zn  Zn12  1  0.750000  0.892727  0.847482  1
  Zn  Zn13  1  0.250000  0.503535  0.060105  1
  Zn  Zn14  1  0.250000  0.608820  0.349184  1
  Zn  Zn15  1  0.250000  0.994857  0.438833  1
  Ir  Ir16  1  0.750000  0.755379  0.430018  1
  Ir  Ir17  1  0.750000  0.269899  0.819477  1
  Ir  Ir18  1  0.750000  0.746546  0.691496  1
  Ir  Ir19  1  0.250000  0.732022  0.192231  1
  Ir  Ir20  1  0.250000  0.751410  0.930769  1
  Ir  Ir21  1  0.250000  0.247301  0.559082  1
  Ir  Ir22  1  0.750000  0.254612  0.062924  1
  Ir  Ir23  1  0.250000  0.239781  0.311965  1
