# generated using pymatgen
data_Dy4LuCo19(SiP5)2
_symmetry_space_group_name_H-M   'P 1'
_cell_length_a   12.01736432
_cell_length_b   12.00914696
_cell_length_c   3.67813000
_cell_angle_alpha   90.00000000
_cell_angle_beta   90.00000000
_cell_angle_gamma   119.96479032
_symmetry_Int_Tables_number   1
_chemical_formula_structural   Dy4LuCo19(SiP5)2
_chemical_formula_sum   'Dy4 Lu1 Co19 Si2 P10'
_cell_volume   459.86787317
_cell_formula_units_Z   1
loop_
 _symmetry_equiv_pos_site_id
 _symmetry_equiv_pos_as_xyz
  1  'x, y, z'
loop_
 _atom_site_type_symbol
 _atom_site_label
 _atom_site_symmetry_multiplicity
 _atom_site_fract_x
 _atom_site_fract_y
 _atom_site_fract_z
 _atom_site_occupancy
  Dy  Dy0  1  0.665323  0.332649  0.000000  1
  Dy  Dy1  1  0.334470  0.667501  0.000000  1
  Dy  Dy2  1  0.815725  0.000748  0.500000  1
  Dy  Dy3  1  0.000223  0.812337  0.500000  1
  Lu  Lu4  1  0.185240  0.185608  0.500000  1
  Co  Co5  1  0.558582  0.555202  0.000000  1
  Co  Co6  1  0.440501  0.997195  0.000000  1
  Co  Co7  1  0.000545  0.447791  0.000000  1
  Co  Co8  1  0.825476  0.203660  0.000000  1
  Co  Co9  1  0.801852  0.622522  0.000000  1
  Co  Co10  1  0.375855  0.174771  0.000000  1
  Co  Co11  1  0.198035  0.821435  0.000000  1
  Co  Co12  1  0.622895  0.797248  0.000000  1
  Co  Co13  1  0.175806  0.377957  0.000000  1
  Co  Co14  1  0.640834  0.126610  0.500000  1
  Co  Co15  1  0.874887  0.516302  0.500000  1
  Co  Co16  1  0.484488  0.357363  0.500000  1
  Co  Co17  1  0.125010  0.641734  0.500000  1
  Co  Co18  1  0.514245  0.872438  0.500000  1
  Co  Co19  1  0.358695  0.484931  0.500000  1
  Co  Co20  1  0.717330  0.715736  0.500000  1
  Co  Co21  1  0.282302  0.999376  0.500000  1
  Co  Co22  1  0.000985  0.285843  0.500000  1
  Co  Co23  1  0.001037  0.001754  0.000000  1
  Si  Si24  1  0.368032  0.368021  0.000000  1
  Si  Si25  1  0.630326  0.999931  0.000000  1
  P  P26  1  0.999937  0.631186  0.000000  1
  P  P27  1  0.833390  0.313358  0.500000  1
  P  P28  1  0.685556  0.520093  0.500000  1
  P  P29  1  0.478203  0.164694  0.500000  1
  P  P30  1  0.313671  0.834784  0.500000  1
  P  P31  1  0.521446  0.685910  0.500000  1
  P  P32  1  0.167117  0.480628  0.500000  1
  P  P33  1  0.819644  0.818948  0.000000  1
  P  P34  1  0.180582  0.000934  0.000000  1
  P  P35  1  0.001753  0.182798  0.000000  1
