# generated using pymatgen
data_Li4MgSb3Pd8
_symmetry_space_group_name_H-M   'P 1'
_cell_length_a   4.50997200
_cell_length_b   6.23934500
_cell_length_c   9.01630300
_cell_angle_alpha   90.00000283
_cell_angle_beta   90.00017790
_cell_angle_gamma   90.00000000
_symmetry_Int_Tables_number   1
_chemical_formula_structural   Li4MgSb3Pd8
_chemical_formula_sum   'Li4 Mg1 Sb3 Pd8'
_cell_volume   253.71219577
_cell_formula_units_Z   1
loop_
 _symmetry_equiv_pos_site_id
 _symmetry_equiv_pos_as_xyz
  1  'x, y, z'
loop_
 _atom_site_type_symbol
 _atom_site_label
 _atom_site_symmetry_multiplicity
 _atom_site_fract_x
 _atom_site_fract_y
 _atom_site_fract_z
 _atom_site_occupancy
  Li  Li0  1  0.248706  0.749997  0.125005  1
  Li  Li1  1  0.748666  0.250001  0.374048  1
  Li  Li2  1  0.251321  0.749999  0.625003  1
  Li  Li3  1  0.751235  0.250000  0.875881  1
  Mg  Mg4  1  0.248594  0.250000  0.124991  1
  Sb  Sb5  1  0.748717  0.750001  0.370037  1
  Sb  Sb6  1  0.251382  0.250001  0.625020  1
  Sb  Sb7  1  0.751431  0.750000  0.879993  1
  Pd  Pd8  1  0.748403  0.003535  0.125039  1
  Pd  Pd9  1  0.748400  0.496471  0.125037  1
  Pd  Pd10  1  0.248521  0.001209  0.374062  1
  Pd  Pd11  1  0.248522  0.498788  0.374064  1
  Pd  Pd12  1  0.751582  0.000126  0.625034  1
  Pd  Pd13  1  0.751585  0.499883  0.625035  1
  Pd  Pd14  1  0.251464  0.001215  0.875875  1
  Pd  Pd15  1  0.251462  0.498777  0.875876  1
