# generated using pymatgen
data_Y3ErGa12Rh
_symmetry_space_group_name_H-M   'P 1'
_cell_length_a   7.46326742
_cell_length_b   7.46326728
_cell_length_c   7.46326720
_cell_angle_alpha   109.42589119
_cell_angle_beta   109.42589047
_cell_angle_gamma   109.42588454
_symmetry_Int_Tables_number   1
_chemical_formula_structural   Y3ErGa12Rh
_chemical_formula_sum   'Y3 Er1 Ga12 Rh1'
_cell_volume   320.54711305
_cell_formula_units_Z   1
loop_
 _symmetry_equiv_pos_site_id
 _symmetry_equiv_pos_as_xyz
  1  'x, y, z'
loop_
 _atom_site_type_symbol
 _atom_site_label
 _atom_site_symmetry_multiplicity
 _atom_site_fract_x
 _atom_site_fract_y
 _atom_site_fract_z
 _atom_site_occupancy
  Y  Y0  1  0.000000  0.000000  0.500000  1
  Y  Y1  1  0.000000  0.500000  0.000000  1
  Y  Y2  1  0.500000  0.000000  0.000000  1
  Er  Er3  1  0.500000  0.500000  0.500000  1
  Ga  Ga4  1  0.749463  0.250537  0.500000  1
  Ga  Ga5  1  0.749463  0.500000  0.250537  1
  Ga  Ga6  1  0.500000  0.250537  0.749463  1
  Ga  Ga7  1  0.250537  0.500000  0.749463  1
  Ga  Ga8  1  0.250537  0.749463  0.500000  1
  Ga  Ga9  1  0.500000  0.749463  0.250537  1
  Ga  Ga10  1  0.709060  0.709060  0.998957  1
  Ga  Ga11  1  0.290940  0.001043  0.290940  1
  Ga  Ga12  1  0.001043  0.290940  0.290940  1
  Ga  Ga13  1  0.290940  0.290940  0.001043  1
  Ga  Ga14  1  0.709060  0.998957  0.709060  1
  Ga  Ga15  1  0.998957  0.709060  0.709060  1
  Rh  Rh16  1  0.000000  0.000000  0.000000  1
