# generated using pymatgen
data_K3(GaPt)4
_symmetry_space_group_name_H-M   'P 1'
_cell_length_a   6.80129352
_cell_length_b   6.80129364
_cell_length_c   11.86592500
_cell_angle_alpha   90.00000000
_cell_angle_beta   90.00000000
_cell_angle_gamma   105.00188925
_symmetry_Int_Tables_number   1
_chemical_formula_structural   K3(GaPt)4
_chemical_formula_sum   'K6 Ga8 Pt8'
_cell_volume   530.18151630
_cell_formula_units_Z   2
loop_
 _symmetry_equiv_pos_site_id
 _symmetry_equiv_pos_as_xyz
  1  'x, y, z'
loop_
 _atom_site_type_symbol
 _atom_site_label
 _atom_site_symmetry_multiplicity
 _atom_site_fract_x
 _atom_site_fract_y
 _atom_site_fract_z
 _atom_site_occupancy
  K  K0  1  0.204829  0.795171  0.500000  1
  K  K1  1  0.204829  0.795171  0.000000  1
  K  K2  1  0.795171  0.204829  0.500000  1
  K  K3  1  0.795171  0.204829  0.000000  1
  K  K4  1  0.017551  0.017551  0.250000  1
  K  K5  1  0.982449  0.982449  0.750000  1
  Ga  Ga6  1  0.501241  0.887997  0.250000  1
  Ga  Ga7  1  0.112003  0.498759  0.750000  1
  Ga  Ga8  1  0.498759  0.112003  0.750000  1
  Ga  Ga9  1  0.887997  0.501241  0.250000  1
  Ga  Ga10  1  0.347222  0.347222  0.420604  1
  Ga  Ga11  1  0.652778  0.652778  0.579396  1
  Ga  Ga12  1  0.347222  0.347222  0.079396  1
  Ga  Ga13  1  0.652778  0.652778  0.920604  1
  Pt  Pt14  1  0.533812  0.253495  0.250000  1
  Pt  Pt15  1  0.746505  0.466188  0.750000  1
  Pt  Pt16  1  0.466188  0.746505  0.750000  1
  Pt  Pt17  1  0.253495  0.533812  0.250000  1
  Pt  Pt18  1  0.346219  0.346219  0.873583  1
  Pt  Pt19  1  0.653781  0.653781  0.126417  1
  Pt  Pt20  1  0.346219  0.346219  0.626417  1
  Pt  Pt21  1  0.653781  0.653781  0.373583  1
