# generated using pymatgen
data_ZrBe3NiIr
_symmetry_space_group_name_H-M   'P 1'
_cell_length_a   4.54876202
_cell_length_b   4.54876174
_cell_length_c   4.54876192
_cell_angle_alpha   61.83705717
_cell_angle_beta   61.83706075
_cell_angle_gamma   61.83705348
_symmetry_Int_Tables_number   1
_chemical_formula_structural   ZrBe3NiIr
_chemical_formula_sum   'Zr1 Be3 Ni1 Ir1'
_cell_volume   69.29042871
_cell_formula_units_Z   1
loop_
 _symmetry_equiv_pos_site_id
 _symmetry_equiv_pos_as_xyz
  1  'x, y, z'
loop_
 _atom_site_type_symbol
 _atom_site_label
 _atom_site_symmetry_multiplicity
 _atom_site_fract_x
 _atom_site_fract_y
 _atom_site_fract_z
 _atom_site_occupancy
  Zr  Zr0  1  0.999224  0.999224  0.999224  1
  Be  Be1  1  0.379148  0.865752  0.379148  1
  Be  Be2  1  0.379148  0.379148  0.865752  1
  Be  Be3  1  0.865752  0.379148  0.379148  1
  Ni  Ni4  1  0.372979  0.372979  0.372979  1
  Ir  Ir5  1  0.753750  0.753750  0.753750  1
