# generated using pymatgen
data_KTm(PSe3)2
_symmetry_space_group_name_H-M   'P 1'
_cell_length_a   7.62031300
_cell_length_b   6.85063890
_cell_length_c   10.58033364
_cell_angle_alpha   87.47518162
_cell_angle_beta   90.00000000
_cell_angle_gamma   90.00000000
_symmetry_Int_Tables_number   1
_chemical_formula_structural   KTm(PSe3)2
_chemical_formula_sum   'K2 Tm2 P4 Se12'
_cell_volume   551.79968264
_cell_formula_units_Z   2
loop_
 _symmetry_equiv_pos_site_id
 _symmetry_equiv_pos_as_xyz
  1  'x, y, z'
loop_
 _atom_site_type_symbol
 _atom_site_label
 _atom_site_symmetry_multiplicity
 _atom_site_fract_x
 _atom_site_fract_y
 _atom_site_fract_z
 _atom_site_occupancy
  K  K0  1  0.045464  0.311259  0.494848  1
  K  K1  1  0.545464  0.688741  0.505152  1
  Tm  Tm2  1  0.266182  0.219104  0.997381  1
  Tm  Tm3  1  0.766182  0.780896  0.002619  1
  P  P4  1  0.750962  0.318795  0.830567  1
  P  P5  1  0.250962  0.681205  0.169433  1
  P  P6  1  0.032184  0.802272  0.287488  1
  P  P7  1  0.532184  0.197728  0.712512  1
  Se  Se8  1  0.623890  0.375292  0.017346  1
  Se  Se9  1  0.121309  0.832345  0.478780  1
  Se  Se10  1  0.951647  0.080029  0.838791  1
  Se  Se11  1  0.817630  0.595137  0.261657  1
  Se  Se12  1  0.347487  0.400213  0.248854  1
  Se  Se13  1  0.317630  0.404863  0.738343  1
  Se  Se14  1  0.456744  0.938780  0.839221  1
  Se  Se15  1  0.956744  0.061220  0.160779  1
  Se  Se16  1  0.621309  0.167655  0.521220  1
  Se  Se17  1  0.123890  0.624708  0.982654  1
  Se  Se18  1  0.451647  0.919971  0.161209  1
  Se  Se19  1  0.847487  0.599787  0.751146  1
