# generated using pymatgen
data_NaLiNdPt3
_symmetry_space_group_name_H-M   'P 1'
_cell_length_a   5.24238243
_cell_length_b   5.24238129
_cell_length_c   5.24238072
_cell_angle_alpha   63.65345501
_cell_angle_beta   63.65345060
_cell_angle_gamma   63.65345121
_symmetry_Int_Tables_number   1
_chemical_formula_structural   NaLiNdPt3
_chemical_formula_sum   'Na1 Li1 Nd1 Pt3'
_cell_volume   110.09616308
_cell_formula_units_Z   1
loop_
 _symmetry_equiv_pos_site_id
 _symmetry_equiv_pos_as_xyz
  1  'x, y, z'
loop_
 _atom_site_type_symbol
 _atom_site_label
 _atom_site_symmetry_multiplicity
 _atom_site_fract_x
 _atom_site_fract_y
 _atom_site_fract_z
 _atom_site_occupancy
  Na  Na0  1  0.996759  0.996759  0.996759  1
  Li  Li1  1  0.628443  0.628443  0.628443  1
  Nd  Nd2  1  0.244348  0.244348  0.244348  1
  Pt  Pt3  1  0.627281  0.627281  0.125889  1
  Pt  Pt4  1  0.627281  0.125889  0.627281  1
  Pt  Pt5  1  0.125889  0.627281  0.627281  1
