# generated using pymatgen
data_Ca11Pr9Sn7Pb9
_symmetry_space_group_name_H-M   'P 1'
_cell_length_a   8.08796200
_cell_length_b   8.65290113
_cell_length_c   16.29934135
_cell_angle_alpha   89.95345637
_cell_angle_beta   89.98611928
_cell_angle_gamma   90.18568536
_symmetry_Int_Tables_number   1
_chemical_formula_structural   Ca11Pr9Sn7Pb9
_chemical_formula_sum   'Ca11 Pr9 Sn7 Pb9'
_cell_volume   1140.69217376
_cell_formula_units_Z   1
loop_
 _symmetry_equiv_pos_site_id
 _symmetry_equiv_pos_as_xyz
  1  'x, y, z'
loop_
 _atom_site_type_symbol
 _atom_site_label
 _atom_site_symmetry_multiplicity
 _atom_site_fract_x
 _atom_site_fract_y
 _atom_site_fract_z
 _atom_site_occupancy
  Ca  Ca0  1  0.330315  0.831360  0.877667  1
  Ca  Ca1  1  0.833422  0.669974  0.623041  1
  Ca  Ca2  1  0.668098  0.169717  0.375519  1
  Ca  Ca3  1  0.169708  0.330313  0.125070  1
  Ca  Ca4  1  0.667152  0.170166  0.125227  1
  Ca  Ca5  1  0.167747  0.330247  0.375620  1
  Ca  Ca6  1  0.329732  0.831331  0.622803  1
  Ca  Ca7  1  0.159497  0.497617  0.748677  1
  Ca  Ca8  1  0.660479  0.001774  0.748309  1
  Ca  Ca9  1  0.839040  0.498463  0.250183  1
  Ca  Ca10  1  0.338433  0.002580  0.250495  1
  Pr  Pr11  1  0.835837  0.673091  0.874707  1
  Pr  Pr12  1  0.493048  0.310201  0.903805  1
  Pr  Pr13  1  0.993895  0.185812  0.597708  1
  Pr  Pr14  1  0.506401  0.687221  0.401187  1
  Pr  Pr15  1  0.008674  0.813352  0.100491  1
  Pr  Pr16  1  0.506499  0.686444  0.100069  1
  Pr  Pr17  1  0.006112  0.812655  0.400778  1
  Pr  Pr18  1  0.492737  0.311606  0.595559  1
  Pr  Pr19  1  0.994328  0.183809  0.901417  1
  Sn  Sn20  1  0.032791  0.899180  0.750107  1
  Sn  Sn21  1  0.468154  0.399949  0.250650  1
  Sn  Sn22  1  0.967922  0.101453  0.249970  1
  Sn  Sn23  1  0.288069  0.141908  0.749653  1
  Sn  Sn24  1  0.787641  0.356541  0.750738  1
  Sn  Sn25  1  0.712869  0.858408  0.249797  1
  Sn  Sn26  1  0.213888  0.642703  0.250177  1
  Pb  Pb27  1  0.323157  0.037164  0.040222  1
  Pb  Pb28  1  0.823967  0.464307  0.460061  1
  Pb  Pb29  1  0.676011  0.963702  0.539187  1
  Pb  Pb30  1  0.176090  0.533645  0.959961  1
  Pb  Pb31  1  0.676425  0.964238  0.961267  1
  Pb  Pb32  1  0.175239  0.535026  0.539314  1
  Pb  Pb33  1  0.323445  0.036422  0.460190  1
  Pb  Pb34  1  0.823749  0.463605  0.039707  1
  Pb  Pb35  1  0.529428  0.604016  0.750668  1
