# generated using pymatgen
data_Pr12Ir2RhAu
_symmetry_space_group_name_H-M   'P 1'
_cell_length_a   6.64360172
_cell_length_b   7.42549107
_cell_length_c   10.10756400
_cell_angle_alpha   90.00000000
_cell_angle_beta   90.00000000
_cell_angle_gamma   90.16725676
_symmetry_Int_Tables_number   1
_chemical_formula_structural   Pr12Ir2RhAu
_chemical_formula_sum   'Pr12 Ir2 Rh1 Au1'
_cell_volume   498.62427596
_cell_formula_units_Z   1
loop_
 _symmetry_equiv_pos_site_id
 _symmetry_equiv_pos_as_xyz
  1  'x, y, z'
loop_
 _atom_site_type_symbol
 _atom_site_label
 _atom_site_symmetry_multiplicity
 _atom_site_fract_x
 _atom_site_fract_y
 _atom_site_fract_z
 _atom_site_occupancy
  Pr  Pr0  1  0.339330  0.669491  0.060608  1
  Pr  Pr1  1  0.172946  0.186356  0.440871  1
  Pr  Pr2  1  0.672540  0.324858  0.566036  1
  Pr  Pr3  1  0.830138  0.824806  0.931357  1
  Pr  Pr4  1  0.672540  0.324858  0.933964  1
  Pr  Pr5  1  0.830138  0.824806  0.568643  1
  Pr  Pr6  1  0.339330  0.669491  0.439392  1
  Pr  Pr7  1  0.172946  0.186356  0.059129  1
  Pr  Pr8  1  0.850276  0.519271  0.250000  1
  Pr  Pr9  1  0.625198  0.039158  0.250000  1
  Pr  Pr10  1  0.144401  0.463787  0.750000  1
  Pr  Pr11  1  0.358955  0.960984  0.750000  1
  Ir  Ir12  1  0.429619  0.381825  0.250000  1
  Ir  Ir13  1  0.563239  0.619086  0.750000  1
  Rh  Rh14  1  0.934836  0.119415  0.750000  1
  Au  Au15  1  0.063565  0.885455  0.250000  1
