# generated using pymatgen
data_Na5LiSi2S7
_symmetry_space_group_name_H-M   'P 1'
_cell_length_a   6.81022614
_cell_length_b   6.81022695
_cell_length_c   14.73878698
_cell_angle_alpha   80.66770240
_cell_angle_beta   80.66770233
_cell_angle_gamma   95.78928513
_symmetry_Int_Tables_number   1
_chemical_formula_structural   Na5LiSi2S7
_chemical_formula_sum   'Na10 Li2 Si4 S14'
_cell_volume   659.89699087
_cell_formula_units_Z   2
loop_
 _symmetry_equiv_pos_site_id
 _symmetry_equiv_pos_as_xyz
  1  'x, y, z'
loop_
 _atom_site_type_symbol
 _atom_site_label
 _atom_site_symmetry_multiplicity
 _atom_site_fract_x
 _atom_site_fract_y
 _atom_site_fract_z
 _atom_site_occupancy
  Na  Na0  1  0.026283  0.734972  0.580891  1
  Na  Na1  1  0.265028  0.973717  0.919109  1
  Na  Na2  1  0.973717  0.265028  0.419109  1
  Na  Na3  1  0.734972  0.026283  0.080891  1
  Na  Na4  1  0.500000  0.500000  0.500000  1
  Na  Na5  1  0.500000  0.500000  0.000000  1
  Na  Na6  1  0.962481  0.518421  0.140216  1
  Na  Na7  1  0.481579  0.037519  0.359784  1
  Na  Na8  1  0.037519  0.481579  0.859784  1
  Na  Na9  1  0.518421  0.962481  0.640216  1
  Li  Li10  1  0.414529  0.585471  0.250000  1
  Li  Li11  1  0.585471  0.414529  0.750000  1
  Si  Si12  1  0.919836  0.764200  0.357390  1
  Si  Si13  1  0.235800  0.080164  0.142610  1
  Si  Si14  1  0.080164  0.235800  0.642610  1
  Si  Si15  1  0.764200  0.919836  0.857390  1
  S  S16  1  0.745859  0.869196  0.469337  1
  S  S17  1  0.130804  0.254141  0.030663  1
  S  S18  1  0.254141  0.130804  0.530663  1
  S  S19  1  0.869196  0.745859  0.969337  1
  S  S20  1  0.196668  0.676171  0.386261  1
  S  S21  1  0.323829  0.803332  0.113739  1
  S  S22  1  0.803332  0.323829  0.613739  1
  S  S23  1  0.676171  0.196668  0.886261  1
  S  S24  1  0.742718  0.530162  0.315602  1
  S  S25  1  0.469838  0.257282  0.184398  1
  S  S26  1  0.257282  0.469838  0.684398  1
  S  S27  1  0.530162  0.742718  0.815602  1
  S  S28  1  0.962544  0.037456  0.250000  1
  S  S29  1  0.037456  0.962544  0.750000  1
