# generated using pymatgen
data_Y2Er14In6CoOs
_symmetry_space_group_name_H-M   'P 1'
_cell_length_a   10.28704900
_cell_length_b   10.28704945
_cell_length_c   7.01848700
_cell_angle_alpha   90.00000000
_cell_angle_beta   90.00000000
_cell_angle_gamma   120.00000175
_symmetry_Int_Tables_number   1
_chemical_formula_structural   Y2Er14In6CoOs
_chemical_formula_sum   'Y2 Er14 In6 Co1 Os1'
_cell_volume   643.21440206
_cell_formula_units_Z   1
loop_
 _symmetry_equiv_pos_site_id
 _symmetry_equiv_pos_as_xyz
  1  'x, y, z'
loop_
 _atom_site_type_symbol
 _atom_site_label
 _atom_site_symmetry_multiplicity
 _atom_site_fract_x
 _atom_site_fract_y
 _atom_site_fract_z
 _atom_site_occupancy
  Y  Y0  1  0.000000  0.000000  0.496185  1
  Y  Y1  1  0.000000  0.000000  0.998430  1
  Er  Er2  1  0.466022  0.533978  0.480967  1
  Er  Er3  1  0.067956  0.533978  0.480967  1
  Er  Er4  1  0.466022  0.932044  0.480967  1
  Er  Er5  1  0.535640  0.464360  0.981611  1
  Er  Er6  1  0.928719  0.464360  0.981611  1
  Er  Er7  1  0.535640  0.071281  0.981611  1
  Er  Er8  1  0.821641  0.178359  0.275974  1
  Er  Er9  1  0.356717  0.178359  0.275974  1
  Er  Er10  1  0.821641  0.643283  0.275974  1
  Er  Er11  1  0.177084  0.822916  0.776526  1
  Er  Er12  1  0.645830  0.822916  0.776526  1
  Er  Er13  1  0.177084  0.354170  0.776526  1
  Er  Er14  1  0.333333  0.666667  0.101253  1
  Er  Er15  1  0.666667  0.333333  0.591942  1
  In  In16  1  0.162560  0.837440  0.233490  1
  In  In17  1  0.674882  0.837440  0.233490  1
  In  In18  1  0.162560  0.325118  0.233490  1
  In  In19  1  0.836306  0.163694  0.732932  1
  In  In20  1  0.327387  0.163694  0.732932  1
  In  In21  1  0.836306  0.672613  0.732932  1
  Co  Co22  1  0.666667  0.333333  0.207283  1
  Os  Os23  1  0.333333  0.666667  0.704961  1
