# generated using pymatgen
data_Tb4Ho4Sc12Si15Ir
_symmetry_space_group_name_H-M   'P 1'
_cell_length_a   7.08692769
_cell_length_b   7.43899621
_cell_length_c   13.96744823
_cell_angle_alpha   90.00481490
_cell_angle_beta   89.97959709
_cell_angle_gamma   90.13718213
_symmetry_Int_Tables_number   1
_chemical_formula_structural   Tb4Ho4Sc12Si15Ir
_chemical_formula_sum   'Tb4 Ho4 Sc12 Si15 Ir1'
_cell_volume   736.35651792
_cell_formula_units_Z   1
loop_
 _symmetry_equiv_pos_site_id
 _symmetry_equiv_pos_as_xyz
  1  'x, y, z'
loop_
 _atom_site_type_symbol
 _atom_site_label
 _atom_site_symmetry_multiplicity
 _atom_site_fract_x
 _atom_site_fract_y
 _atom_site_fract_z
 _atom_site_occupancy
  Tb  Tb0  1  0.511434  0.323809  0.095890  1
  Tb  Tb1  1  0.011278  0.178497  0.404027  1
  Tb  Tb2  1  0.511330  0.323929  0.403494  1
  Tb  Tb3  1  0.488972  0.676163  0.595682  1
  Ho  Ho4  1  0.011812  0.179220  0.096351  1
  Ho  Ho5  1  0.990607  0.825537  0.904011  1
  Ho  Ho6  1  0.488523  0.677103  0.904046  1
  Ho  Ho7  1  0.990629  0.825587  0.596524  1
  Sc  Sc8  1  0.157525  0.500112  0.750181  1
  Sc  Sc9  1  0.838115  0.496906  0.249819  1
  Sc  Sc10  1  0.339255  0.004928  0.249761  1
  Sc  Sc11  1  0.668397  0.997621  0.750141  1
  Sc  Sc12  1  0.319697  0.171939  0.627383  1
  Sc  Sc13  1  0.672140  0.826074  0.373524  1
  Sc  Sc14  1  0.170834  0.677968  0.374058  1
  Sc  Sc15  1  0.671885  0.825883  0.125952  1
  Sc  Sc16  1  0.835336  0.320090  0.627502  1
  Sc  Sc17  1  0.319353  0.171957  0.872990  1
  Sc  Sc18  1  0.835868  0.319580  0.872952  1
  Sc  Sc19  1  0.171129  0.677881  0.125559  1
  Si  Si20  1  0.969383  0.885221  0.249628  1
  Si  Si21  1  0.468526  0.616022  0.249766  1
  Si  Si22  1  0.529975  0.387950  0.750550  1
  Si  Si23  1  0.286396  0.867078  0.750461  1
  Si  Si24  1  0.714042  0.129869  0.249389  1
  Si  Si25  1  0.212587  0.372286  0.249552  1
  Si  Si26  1  0.779558  0.625467  0.750651  1
  Si  Si27  1  0.158393  0.468422  0.538023  1
  Si  Si28  1  0.843676  0.537233  0.461885  1
  Si  Si29  1  0.345599  0.965741  0.460524  1
  Si  Si30  1  0.844146  0.536281  0.038291  1
  Si  Si31  1  0.656649  0.034066  0.538570  1
  Si  Si32  1  0.159498  0.468140  0.962067  1
  Si  Si33  1  0.656257  0.033165  0.961199  1
  Si  Si34  1  0.344565  0.965613  0.039399  1
  Ir  Ir35  1  0.026628  0.106663  0.750196  1
