# generated using pymatgen
data_CeSc5Tc2
_symmetry_space_group_name_H-M   'P 1'
_cell_length_a   5.99020000
_cell_length_b   8.72153900
_cell_length_c   13.78597500
_cell_angle_alpha   90.00000000
_cell_angle_beta   90.00000000
_cell_angle_gamma   90.00000000
_symmetry_Int_Tables_number   1
_chemical_formula_structural   CeSc5Tc2
_chemical_formula_sum   'Ce4 Sc20 Tc8'
_cell_volume   720.23120949
_cell_formula_units_Z   4
loop_
 _symmetry_equiv_pos_site_id
 _symmetry_equiv_pos_as_xyz
  1  'x, y, z'
loop_
 _atom_site_type_symbol
 _atom_site_label
 _atom_site_symmetry_multiplicity
 _atom_site_fract_x
 _atom_site_fract_y
 _atom_site_fract_z
 _atom_site_occupancy
  Ce  Ce0  1  0.550687  0.750000  0.349960  1
  Ce  Ce1  1  0.050687  0.250000  0.150040  1
  Ce  Ce2  1  0.449313  0.250000  0.650040  1
  Ce  Ce3  1  0.949313  0.750000  0.849960  1
  Sc  Sc4  1  0.812341  0.750000  0.110577  1
  Sc  Sc5  1  0.312341  0.250000  0.389423  1
  Sc  Sc6  1  0.187659  0.250000  0.889423  1
  Sc  Sc7  1  0.687659  0.750000  0.610577  1
  Sc  Sc8  1  0.419801  0.936587  0.791804  1
  Sc  Sc9  1  0.919801  0.063413  0.708196  1
  Sc  Sc10  1  0.580199  0.436587  0.208196  1
  Sc  Sc11  1  0.080199  0.563413  0.291804  1
  Sc  Sc12  1  0.580199  0.063413  0.208196  1
  Sc  Sc13  1  0.080199  0.936587  0.291804  1
  Sc  Sc14  1  0.419801  0.563413  0.791804  1
  Sc  Sc15  1  0.919801  0.436587  0.708196  1
  Sc  Sc16  1  0.240308  0.937334  0.532504  1
  Sc  Sc17  1  0.740308  0.062666  0.967496  1
  Sc  Sc18  1  0.759692  0.437334  0.467496  1
  Sc  Sc19  1  0.259692  0.562666  0.032504  1
  Sc  Sc20  1  0.759692  0.062666  0.467496  1
  Sc  Sc21  1  0.259692  0.937334  0.032504  1
  Sc  Sc22  1  0.240308  0.562666  0.532504  1
  Sc  Sc23  1  0.740308  0.437334  0.967496  1
  Tc  Tc24  1  0.918642  0.750000  0.443957  1
  Tc  Tc25  1  0.418642  0.250000  0.056043  1
  Tc  Tc26  1  0.081358  0.250000  0.556043  1
  Tc  Tc27  1  0.581358  0.750000  0.943957  1
  Tc  Tc28  1  0.389639  0.750000  0.189387  1
  Tc  Tc29  1  0.889639  0.250000  0.310613  1
  Tc  Tc30  1  0.610361  0.250000  0.810613  1
  Tc  Tc31  1  0.110361  0.750000  0.689387  1
