# generated using pymatgen
data_ErLu5TcSb2
_symmetry_space_group_name_H-M   'P 1'
_cell_length_a   8.02291600
_cell_length_b   8.00947120
_cell_length_c   4.23198800
_cell_angle_alpha   90.00000000
_cell_angle_beta   90.00000000
_cell_angle_gamma   120.05554363
_symmetry_Int_Tables_number   1
_chemical_formula_structural   ErLu5TcSb2
_chemical_formula_sum   'Er1 Lu5 Tc1 Sb2'
_cell_volume   235.37904903
_cell_formula_units_Z   1
loop_
 _symmetry_equiv_pos_site_id
 _symmetry_equiv_pos_as_xyz
  1  'x, y, z'
loop_
 _atom_site_type_symbol
 _atom_site_label
 _atom_site_symmetry_multiplicity
 _atom_site_fract_x
 _atom_site_fract_y
 _atom_site_fract_z
 _atom_site_occupancy
  Er  Er0  1  0.606188  0.000000  0.000000  1
  Lu  Lu1  1  0.234974  0.000000  0.500000  1
  Lu  Lu2  1  0.000583  0.235178  0.500000  1
  Lu  Lu3  1  0.765406  0.764822  0.500000  1
  Lu  Lu4  1  0.999786  0.607483  0.000000  1
  Lu  Lu5  1  0.392303  0.392517  0.000000  1
  Tc  Tc6  1  0.001328  0.000000  0.000000  1
  Sb  Sb7  1  0.332747  0.666064  0.500000  1
  Sb  Sb8  1  0.666684  0.333936  0.500000  1
