# generated using pymatgen
data_Dy4Tm4Sc11Si16Au
_symmetry_space_group_name_H-M   'P 1'
_cell_length_a   6.98832839
_cell_length_b   7.37234364
_cell_length_c   13.97829069
_cell_angle_alpha   90.01299297
_cell_angle_beta   90.03347262
_cell_angle_gamma   89.84424040
_symmetry_Int_Tables_number   1
_chemical_formula_structural   Dy4Tm4Sc11Si16Au
_chemical_formula_sum   'Dy4 Tm4 Sc11 Si16 Au1'
_cell_volume   720.16374351
_cell_formula_units_Z   1
loop_
 _symmetry_equiv_pos_site_id
 _symmetry_equiv_pos_as_xyz
  1  'x, y, z'
loop_
 _atom_site_type_symbol
 _atom_site_label
 _atom_site_symmetry_multiplicity
 _atom_site_fract_x
 _atom_site_fract_y
 _atom_site_fract_z
 _atom_site_occupancy
  Dy  Dy0  1  0.010304  0.175658  0.096204  1
  Dy  Dy1  1  0.991019  0.814371  0.902056  1
  Dy  Dy2  1  0.486410  0.672657  0.902562  1
  Dy  Dy3  1  0.991012  0.814111  0.597335  1
  Tm  Tm4  1  0.509716  0.322746  0.096713  1
  Tm  Tm5  1  0.011064  0.176402  0.403467  1
  Tm  Tm6  1  0.509774  0.322626  0.403985  1
  Tm  Tm7  1  0.486184  0.672859  0.597677  1
  Sc  Sc8  1  0.838427  0.497189  0.250264  1
  Sc  Sc9  1  0.340758  0.004041  0.250216  1
  Sc  Sc10  1  0.655598  0.997430  0.749785  1
  Sc  Sc11  1  0.323507  0.183191  0.627270  1
  Sc  Sc12  1  0.671272  0.823881  0.375008  1
  Sc  Sc13  1  0.170798  0.678524  0.373777  1
  Sc  Sc14  1  0.671270  0.823958  0.125452  1
  Sc  Sc15  1  0.837806  0.327805  0.627053  1
  Sc  Sc16  1  0.323488  0.182973  0.872412  1
  Sc  Sc17  1  0.838031  0.328020  0.872361  1
  Sc  Sc18  1  0.171000  0.678346  0.126523  1
  Si  Si19  1  0.025700  0.093451  0.749458  1
  Si  Si20  1  0.969726  0.889564  0.250691  1
  Si  Si21  1  0.468333  0.615217  0.250444  1
  Si  Si22  1  0.535208  0.385547  0.749407  1
  Si  Si23  1  0.288918  0.879598  0.749226  1
  Si  Si24  1  0.712632  0.130616  0.251024  1
  Si  Si25  1  0.213744  0.370594  0.250779  1
  Si  Si26  1  0.777074  0.629308  0.749039  1
  Si  Si27  1  0.164681  0.458433  0.529873  1
  Si  Si28  1  0.841140  0.533285  0.461315  1
  Si  Si29  1  0.343593  0.965996  0.462828  1
  Si  Si30  1  0.840794  0.534408  0.038394  1
  Si  Si31  1  0.656867  0.034353  0.540078  1
  Si  Si32  1  0.162875  0.458859  0.970082  1
  Si  Si33  1  0.657240  0.035430  0.960063  1
  Si  Si34  1  0.345217  0.966291  0.037223  1
  Au  Au35  1  0.158821  0.522263  0.749955  1
