# generated using pymatgen
data_BaAc(BeCu12)2
_symmetry_space_group_name_H-M   'P 1'
_cell_length_a   8.16362916
_cell_length_b   8.16362920
_cell_length_c   8.16362900
_cell_angle_alpha   59.99999676
_cell_angle_beta   59.99999661
_cell_angle_gamma   59.99999555
_symmetry_Int_Tables_number   1
_chemical_formula_structural   BaAc(BeCu12)2
_chemical_formula_sum   'Ba1 Ac1 Be2 Cu24'
_cell_volume   384.71114192
_cell_formula_units_Z   1
loop_
 _symmetry_equiv_pos_site_id
 _symmetry_equiv_pos_as_xyz
  1  'x, y, z'
loop_
 _atom_site_type_symbol
 _atom_site_label
 _atom_site_symmetry_multiplicity
 _atom_site_fract_x
 _atom_site_fract_y
 _atom_site_fract_z
 _atom_site_occupancy
  Ba  Ba0  1  0.250000  0.250000  0.250000  1
  Ac  Ac1  1  0.750000  0.750000  0.750000  1
  Be  Be2  1  0.500000  0.500000  0.500000  1
  Be  Be3  1  0.000000  0.000000  0.000000  1
  Cu  Cu4  1  0.789337  0.563854  0.209091  1
  Cu  Cu5  1  0.209091  0.437717  0.789337  1
  Cu  Cu6  1  0.563854  0.789337  0.437717  1
  Cu  Cu7  1  0.437717  0.209091  0.563854  1
  Cu  Cu8  1  0.290909  0.936146  0.710663  1
  Cu  Cu9  1  0.710663  0.062283  0.290909  1
  Cu  Cu10  1  0.936146  0.290909  0.062283  1
  Cu  Cu11  1  0.062283  0.710663  0.936146  1
  Cu  Cu12  1  0.209091  0.789337  0.563854  1
  Cu  Cu13  1  0.789337  0.209091  0.437717  1
  Cu  Cu14  1  0.437717  0.563854  0.789337  1
  Cu  Cu15  1  0.563854  0.437717  0.209091  1
  Cu  Cu16  1  0.710663  0.290909  0.936146  1
  Cu  Cu17  1  0.290909  0.710663  0.062283  1
  Cu  Cu18  1  0.062283  0.936146  0.290909  1
  Cu  Cu19  1  0.936146  0.062283  0.710663  1
  Cu  Cu20  1  0.563854  0.209091  0.789337  1
  Cu  Cu21  1  0.437717  0.789337  0.209091  1
  Cu  Cu22  1  0.789337  0.437717  0.563854  1
  Cu  Cu23  1  0.209091  0.563854  0.437717  1
  Cu  Cu24  1  0.936146  0.710663  0.290909  1
  Cu  Cu25  1  0.062283  0.290909  0.710663  1
  Cu  Cu26  1  0.290909  0.062283  0.936146  1
  Cu  Cu27  1  0.710663  0.936146  0.062283  1
