# generated using pymatgen
data_Pr8Y11ErSi16
_symmetry_space_group_name_H-M   'P 1'
_cell_length_a   7.54057302
_cell_length_b   7.82731202
_cell_length_c   14.89761700
_cell_angle_alpha   90.00000000
_cell_angle_beta   90.00000000
_cell_angle_gamma   90.00829152
_symmetry_Int_Tables_number   1
_chemical_formula_structural   Pr8Y11ErSi16
_chemical_formula_sum   'Pr8 Y11 Er1 Si16'
_cell_volume   879.29336617
_cell_formula_units_Z   1
loop_
 _symmetry_equiv_pos_site_id
 _symmetry_equiv_pos_as_xyz
  1  'x, y, z'
loop_
 _atom_site_type_symbol
 _atom_site_label
 _atom_site_symmetry_multiplicity
 _atom_site_fract_x
 _atom_site_fract_y
 _atom_site_fract_z
 _atom_site_occupancy
  Pr  Pr0  1  0.023354  0.179279  0.402199  1
  Pr  Pr1  1  0.523321  0.320721  0.402242  1
  Pr  Pr2  1  0.476850  0.679462  0.901876  1
  Pr  Pr3  1  0.476850  0.679462  0.598124  1
  Pr  Pr4  1  0.976305  0.820957  0.598182  1
  Pr  Pr5  1  0.976305  0.820957  0.901818  1
  Pr  Pr6  1  0.523321  0.320721  0.097758  1
  Pr  Pr7  1  0.023354  0.179279  0.097801  1
  Y  Y8  1  0.321203  0.178931  0.623036  1
  Y  Y9  1  0.679065  0.820919  0.377278  1
  Y  Y10  1  0.179189  0.679121  0.377248  1
  Y  Y11  1  0.820512  0.320585  0.877023  1
  Y  Y12  1  0.820512  0.320585  0.622977  1
  Y  Y13  1  0.847976  0.488408  0.250000  1
  Y  Y14  1  0.348026  0.011505  0.250000  1
  Y  Y15  1  0.321203  0.178931  0.876964  1
  Y  Y16  1  0.179189  0.679121  0.122752  1
  Y  Y17  1  0.679065  0.820919  0.122722  1
  Y  Y18  1  0.151955  0.511392  0.750000  1
  Er  Er19  1  0.652254  0.988515  0.750000  1
  Si  Si20  1  0.271068  0.880451  0.750000  1
  Si  Si21  1  0.472810  0.611330  0.250000  1
  Si  Si22  1  0.025952  0.111057  0.750000  1
  Si  Si23  1  0.527165  0.388250  0.750000  1
  Si  Si24  1  0.144395  0.469629  0.539700  1
  Si  Si25  1  0.972761  0.888530  0.250000  1
  Si  Si26  1  0.730421  0.119637  0.250000  1
  Si  Si27  1  0.855627  0.530360  0.039581  1
  Si  Si28  1  0.355589  0.969639  0.039543  1
  Si  Si29  1  0.144395  0.469629  0.960300  1
  Si  Si30  1  0.644424  0.030082  0.540144  1
  Si  Si31  1  0.355589  0.969639  0.460457  1
  Si  Si32  1  0.855627  0.530360  0.460419  1
  Si  Si33  1  0.769420  0.621242  0.750000  1
  Si  Si34  1  0.230520  0.380311  0.250000  1
  Si  Si35  1  0.644424  0.030082  0.959856  1
