# generated using pymatgen
data_Pr7Si4BiO20
_symmetry_space_group_name_H-M   'P 1'
_cell_length_a   7.44504831
_cell_length_b   6.98032473
_cell_length_c   9.40792876
_cell_angle_alpha   71.34086574
_cell_angle_beta   90.15785919
_cell_angle_gamma   90.41047372
_symmetry_Int_Tables_number   1
_chemical_formula_structural   Pr7Si4BiO20
_chemical_formula_sum   'Pr7 Si4 Bi1 O20'
_cell_volume   463.20911403
_cell_formula_units_Z   1
loop_
 _symmetry_equiv_pos_site_id
 _symmetry_equiv_pos_as_xyz
  1  'x, y, z'
loop_
 _atom_site_type_symbol
 _atom_site_label
 _atom_site_symmetry_multiplicity
 _atom_site_fract_x
 _atom_site_fract_y
 _atom_site_fract_z
 _atom_site_occupancy
  Pr  Pr0  1  0.127332  0.264494  0.018993  1
  Pr  Pr1  1  0.656568  0.096750  0.606231  1
  Pr  Pr2  1  0.845616  0.592734  0.610965  1
  Pr  Pr3  1  0.154970  0.406215  0.390414  1
  Pr  Pr4  1  0.345443  0.906953  0.390246  1
  Pr  Pr5  1  0.877343  0.728671  0.980038  1
  Pr  Pr6  1  0.375724  0.763245  0.021584  1
  Si  Si7  1  0.080524  0.043173  0.700723  1
  Si  Si8  1  0.579042  0.460671  0.299648  1
  Si  Si9  1  0.418526  0.544823  0.703105  1
  Si  Si10  1  0.919068  0.955228  0.298628  1
  Bi  Bi11  1  0.628792  0.218751  0.977365  1
  O  O12  1  0.567511  0.364104  0.709494  1
  O  O13  1  0.358771  0.501368  0.879541  1
  O  O14  1  0.376791  0.043023  0.115025  1
  O  O15  1  0.867150  0.998459  0.119145  1
  O  O16  1  0.249643  0.057525  0.589748  1
  O  O17  1  0.749228  0.943518  0.408097  1
  O  O18  1  0.037930  0.746986  0.367869  1
  O  O19  1  0.135426  0.994245  0.879393  1
  O  O20  1  0.461214  0.248956  0.364265  1
  O  O21  1  0.627753  0.962180  0.883211  1
  O  O22  1  0.071376  0.134183  0.291679  1
  O  O23  1  0.123116  0.547369  0.115618  1
  O  O24  1  0.746855  0.442831  0.413199  1
  O  O25  1  0.540829  0.753000  0.635213  1
  O  O26  1  0.961557  0.251825  0.632010  1
  O  O27  1  0.927479  0.865223  0.706280  1
  O  O28  1  0.635792  0.524311  0.121208  1
  O  O29  1  0.877991  0.447057  0.883318  1
  O  O30  1  0.424403  0.633366  0.297185  1
  O  O31  1  0.250234  0.558758  0.590563  1
