# generated using pymatgen
data_RbPaGeS5
_symmetry_space_group_name_H-M   'P 1'
_cell_length_a   7.87334744
_cell_length_b   7.40083321
_cell_length_c   9.53606741
_cell_angle_alpha   68.96182794
_cell_angle_beta   77.89491958
_cell_angle_gamma   74.09987067
_symmetry_Int_Tables_number   1
_chemical_formula_structural   RbPaGeS5
_chemical_formula_sum   'Rb2 Pa2 Ge2 S10'
_cell_volume   494.92579622
_cell_formula_units_Z   2
loop_
 _symmetry_equiv_pos_site_id
 _symmetry_equiv_pos_as_xyz
  1  'x, y, z'
loop_
 _atom_site_type_symbol
 _atom_site_label
 _atom_site_symmetry_multiplicity
 _atom_site_fract_x
 _atom_site_fract_y
 _atom_site_fract_z
 _atom_site_occupancy
  Rb  Rb0  1  0.594622  0.357791  0.308238  1
  Rb  Rb1  1  0.405378  0.642209  0.691762  1
  Pa  Pa2  1  0.244380  0.009285  0.005566  1
  Pa  Pa3  1  0.755620  0.990715  0.994434  1
  Ge  Ge4  1  0.978621  0.702972  0.382538  1
  Ge  Ge5  1  0.021379  0.297028  0.617462  1
  S  S6  1  0.071526  0.757136  0.001317  1
  S  S7  1  0.444237  0.229108  0.024960  1
  S  S8  1  0.712104  0.855607  0.304548  1
  S  S9  1  0.198107  0.865393  0.311728  1
  S  S10  1  0.066823  0.395175  0.359350  1
  S  S11  1  0.933177  0.604825  0.640650  1
  S  S12  1  0.801893  0.134607  0.688272  1
  S  S13  1  0.287896  0.144393  0.695452  1
  S  S14  1  0.555763  0.770892  0.975040  1
  S  S15  1  0.928474  0.242864  0.998683  1
