# generated using pymatgen
data_SrPr(ThIr4)2
_symmetry_space_group_name_H-M   'P 1'
_cell_length_a   9.45657392
_cell_length_b   9.45657391
_cell_length_c   9.45657401
_cell_angle_alpha   33.57824570
_cell_angle_beta   33.57824557
_cell_angle_gamma   33.57824372
_symmetry_Int_Tables_number   1
_chemical_formula_structural   SrPr(ThIr4)2
_chemical_formula_sum   'Sr1 Pr1 Th2 Ir8'
_cell_volume   230.42405148
_cell_formula_units_Z   1
loop_
 _symmetry_equiv_pos_site_id
 _symmetry_equiv_pos_as_xyz
  1  'x, y, z'
loop_
 _atom_site_type_symbol
 _atom_site_label
 _atom_site_symmetry_multiplicity
 _atom_site_fract_x
 _atom_site_fract_y
 _atom_site_fract_z
 _atom_site_occupancy
  Sr  Sr0  1  0.125824  0.125824  0.125824  1
  Pr  Pr1  1  0.623997  0.623997  0.623997  1
  Th  Th2  1  0.001675  0.001675  0.001675  1
  Th  Th3  1  0.498322  0.498322  0.498322  1
  Ir  Ir4  1  0.563070  0.563070  0.059428  1
  Ir  Ir5  1  0.062671  0.062671  0.564491  1
  Ir  Ir6  1  0.563070  0.059428  0.563070  1
  Ir  Ir7  1  0.062671  0.564491  0.062671  1
  Ir  Ir8  1  0.812365  0.812365  0.812365  1
  Ir  Ir9  1  0.312418  0.312418  0.312418  1
  Ir  Ir10  1  0.059428  0.563070  0.563070  1
  Ir  Ir11  1  0.564491  0.062671  0.062671  1
