# generated using pymatgen
data_Li8Tm8SnPb7
_symmetry_space_group_name_H-M   'P 1'
_cell_length_a   9.42502608
_cell_length_b   9.42602657
_cell_length_c   7.24505305
_cell_angle_alpha   90.00283008
_cell_angle_beta   89.98709889
_cell_angle_gamma   120.00398134
_symmetry_Int_Tables_number   1
_chemical_formula_structural   Li8Tm8SnPb7
_chemical_formula_sum   'Li8 Tm8 Sn1 Pb7'
_cell_volume   557.39874305
_cell_formula_units_Z   1
loop_
 _symmetry_equiv_pos_site_id
 _symmetry_equiv_pos_as_xyz
  1  'x, y, z'
loop_
 _atom_site_type_symbol
 _atom_site_label
 _atom_site_symmetry_multiplicity
 _atom_site_fract_x
 _atom_site_fract_y
 _atom_site_fract_z
 _atom_site_occupancy
  Li  Li0  1  0.166993  0.333561  0.211109  1
  Li  Li1  1  0.166887  0.833297  0.211060  1
  Li  Li2  1  0.666342  0.833153  0.210087  1
  Li  Li3  1  0.666499  0.333237  0.326204  1
  Li  Li4  1  0.832615  0.666884  0.711214  1
  Li  Li5  1  0.333573  0.166806  0.710814  1
  Li  Li6  1  0.832632  0.165772  0.711119  1
  Li  Li7  1  0.334367  0.667123  0.825951  1
  Tm  Tm8  1  0.998579  0.999273  0.998152  1
  Tm  Tm9  1  0.512873  0.023671  0.005522  1
  Tm  Tm10  1  0.513192  0.489257  0.005258  1
  Tm  Tm11  1  0.975591  0.487754  0.005997  1
  Tm  Tm12  1  0.998684  0.999216  0.499352  1
  Tm  Tm13  1  0.488423  0.975009  0.506971  1
  Tm  Tm14  1  0.024353  0.512129  0.505995  1
  Tm  Tm15  1  0.488519  0.513753  0.506977  1
  Sn  Sn16  1  0.666548  0.833448  0.770621  1
  Pb  Pb17  1  0.333288  0.666607  0.240592  1
  Pb  Pb18  1  0.833253  0.666461  0.270907  1
  Pb  Pb19  1  0.333412  0.166837  0.270799  1
  Pb  Pb20  1  0.833234  0.166693  0.270974  1
  Pb  Pb21  1  0.666643  0.333367  0.740810  1
  Pb  Pb22  1  0.166735  0.333417  0.770792  1
  Pb  Pb23  1  0.166767  0.833273  0.770734  1
