# generated using pymatgen
data_Ac2YSi6(Pd9Pt)2
_symmetry_space_group_name_H-M   'P 1'
_cell_length_a   8.86798398
_cell_length_b   8.83862329
_cell_length_c   8.83862326
_cell_angle_alpha   59.56436757
_cell_angle_beta   59.89005597
_cell_angle_gamma   59.89004928
_symmetry_Int_Tables_number   1
_chemical_formula_structural   Ac2YSi6(Pd9Pt)2
_chemical_formula_sum   'Ac2 Y1 Si6 Pd18 Pt2'
_cell_volume   487.42734987
_cell_formula_units_Z   1
loop_
 _symmetry_equiv_pos_site_id
 _symmetry_equiv_pos_as_xyz
  1  'x, y, z'
loop_
 _atom_site_type_symbol
 _atom_site_label
 _atom_site_symmetry_multiplicity
 _atom_site_fract_x
 _atom_site_fract_y
 _atom_site_fract_z
 _atom_site_occupancy
  Ac  Ac0  1  0.251370  0.248630  0.248630  1
  Ac  Ac1  1  0.748630  0.751370  0.751370  1
  Y  Y2  1  0.000000  0.000000  0.000000  1
  Si  Si3  1  0.732879  0.267121  0.267121  1
  Si  Si4  1  0.267121  0.732879  0.732879  1
  Si  Si5  1  0.264809  0.735887  0.264113  1
  Si  Si6  1  0.735191  0.264113  0.735887  1
  Si  Si7  1  0.264809  0.264113  0.735887  1
  Si  Si8  1  0.735191  0.735887  0.264113  1
  Pd  Pd9  1  0.000000  0.343882  0.656118  1
  Pd  Pd10  1  0.000000  0.656118  0.343882  1
  Pd  Pd11  1  0.998540  0.345591  0.001262  1
  Pd  Pd12  1  0.654608  0.001262  0.345591  1
  Pd  Pd13  1  0.001460  0.654409  0.998738  1
  Pd  Pd14  1  0.345392  0.998738  0.654409  1
  Pd  Pd15  1  0.998540  0.001262  0.345591  1
  Pd  Pd16  1  0.001460  0.998738  0.654409  1
  Pd  Pd17  1  0.654608  0.345591  0.001262  1
  Pd  Pd18  1  0.345392  0.654409  0.998738  1
  Pd  Pd19  1  0.385269  0.387004  0.387004  1
  Pd  Pd20  1  0.614731  0.612996  0.612996  1
  Pd  Pd21  1  0.387320  0.388965  0.836396  1
  Pd  Pd22  1  0.387320  0.836396  0.388965  1
  Pd  Pd23  1  0.612680  0.611035  0.163604  1
  Pd  Pd24  1  0.612680  0.163604  0.611035  1
  Pd  Pd25  1  0.840722  0.387004  0.387004  1
  Pd  Pd26  1  0.159278  0.612996  0.612996  1
  Pt  Pt27  1  0.345821  0.000000  0.000000  1
  Pt  Pt28  1  0.654179  0.000000  0.000000  1
