# generated using pymatgen
data_LuTa3Nb2(B2Ru5)2
_symmetry_space_group_name_H-M   'P 1'
_cell_length_a   9.48980533
_cell_length_b   9.49109938
_cell_length_c   3.04914500
_cell_angle_alpha   90.00000000
_cell_angle_beta   90.00000000
_cell_angle_gamma   90.18409027
_symmetry_Int_Tables_number   1
_chemical_formula_structural   LuTa3Nb2(B2Ru5)2
_chemical_formula_sum   'Lu1 Ta3 Nb2 B4 Ru10'
_cell_volume   274.63106460
_cell_formula_units_Z   1
loop_
 _symmetry_equiv_pos_site_id
 _symmetry_equiv_pos_as_xyz
  1  'x, y, z'
loop_
 _atom_site_type_symbol
 _atom_site_label
 _atom_site_symmetry_multiplicity
 _atom_site_fract_x
 _atom_site_fract_y
 _atom_site_fract_z
 _atom_site_occupancy
  Lu  Lu0  1  0.824555  0.675465  0.000000  1
  Ta  Ta1  1  0.676920  0.175862  0.000000  1
  Ta  Ta2  1  0.501514  0.500975  0.000000  1
  Ta  Ta3  1  0.999099  0.998343  0.000000  1
  Nb  Nb4  1  0.177532  0.322479  0.000000  1
  Nb  Nb5  1  0.324152  0.823202  0.000000  1
  B  B6  1  0.619607  0.880284  0.000000  1
  B  B7  1  0.377269  0.122637  0.000000  1
  B  B8  1  0.122345  0.620003  0.000000  1
  B  B9  1  0.880108  0.377714  0.000000  1
  Ru  Ru10  1  0.561231  0.723279  0.500000  1
  Ru  Ru11  1  0.427766  0.282940  0.500000  1
  Ru  Ru12  1  0.079201  0.782527  0.500000  1
  Ru  Ru13  1  0.929698  0.216137  0.500000  1
  Ru  Ru14  1  0.283665  0.569688  0.500000  1
  Ru  Ru15  1  0.717227  0.419995  0.500000  1
  Ru  Ru16  1  0.217017  0.072728  0.500000  1
  Ru  Ru17  1  0.776715  0.939450  0.500000  1
  Ru  Ru18  1  0.497360  0.003519  0.500000  1
  Ru  Ru19  1  0.007022  0.492772  0.500000  1
