# generated using pymatgen
data_Ho3Lu5B24MoRu3
_symmetry_space_group_name_H-M   'P 1'
_cell_length_a   3.61286600
_cell_length_b   9.08328539
_cell_length_c   11.47027730
_cell_angle_alpha   89.87904881
_cell_angle_beta   90.00000000
_cell_angle_gamma   90.00000000
_symmetry_Int_Tables_number   1
_chemical_formula_structural   Ho3Lu5B24MoRu3
_chemical_formula_sum   'Ho3 Lu5 B24 Mo1 Ru3'
_cell_volume   376.41572938
_cell_formula_units_Z   1
loop_
 _symmetry_equiv_pos_site_id
 _symmetry_equiv_pos_as_xyz
  1  'x, y, z'
loop_
 _atom_site_type_symbol
 _atom_site_label
 _atom_site_symmetry_multiplicity
 _atom_site_fract_x
 _atom_site_fract_y
 _atom_site_fract_z
 _atom_site_occupancy
  Ho  Ho0  1  0.000000  0.321755  0.413489  1
  Ho  Ho1  1  0.000000  0.677712  0.584903  1
  Ho  Ho2  1  0.000000  0.820724  0.086909  1
  Lu  Lu3  1  0.000000  0.178224  0.914907  1
  Lu  Lu4  1  0.000000  0.945538  0.372331  1
  Lu  Lu5  1  0.000000  0.057565  0.628938  1
  Lu  Lu6  1  0.000000  0.442912  0.126667  1
  Lu  Lu7  1  0.000000  0.556545  0.871121  1
  B  B8  1  0.500000  0.551379  0.435459  1
  B  B9  1  0.500000  0.445517  0.568329  1
  B  B10  1  0.500000  0.054392  0.066271  1
  B  B11  1  0.500000  0.946794  0.933066  1
  B  B12  1  0.500000  0.752258  0.421302  1
  B  B13  1  0.500000  0.250603  0.581469  1
  B  B14  1  0.500000  0.249399  0.079787  1
  B  B15  1  0.500000  0.750520  0.918919  1
  B  B16  1  0.500000  0.795234  0.264238  1
  B  B17  1  0.500000  0.207591  0.735434  1
  B  B18  1  0.500000  0.291248  0.233097  1
  B  B19  1  0.500000  0.708600  0.765682  1
  B  B20  1  0.500000  0.630936  0.182391  1
  B  B21  1  0.500000  0.368068  0.816198  1
  B  B22  1  0.500000  0.130754  0.314543  1
  B  B23  1  0.500000  0.869956  0.685011  1
  B  B24  1  0.500000  0.983396  0.212672  1
  B  B25  1  0.500000  0.018304  0.787899  1
  B  B26  1  0.500000  0.477974  0.285977  1
  B  B27  1  0.500000  0.516614  0.713594  1
  B  B28  1  0.500000  0.603408  0.027010  1
  B  B29  1  0.500000  0.394890  0.970494  1
  B  B30  1  0.500000  0.103972  0.472008  1
  B  B31  1  0.500000  0.898383  0.529446  1
  Mo  Mo32  1  0.000000  0.638144  0.320537  1
  Ru  Ru33  1  0.000000  0.359913  0.681687  1
  Ru  Ru34  1  0.000000  0.138360  0.177860  1
  Ru  Ru35  1  0.000000  0.862418  0.820356  1
