# generated using pymatgen
data_Ac5Th(SnIr)6
_symmetry_space_group_name_H-M   'P 1'
_cell_length_a   7.69907509
_cell_length_b   7.72134360
_cell_length_c   8.63163700
_cell_angle_alpha   90.00005632
_cell_angle_beta   89.99989480
_cell_angle_gamma   120.09439868
_symmetry_Int_Tables_number   1
_chemical_formula_structural   Ac5Th(SnIr)6
_chemical_formula_sum   'Ac5 Th1 Sn6 Ir6'
_cell_volume   443.95743765
_cell_formula_units_Z   1
loop_
 _symmetry_equiv_pos_site_id
 _symmetry_equiv_pos_as_xyz
  1  'x, y, z'
loop_
 _atom_site_type_symbol
 _atom_site_label
 _atom_site_symmetry_multiplicity
 _atom_site_fract_x
 _atom_site_fract_y
 _atom_site_fract_z
 _atom_site_occupancy
  Ac  Ac0  1  0.416800  0.000187  0.250001  1
  Ac  Ac1  1  0.586091  0.583974  0.749997  1
  Ac  Ac2  1  0.583280  0.583837  0.250000  1
  Ac  Ac3  1  0.000172  0.415952  0.749999  1
  Ac  Ac4  1  0.414125  0.997937  0.749999  1
  Th  Th5  1  0.999905  0.414339  0.250002  1
  Sn  Sn6  1  0.244538  0.244311  0.499772  1
  Sn  Sn7  1  0.244538  0.244310  0.000229  1
  Sn  Sn8  1  0.755792  0.000224  0.000104  1
  Sn  Sn9  1  0.000061  0.756678  0.495635  1
  Sn  Sn10  1  0.755791  0.000223  0.499896  1
  Sn  Sn11  1  0.000062  0.756678  0.004365  1
  Ir  Ir12  1  0.684551  0.337804  0.491595  1
  Ir  Ir13  1  0.684552  0.337804  0.008405  1
  Ir  Ir14  1  0.314843  0.652745  0.008559  1
  Ir  Ir15  1  0.314842  0.652745  0.491443  1
  Ir  Ir16  1  0.000241  0.001187  0.750000  1
  Ir  Ir17  1  0.999819  0.019064  0.250000  1
