# generated using pymatgen
data_Li2Gd2Si3
_symmetry_space_group_name_H-M   'P 1'
_cell_length_a   9.24783400
_cell_length_b   4.27663728
_cell_length_c   6.64301800
_cell_angle_alpha   90.00000000
_cell_angle_beta   90.00000000
_cell_angle_gamma   103.36912823
_symmetry_Int_Tables_number   1
_chemical_formula_structural   Li2Gd2Si3
_chemical_formula_sum   'Li4 Gd4 Si6'
_cell_volume   255.60912044
_cell_formula_units_Z   2
loop_
 _symmetry_equiv_pos_site_id
 _symmetry_equiv_pos_as_xyz
  1  'x, y, z'
loop_
 _atom_site_type_symbol
 _atom_site_label
 _atom_site_symmetry_multiplicity
 _atom_site_fract_x
 _atom_site_fract_y
 _atom_site_fract_z
 _atom_site_occupancy
  Li  Li0  1  0.619615  0.309808  0.059982  1
  Li  Li1  1  0.619615  0.309808  0.440018  1
  Li  Li2  1  0.380385  0.690192  0.559982  1
  Li  Li3  1  0.380385  0.690192  0.940018  1
  Gd  Gd4  1  0.313198  0.156598  0.250000  1
  Gd  Gd5  1  0.896846  0.948422  0.250000  1
  Gd  Gd6  1  0.103154  0.051577  0.750000  1
  Gd  Gd7  1  0.686802  0.843401  0.750000  1
  Si  Si8  1  0.118914  0.559457  0.072366  1
  Si  Si9  1  0.560654  0.780326  0.250000  1
  Si  Si10  1  0.118914  0.559457  0.427633  1
  Si  Si11  1  0.881087  0.440543  0.572367  1
  Si  Si12  1  0.439346  0.219673  0.750000  1
  Si  Si13  1  0.881087  0.440543  0.927633  1
