# generated using pymatgen
data_Li2Y3Tm3(Co4P3)4
_symmetry_space_group_name_H-M   'P 1'
_cell_length_a   3.69909300
_cell_length_b   10.53911903
_cell_length_c   12.13559304
_cell_angle_alpha   89.99117659
_cell_angle_beta   90.00000000
_cell_angle_gamma   90.00000000
_symmetry_Int_Tables_number   1
_chemical_formula_structural   Li2Y3Tm3(Co4P3)4
_chemical_formula_sum   'Li2 Y3 Tm3 Co16 P12'
_cell_volume   473.10829071
_cell_formula_units_Z   1
loop_
 _symmetry_equiv_pos_site_id
 _symmetry_equiv_pos_as_xyz
  1  'x, y, z'
loop_
 _atom_site_type_symbol
 _atom_site_label
 _atom_site_symmetry_multiplicity
 _atom_site_fract_x
 _atom_site_fract_y
 _atom_site_fract_z
 _atom_site_occupancy
  Li  Li0  1  0.500000  0.499736  0.153180  1
  Li  Li1  1  0.000000  0.000106  0.846996  1
  Y  Y2  1  0.000000  0.499981  0.522873  1
  Y  Y3  1  0.500000  0.000133  0.477251  1
  Y  Y4  1  0.500000  0.819575  0.205917  1
  Tm  Tm5  1  0.500000  0.180525  0.205901  1
  Tm  Tm6  1  0.000000  0.679692  0.794353  1
  Tm  Tm7  1  0.000000  0.320187  0.793940  1
  Co  Co8  1  0.500000  0.499763  0.705795  1
  Co  Co9  1  0.000000  0.001420  0.294556  1
  Co  Co10  1  0.000000  0.499383  0.986784  1
  Co  Co11  1  0.500000  0.000639  0.011951  1
  Co  Co12  1  0.500000  0.332793  0.996904  1
  Co  Co13  1  0.500000  0.666575  0.996160  1
  Co  Co14  1  0.000000  0.167752  0.002511  1
  Co  Co15  1  0.000000  0.832876  0.002366  1
  Co  Co16  1  0.500000  0.296431  0.430817  1
  Co  Co17  1  0.500000  0.703385  0.431763  1
  Co  Co18  1  0.000000  0.203955  0.569199  1
  Co  Co19  1  0.000000  0.796218  0.569956  1
  Co  Co20  1  0.500000  0.877965  0.707892  1
  Co  Co21  1  0.500000  0.122053  0.707599  1
  Co  Co22  1  0.000000  0.620974  0.293257  1
  Co  Co23  1  0.000000  0.377842  0.292359  1
  P  P24  1  0.500000  0.499557  0.884553  1
  P  P25  1  0.000000  0.001178  0.114243  1
  P  P26  1  0.500000  0.499932  0.345827  1
  P  P27  1  0.000000  0.000098  0.654512  1
  P  P28  1  0.500000  0.310058  0.617040  1
  P  P29  1  0.500000  0.689709  0.617636  1
  P  P30  1  0.000000  0.190587  0.383090  1
  P  P31  1  0.000000  0.809633  0.384404  1
  P  P32  1  0.500000  0.842445  0.892599  1
  P  P33  1  0.500000  0.157947  0.892285  1
  P  P34  1  0.000000  0.656376  0.106233  1
  P  P35  1  0.000000  0.342520  0.107298  1
