# generated using pymatgen
data_Ho8Tm4Co4HgOs
_symmetry_space_group_name_H-M   'P 1'
_cell_length_a   8.20385842
_cell_length_b   8.20385878
_cell_length_c   8.20385781
_cell_angle_alpha   111.53384450
_cell_angle_beta   110.56768525
_cell_angle_gamma   106.35783690
_symmetry_Int_Tables_number   1
_chemical_formula_structural   Ho8Tm4Co4HgOs
_chemical_formula_sum   'Ho8 Tm4 Co4 Hg1 Os1'
_cell_volume   424.07602949
_cell_formula_units_Z   1
loop_
 _symmetry_equiv_pos_site_id
 _symmetry_equiv_pos_as_xyz
  1  'x, y, z'
loop_
 _atom_site_type_symbol
 _atom_site_label
 _atom_site_symmetry_multiplicity
 _atom_site_fract_x
 _atom_site_fract_y
 _atom_site_fract_z
 _atom_site_occupancy
  Ho  Ho0  1  0.417823  0.223568  0.194254  1
  Ho  Ho1  1  0.582177  0.776432  0.805746  1
  Ho  Ho2  1  0.029313  0.223568  0.805746  1
  Ho  Ho3  1  0.970687  0.776432  0.194254  1
  Ho  Ho4  1  0.181657  0.278407  0.460063  1
  Ho  Ho5  1  0.818343  0.721593  0.539937  1
  Ho  Ho6  1  0.181657  0.721593  0.903250  1
  Ho  Ho7  1  0.818343  0.278407  0.096750  1
  Tm  Tm8  1  0.315173  0.621782  0.306609  1
  Tm  Tm9  1  0.684827  0.378218  0.693391  1
  Tm  Tm10  1  0.315173  0.008563  0.693391  1
  Tm  Tm11  1  0.684827  0.991437  0.306609  1
  Co  Co12  1  0.375068  0.000000  0.375068  1
  Co  Co13  1  0.624932  0.000000  0.624932  1
  Co  Co14  1  0.112452  0.612452  0.500000  1
  Co  Co15  1  0.887548  0.387548  0.500000  1
  Hg  Hg16  1  0.500000  0.500000  0.000000  1
  Os  Os17  1  0.000000  0.000000  0.000000  1
