# generated using pymatgen
data_ZrNi3P2
_symmetry_space_group_name_H-M   'P 1'
_cell_length_a   3.67547900
_cell_length_b   10.37505200
_cell_length_c   12.12584300
_cell_angle_alpha   90.00000000
_cell_angle_beta   90.00000000
_cell_angle_gamma   90.00000000
_symmetry_Int_Tables_number   1
_chemical_formula_structural   ZrNi3P2
_chemical_formula_sum   'Zr6 Ni18 P12'
_cell_volume   462.39823608
_cell_formula_units_Z   6
loop_
 _symmetry_equiv_pos_site_id
 _symmetry_equiv_pos_as_xyz
  1  'x, y, z'
loop_
 _atom_site_type_symbol
 _atom_site_label
 _atom_site_symmetry_multiplicity
 _atom_site_fract_x
 _atom_site_fract_y
 _atom_site_fract_z
 _atom_site_occupancy
  Zr  Zr0  1  0.752322  0.000000  0.475464  1
  Zr  Zr1  1  0.252322  0.500000  0.524536  1
  Zr  Zr2  1  0.252076  0.679566  0.794745  1
  Zr  Zr3  1  0.252076  0.320434  0.794745  1
  Zr  Zr4  1  0.752076  0.820434  0.205255  1
  Zr  Zr5  1  0.752076  0.179566  0.205255  1
  Ni  Ni6  1  0.751454  0.000000  0.014729  1
  Ni  Ni7  1  0.251454  0.500000  0.985271  1
  Ni  Ni8  1  0.252027  0.199217  0.568747  1
  Ni  Ni9  1  0.252027  0.800783  0.568747  1
  Ni  Ni10  1  0.752027  0.300783  0.431253  1
  Ni  Ni11  1  0.752027  0.699217  0.431253  1
  Ni  Ni12  1  0.251740  0.623496  0.292582  1
  Ni  Ni13  1  0.251740  0.376504  0.292582  1
  Ni  Ni14  1  0.751740  0.876504  0.707418  1
  Ni  Ni15  1  0.751740  0.123496  0.707418  1
  Ni  Ni16  1  0.251538  0.168940  0.005256  1
  Ni  Ni17  1  0.251538  0.831060  0.005256  1
  Ni  Ni18  1  0.751538  0.331060  0.994744  1
  Ni  Ni19  1  0.751538  0.668940  0.994744  1
  Ni  Ni20  1  0.250971  0.000000  0.837032  1
  Ni  Ni21  1  0.750971  0.500000  0.162968  1
  Ni  Ni22  1  0.252549  0.000000  0.300055  1
  Ni  Ni23  1  0.752549  0.500000  0.699945  1
  P  P24  1  0.252088  0.183919  0.383791  1
  P  P25  1  0.252088  0.816081  0.383791  1
  P  P26  1  0.752088  0.316081  0.616209  1
  P  P27  1  0.752088  0.683919  0.616209  1
  P  P28  1  0.251605  0.000000  0.123115  1
  P  P29  1  0.751605  0.500000  0.876885  1
  P  P30  1  0.251579  0.654407  0.111769  1
  P  P31  1  0.251579  0.345593  0.111769  1
  P  P32  1  0.751579  0.845593  0.888231  1
  P  P33  1  0.751579  0.154407  0.888231  1
  P  P34  1  0.251805  0.000000  0.650123  1
  P  P35  1  0.751805  0.500000  0.349877  1
