# generated using pymatgen
data_Tb2SmY(Mo2O7)2
_symmetry_space_group_name_H-M   'P 1'
_cell_length_a   7.32339755
_cell_length_b   7.32339731
_cell_length_c   7.41327977
_cell_angle_alpha   61.10075330
_cell_angle_beta   61.10075109
_cell_angle_gamma   60.57512261
_symmetry_Int_Tables_number   1
_chemical_formula_structural   Tb2SmY(Mo2O7)2
_chemical_formula_sum   'Tb2 Sm1 Y1 Mo4 O14'
_cell_volume   286.98711821
_cell_formula_units_Z   1
loop_
 _symmetry_equiv_pos_site_id
 _symmetry_equiv_pos_as_xyz
  1  'x, y, z'
loop_
 _atom_site_type_symbol
 _atom_site_label
 _atom_site_symmetry_multiplicity
 _atom_site_fract_x
 _atom_site_fract_y
 _atom_site_fract_z
 _atom_site_occupancy
  Tb  Tb0  1  0.625000  0.125000  0.125000  1
  Tb  Tb1  1  0.125000  0.625000  0.125000  1
  Sm  Sm2  1  0.125000  0.125000  0.625000  1
  Y  Y3  1  0.125000  0.125000  0.125000  1
  Mo  Mo4  1  0.625000  0.625000  0.625000  1
  Mo  Mo5  1  0.125000  0.625000  0.625000  1
  Mo  Mo6  1  0.625000  0.125000  0.625000  1
  Mo  Mo7  1  0.625000  0.625000  0.125000  1
  O  O8  1  0.251132  0.251132  0.244014  1
  O  O9  1  0.998868  0.998868  0.005986  1
  O  O10  1  0.536474  0.977626  0.521734  1
  O  O11  1  0.299336  0.710645  0.288418  1
  O  O12  1  0.536489  0.536489  0.971005  1
  O  O13  1  0.977626  0.536474  0.521734  1
  O  O14  1  0.539355  0.950664  0.961582  1
  O  O15  1  0.962472  0.962472  0.519655  1
  O  O16  1  0.950664  0.539355  0.961582  1
  O  O17  1  0.710645  0.299336  0.288418  1
  O  O18  1  0.272374  0.713526  0.728266  1
  O  O19  1  0.713511  0.713511  0.278995  1
  O  O20  1  0.287528  0.287528  0.730345  1
  O  O21  1  0.713526  0.272374  0.728266  1
