# generated using pymatgen
data_Er3Tm7(In2Pt)4
_symmetry_space_group_name_H-M   'P 1'
_cell_length_a   3.61170800
_cell_length_b   8.06734400
_cell_length_c   18.10588200
_cell_angle_alpha   90.00096240
_cell_angle_beta   90.00000000
_cell_angle_gamma   90.00000000
_symmetry_Int_Tables_number   1
_chemical_formula_structural   Er3Tm7(In2Pt)4
_chemical_formula_sum   'Er3 Tm7 In8 Pt4'
_cell_volume   527.54910779
_cell_formula_units_Z   1
loop_
 _symmetry_equiv_pos_site_id
 _symmetry_equiv_pos_as_xyz
  1  'x, y, z'
loop_
 _atom_site_type_symbol
 _atom_site_label
 _atom_site_symmetry_multiplicity
 _atom_site_fract_x
 _atom_site_fract_y
 _atom_site_fract_z
 _atom_site_occupancy
  Er  Er0  1  0.000000  0.116752  0.414609  1
  Er  Er1  1  0.000000  0.999944  0.999954  1
  Er  Er2  1  0.000000  0.500115  0.500033  1
  Tm  Tm3  1  0.000000  0.883412  0.585823  1
  Tm  Tm4  1  0.000000  0.383468  0.914242  1
  Tm  Tm5  1  0.000000  0.616547  0.085732  1
  Tm  Tm6  1  0.000000  0.243997  0.220943  1
  Tm  Tm7  1  0.000000  0.756094  0.778973  1
  Tm  Tm8  1  0.000000  0.256143  0.721023  1
  Tm  Tm9  1  0.000000  0.743799  0.278917  1
  In  In10  1  0.500000  0.424056  0.351385  1
  In  In11  1  0.500000  0.576306  0.648526  1
  In  In12  1  0.500000  0.076358  0.851468  1
  In  In13  1  0.500000  0.923635  0.148477  1
  In  In14  1  0.500000  0.292298  0.066576  1
  In  In15  1  0.500000  0.707686  0.933368  1
  In  In16  1  0.500000  0.207789  0.566871  1
  In  In17  1  0.500000  0.791865  0.433378  1
  Pt  Pt18  1  0.500000  0.025069  0.303424  1
  Pt  Pt19  1  0.500000  0.974696  0.696276  1
  Pt  Pt20  1  0.500000  0.474745  0.803809  1
  Pt  Pt21  1  0.500000  0.525225  0.196193  1
