# generated using pymatgen
data_Y3Ni4Ir5
_symmetry_space_group_name_H-M   'P 1'
_cell_length_a   8.94132717
_cell_length_b   8.94132704
_cell_length_c   9.00002044
_cell_angle_alpha   33.80268820
_cell_angle_beta   33.80268983
_cell_angle_gamma   33.29270628
_symmetry_Int_Tables_number   1
_chemical_formula_structural   Y3Ni4Ir5
_chemical_formula_sum   'Y3 Ni4 Ir5'
_cell_volume   196.60148769
_cell_formula_units_Z   1
loop_
 _symmetry_equiv_pos_site_id
 _symmetry_equiv_pos_as_xyz
  1  'x, y, z'
loop_
 _atom_site_type_symbol
 _atom_site_label
 _atom_site_symmetry_multiplicity
 _atom_site_fract_x
 _atom_site_fract_y
 _atom_site_fract_z
 _atom_site_occupancy
  Y  Y0  1  0.862472  0.857927  0.859806  1
  Y  Y1  1  0.142073  0.137528  0.140194  1
  Y  Y2  1  0.000589  0.999411  0.000000  1
  Ni  Ni3  1  0.335317  0.327343  0.338072  1
  Ni  Ni4  1  0.417411  0.922631  0.417872  1
  Ni  Ni5  1  0.672657  0.664683  0.661928  1
  Ni  Ni6  1  0.077369  0.582589  0.582128  1
  Ir  Ir7  1  0.418113  0.418368  0.924998  1
  Ir  Ir8  1  0.920660  0.420047  0.417624  1
  Ir  Ir9  1  0.491753  0.508247  0.500000  1
  Ir  Ir10  1  0.579953  0.079340  0.582376  1
  Ir  Ir11  1  0.581632  0.581887  0.075002  1
