# generated using pymatgen
data_Tb14Y2MgNi4Hg3
_symmetry_space_group_name_H-M   'P 1'
_cell_length_a   9.54929495
_cell_length_b   9.56148973
_cell_length_c   9.56149025
_cell_angle_alpha   60.21728121
_cell_angle_beta   60.15229419
_cell_angle_gamma   60.15228455
_symmetry_Int_Tables_number   1
_chemical_formula_structural   Tb14Y2MgNi4Hg3
_chemical_formula_sum   'Tb14 Y2 Mg1 Ni4 Hg3'
_cell_volume   619.74734914
_cell_formula_units_Z   1
loop_
 _symmetry_equiv_pos_site_id
 _symmetry_equiv_pos_as_xyz
  1  'x, y, z'
loop_
 _atom_site_type_symbol
 _atom_site_label
 _atom_site_symmetry_multiplicity
 _atom_site_fract_x
 _atom_site_fract_y
 _atom_site_fract_z
 _atom_site_occupancy
  Tb  Tb0  1  0.811910  0.188330  0.814384  1
  Tb  Tb1  1  0.186579  0.812763  0.186856  1
  Tb  Tb2  1  0.811910  0.814384  0.188330  1
  Tb  Tb3  1  0.186579  0.186856  0.812763  1
  Tb  Tb4  1  0.058678  0.442233  0.442233  1
  Tb  Tb5  1  0.436173  0.063015  0.063015  1
  Tb  Tb6  1  0.436382  0.063360  0.440297  1
  Tb  Tb7  1  0.058752  0.441025  0.060147  1
  Tb  Tb8  1  0.436382  0.440297  0.063360  1
  Tb  Tb9  1  0.058752  0.060147  0.441025  1
  Tb  Tb10  1  0.595958  0.595398  0.595398  1
  Tb  Tb11  1  0.600482  0.598587  0.202823  1
  Tb  Tb12  1  0.600482  0.202823  0.598587  1
  Tb  Tb13  1  0.195549  0.602056  0.602056  1
  Y  Y14  1  0.186425  0.814532  0.814532  1
  Y  Y15  1  0.810858  0.187154  0.187154  1
  Mg  Mg16  1  0.535493  0.820062  0.820062  1
  Ni  Ni17  1  0.390561  0.395030  0.395030  1
  Ni  Ni18  1  0.390054  0.392082  0.822601  1
  Ni  Ni19  1  0.390054  0.822601  0.392082  1
  Ni  Ni20  1  0.822114  0.391962  0.391962  1
  Hg  Hg21  1  0.833327  0.835572  0.835572  1
  Hg  Hg22  1  0.833275  0.836594  0.493135  1
  Hg  Hg23  1  0.833275  0.493135  0.836594  1
