# generated using pymatgen
data_Ti4Nb2Si2B
_symmetry_space_group_name_H-M   'P 1'
_cell_length_a   6.75210403
_cell_length_b   6.75099374
_cell_length_c   3.39285500
_cell_angle_alpha   90.00000000
_cell_angle_beta   90.00000000
_cell_angle_gamma   119.99456201
_symmetry_Int_Tables_number   1
_chemical_formula_structural   Ti4Nb2Si2B
_chemical_formula_sum   'Ti4 Nb2 Si2 B1'
_cell_volume   133.94501543
_cell_formula_units_Z   1
loop_
 _symmetry_equiv_pos_site_id
 _symmetry_equiv_pos_as_xyz
  1  'x, y, z'
loop_
 _atom_site_type_symbol
 _atom_site_label
 _atom_site_symmetry_multiplicity
 _atom_site_fract_x
 _atom_site_fract_y
 _atom_site_fract_z
 _atom_site_occupancy
  Ti  Ti0  1  0.237528  0.998289  0.500000  1
  Ti  Ti1  1  0.762472  0.760762  0.500000  1
  Ti  Ti2  1  0.000000  0.240023  0.500000  1
  Ti  Ti3  1  0.000000  0.598487  0.000000  1
  Nb  Nb4  1  0.599284  0.000068  0.000000  1
  Nb  Nb5  1  0.400716  0.400784  0.000000  1
  Si  Si6  1  0.331269  0.665717  0.500000  1
  Si  Si7  1  0.668731  0.334447  0.500000  1
  B  B8  1  0.000000  0.001424  0.000000  1
