# generated using pymatgen
data_Sc2Ta4Re5Si6W
_symmetry_space_group_name_H-M   'P 1'
_cell_length_a   7.66502871
_cell_length_b   7.66442303
_cell_length_c   7.66442451
_cell_angle_alpha   126.27545877
_cell_angle_beta   128.14297534
_cell_angle_gamma   77.91713946
_symmetry_Int_Tables_number   1
_chemical_formula_structural   Sc2Ta4Re5Si6W
_chemical_formula_sum   'Sc2 Ta4 Re5 Si6 W1'
_cell_volume   276.70082907
_cell_formula_units_Z   1
loop_
 _symmetry_equiv_pos_site_id
 _symmetry_equiv_pos_as_xyz
  1  'x, y, z'
loop_
 _atom_site_type_symbol
 _atom_site_label
 _atom_site_symmetry_multiplicity
 _atom_site_fract_x
 _atom_site_fract_y
 _atom_site_fract_z
 _atom_site_occupancy
  Sc  Sc0  1  0.548300  0.089849  0.041939  1
  Sc  Sc1  1  0.451700  0.493640  0.541550  1
  Ta  Ta2  1  0.947077  0.491365  0.042605  1
  Ta  Ta3  1  0.052923  0.095526  0.544288  1
  Ta  Ta4  1  0.748190  0.902949  0.652775  1
  Ta  Ta5  1  0.251810  0.904586  0.154759  1
  Re  Re6  1  0.000000  0.238894  0.238894  1
  Re  Re7  1  0.116507  0.754272  0.615999  1
  Re  Re8  1  0.883493  0.499492  0.637766  1
  Re  Re9  1  0.638237  0.755476  0.138206  1
  Re  Re10  1  0.361763  0.499968  0.117239  1
  Si  Si11  1  0.745911  0.495247  0.250362  1
  Si  Si12  1  0.254089  0.504452  0.749335  1
  Si  Si13  1  0.329802  0.826312  0.492004  1
  Si  Si14  1  0.670198  0.162202  0.496510  1
  Si  Si15  1  0.835014  0.827965  0.997440  1
  Si  Si16  1  0.164986  0.162426  0.992950  1
  W  W17  1  0.500000  0.237580  0.737580  1
