# generated using pymatgen
data_Ba4SrLa(BiPb4)2
_symmetry_space_group_name_H-M   'P 1'
_cell_length_a   9.46683785
_cell_length_b   9.47284481
_cell_length_c   9.40332600
_cell_angle_alpha   120.22580955
_cell_angle_beta   120.22368086
_cell_angle_gamma   90.00000652
_symmetry_Int_Tables_number   1
_chemical_formula_structural   Ba4SrLa(BiPb4)2
_chemical_formula_sum   'Ba4 Sr1 La1 Bi2 Pb8'
_cell_volume   592.20795992
_cell_formula_units_Z   1
loop_
 _symmetry_equiv_pos_site_id
 _symmetry_equiv_pos_as_xyz
  1  'x, y, z'
loop_
 _atom_site_type_symbol
 _atom_site_label
 _atom_site_symmetry_multiplicity
 _atom_site_fract_x
 _atom_site_fract_y
 _atom_site_fract_z
 _atom_site_occupancy
  Ba  Ba0  1  0.661887  0.161804  0.999980  1
  Ba  Ba1  1  0.338176  0.838181  0.000009  1
  Ba  Ba2  1  0.838167  0.661819  0.999991  1
  Ba  Ba3  1  0.161907  0.338196  0.000020  1
  Sr  Sr4  1  0.750004  0.750000  0.500000  1
  La  La5  1  0.249976  0.250000  0.500000  1
  Bi  Bi6  1  0.004959  0.004928  0.009848  1
  Bi  Bi7  1  0.495112  0.495072  0.990152  1
  Pb  Pb8  1  0.330680  0.832767  0.374601  1
  Pb  Pb9  1  0.667028  0.169496  0.625394  1
  Pb  Pb10  1  0.043816  0.541874  0.374586  1
  Pb  Pb11  1  0.541634  0.330504  0.374606  1
  Pb  Pb12  1  0.169230  0.958126  0.625414  1
  Pb  Pb13  1  0.958422  0.455894  0.625497  1
  Pb  Pb14  1  0.456078  0.667233  0.625399  1
  Pb  Pb15  1  0.832924  0.044106  0.374503  1
