# generated using pymatgen
data_TaTlGeO5
_symmetry_space_group_name_H-M   'P 1'
_cell_length_a   7.54124000
_cell_length_b   10.53036200
_cell_length_c   20.89603600
_cell_angle_alpha   90.00000000
_cell_angle_beta   90.00000000
_cell_angle_gamma   90.00000000
_symmetry_Int_Tables_number   1
_chemical_formula_structural   TaTlGeO5
_chemical_formula_sum   'Ta12 Tl12 Ge12 O60'
_cell_volume   1659.39574188
_cell_formula_units_Z   12
loop_
 _symmetry_equiv_pos_site_id
 _symmetry_equiv_pos_as_xyz
  1  'x, y, z'
loop_
 _atom_site_type_symbol
 _atom_site_label
 _atom_site_symmetry_multiplicity
 _atom_site_fract_x
 _atom_site_fract_y
 _atom_site_fract_z
 _atom_site_occupancy
  Ta  Ta0  1  0.253150  0.018448  0.399859  1
  Ta  Ta1  1  0.246850  0.981552  0.899859  1
  Ta  Ta2  1  0.746850  0.518448  0.100141  1
  Ta  Ta3  1  0.753150  0.481552  0.600141  1
  Ta  Ta4  1  0.493619  0.257686  0.499769  1
  Ta  Ta5  1  0.006381  0.742314  0.999769  1
  Ta  Ta6  1  0.506381  0.757686  0.000231  1
  Ta  Ta7  1  0.993619  0.242314  0.500231  1
  Ta  Ta8  1  0.240790  0.015264  0.074997  1
  Ta  Ta9  1  0.259210  0.984736  0.574997  1
  Ta  Ta10  1  0.759210  0.515264  0.425003  1
  Ta  Ta11  1  0.740790  0.484736  0.925003  1
  Tl  Tl12  1  0.243665  0.375565  0.361664  1
  Tl  Tl13  1  0.256335  0.624435  0.861664  1
  Tl  Tl14  1  0.756335  0.875565  0.138336  1
  Tl  Tl15  1  0.743665  0.124435  0.638336  1
  Tl  Tl16  1  0.257658  0.692997  0.154793  1
  Tl  Tl17  1  0.242342  0.307003  0.654793  1
  Tl  Tl18  1  0.742342  0.192997  0.345207  1
  Tl  Tl19  1  0.757658  0.807003  0.845207  1
  Tl  Tl20  1  0.219522  0.383153  0.020568  1
  Tl  Tl21  1  0.280478  0.616847  0.520568  1
  Tl  Tl22  1  0.780478  0.883153  0.479432  1
  Tl  Tl23  1  0.719522  0.116847  0.979432  1
  Ge  Ge24  1  0.517914  0.244861  0.146917  1
  Ge  Ge25  1  0.982086  0.755139  0.646917  1
  Ge  Ge26  1  0.482086  0.744861  0.353083  1
  Ge  Ge27  1  0.017914  0.255139  0.853083  1
  Ge  Ge28  1  0.234705  0.119760  0.231385  1
  Ge  Ge29  1  0.265295  0.880240  0.731385  1
  Ge  Ge30  1  0.765295  0.619760  0.268615  1
  Ge  Ge31  1  0.734705  0.380240  0.768615  1
  Ge  Ge32  1  0.066411  0.726913  0.353371  1
  Ge  Ge33  1  0.433589  0.273087  0.853371  1
  Ge  Ge34  1  0.933589  0.226913  0.146629  1
  Ge  Ge35  1  0.566411  0.773087  0.646629  1
  O  O36  1  0.061700  0.106362  0.563453  1
  O  O37  1  0.438300  0.893638  0.063453  1
  O  O38  1  0.938300  0.606362  0.936547  1
  O  O39  1  0.561700  0.393638  0.436547  1
  O  O40  1  0.238898  0.086025  0.312198  1
  O  O41  1  0.261102  0.913975  0.812198  1
  O  O42  1  0.761102  0.586025  0.187802  1
  O  O43  1  0.738898  0.413975  0.687802  1
  O  O44  1  0.031998  0.135066  0.086709  1
  O  O45  1  0.468002  0.864934  0.586709  1
  O  O46  1  0.968002  0.635066  0.413291  1
  O  O47  1  0.531998  0.364934  0.913291  1
  O  O48  1  0.032457  0.207666  0.223363  1
  O  O49  1  0.467543  0.792334  0.723363  1
  O  O50  1  0.967543  0.707666  0.276637  1
  O  O51  1  0.532457  0.292334  0.776637  1
  O  O52  1  0.404794  0.169939  0.084206  1
  O  O53  1  0.095206  0.830061  0.584206  1
  O  O54  1  0.595206  0.669939  0.415794  1
  O  O55  1  0.904794  0.330061  0.915794  1
  O  O56  1  0.409647  0.233599  0.222327  1
  O  O57  1  0.090353  0.766401  0.722327  1
  O  O58  1  0.590353  0.733599  0.277673  1
  O  O59  1  0.909647  0.266401  0.777673  1
  O  O60  1  0.238489  0.313088  0.501113  1
  O  O61  1  0.261511  0.686912  0.001113  1
  O  O62  1  0.761511  0.813088  0.998887  1
  O  O63  1  0.738489  0.186912  0.498887  1
  O  O64  1  0.427570  0.146278  0.425636  1
  O  O65  1  0.072430  0.853722  0.925636  1
  O  O66  1  0.572430  0.646278  0.074364  1
  O  O67  1  0.927570  0.353722  0.574364  1
  O  O68  1  0.735710  0.443013  0.013824  1
  O  O69  1  0.764290  0.556987  0.513824  1
  O  O70  1  0.264290  0.943013  0.486176  1
  O  O71  1  0.235710  0.056987  0.986176  1
  O  O72  1  0.055844  0.127059  0.428881  1
  O  O73  1  0.444156  0.872941  0.928881  1
  O  O74  1  0.944156  0.627059  0.071119  1
  O  O75  1  0.555844  0.372941  0.571119  1
  O  O76  1  0.719309  0.158737  0.157869  1
  O  O77  1  0.780691  0.841263  0.657869  1
  O  O78  1  0.280691  0.658737  0.342131  1
  O  O79  1  0.219309  0.341263  0.842131  1
  O  O80  1  0.252235  0.997848  0.174196  1
  O  O81  1  0.247765  0.002152  0.674196  1
  O  O82  1  0.747765  0.497848  0.325804  1
  O  O83  1  0.752235  0.502152  0.825804  1
  O  O84  1  0.546807  0.404015  0.127837  1
  O  O85  1  0.953193  0.595985  0.627837  1
  O  O86  1  0.453193  0.904015  0.372163  1
  O  O87  1  0.046807  0.095985  0.872163  1
  O  O88  1  0.066888  0.885430  0.376634  1
  O  O89  1  0.433112  0.114570  0.876634  1
  O  O90  1  0.933112  0.385430  0.123366  1
  O  O91  1  0.566888  0.614570  0.623366  1
  O  O92  1  0.424461  0.126943  0.565957  1
  O  O93  1  0.075539  0.873057  0.065957  1
  O  O94  1  0.575539  0.626943  0.934043  1
  O  O95  1  0.924461  0.373057  0.434043  1
