# generated using pymatgen
data_K6DyAlSb4
_symmetry_space_group_name_H-M   'P 1'
_cell_length_a   9.76170647
_cell_length_b   9.76170720
_cell_length_c   9.76170641
_cell_angle_alpha   128.34036466
_cell_angle_beta   69.38910574
_cell_angle_gamma   137.02809004
_symmetry_Int_Tables_number   1
_chemical_formula_structural   K6DyAlSb4
_chemical_formula_sum   'K6 Dy1 Al1 Sb4'
_cell_volume   488.20921182
_cell_formula_units_Z   1
loop_
 _symmetry_equiv_pos_site_id
 _symmetry_equiv_pos_as_xyz
  1  'x, y, z'
loop_
 _atom_site_type_symbol
 _atom_site_label
 _atom_site_symmetry_multiplicity
 _atom_site_fract_x
 _atom_site_fract_y
 _atom_site_fract_z
 _atom_site_occupancy
  K  K0  1  0.803818  0.181248  0.003873  1
  K  K1  1  0.696183  0.700056  0.377429  1
  K  K2  1  0.750000  0.250000  0.500000  1
  K  K3  1  0.250000  0.750000  0.499999  1
  K  K4  1  0.322626  0.318753  0.622570  1
  K  K5  1  0.177374  0.799945  0.996127  1
  Dy  Dy6  1  0.250000  0.250000  0.000000  1
  Al  Al7  1  0.750000  0.750000  0.000000  1
  Sb  Sb8  1  0.420493  0.713492  0.092547  1
  Sb  Sb9  1  0.079506  0.172054  0.292999  1
  Sb  Sb10  1  0.879053  0.786507  0.707002  1
  Sb  Sb11  1  0.620946  0.327946  0.907452  1
