# generated using pymatgen
data_DyLu3(Os3Ru)2
_symmetry_space_group_name_H-M   'P 1'
_cell_length_a   5.25714600
_cell_length_b   5.25714688
_cell_length_c   8.89599300
_cell_angle_alpha   90.00000000
_cell_angle_beta   90.00000000
_cell_angle_gamma   119.99999448
_symmetry_Int_Tables_number   1
_chemical_formula_structural   DyLu3(Os3Ru)2
_chemical_formula_sum   'Dy1 Lu3 Os6 Ru2'
_cell_volume   212.92430452
_cell_formula_units_Z   1
loop_
 _symmetry_equiv_pos_site_id
 _symmetry_equiv_pos_as_xyz
  1  'x, y, z'
loop_
 _atom_site_type_symbol
 _atom_site_label
 _atom_site_symmetry_multiplicity
 _atom_site_fract_x
 _atom_site_fract_y
 _atom_site_fract_z
 _atom_site_occupancy
  Dy  Dy0  1  0.333333  0.666667  0.434734  1
  Lu  Lu1  1  0.666667  0.333333  0.566611  1
  Lu  Lu2  1  0.666667  0.333333  0.934202  1
  Lu  Lu3  1  0.333333  0.666667  0.064991  1
  Os  Os4  1  0.170624  0.341249  0.751205  1
  Os  Os5  1  0.170624  0.829376  0.751205  1
  Os  Os6  1  0.341547  0.170772  0.248401  1
  Os  Os7  1  0.829228  0.658453  0.248401  1
  Os  Os8  1  0.658751  0.829376  0.751205  1
  Os  Os9  1  0.829228  0.170772  0.248401  1
  Ru  Ru10  1  0.000000  0.000000  0.999962  1
  Ru  Ru11  1  0.000000  0.000000  0.500681  1
