# generated using pymatgen
data_Ho4ErZr5(Si5Ir2)4
_symmetry_space_group_name_H-M   'P 1'
_cell_length_a   12.51827100
_cell_length_b   12.51827100
_cell_length_c   4.17183100
_cell_angle_alpha   90.00000000
_cell_angle_beta   90.00000000
_cell_angle_gamma   90.00000000
_symmetry_Int_Tables_number   1
_chemical_formula_structural   Ho4ErZr5(Si5Ir2)4
_chemical_formula_sum   'Ho4 Er1 Zr5 Si20 Ir8'
_cell_volume   653.75557454
_cell_formula_units_Z   1
loop_
 _symmetry_equiv_pos_site_id
 _symmetry_equiv_pos_as_xyz
  1  'x, y, z'
loop_
 _atom_site_type_symbol
 _atom_site_label
 _atom_site_symmetry_multiplicity
 _atom_site_fract_x
 _atom_site_fract_y
 _atom_site_fract_z
 _atom_site_occupancy
  Ho  Ho0  1  0.884315  0.384319  0.500000  1
  Ho  Ho1  1  0.115685  0.615681  0.500000  1
  Ho  Ho2  1  0.384319  0.115685  0.500000  1
  Ho  Ho3  1  0.615681  0.884315  0.500000  1
  Er  Er4  1  0.000000  0.000000  0.000000  1
  Zr  Zr5  1  0.500000  0.500000  0.000000  1
  Zr  Zr6  1  0.673887  0.175221  0.500000  1
  Zr  Zr7  1  0.326113  0.824779  0.500000  1
  Zr  Zr8  1  0.175221  0.326113  0.500000  1
  Zr  Zr9  1  0.824779  0.673887  0.500000  1
  Si  Si10  1  0.566095  0.067234  0.000000  1
  Si  Si11  1  0.433905  0.932766  0.000000  1
  Si  Si12  1  0.067234  0.433905  0.000000  1
  Si  Si13  1  0.932766  0.566095  0.000000  1
  Si  Si14  1  0.665570  0.700267  0.000000  1
  Si  Si15  1  0.334430  0.299733  0.000000  1
  Si  Si16  1  0.164678  0.801121  0.000000  1
  Si  Si17  1  0.835322  0.198879  0.000000  1
  Si  Si18  1  0.299733  0.665570  0.000000  1
  Si  Si19  1  0.700267  0.334430  0.000000  1
  Si  Si20  1  0.198879  0.164678  0.000000  1
  Si  Si21  1  0.801121  0.835322  0.000000  1
  Si  Si22  1  0.652823  0.507518  0.500000  1
  Si  Si23  1  0.347177  0.492482  0.500000  1
  Si  Si24  1  0.156569  0.992982  0.500000  1
  Si  Si25  1  0.843431  0.007018  0.500000  1
  Si  Si26  1  0.492482  0.652823  0.500000  1
  Si  Si27  1  0.507518  0.347177  0.500000  1
  Si  Si28  1  0.007018  0.156569  0.500000  1
  Si  Si29  1  0.992982  0.843431  0.500000  1
  Ir  Ir30  1  0.743268  0.520267  0.000000  1
  Ir  Ir31  1  0.256732  0.479733  0.000000  1
  Ir  Ir32  1  0.246005  0.979695  0.000000  1
  Ir  Ir33  1  0.753995  0.020305  0.000000  1
  Ir  Ir34  1  0.479733  0.743268  0.000000  1
  Ir  Ir35  1  0.520267  0.256732  0.000000  1
  Ir  Ir36  1  0.020305  0.246005  0.000000  1
  Ir  Ir37  1  0.979695  0.753995  0.000000  1
