# generated using pymatgen
data_Er5Tm3Cd2IrRu
_symmetry_space_group_name_H-M   'P 1'
_cell_length_a   9.53495960
_cell_length_b   9.53865750
_cell_length_c   9.57644382
_cell_angle_alpha   59.84188740
_cell_angle_beta   59.88351186
_cell_angle_gamma   59.72926907
_symmetry_Int_Tables_number   1
_chemical_formula_structural   Er5Tm3Cd2IrRu
_chemical_formula_sum   'Er10 Tm6 Cd4 Ir2 Ru2'
_cell_volume   613.33544974
_cell_formula_units_Z   2
loop_
 _symmetry_equiv_pos_site_id
 _symmetry_equiv_pos_as_xyz
  1  'x, y, z'
loop_
 _atom_site_type_symbol
 _atom_site_label
 _atom_site_symmetry_multiplicity
 _atom_site_fract_x
 _atom_site_fract_y
 _atom_site_fract_z
 _atom_site_occupancy
  Er  Er0  1  0.437968  0.062032  0.439956  1
  Er  Er1  1  0.061984  0.437981  0.060068  1
  Er  Er2  1  0.438090  0.438095  0.061950  1
  Er  Er3  1  0.059572  0.059582  0.440420  1
  Er  Er4  1  0.187815  0.810342  0.813430  1
  Er  Er5  1  0.810338  0.187838  0.188414  1
  Er  Er6  1  0.810275  0.187950  0.813281  1
  Er  Er7  1  0.187948  0.810243  0.188510  1
  Er  Er8  1  0.811311  0.811265  0.188707  1
  Er  Er9  1  0.188083  0.188088  0.811916  1
  Tm  Tm10  1  0.598267  0.598106  0.598022  1
  Tm  Tm11  1  0.598131  0.598240  0.205596  1
  Tm  Tm12  1  0.596420  0.209725  0.597156  1
  Tm  Tm13  1  0.209713  0.596435  0.596683  1
  Tm  Tm14  1  0.061815  0.438022  0.439980  1
  Tm  Tm15  1  0.438020  0.061823  0.060172  1
  Cd  Cd16  1  0.830170  0.830279  0.830226  1
  Cd  Cd17  1  0.830297  0.830156  0.509326  1
  Cd  Cd18  1  0.830791  0.508056  0.830517  1
  Cd  Cd19  1  0.508048  0.830798  0.830637  1
  Ir  Ir20  1  0.394241  0.826122  0.389504  1
  Ir  Ir21  1  0.826125  0.394246  0.390111  1
  Ru  Ru22  1  0.392123  0.392457  0.388104  1
  Ru  Ru23  1  0.392454  0.392119  0.827311  1
