# generated using pymatgen
data_Er20ZnAg5Ru2
_symmetry_space_group_name_H-M   'P 1'
_cell_length_a   9.40372055
_cell_length_b   9.38448886
_cell_length_c   9.55039600
_cell_angle_alpha   90.00000000
_cell_angle_beta   90.00000000
_cell_angle_gamma   119.93237204
_symmetry_Int_Tables_number   1
_chemical_formula_structural   Er20ZnAg5Ru2
_chemical_formula_sum   'Er20 Zn1 Ag5 Ru2'
_cell_volume   730.39518585
_cell_formula_units_Z   1
loop_
 _symmetry_equiv_pos_site_id
 _symmetry_equiv_pos_as_xyz
  1  'x, y, z'
loop_
 _atom_site_type_symbol
 _atom_site_label
 _atom_site_symmetry_multiplicity
 _atom_site_fract_x
 _atom_site_fract_y
 _atom_site_fract_z
 _atom_site_occupancy
  Er  Er0  1  0.999435  0.999718  0.501054  1
  Er  Er1  1  0.999435  0.999718  0.998946  1
  Er  Er2  1  0.208274  0.791914  0.441880  1
  Er  Er3  1  0.208274  0.416360  0.441880  1
  Er  Er4  1  0.583549  0.791774  0.443935  1
  Er  Er5  1  0.792193  0.207413  0.559002  1
  Er  Er6  1  0.792193  0.584780  0.559002  1
  Er  Er7  1  0.417055  0.208528  0.558139  1
  Er  Er8  1  0.792193  0.207413  0.940998  1
  Er  Er9  1  0.792193  0.584780  0.940998  1
  Er  Er10  1  0.417055  0.208528  0.941861  1
  Er  Er11  1  0.208274  0.791914  0.058120  1
  Er  Er12  1  0.208274  0.416360  0.058120  1
  Er  Er13  1  0.583549  0.791774  0.056065  1
  Er  Er14  1  0.540075  0.459293  0.250000  1
  Er  Er15  1  0.540075  0.080782  0.250000  1
  Er  Er16  1  0.918170  0.459085  0.250000  1
  Er  Er17  1  0.459328  0.541086  0.750000  1
  Er  Er18  1  0.459328  0.918242  0.750000  1
  Er  Er19  1  0.080377  0.540189  0.750000  1
  Zn  Zn20  1  0.768930  0.884464  0.750000  1
  Ag  Ag21  1  0.884084  0.115839  0.250000  1
  Ag  Ag22  1  0.884084  0.768247  0.250000  1
  Ag  Ag23  1  0.231636  0.115819  0.250000  1
  Ag  Ag24  1  0.114787  0.884329  0.750000  1
  Ag  Ag25  1  0.114787  0.230456  0.750000  1
  Ru  Ru26  1  0.333850  0.666926  0.250000  1
  Ru  Ru27  1  0.668544  0.334272  0.750000  1
