# generated using pymatgen
data_Sc8GaSiI12
_symmetry_space_group_name_H-M   'P 1'
_cell_length_a   4.05707100
_cell_length_b   13.40684086
_cell_length_c   14.21244685
_cell_angle_alpha   89.83477600
_cell_angle_beta   90.00000000
_cell_angle_gamma   90.00000000
_symmetry_Int_Tables_number   1
_chemical_formula_structural   Sc8GaSiI12
_chemical_formula_sum   'Sc8 Ga1 Si1 I12'
_cell_volume   773.04737595
_cell_formula_units_Z   1
loop_
 _symmetry_equiv_pos_site_id
 _symmetry_equiv_pos_as_xyz
  1  'x, y, z'
loop_
 _atom_site_type_symbol
 _atom_site_label
 _atom_site_symmetry_multiplicity
 _atom_site_fract_x
 _atom_site_fract_y
 _atom_site_fract_z
 _atom_site_occupancy
  Sc  Sc0  1  0.500000  0.115506  0.347062  1
  Sc  Sc1  1  0.500000  0.884494  0.652938  1
  Sc  Sc2  1  0.500000  0.612284  0.148986  1
  Sc  Sc3  1  0.500000  0.387716  0.851014  1
  Sc  Sc4  1  0.000000  0.112271  0.575852  1
  Sc  Sc5  1  0.000000  0.887729  0.424148  1
  Sc  Sc6  1  0.000000  0.608060  0.926909  1
  Sc  Sc7  1  0.000000  0.391940  0.073091  1
  Ga  Ga8  1  0.500000  0.000000  0.500000  1
  Si  Si9  1  0.500000  0.500000  0.000000  1
  I  I10  1  0.500000  0.250890  0.162475  1
  I  I11  1  0.500000  0.749110  0.837525  1
  I  I12  1  0.500000  0.750414  0.336517  1
  I  I13  1  0.500000  0.249586  0.663483  1
  I  I14  1  0.000000  0.256761  0.415796  1
  I  I15  1  0.000000  0.743239  0.584204  1
  I  I16  1  0.000000  0.755349  0.083870  1
  I  I17  1  0.000000  0.244651  0.916130  1
  I  I18  1  0.000000  0.001182  0.242686  1
  I  I19  1  0.000000  0.998818  0.757314  1
  I  I20  1  0.000000  0.500993  0.256003  1
  I  I21  1  0.000000  0.499007  0.743997  1
