# generated using pymatgen
data_ErHf2Zr(Al3Rh)6
_symmetry_space_group_name_H-M   'P 1'
_cell_length_a   7.47870814
_cell_length_b   7.47110362
_cell_length_c   9.29141600
_cell_angle_alpha   90.00000000
_cell_angle_beta   90.00000000
_cell_angle_gamma   119.73245048
_symmetry_Int_Tables_number   1
_chemical_formula_structural   ErHf2Zr(Al3Rh)6
_chemical_formula_sum   'Er1 Hf2 Zr1 Al18 Rh6'
_cell_volume   450.80470493
_cell_formula_units_Z   1
loop_
 _symmetry_equiv_pos_site_id
 _symmetry_equiv_pos_as_xyz
  1  'x, y, z'
loop_
 _atom_site_type_symbol
 _atom_site_label
 _atom_site_symmetry_multiplicity
 _atom_site_fract_x
 _atom_site_fract_y
 _atom_site_fract_z
 _atom_site_occupancy
  Er  Er0  1  0.329164  0.006248  0.250000  1
  Hf  Hf1  1  0.994171  0.671936  0.750000  1
  Hf  Hf2  1  0.671313  0.993845  0.750000  1
  Zr  Zr3  1  0.006150  0.329700  0.250000  1
  Al  Al4  1  0.121457  0.122951  0.750000  1
  Al  Al5  1  0.873082  0.876174  0.250000  1
  Al  Al6  1  0.996442  0.334527  0.577866  1
  Al  Al7  1  0.000542  0.662850  0.426291  1
  Al  Al8  1  0.000542  0.662850  0.073709  1
  Al  Al9  1  0.334901  0.997306  0.918495  1
  Al  Al10  1  0.996442  0.334527  0.922134  1
  Al  Al11  1  0.667970  0.002582  0.073881  1
  Al  Al12  1  0.667970  0.002582  0.426119  1
  Al  Al13  1  0.334901  0.997306  0.581505  1
  Al  Al14  1  0.331158  0.333419  0.054269  1
  Al  Al15  1  0.668933  0.668876  0.939203  1
  Al  Al16  1  0.668933  0.668876  0.560797  1
  Al  Al17  1  0.331158  0.333419  0.445731  1
  Al  Al18  1  0.337883  0.553462  0.750000  1
  Al  Al19  1  0.666157  0.450929  0.250000  1
  Al  Al20  1  0.555578  0.339394  0.750000  1
  Al  Al21  1  0.445854  0.657602  0.250000  1
  Rh  Rh22  1  0.672666  0.327686  0.502080  1
  Rh  Rh23  1  0.328367  0.673822  0.502647  1
  Rh  Rh24  1  0.328367  0.673822  0.997353  1
  Rh  Rh25  1  0.672666  0.327686  0.997920  1
  Rh  Rh26  1  0.998615  0.997810  0.502613  1
  Rh  Rh27  1  0.998615  0.997810  0.997387  1
