# generated using pymatgen
data_Dy3Be2SiIr6
_symmetry_space_group_name_H-M   'P 1'
_cell_length_a   5.50531100
_cell_length_b   5.50531109
_cell_length_c   14.66746300
_cell_angle_alpha   90.00000000
_cell_angle_beta   90.00000000
_cell_angle_gamma   120.00000545
_symmetry_Int_Tables_number   1
_chemical_formula_structural   Dy3Be2SiIr6
_chemical_formula_sum   'Dy6 Be4 Si2 Ir12'
_cell_volume   384.98989617
_cell_formula_units_Z   2
loop_
 _symmetry_equiv_pos_site_id
 _symmetry_equiv_pos_as_xyz
  1  'x, y, z'
loop_
 _atom_site_type_symbol
 _atom_site_label
 _atom_site_symmetry_multiplicity
 _atom_site_fract_x
 _atom_site_fract_y
 _atom_site_fract_z
 _atom_site_occupancy
  Dy  Dy0  1  0.333333  0.666667  0.537589  1
  Dy  Dy1  1  0.666667  0.333333  0.462411  1
  Dy  Dy2  1  0.666667  0.333333  0.037589  1
  Dy  Dy3  1  0.333333  0.666667  0.962411  1
  Dy  Dy4  1  0.333333  0.666667  0.750000  1
  Dy  Dy5  1  0.666667  0.333333  0.250000  1
  Be  Be6  1  0.000000  0.000000  0.250000  1
  Be  Be7  1  0.000000  0.000000  0.750000  1
  Be  Be8  1  0.333333  0.666667  0.250000  1
  Be  Be9  1  0.666667  0.333333  0.750000  1
  Si  Si10  1  0.000000  0.000000  0.000000  1
  Si  Si11  1  0.000000  0.000000  0.500000  1
  Ir  Ir12  1  0.167388  0.334777  0.132837  1
  Ir  Ir13  1  0.832612  0.665223  0.867163  1
  Ir  Ir14  1  0.665223  0.832612  0.132837  1
  Ir  Ir15  1  0.832612  0.665223  0.632837  1
  Ir  Ir16  1  0.334777  0.167388  0.867163  1
  Ir  Ir17  1  0.167388  0.334777  0.367163  1
  Ir  Ir18  1  0.167388  0.832612  0.132837  1
  Ir  Ir19  1  0.334777  0.167388  0.632837  1
  Ir  Ir20  1  0.832612  0.167388  0.867163  1
  Ir  Ir21  1  0.665223  0.832612  0.367163  1
  Ir  Ir22  1  0.832612  0.167388  0.632837  1
  Ir  Ir23  1  0.167388  0.832612  0.367163  1
