# generated using pymatgen
data_Sm8Cd(Si4Au)3
_symmetry_space_group_name_H-M   'P 1'
_cell_length_a   11.07732890
_cell_length_b   9.41204580
_cell_length_c   8.26587800
_cell_angle_alpha   77.30128263
_cell_angle_beta   56.00805857
_cell_angle_gamma   46.71442918
_symmetry_Int_Tables_number   1
_chemical_formula_structural   Sm8Cd(Si4Au)3
_chemical_formula_sum   'Sm8 Cd1 Si12 Au3'
_cell_volume   500.69404323
_cell_formula_units_Z   1
loop_
 _symmetry_equiv_pos_site_id
 _symmetry_equiv_pos_as_xyz
  1  'x, y, z'
loop_
 _atom_site_type_symbol
 _atom_site_label
 _atom_site_symmetry_multiplicity
 _atom_site_fract_x
 _atom_site_fract_y
 _atom_site_fract_z
 _atom_site_occupancy
  Sm  Sm0  1  0.126254  0.124104  0.372294  1
  Sm  Sm1  1  0.875480  0.873727  0.126799  1
  Sm  Sm2  1  0.126799  0.123996  0.875480  1
  Sm  Sm3  1  0.372294  0.377348  0.126254  1
  Sm  Sm4  1  0.621238  0.622143  0.378857  1
  Sm  Sm5  1  0.378857  0.377762  0.621238  1
  Sm  Sm6  1  0.627720  0.630177  0.871355  1
  Sm  Sm7  1  0.871355  0.870747  0.627720  1
  Cd  Cd8  1  0.833010  0.166990  0.833010  1
  Si  Si9  1  0.334898  0.664236  0.830119  1
  Si  Si10  1  0.179642  0.820889  0.660062  1
  Si  Si11  1  0.830119  0.170745  0.334898  1
  Si  Si12  1  0.660062  0.339406  0.179642  1
  Si  Si13  1  0.915119  0.587836  0.420578  1
  Si  Si14  1  0.076209  0.419581  0.588358  1
  Si  Si15  1  0.420578  0.076466  0.915119  1
  Si  Si16  1  0.913900  0.586100  0.913900  1
  Si  Si17  1  0.659983  0.340017  0.659983  1
  Si  Si18  1  0.335482  0.664518  0.335482  1
  Si  Si19  1  0.585944  0.914056  0.585944  1
  Si  Si20  1  0.588358  0.915853  0.076209  1
  Au  Au21  1  0.082971  0.417029  0.082971  1
  Au  Au22  1  0.166894  0.833106  0.166894  1
  Au  Au23  1  0.416829  0.083171  0.416829  1
