# generated using pymatgen
data_Ho5ErCo4(P6Ru7)2
_symmetry_space_group_name_H-M   'P 1'
_cell_length_a   3.87136900
_cell_length_b   10.89142901
_cell_length_c   12.66947802
_cell_angle_alpha   90.00573421
_cell_angle_beta   90.00000000
_cell_angle_gamma   90.00000000
_symmetry_Int_Tables_number   1
_chemical_formula_structural   Ho5ErCo4(P6Ru7)2
_chemical_formula_sum   'Ho5 Er1 Co4 P12 Ru14'
_cell_volume   534.20525202
_cell_formula_units_Z   1
loop_
 _symmetry_equiv_pos_site_id
 _symmetry_equiv_pos_as_xyz
  1  'x, y, z'
loop_
 _atom_site_type_symbol
 _atom_site_label
 _atom_site_symmetry_multiplicity
 _atom_site_fract_x
 _atom_site_fract_y
 _atom_site_fract_z
 _atom_site_occupancy
  Ho  Ho0  1  0.000000  0.500006  0.526070  1
  Ho  Ho1  1  0.500000  0.999928  0.473102  1
  Ho  Ho2  1  0.500000  0.177977  0.202970  1
  Ho  Ho3  1  0.000000  0.681061  0.797377  1
  Ho  Ho4  1  0.000000  0.318873  0.797466  1
  Er  Er5  1  0.500000  0.821986  0.202862  1
  Co  Co6  1  0.000000  0.500117  0.988217  1
  Co  Co7  1  0.500000  0.999804  0.013408  1
  Co  Co8  1  0.000000  0.162091  0.010453  1
  Co  Co9  1  0.000000  0.837864  0.010523  1
  P  P10  1  0.500000  0.306478  0.616956  1
  P  P11  1  0.500000  0.693524  0.616957  1
  P  P12  1  0.000000  0.193452  0.383511  1
  P  P13  1  0.000000  0.806685  0.383480  1
  P  P14  1  0.500000  0.500050  0.885980  1
  P  P15  1  0.000000  0.999788  0.113226  1
  P  P16  1  0.500000  0.852046  0.895981  1
  P  P17  1  0.500000  0.147860  0.896007  1
  P  P18  1  0.000000  0.656388  0.101583  1
  P  P19  1  0.000000  0.343858  0.101486  1
  P  P20  1  0.500000  0.499960  0.336794  1
  P  P21  1  0.000000  0.999980  0.662255  1
  Ru  Ru22  1  0.500000  0.300119  0.429332  1
  Ru  Ru23  1  0.500000  0.699938  0.429146  1
  Ru  Ru24  1  0.000000  0.199600  0.570927  1
  Ru  Ru25  1  0.000000  0.800311  0.570939  1
  Ru  Ru26  1  0.500000  0.877514  0.715654  1
  Ru  Ru27  1  0.500000  0.122385  0.715711  1
  Ru  Ru28  1  0.000000  0.624340  0.282320  1
  Ru  Ru29  1  0.000000  0.376036  0.282583  1
  Ru  Ru30  1  0.500000  0.326867  0.992379  1
  Ru  Ru31  1  0.500000  0.673255  0.992494  1
  Ru  Ru32  1  0.500000  0.500060  0.152088  1
  Ru  Ru33  1  0.000000  0.999999  0.851199  1
  Ru  Ru34  1  0.500000  0.500005  0.699921  1
  Ru  Ru35  1  0.000000  0.999795  0.298642  1
