# generated using pymatgen
data_VSi4Pt3
_symmetry_space_group_name_H-M   'P 1'
_cell_length_a   3.52492000
_cell_length_b   5.48683400
_cell_length_c   24.36420300
_cell_angle_alpha   90.00000000
_cell_angle_beta   90.00000000
_cell_angle_gamma   90.00000000
_symmetry_Int_Tables_number   1
_chemical_formula_structural   VSi4Pt3
_chemical_formula_sum   'V4 Si16 Pt12'
_cell_volume   471.21954476
_cell_formula_units_Z   4
loop_
 _symmetry_equiv_pos_site_id
 _symmetry_equiv_pos_as_xyz
  1  'x, y, z'
loop_
 _atom_site_type_symbol
 _atom_site_label
 _atom_site_symmetry_multiplicity
 _atom_site_fract_x
 _atom_site_fract_y
 _atom_site_fract_z
 _atom_site_occupancy
  V  V0  1  0.250000  0.505825  0.711258  1
  V  V1  1  0.750000  0.994175  0.211258  1
  V  V2  1  0.250000  0.005825  0.788742  1
  V  V3  1  0.750000  0.494175  0.288742  1
  Si  Si4  1  0.250000  0.181441  0.519915  1
  Si  Si5  1  0.750000  0.318559  0.019915  1
  Si  Si6  1  0.250000  0.681441  0.980085  1
  Si  Si7  1  0.750000  0.818559  0.480085  1
  Si  Si8  1  0.750000  0.324144  0.650087  1
  Si  Si9  1  0.250000  0.175856  0.150087  1
  Si  Si10  1  0.750000  0.824144  0.849913  1
  Si  Si11  1  0.250000  0.675856  0.349913  1
  Si  Si12  1  0.250000  0.651836  0.613555  1
  Si  Si13  1  0.750000  0.848164  0.113555  1
  Si  Si14  1  0.250000  0.151836  0.886445  1
  Si  Si15  1  0.750000  0.348164  0.386445  1
  Si  Si16  1  0.750000  0.822427  0.729722  1
  Si  Si17  1  0.250000  0.677573  0.229722  1
  Si  Si18  1  0.750000  0.322427  0.770278  1
  Si  Si19  1  0.250000  0.177573  0.270278  1
  Pt  Pt20  1  0.750000  0.003022  0.574998  1
  Pt  Pt21  1  0.250000  0.496978  0.074998  1
  Pt  Pt22  1  0.750000  0.503022  0.925002  1
  Pt  Pt23  1  0.250000  0.996978  0.425002  1
  Pt  Pt24  1  0.250000  0.004365  0.671804  1
  Pt  Pt25  1  0.750000  0.495635  0.171804  1
  Pt  Pt26  1  0.250000  0.504365  0.828196  1
  Pt  Pt27  1  0.750000  0.995635  0.328196  1
  Pt  Pt28  1  0.750000  0.503729  0.549431  1
  Pt  Pt29  1  0.250000  0.996271  0.049431  1
  Pt  Pt30  1  0.750000  0.003729  0.950569  1
  Pt  Pt31  1  0.250000  0.496271  0.450569  1
