# generated using pymatgen
data_Li3Mg(ZrPt3)2
_symmetry_space_group_name_H-M   'P 1'
_cell_length_a   4.25119100
_cell_length_b   7.09831900
_cell_length_c   12.66383700
_cell_angle_alpha   90.00000000
_cell_angle_beta   90.00000000
_cell_angle_gamma   90.00000000
_symmetry_Int_Tables_number   1
_chemical_formula_structural   Li3Mg(ZrPt3)2
_chemical_formula_sum   'Li6 Mg2 Zr4 Pt12'
_cell_volume   382.14786918
_cell_formula_units_Z   2
loop_
 _symmetry_equiv_pos_site_id
 _symmetry_equiv_pos_as_xyz
  1  'x, y, z'
loop_
 _atom_site_type_symbol
 _atom_site_label
 _atom_site_symmetry_multiplicity
 _atom_site_fract_x
 _atom_site_fract_y
 _atom_site_fract_z
 _atom_site_occupancy
  Li  Li0  1  0.000000  0.500000  0.008252  1
  Li  Li1  1  0.499999  0.000000  0.158383  1
  Li  Li2  1  0.000000  0.500000  0.321126  1
  Li  Li3  1  0.499999  0.000000  0.496541  1
  Li  Li4  1  0.000000  0.500000  0.670128  1
  Li  Li5  1  0.499999  0.000000  0.845567  1
  Mg  Mg6  1  0.000000  0.000000  0.001265  1
  Mg  Mg7  1  0.500002  0.500000  0.165399  1
  Zr  Zr8  1  0.000000  0.000000  0.326496  1
  Zr  Zr9  1  0.499999  0.500000  0.497772  1
  Zr  Zr10  1  0.000000  0.000000  0.668858  1
  Zr  Zr11  1  0.499999  0.500000  0.840203  1
  Pt  Pt12  1  0.499999  0.251429  0.003333  1
  Pt  Pt13  1  0.499999  0.748571  0.003333  1
  Pt  Pt14  1  0.000000  0.248580  0.163366  1
  Pt  Pt15  1  0.000000  0.751419  0.163366  1
  Pt  Pt16  1  0.500002  0.249361  0.328778  1
  Pt  Pt17  1  0.500002  0.750640  0.328778  1
  Pt  Pt18  1  0.000000  0.250944  0.498464  1
  Pt  Pt19  1  0.000000  0.749055  0.498464  1
  Pt  Pt20  1  0.499999  0.249158  0.668191  1
  Pt  Pt21  1  0.499999  0.750843  0.668191  1
  Pt  Pt22  1  0.000000  0.250705  0.837874  1
  Pt  Pt23  1  0.000000  0.749294  0.837874  1
