# generated using pymatgen
data_BaMgPd3O8
_symmetry_space_group_name_H-M   'P 1'
_cell_length_a   6.17010601
_cell_length_b   7.29099269
_cell_length_c   10.68673202
_cell_angle_alpha   104.14176444
_cell_angle_beta   90.00291947
_cell_angle_gamma   64.96428349
_symmetry_Int_Tables_number   1
_chemical_formula_structural   BaMgPd3O8
_chemical_formula_sum   'Ba2 Mg2 Pd6 O16'
_cell_volume   419.45281621
_cell_formula_units_Z   2
loop_
 _symmetry_equiv_pos_site_id
 _symmetry_equiv_pos_as_xyz
  1  'x, y, z'
loop_
 _atom_site_type_symbol
 _atom_site_label
 _atom_site_symmetry_multiplicity
 _atom_site_fract_x
 _atom_site_fract_y
 _atom_site_fract_z
 _atom_site_occupancy
  Ba  Ba0  1  0.750050  0.499903  0.749980  1
  Ba  Ba1  1  0.250052  0.499901  0.249983  1
  Mg  Mg2  1  0.500033  0.999933  0.499990  1
  Mg  Mg3  1  0.000032  0.999934  0.999989  1
  Pd  Pd4  1  0.249979  0.000027  0.750002  1
  Pd  Pd5  1  0.749981  0.000027  0.250002  1
  Pd  Pd6  1  0.999988  0.000027  0.500009  1
  Pd  Pd7  1  0.499988  0.000027  0.000009  1
  Pd  Pd8  1  0.749990  0.000029  0.750004  1
  Pd  Pd9  1  0.249992  0.000027  0.250003  1
  O  O10  1  0.079231  0.841514  0.640259  1
  O  O11  1  0.579234  0.841512  0.140258  1
  O  O12  1  0.420682  0.158651  0.859771  1
  O  O13  1  0.920685  0.158649  0.359769  1
  O  O14  1  0.825699  0.835195  0.886961  1
  O  O15  1  0.325702  0.835194  0.386960  1
  O  O16  1  0.917607  0.164791  0.856369  1
  O  O17  1  0.417609  0.164788  0.356370  1
  O  O18  1  0.674221  0.164780  0.613004  1
  O  O19  1  0.174223  0.164780  0.113004  1
  O  O20  1  0.160962  0.164803  0.613013  1
  O  O21  1  0.660961  0.164804  0.113012  1
  O  O22  1  0.582406  0.835186  0.643685  1
  O  O23  1  0.082409  0.835183  0.143686  1
  O  O24  1  0.339144  0.835169  0.886954  1
  O  O25  1  0.839143  0.835168  0.386953  1
