# generated using pymatgen
data_Er6Tm2Be3Si12Pt
_symmetry_space_group_name_H-M   'P 1'
_cell_length_a   7.91186700
_cell_length_b   7.91529749
_cell_length_c   7.95176702
_cell_angle_alpha   89.99072816
_cell_angle_beta   89.99987195
_cell_angle_gamma   119.98443560
_symmetry_Int_Tables_number   1
_chemical_formula_structural   Er6Tm2Be3Si12Pt
_chemical_formula_sum   'Er6 Tm2 Be3 Si12 Pt1'
_cell_volume   431.32892539
_cell_formula_units_Z   1
loop_
 _symmetry_equiv_pos_site_id
 _symmetry_equiv_pos_as_xyz
  1  'x, y, z'
loop_
 _atom_site_type_symbol
 _atom_site_label
 _atom_site_symmetry_multiplicity
 _atom_site_fract_x
 _atom_site_fract_y
 _atom_site_fract_z
 _atom_site_occupancy
  Er  Er0  1  0.501082  0.002188  0.747728  1
  Er  Er1  1  0.997794  0.498922  0.747640  1
  Er  Er2  1  0.501098  0.498931  0.747657  1
  Er  Er3  1  0.501413  0.002825  0.252316  1
  Er  Er4  1  0.999950  0.999939  0.747587  1
  Er  Er5  1  0.000083  0.000065  0.252480  1
  Tm  Tm6  1  0.997504  0.498806  0.252225  1
  Tm  Tm7  1  0.501247  0.498814  0.252257  1
  Be  Be8  1  0.666893  0.333705  0.000525  1
  Be  Be9  1  0.666762  0.333524  0.499429  1
  Be  Be10  1  0.333218  0.666465  0.498571  1
  Si  Si11  1  0.172242  0.827549  0.499462  1
  Si  Si12  1  0.172421  0.344852  0.499222  1
  Si  Si13  1  0.655309  0.827553  0.499474  1
  Si  Si14  1  0.345093  0.172582  0.000507  1
  Si  Si15  1  0.826500  0.653004  0.499527  1
  Si  Si16  1  0.827508  0.172536  0.000498  1
  Si  Si17  1  0.827483  0.654997  0.000846  1
  Si  Si18  1  0.165014  0.330021  0.000550  1
  Si  Si19  1  0.669590  0.834727  0.000213  1
  Si  Si20  1  0.346896  0.173623  0.499831  1
  Si  Si21  1  0.826726  0.173619  0.499835  1
  Si  Si22  1  0.165134  0.834734  0.000220  1
  Pt  Pt23  1  0.333039  0.666021  0.001396  1
