# generated using pymatgen
data_Dy9Er(InTe)4
_symmetry_space_group_name_H-M   'P 1'
_cell_length_a   8.80756242
_cell_length_b   8.80756355
_cell_length_c   8.10518500
_cell_angle_alpha   89.98220802
_cell_angle_beta   89.98221453
_cell_angle_gamma   125.14153672
_symmetry_Int_Tables_number   1
_chemical_formula_structural   Dy9Er(InTe)4
_chemical_formula_sum   'Dy9 Er1 In4 Te4'
_cell_volume   514.14508396
_cell_formula_units_Z   1
loop_
 _symmetry_equiv_pos_site_id
 _symmetry_equiv_pos_as_xyz
  1  'x, y, z'
loop_
 _atom_site_type_symbol
 _atom_site_label
 _atom_site_symmetry_multiplicity
 _atom_site_fract_x
 _atom_site_fract_y
 _atom_site_fract_z
 _atom_site_occupancy
  Dy  Dy0  1  0.032242  0.305955  0.334478  1
  Dy  Dy1  1  0.967758  0.694045  0.665522  1
  Dy  Dy2  1  0.467753  0.194317  0.834382  1
  Dy  Dy3  1  0.805683  0.532247  0.165618  1
  Dy  Dy4  1  0.532247  0.805683  0.165618  1
  Dy  Dy5  1  0.194317  0.467753  0.834382  1
  Dy  Dy6  1  0.694045  0.967758  0.665522  1
  Dy  Dy7  1  0.305955  0.032242  0.334478  1
  Dy  Dy8  1  0.000000  0.000000  0.000000  1
  Er  Er9  1  0.500000  0.500000  0.500000  1
  In  In10  1  0.370331  0.370331  0.129561  1
  In  In11  1  0.629669  0.629669  0.870439  1
  In  In12  1  0.130707  0.130707  0.628187  1
  In  In13  1  0.869293  0.869293  0.371813  1
  Te  Te14  1  0.797774  0.202226  0.000000  1
  Te  Te15  1  0.202226  0.797774  0.000000  1
  Te  Te16  1  0.701875  0.298125  0.500000  1
  Te  Te17  1  0.298125  0.701875  0.500000  1
