# generated using pymatgen
data_Yb6CuNi12B4Pd
_symmetry_space_group_name_H-M   'P 1'
_cell_length_a   5.03485100
_cell_length_b   5.03485050
_cell_length_c   14.27738400
_cell_angle_alpha   90.00000000
_cell_angle_beta   90.00000000
_cell_angle_gamma   120.00000988
_symmetry_Int_Tables_number   1
_chemical_formula_structural   Yb6CuNi12B4Pd
_chemical_formula_sum   'Yb6 Cu1 Ni12 B4 Pd1'
_cell_volume   313.43856527
_cell_formula_units_Z   1
loop_
 _symmetry_equiv_pos_site_id
 _symmetry_equiv_pos_as_xyz
  1  'x, y, z'
loop_
 _atom_site_type_symbol
 _atom_site_label
 _atom_site_symmetry_multiplicity
 _atom_site_fract_x
 _atom_site_fract_y
 _atom_site_fract_z
 _atom_site_occupancy
  Yb  Yb0  1  0.666667  0.333333  0.535816  1
  Yb  Yb1  1  0.333333  0.666667  0.464184  1
  Yb  Yb2  1  0.333333  0.666667  0.037706  1
  Yb  Yb3  1  0.666667  0.333333  0.750094  1
  Yb  Yb4  1  0.666667  0.333333  0.962294  1
  Yb  Yb5  1  0.333333  0.666667  0.249906  1
  Cu  Cu6  1  0.000000  0.000000  0.000000  1
  Ni  Ni7  1  0.166785  0.333571  0.655731  1
  Ni  Ni8  1  0.333571  0.166785  0.344269  1
  Ni  Ni9  1  0.332537  0.166268  0.149520  1
  Ni  Ni10  1  0.166268  0.833732  0.850480  1
  Ni  Ni11  1  0.833215  0.666429  0.344269  1
  Ni  Ni12  1  0.833732  0.166268  0.149520  1
  Ni  Ni13  1  0.666429  0.833215  0.655731  1
  Ni  Ni14  1  0.667463  0.833732  0.850480  1
  Ni  Ni15  1  0.166785  0.833215  0.655731  1
  Ni  Ni16  1  0.833732  0.667463  0.149520  1
  Ni  Ni17  1  0.166268  0.332537  0.850480  1
  Ni  Ni18  1  0.833215  0.166785  0.344269  1
  B  B19  1  0.666667  0.333333  0.246751  1
  B  B20  1  0.000000  0.000000  0.752550  1
  B  B21  1  0.333333  0.666667  0.753249  1
  B  B22  1  0.000000  0.000000  0.247450  1
  Pd  Pd23  1  0.000000  0.000000  0.500000  1
