# generated using pymatgen
data_Cs4EuSbCl12
_symmetry_space_group_name_H-M   'P 1'
_cell_length_a   13.34534333
_cell_length_b   13.34534392
_cell_length_c   13.34534326
_cell_angle_alpha   131.82416733
_cell_angle_beta   131.82416973
_cell_angle_gamma   70.50687721
_symmetry_Int_Tables_number   1
_chemical_formula_structural   Cs4EuSbCl12
_chemical_formula_sum   'Cs8 Eu2 Sb2 Cl24'
_cell_volume   1293.23133991
_cell_formula_units_Z   2
loop_
 _symmetry_equiv_pos_site_id
 _symmetry_equiv_pos_as_xyz
  1  'x, y, z'
loop_
 _atom_site_type_symbol
 _atom_site_label
 _atom_site_symmetry_multiplicity
 _atom_site_fract_x
 _atom_site_fract_y
 _atom_site_fract_z
 _atom_site_occupancy
  Cs  Cs0  1  0.375000  0.845172  0.970172  1
  Cs  Cs1  1  0.595172  0.625000  0.470172  1
  Cs  Cs2  1  0.875000  0.845172  0.470172  1
  Cs  Cs3  1  0.595172  0.125000  0.970172  1
  Cs  Cs4  1  0.875000  0.404828  0.029828  1
  Cs  Cs5  1  0.154828  0.125000  0.529828  1
  Cs  Cs6  1  0.375000  0.404828  0.529828  1
  Cs  Cs7  1  0.154828  0.625000  0.029828  1
  Eu  Eu8  1  0.500000  0.500000  0.000000  1
  Eu  Eu9  1  0.250000  0.750000  0.500000  1
  Sb  Sb10  1  0.000000  0.000000  0.000000  1
  Sb  Sb11  1  0.750000  0.250000  0.500000  1
  Cl  Cl12  1  0.745702  0.495786  0.249916  1
  Cl  Cl13  1  0.504214  0.254298  0.750084  1
  Cl  Cl14  1  0.375059  0.375059  0.000000  1
  Cl  Cl15  1  0.125059  0.625059  0.500000  1
  Cl  Cl16  1  0.374941  0.874941  0.500000  1
  Cl  Cl17  1  0.624941  0.624941  0.000000  1
  Cl  Cl18  1  0.110678  0.110678  0.000000  1
  Cl  Cl19  1  0.860678  0.360678  0.500000  1
  Cl  Cl20  1  0.639322  0.139322  0.500000  1
  Cl  Cl21  1  0.889322  0.889322  0.000000  1
  Cl  Cl22  1  0.222625  0.000449  0.222176  1
  Cl  Cl23  1  0.750449  0.028273  0.277824  1
  Cl  Cl24  1  0.504214  0.754129  0.249916  1
  Cl  Cl25  1  0.527375  0.249551  0.277824  1
  Cl  Cl26  1  0.971727  0.249551  0.722176  1
  Cl  Cl27  1  0.999551  0.221727  0.222176  1
  Cl  Cl28  1  0.999551  0.777375  0.777824  1
  Cl  Cl29  1  0.778273  0.000449  0.777824  1
  Cl  Cl30  1  0.750449  0.472625  0.722176  1
  Cl  Cl31  1  0.245786  0.495871  0.250084  1
  Cl  Cl32  1  0.245786  0.995702  0.749916  1
  Cl  Cl33  1  0.004298  0.754214  0.250084  1
  Cl  Cl34  1  0.504129  0.754214  0.749916  1
  Cl  Cl35  1  0.245871  0.495786  0.750084  1
