# generated using pymatgen
data_La8Ce2Os2I15
_symmetry_space_group_name_H-M   'P 1'
_cell_length_a   10.21869562
_cell_length_b   11.21450003
_cell_length_c   11.97338596
_cell_angle_alpha   91.26243224
_cell_angle_beta   114.25254706
_cell_angle_gamma   110.83005458
_symmetry_Int_Tables_number   1
_chemical_formula_structural   La8Ce2Os2I15
_chemical_formula_sum   'La8 Ce2 Os2 I15'
_cell_volume   1146.28009422
_cell_formula_units_Z   1
loop_
 _symmetry_equiv_pos_site_id
 _symmetry_equiv_pos_as_xyz
  1  'x, y, z'
loop_
 _atom_site_type_symbol
 _atom_site_label
 _atom_site_symmetry_multiplicity
 _atom_site_fract_x
 _atom_site_fract_y
 _atom_site_fract_z
 _atom_site_occupancy
  La  La0  1  0.299522  0.903793  0.274295  1
  La  La1  1  0.700478  0.096207  0.725705  1
  La  La2  1  0.086265  0.549510  0.323801  1
  La  La3  1  0.913735  0.450490  0.676199  1
  La  La4  1  0.829130  0.750023  0.179475  1
  La  La5  1  0.170870  0.249977  0.820525  1
  La  La6  1  0.976139  0.791337  0.910958  1
  La  La7  1  0.023861  0.208663  0.089042  1
  Ce  Ce8  1  0.218928  0.574786  0.048121  1
  Ce  Ce9  1  0.781072  0.425214  0.951879  1
  Os  Os10  1  0.032243  0.672517  0.118941  1
  Os  Os11  1  0.967757  0.327483  0.881059  1
  I  I12  1  0.337084  0.446959  0.295593  1
  I  I13  1  0.662916  0.553041  0.704407  1
  I  I14  1  0.212232  0.734170  0.821737  1
  I  I15  1  0.787768  0.265830  0.178263  1
  I  I16  1  0.141660  0.386147  0.580096  1
  I  I17  1  0.858340  0.613853  0.419904  1
  I  I18  1  0.388359  0.801909  0.533772  1
  I  I19  1  0.611641  0.198091  0.466228  1
  I  I20  1  0.264781  0.088284  0.054990  1
  I  I21  1  0.735219  0.911716  0.945010  1
  I  I22  1  0.557899  0.837991  0.222376  1
  I  I23  1  0.442101  0.162009  0.777624  1
  I  I24  1  0.091490  0.039366  0.334500  1
  I  I25  1  0.908510  0.960634  0.665500  1
  I  I26  1  0.500000  0.500000  0.000000  1
