# generated using pymatgen
data_Tb2Ga5Rh3
_symmetry_space_group_name_H-M   'P 1'
_cell_length_a   8.60409661
_cell_length_b   8.60409658
_cell_length_c   5.69543381
_cell_angle_alpha   70.63406060
_cell_angle_beta   70.63406441
_cell_angle_gamma   96.44900297
_symmetry_Int_Tables_number   1
_chemical_formula_structural   Tb2Ga5Rh3
_chemical_formula_sum   'Tb4 Ga10 Rh6'
_cell_volume   363.38197978
_cell_formula_units_Z   2
loop_
 _symmetry_equiv_pos_site_id
 _symmetry_equiv_pos_as_xyz
  1  'x, y, z'
loop_
 _atom_site_type_symbol
 _atom_site_label
 _atom_site_symmetry_multiplicity
 _atom_site_fract_x
 _atom_site_fract_y
 _atom_site_fract_z
 _atom_site_occupancy
  Tb  Tb0  1  0.867852  0.585854  0.772909  1
  Tb  Tb1  1  0.414146  0.132148  0.727091  1
  Tb  Tb2  1  0.132148  0.414146  0.227091  1
  Tb  Tb3  1  0.585854  0.867852  0.272909  1
  Ga  Ga4  1  0.090871  0.263699  0.822272  1
  Ga  Ga5  1  0.736301  0.909129  0.677728  1
  Ga  Ga6  1  0.909129  0.736301  0.177728  1
  Ga  Ga7  1  0.263699  0.090871  0.322272  1
  Ga  Ga8  1  0.500697  0.499303  0.750000  1
  Ga  Ga9  1  0.499303  0.500697  0.250000  1
  Ga  Ga10  1  0.796157  0.203843  0.750000  1
  Ga  Ga11  1  0.797379  0.202621  0.250000  1
  Ga  Ga12  1  0.202621  0.797379  0.750000  1
  Ga  Ga13  1  0.203843  0.796157  0.250000  1
  Rh  Rh14  1  0.000359  0.999641  0.250000  1
  Rh  Rh15  1  0.438755  0.738476  0.909183  1
  Rh  Rh16  1  0.738476  0.438755  0.409183  1
  Rh  Rh17  1  0.561245  0.261524  0.090817  1
  Rh  Rh18  1  0.999641  0.000359  0.750000  1
  Rh  Rh19  1  0.261524  0.561245  0.590817  1
