# generated using pymatgen
data_Hf16Ni4Rh3W
_symmetry_space_group_name_H-M   'P 1'
_cell_length_a   8.67144108
_cell_length_b   8.63231157
_cell_length_c   8.63231300
_cell_angle_alpha   59.99999835
_cell_angle_beta   60.14915734
_cell_angle_gamma   60.14916493
_symmetry_Int_Tables_number   1
_chemical_formula_structural   Hf16Ni4Rh3W
_chemical_formula_sum   'Hf16 Ni4 Rh3 W1'
_cell_volume   457.93731913
_cell_formula_units_Z   1
loop_
 _symmetry_equiv_pos_site_id
 _symmetry_equiv_pos_as_xyz
  1  'x, y, z'
loop_
 _atom_site_type_symbol
 _atom_site_label
 _atom_site_symmetry_multiplicity
 _atom_site_fract_x
 _atom_site_fract_y
 _atom_site_fract_z
 _atom_site_occupancy
  Hf  Hf0  1  0.671035  0.109655  0.109655  1
  Hf  Hf1  1  0.104271  0.688651  0.103538  1
  Hf  Hf2  1  0.104271  0.103538  0.688651  1
  Hf  Hf3  1  0.104271  0.103538  0.103538  1
  Hf  Hf4  1  0.316516  0.315200  0.684142  1
  Hf  Hf5  1  0.694084  0.677852  0.314032  1
  Hf  Hf6  1  0.316516  0.684142  0.315200  1
  Hf  Hf7  1  0.694084  0.314032  0.677852  1
  Hf  Hf8  1  0.694084  0.314032  0.314032  1
  Hf  Hf9  1  0.316516  0.684142  0.684142  1
  Hf  Hf10  1  0.945516  0.950821  0.551831  1
  Hf  Hf11  1  0.552352  0.552001  0.947823  1
  Hf  Hf12  1  0.945516  0.551831  0.950821  1
  Hf  Hf13  1  0.552352  0.947823  0.552001  1
  Hf  Hf14  1  0.552352  0.947823  0.947823  1
  Hf  Hf15  1  0.945516  0.551831  0.551831  1
  Ni  Ni16  1  0.325606  0.891465  0.891465  1
  Ni  Ni17  1  0.887287  0.320293  0.896210  1
  Ni  Ni18  1  0.887287  0.896210  0.320293  1
  Ni  Ni19  1  0.887287  0.896210  0.896210  1
  Rh  Rh20  1  0.332784  0.992593  0.337311  1
  Rh  Rh21  1  0.332784  0.337311  0.992593  1
  Rh  Rh22  1  0.332784  0.337311  0.337311  1
  W  W23  1  0.004929  0.331690  0.331690  1
