# generated using pymatgen
data_TbEr5(SiIr2)6
_symmetry_space_group_name_H-M   'P 1'
_cell_length_a   5.56154000
_cell_length_b   5.56204655
_cell_length_c   15.13247000
_cell_angle_alpha   90.00000000
_cell_angle_beta   90.00000000
_cell_angle_gamma   120.00633687
_symmetry_Int_Tables_number   1
_chemical_formula_structural   TbEr5(SiIr2)6
_chemical_formula_sum   'Tb1 Er5 Si6 Ir12'
_cell_volume   405.36141044
_cell_formula_units_Z   1
loop_
 _symmetry_equiv_pos_site_id
 _symmetry_equiv_pos_as_xyz
  1  'x, y, z'
loop_
 _atom_site_type_symbol
 _atom_site_label
 _atom_site_symmetry_multiplicity
 _atom_site_fract_x
 _atom_site_fract_y
 _atom_site_fract_z
 _atom_site_occupancy
  Tb  Tb0  1  0.666669  0.333336  0.250000  1
  Er  Er1  1  0.333334  0.666661  0.539330  1
  Er  Er2  1  0.666658  0.333329  0.460586  1
  Er  Er3  1  0.666658  0.333329  0.039414  1
  Er  Er4  1  0.333334  0.666661  0.960670  1
  Er  Er5  1  0.333336  0.666671  0.750000  1
  Si  Si6  1  0.999997  0.000003  0.250000  1
  Si  Si7  1  0.000008  0.000006  0.750000  1
  Si  Si8  1  0.333333  0.666663  0.250000  1
  Si  Si9  1  0.666662  0.333329  0.750000  1
  Si  Si10  1  0.000001  0.000002  0.999990  1
  Si  Si11  1  0.000001  0.000002  0.500010  1
  Ir  Ir12  1  0.167667  0.335331  0.129517  1
  Ir  Ir13  1  0.832347  0.664694  0.870325  1
  Ir  Ir14  1  0.664667  0.832334  0.129516  1
  Ir  Ir15  1  0.832347  0.664694  0.629675  1
  Ir  Ir16  1  0.335312  0.167656  0.870329  1
  Ir  Ir17  1  0.167667  0.335331  0.370483  1
  Ir  Ir18  1  0.167664  0.832336  0.129522  1
  Ir  Ir19  1  0.335312  0.167656  0.629671  1
  Ir  Ir20  1  0.832346  0.167654  0.870323  1
  Ir  Ir21  1  0.664667  0.832334  0.370484  1
  Ir  Ir22  1  0.832346  0.167654  0.629677  1
  Ir  Ir23  1  0.167664  0.832336  0.370478  1
