# generated using pymatgen
data_Nd6OsRuBr6
_symmetry_space_group_name_H-M   'P 1'
_cell_length_a   4.24027300
_cell_length_b   9.01283252
_cell_length_c   12.22366703
_cell_angle_alpha   87.71203994
_cell_angle_beta   90.00000000
_cell_angle_gamma   90.00000000
_symmetry_Int_Tables_number   1
_chemical_formula_structural   Nd6OsRuBr6
_chemical_formula_sum   'Nd6 Os1 Ru1 Br6'
_cell_volume   466.77788933
_cell_formula_units_Z   1
loop_
 _symmetry_equiv_pos_site_id
 _symmetry_equiv_pos_as_xyz
  1  'x, y, z'
loop_
 _atom_site_type_symbol
 _atom_site_label
 _atom_site_symmetry_multiplicity
 _atom_site_fract_x
 _atom_site_fract_y
 _atom_site_fract_z
 _atom_site_occupancy
  Nd  Nd0  1  0.750000  0.682957  0.119931  1
  Nd  Nd1  1  0.250000  0.316896  0.880308  1
  Nd  Nd2  1  0.250000  0.881423  0.339334  1
  Nd  Nd3  1  0.750000  0.118591  0.662210  1
  Nd  Nd4  1  0.250000  0.894656  0.884501  1
  Nd  Nd5  1  0.750000  0.104295  0.115659  1
  Os  Os6  1  0.250000  0.891407  0.120009  1
  Ru  Ru7  1  0.750000  0.108915  0.878854  1
  Br  Br8  1  0.250000  0.882641  0.614408  1
  Br  Br9  1  0.750000  0.117679  0.385450  1
  Br  Br10  1  0.750000  0.647334  0.371526  1
  Br  Br11  1  0.250000  0.352816  0.629086  1
  Br  Br12  1  0.250000  0.398633  0.127517  1
  Br  Br13  1  0.750000  0.601757  0.871204  1
