# generated using pymatgen
data_Lu3NiSn3IrPt
_symmetry_space_group_name_H-M   'P 1'
_cell_length_a   7.54825600
_cell_length_b   7.54825561
_cell_length_c   3.68257500
_cell_angle_alpha   90.00000000
_cell_angle_beta   90.00000000
_cell_angle_gamma   120.00000171
_symmetry_Int_Tables_number   1
_chemical_formula_structural   Lu3NiSn3IrPt
_chemical_formula_sum   'Lu3 Ni1 Sn3 Ir1 Pt1'
_cell_volume   181.70858401
_cell_formula_units_Z   1
loop_
 _symmetry_equiv_pos_site_id
 _symmetry_equiv_pos_as_xyz
  1  'x, y, z'
loop_
 _atom_site_type_symbol
 _atom_site_label
 _atom_site_symmetry_multiplicity
 _atom_site_fract_x
 _atom_site_fract_y
 _atom_site_fract_z
 _atom_site_occupancy
  Lu  Lu0  1  0.994965  0.401127  0.500000  1
  Lu  Lu1  1  0.598873  0.593838  0.500000  1
  Lu  Lu2  1  0.406162  0.005035  0.500000  1
  Ni  Ni3  1  0.000000  0.000000  0.500000  1
  Sn  Sn4  1  0.998601  0.744747  0.000000  1
  Sn  Sn5  1  0.255253  0.253855  0.000000  1
  Sn  Sn6  1  0.746145  0.001399  0.000000  1
  Ir  Ir7  1  0.666667  0.333333  0.000000  1
  Pt  Pt8  1  0.333333  0.666667  0.000000  1
