# generated using pymatgen
data_Y13Er3Cd4Ir3Os
_symmetry_space_group_name_H-M   'P 1'
_cell_length_a   9.68350911
_cell_length_b   9.69160247
_cell_length_c   9.69147023
_cell_angle_alpha   59.48662682
_cell_angle_beta   59.46579496
_cell_angle_gamma   59.46449910
_symmetry_Int_Tables_number   1
_chemical_formula_structural   Y13Er3Cd4Ir3Os
_chemical_formula_sum   'Y13 Er3 Cd4 Ir3 Os1'
_cell_volume   635.41656930
_cell_formula_units_Z   1
loop_
 _symmetry_equiv_pos_site_id
 _symmetry_equiv_pos_as_xyz
  1  'x, y, z'
loop_
 _atom_site_type_symbol
 _atom_site_label
 _atom_site_symmetry_multiplicity
 _atom_site_fract_x
 _atom_site_fract_y
 _atom_site_fract_z
 _atom_site_occupancy
  Y  Y0  1  0.956536  0.348700  0.348705  1
  Y  Y1  1  0.811046  0.189328  0.189334  1
  Y  Y2  1  0.188367  0.809097  0.809094  1
  Y  Y3  1  0.189575  0.811167  0.189478  1
  Y  Y4  1  0.809192  0.188014  0.809458  1
  Y  Y5  1  0.189580  0.189479  0.811155  1
  Y  Y6  1  0.809195  0.809456  0.188013  1
  Y  Y7  1  0.938799  0.561368  0.561357  1
  Y  Y8  1  0.557310  0.939376  0.939368  1
  Y  Y9  1  0.560860  0.939096  0.561051  1
  Y  Y10  1  0.939146  0.557734  0.938807  1
  Y  Y11  1  0.560860  0.561064  0.939081  1
  Y  Y12  1  0.939147  0.938804  0.557736  1
  Er  Er13  1  0.348743  0.348773  0.348847  1
  Er  Er14  1  0.348063  0.347890  0.958646  1
  Er  Er15  1  0.348057  0.958674  0.347899  1
  Cd  Cd16  1  0.579389  0.579695  0.579698  1
  Cd  Cd17  1  0.580059  0.580334  0.257580  1
  Cd  Cd18  1  0.580060  0.257580  0.580335  1
  Cd  Cd19  1  0.257591  0.580258  0.580255  1
  Ir  Ir20  1  0.145338  0.142978  0.575219  1
  Ir  Ir21  1  0.145340  0.575221  0.142972  1
  Ir  Ir22  1  0.573828  0.144282  0.144285  1
  Os  Os23  1  0.143921  0.141635  0.141628  1
