# generated using pymatgen
data_CaLa3(GaSi3)2
_symmetry_space_group_name_H-M   'P 1'
_cell_length_a   4.32312600
_cell_length_b   4.32312600
_cell_length_c   14.13617900
_cell_angle_alpha   90.00000000
_cell_angle_beta   90.00000000
_cell_angle_gamma   90.00000000
_symmetry_Int_Tables_number   1
_chemical_formula_structural   CaLa3(GaSi3)2
_chemical_formula_sum   'Ca1 La3 Ga2 Si6'
_cell_volume   264.19696408
_cell_formula_units_Z   1
loop_
 _symmetry_equiv_pos_site_id
 _symmetry_equiv_pos_as_xyz
  1  'x, y, z'
loop_
 _atom_site_type_symbol
 _atom_site_label
 _atom_site_symmetry_multiplicity
 _atom_site_fract_x
 _atom_site_fract_y
 _atom_site_fract_z
 _atom_site_occupancy
  Ca  Ca0  1  0.500000  0.500000  0.000000  1
  La  La1  1  0.000000  0.000000  0.500000  1
  La  La2  1  0.500000  0.000000  0.743666  1
  La  La3  1  0.000000  0.500000  0.256334  1
  Ga  Ga4  1  0.000000  0.000000  0.914047  1
  Ga  Ga5  1  0.000000  0.000000  0.085953  1
  Si  Si6  1  0.500000  0.500000  0.417264  1
  Si  Si7  1  0.000000  0.500000  0.828525  1
  Si  Si8  1  0.500000  0.000000  0.336884  1
  Si  Si9  1  0.500000  0.500000  0.582736  1
  Si  Si10  1  0.500000  0.000000  0.171475  1
  Si  Si11  1  0.000000  0.500000  0.663116  1
