# generated using pymatgen
data_Ti8Al15Ru5Au2
_symmetry_space_group_name_H-M   'P 1'
_cell_length_a   8.74799191
_cell_length_b   8.68803709
_cell_length_c   8.74799132
_cell_angle_alpha   120.02235356
_cell_angle_beta   120.06022454
_cell_angle_gamma   90.12584205
_symmetry_Int_Tables_number   1
_chemical_formula_structural   Ti8Al15Ru5Au2
_chemical_formula_sum   'Ti8 Al15 Ru5 Au2'
_cell_volume   469.02760699
_cell_formula_units_Z   1
loop_
 _symmetry_equiv_pos_site_id
 _symmetry_equiv_pos_as_xyz
  1  'x, y, z'
loop_
 _atom_site_type_symbol
 _atom_site_label
 _atom_site_symmetry_multiplicity
 _atom_site_fract_x
 _atom_site_fract_y
 _atom_site_fract_z
 _atom_site_occupancy
  Ti  Ti0  1  0.790619  0.288293  0.070342  1
  Ti  Ti1  1  0.217952  0.288293  0.497675  1
  Ti  Ti2  1  0.210151  0.708486  0.498335  1
  Ti  Ti3  1  0.212112  0.716184  0.925292  1
  Ti  Ti4  1  0.790891  0.716184  0.504072  1
  Ti  Ti5  1  0.781427  0.284883  0.503456  1
  Ti  Ti6  1  0.389752  0.134329  0.744577  1
  Ti  Ti7  1  0.377509  0.635912  0.258402  1
  Al  Al8  1  0.996610  0.495211  0.498601  1
  Al  Al9  1  0.155391  0.345206  0.189814  1
  Al  Al10  1  0.151545  0.964999  0.813453  1
  Al  Al11  1  0.154011  0.354840  0.811274  1
  Al  Al12  1  0.543566  0.354840  0.200831  1
  Al  Al13  1  0.844639  0.652876  0.808239  1
  Al  Al14  1  0.852487  0.044711  0.192224  1
  Al  Al15  1  0.840678  0.644475  0.182710  1
  Al  Al16  1  0.461766  0.644475  0.803796  1
  Al  Al17  1  0.374624  0.126586  0.266001  1
  Al  Al18  1  0.860586  0.126586  0.751962  1
  Al  Al19  1  0.612367  0.867392  0.255025  1
  Al  Al20  1  0.622638  0.366056  0.743418  1
  Al  Al21  1  0.624179  0.872020  0.733820  1
  Al  Al22  1  0.138199  0.872020  0.247841  1
  Ru  Ru23  1  0.497714  0.497605  0.999892  1
  Ru  Ru24  1  0.498129  0.499273  0.498343  1
  Ru  Ru25  1  0.000930  0.499273  0.001144  1
  Ru  Ru26  1  0.999887  0.999959  0.000073  1
  Ru  Ru27  1  0.499415  0.000436  0.501021  1
  Au  Au28  1  0.999434  0.999295  0.498506  1
  Au  Au29  1  0.500788  0.999295  0.999860  1
