# generated using pymatgen
data_Ac3La(MgSi2)4
_symmetry_space_group_name_H-M   'P 1'
_cell_length_a   18.90904624
_cell_length_b   4.42596702
_cell_length_c   4.41116800
_cell_angle_alpha   90.00000000
_cell_angle_beta   96.69832700
_cell_angle_gamma   96.72090326
_symmetry_Int_Tables_number   1
_chemical_formula_structural   Ac3La(MgSi2)4
_chemical_formula_sum   'Ac3 La1 Mg4 Si8'
_cell_volume   364.09976610
_cell_formula_units_Z   1
loop_
 _symmetry_equiv_pos_site_id
 _symmetry_equiv_pos_as_xyz
  1  'x, y, z'
loop_
 _atom_site_type_symbol
 _atom_site_label
 _atom_site_symmetry_multiplicity
 _atom_site_fract_x
 _atom_site_fract_y
 _atom_site_fract_z
 _atom_site_occupancy
  Ac  Ac0  1  0.596323  0.798160  0.048162  1
  Ac  Ac1  1  0.902840  0.951419  0.201420  1
  Ac  Ac2  1  0.097615  0.048808  0.798809  1
  La  La3  1  0.403711  0.201855  0.951856  1
  Mg  Mg4  1  0.749851  0.374925  0.124925  1
  Mg  Mg5  1  0.251380  0.125690  0.375690  1
  Mg  Mg6  1  0.749835  0.874916  0.624916  1
  Mg  Mg7  1  0.251194  0.625596  0.875598  1
  Si  Si8  1  0.029206  0.514602  0.264603  1
  Si  Si9  1  0.155801  0.577899  0.327899  1
  Si  Si10  1  0.345747  0.672872  0.422873  1
  Si  Si11  1  0.470243  0.735121  0.485121  1
  Si  Si12  1  0.526421  0.263210  0.513210  1
  Si  Si13  1  0.653765  0.326882  0.576881  1
  Si  Si14  1  0.844801  0.422400  0.672400  1
  Si  Si15  1  0.971268  0.485634  0.735633  1
