# generated using pymatgen
data_Er10Ir3Os2Rh
_symmetry_space_group_name_H-M   'P 1'
_cell_length_a   10.76739222
_cell_length_b   10.76744900
_cell_length_c   6.35455413
_cell_angle_alpha   90.00000000
_cell_angle_beta   89.97684708
_cell_angle_gamma   90.00000000
_symmetry_Int_Tables_number   1
_chemical_formula_structural   Er10Ir3Os2Rh
_chemical_formula_sum   'Er20 Ir6 Os4 Rh2'
_cell_volume   736.73008441
_cell_formula_units_Z   2
loop_
 _symmetry_equiv_pos_site_id
 _symmetry_equiv_pos_as_xyz
  1  'x, y, z'
loop_
 _atom_site_type_symbol
 _atom_site_label
 _atom_site_symmetry_multiplicity
 _atom_site_fract_x
 _atom_site_fract_y
 _atom_site_fract_z
 _atom_site_occupancy
  Er  Er0  1  0.292969  0.085560  0.376615  1
  Er  Er1  1  0.292969  0.914440  0.876615  1
  Er  Er2  1  0.704776  0.087395  0.874838  1
  Er  Er3  1  0.704776  0.912605  0.374838  1
  Er  Er4  1  0.584399  0.793492  0.876763  1
  Er  Er5  1  0.584399  0.206508  0.376763  1
  Er  Er6  1  0.413068  0.793404  0.375843  1
  Er  Er7  1  0.413068  0.206596  0.875843  1
  Er  Er8  1  0.206977  0.413860  0.623069  1
  Er  Er9  1  0.206977  0.586140  0.123069  1
  Er  Er10  1  0.793832  0.414789  0.124283  1
  Er  Er11  1  0.793832  0.585211  0.624283  1
  Er  Er12  1  0.915201  0.705937  0.124787  1
  Er  Er13  1  0.915201  0.294063  0.624787  1
  Er  Er14  1  0.088166  0.705886  0.623813  1
  Er  Er15  1  0.088166  0.294114  0.123813  1
  Er  Er16  1  0.999784  0.999697  0.500015  1
  Er  Er17  1  0.999784  0.000303  0.000015  1
  Er  Er18  1  0.500387  0.499834  0.999848  1
  Er  Er19  1  0.500387  0.500166  0.499848  1
  Ir  Ir20  1  0.151272  0.152357  0.749625  1
  Ir  Ir21  1  0.151272  0.847643  0.249625  1
  Ir  Ir22  1  0.653027  0.347715  0.749537  1
  Ir  Ir23  1  0.653027  0.652285  0.249537  1
  Ir  Ir24  1  0.348242  0.347516  0.250069  1
  Ir  Ir25  1  0.348242  0.652484  0.750069  1
  Os  Os26  1  0.500276  0.000232  0.123672  1
  Os  Os27  1  0.500276  0.999768  0.623672  1
  Os  Os28  1  0.000114  0.500065  0.876399  1
  Os  Os29  1  0.000114  0.499935  0.376399  1
  Rh  Rh30  1  0.847511  0.151156  0.250823  1
  Rh  Rh31  1  0.847511  0.848844  0.750823  1
