# generated using pymatgen
data_Ho12Ga5Ge3Ru8
_symmetry_space_group_name_H-M   'P 1'
_cell_length_a   5.55863219
_cell_length_b   7.67800232
_cell_length_c   13.65096200
_cell_angle_alpha   90.00000000
_cell_angle_beta   90.00000000
_cell_angle_gamma   89.99857255
_symmetry_Int_Tables_number   1
_chemical_formula_structural   Ho12Ga5Ge3Ru8
_chemical_formula_sum   'Ho12 Ga5 Ge3 Ru8'
_cell_volume   582.61201277
_cell_formula_units_Z   1
loop_
 _symmetry_equiv_pos_site_id
 _symmetry_equiv_pos_as_xyz
  1  'x, y, z'
loop_
 _atom_site_type_symbol
 _atom_site_label
 _atom_site_symmetry_multiplicity
 _atom_site_fract_x
 _atom_site_fract_y
 _atom_site_fract_z
 _atom_site_occupancy
  Ho  Ho0  1  0.848462  0.903869  0.596076  1
  Ho  Ho1  1  0.150594  0.402689  0.904329  1
  Ho  Ho2  1  0.846732  0.595285  0.098234  1
  Ho  Ho3  1  0.625581  0.270623  0.750000  1
  Ho  Ho4  1  0.627928  0.231214  0.250000  1
  Ho  Ho5  1  0.846732  0.595285  0.401766  1
  Ho  Ho6  1  0.371466  0.731557  0.250000  1
  Ho  Ho7  1  0.153171  0.094944  0.098919  1
  Ho  Ho8  1  0.153171  0.094944  0.401081  1
  Ho  Ho9  1  0.377106  0.765278  0.750000  1
  Ho  Ho10  1  0.150594  0.402689  0.595671  1
  Ho  Ho11  1  0.848462  0.903869  0.903924  1
  Ga  Ga12  1  0.367854  0.750881  0.499187  1
  Ga  Ga13  1  0.367854  0.750881  0.000813  1
  Ga  Ga14  1  0.125809  0.112411  0.750000  1
  Ga  Ga15  1  0.631131  0.251576  0.499737  1
  Ga  Ga16  1  0.631131  0.251576  0.000263  1
  Ge  Ge17  1  0.122635  0.383727  0.250000  1
  Ge  Ge18  1  0.875571  0.882653  0.250000  1
  Ge  Ge19  1  0.880770  0.614887  0.750000  1
  Ru  Ru20  1  0.352904  0.034668  0.905311  1
  Ru  Ru21  1  0.352596  0.466666  0.094400  1
  Ru  Ru22  1  0.646270  0.967145  0.095208  1
  Ru  Ru23  1  0.646852  0.536101  0.904801  1
  Ru  Ru24  1  0.646270  0.967145  0.404792  1
  Ru  Ru25  1  0.646852  0.536101  0.595199  1
  Ru  Ru26  1  0.352596  0.466666  0.405600  1
  Ru  Ru27  1  0.352904  0.034668  0.594689  1
