# generated using pymatgen
data_VMo11P4
_symmetry_space_group_name_H-M   'P 1'
_cell_length_a   7.35348060
_cell_length_b   7.35347990
_cell_length_c   7.37426927
_cell_angle_alpha   96.17930800
_cell_angle_beta   96.17931583
_cell_angle_gamma   141.71600084
_symmetry_Int_Tables_number   1
_chemical_formula_structural   VMo11P4
_chemical_formula_sum   'V1 Mo11 P4'
_cell_volume   233.36194136
_cell_formula_units_Z   1
loop_
 _symmetry_equiv_pos_site_id
 _symmetry_equiv_pos_as_xyz
  1  'x, y, z'
loop_
 _atom_site_type_symbol
 _atom_site_label
 _atom_site_symmetry_multiplicity
 _atom_site_fract_x
 _atom_site_fract_y
 _atom_site_fract_z
 _atom_site_occupancy
  V  V0  1  0.943252  0.943252  0.396806  1
  Mo  Mo1  1  0.066980  0.466610  0.001969  1
  Mo  Mo2  1  0.466610  0.066980  0.001969  1
  Mo  Mo3  1  0.531900  0.531900  0.593936  1
  Mo  Mo4  1  0.997661  0.352289  0.355011  1
  Mo  Mo5  1  0.641697  0.997968  0.646012  1
  Mo  Mo6  1  0.352289  0.997661  0.355011  1
  Mo  Mo7  1  0.997968  0.641697  0.646012  1
  Mo  Mo8  1  0.136770  0.136770  0.813189  1
  Mo  Mo9  1  0.859228  0.674149  0.000031  1
  Mo  Mo10  1  0.674149  0.859228  0.000031  1
  Mo  Mo11  1  0.331997  0.331997  0.184181  1
  P  P12  1  0.495876  0.206107  0.707626  1
  P  P13  1  0.792365  0.505152  0.295293  1
  P  P14  1  0.206107  0.495876  0.707626  1
  P  P15  1  0.505152  0.792365  0.295293  1
