# generated using pymatgen
data_TlInCl4
_symmetry_space_group_name_H-M   'P 1'
_cell_length_a   7.72493300
_cell_length_b   10.12852400
_cell_length_c   10.13796100
_cell_angle_alpha   90.00000000
_cell_angle_beta   90.00000000
_cell_angle_gamma   90.00000000
_symmetry_Int_Tables_number   1
_chemical_formula_structural   TlInCl4
_chemical_formula_sum   'Tl4 In4 Cl16'
_cell_volume   793.21606081
_cell_formula_units_Z   4
loop_
 _symmetry_equiv_pos_site_id
 _symmetry_equiv_pos_as_xyz
  1  'x, y, z'
loop_
 _atom_site_type_symbol
 _atom_site_label
 _atom_site_symmetry_multiplicity
 _atom_site_fract_x
 _atom_site_fract_y
 _atom_site_fract_z
 _atom_site_occupancy
  Tl  Tl0  1  0.675467  0.250000  0.250000  1
  Tl  Tl1  1  0.824532  0.750000  0.250000  1
  Tl  Tl2  1  0.324532  0.750000  0.750000  1
  Tl  Tl3  1  0.175466  0.250000  0.750000  1
  In  In4  1  0.250000  0.000000  0.183382  1
  In  In5  1  0.250000  0.500001  0.316619  1
  In  In6  1  0.750000  0.000000  0.816619  1
  In  In7  1  0.750000  0.500001  0.683381  1
  Cl  Cl8  1  0.000065  0.043028  0.316451  1
  Cl  Cl9  1  0.499936  0.956971  0.316451  1
  Cl  Cl10  1  0.000065  0.456971  0.183548  1
  Cl  Cl11  1  0.499936  0.543029  0.183548  1
  Cl  Cl12  1  0.999936  0.956971  0.683549  1
  Cl  Cl13  1  0.500065  0.043028  0.683549  1
  Cl  Cl14  1  0.999936  0.543029  0.816451  1
  Cl  Cl15  1  0.500065  0.456971  0.816451  1
  Cl  Cl16  1  0.336543  0.184611  0.050584  1
  Cl  Cl17  1  0.163456  0.815389  0.050584  1
  Cl  Cl18  1  0.336543  0.315390  0.449416  1
  Cl  Cl19  1  0.163456  0.684611  0.449416  1
  Cl  Cl20  1  0.663457  0.815389  0.949416  1
  Cl  Cl21  1  0.836543  0.184611  0.949416  1
  Cl  Cl22  1  0.663457  0.684611  0.550585  1
  Cl  Cl23  1  0.836543  0.315390  0.550585  1
