# generated using pymatgen
data_Sc8Ta2VSi16Mo9
_symmetry_space_group_name_H-M   'P 1'
_cell_length_a   6.58601061
_cell_length_b   6.81049954
_cell_length_c   12.74115600
_cell_angle_alpha   90.00000000
_cell_angle_beta   90.00000000
_cell_angle_gamma   89.93013112
_symmetry_Int_Tables_number   1
_chemical_formula_structural   Sc8Ta2VSi16Mo9
_chemical_formula_sum   'Sc8 Ta2 V1 Si16 Mo9'
_cell_volume   571.49166938
_cell_formula_units_Z   1
loop_
 _symmetry_equiv_pos_site_id
 _symmetry_equiv_pos_as_xyz
  1  'x, y, z'
loop_
 _atom_site_type_symbol
 _atom_site_label
 _atom_site_symmetry_multiplicity
 _atom_site_fract_x
 _atom_site_fract_y
 _atom_site_fract_z
 _atom_site_occupancy
  Sc  Sc0  1  0.495147  0.327230  0.093164  1
  Sc  Sc1  1  0.998257  0.169887  0.406929  1
  Sc  Sc2  1  0.501318  0.671829  0.594325  1
  Sc  Sc3  1  0.003518  0.826634  0.905378  1
  Sc  Sc4  1  0.501318  0.671829  0.905675  1
  Sc  Sc5  1  0.003518  0.826634  0.594622  1
  Sc  Sc6  1  0.495147  0.327230  0.406836  1
  Sc  Sc7  1  0.998257  0.169887  0.093071  1
  Ta  Ta8  1  0.159402  0.495932  0.750000  1
  Ta  Ta9  1  0.340251  0.998093  0.250000  1
  V  V10  1  0.658402  0.004517  0.750000  1
  Si  Si11  1  0.667905  0.037385  0.545220  1
  Si  Si12  1  0.166867  0.460753  0.958780  1
  Si  Si13  1  0.333636  0.962309  0.041167  1
  Si  Si14  1  0.832466  0.537273  0.455202  1
  Si  Si15  1  0.333636  0.962309  0.458833  1
  Si  Si16  1  0.832466  0.537273  0.044798  1
  Si  Si17  1  0.667905  0.037385  0.954780  1
  Si  Si18  1  0.166867  0.460753  0.541220  1
  Si  Si19  1  0.538251  0.378985  0.750000  1
  Si  Si20  1  0.026999  0.114381  0.750000  1
  Si  Si21  1  0.470169  0.617805  0.250000  1
  Si  Si22  1  0.963394  0.877473  0.250000  1
  Si  Si23  1  0.791036  0.646710  0.750000  1
  Si  Si24  1  0.300493  0.864783  0.750000  1
  Si  Si25  1  0.199954  0.363039  0.250000  1
  Si  Si26  1  0.707219  0.144129  0.250000  1
  Mo  Mo27  1  0.831132  0.335401  0.623766  1
  Mo  Mo28  1  0.332924  0.166173  0.874728  1
  Mo  Mo29  1  0.170723  0.665773  0.124157  1
  Mo  Mo30  1  0.669909  0.837259  0.376044  1
  Mo  Mo31  1  0.170723  0.665773  0.375843  1
  Mo  Mo32  1  0.669909  0.837259  0.123956  1
  Mo  Mo33  1  0.831132  0.335401  0.876234  1
  Mo  Mo34  1  0.332924  0.166173  0.625272  1
  Mo  Mo35  1  0.836823  0.498347  0.250000  1
