# generated using pymatgen
data_Yb5GaPd2
_symmetry_space_group_name_H-M   'P 1'
_cell_length_a   8.85957834
_cell_length_b   8.85957799
_cell_length_c   8.85957842
_cell_angle_alpha   127.67567739
_cell_angle_beta   127.67566372
_cell_angle_gamma   77.15101744
_symmetry_Int_Tables_number   1
_chemical_formula_structural   Yb5GaPd2
_chemical_formula_sum   'Yb10 Ga2 Pd4'
_cell_volume   422.76003927
_cell_formula_units_Z   2
loop_
 _symmetry_equiv_pos_site_id
 _symmetry_equiv_pos_as_xyz
  1  'x, y, z'
loop_
 _atom_site_type_symbol
 _atom_site_label
 _atom_site_symmetry_multiplicity
 _atom_site_fract_x
 _atom_site_fract_y
 _atom_site_fract_z
 _atom_site_occupancy
  Yb  Yb0  1  0.500000  0.500000  0.000000  1
  Yb  Yb1  1  0.000000  0.000000  0.000000  1
  Yb  Yb2  1  0.530213  0.030213  0.835047  1
  Yb  Yb3  1  0.195168  0.695168  0.164953  1
  Yb  Yb4  1  0.030213  0.195168  0.500000  1
  Yb  Yb5  1  0.695168  0.530213  0.500000  1
  Yb  Yb6  1  0.469787  0.969787  0.164953  1
  Yb  Yb7  1  0.804832  0.304832  0.835047  1
  Yb  Yb8  1  0.969787  0.804832  0.500000  1
  Yb  Yb9  1  0.304832  0.469787  0.500000  1
  Ga  Ga10  1  0.250000  0.250000  0.000000  1
  Ga  Ga11  1  0.750000  0.750000  0.000000  1
  Pd  Pd12  1  0.130159  0.630159  0.760319  1
  Pd  Pd13  1  0.869841  0.369841  0.239681  1
  Pd  Pd14  1  0.630159  0.869841  0.500000  1
  Pd  Pd15  1  0.369841  0.130159  0.500000  1
