# generated using pymatgen
data_Tc10MoP4W
_symmetry_space_group_name_H-M   'P 1'
_cell_length_a   7.19492418
_cell_length_b   7.22553138
_cell_length_c   7.20957294
_cell_angle_alpha   96.80324203
_cell_angle_beta   96.44209189
_cell_angle_gamma   140.44255914
_symmetry_Int_Tables_number   1
_chemical_formula_structural   Tc10MoP4W
_chemical_formula_sum   'Tc10 Mo1 P4 W1'
_cell_volume   224.40278503
_cell_formula_units_Z   1
loop_
 _symmetry_equiv_pos_site_id
 _symmetry_equiv_pos_as_xyz
  1  'x, y, z'
loop_
 _atom_site_type_symbol
 _atom_site_label
 _atom_site_symmetry_multiplicity
 _atom_site_fract_x
 _atom_site_fract_y
 _atom_site_fract_z
 _atom_site_occupancy
  Tc  Tc0  1  0.908516  0.907452  0.410807  1
  Tc  Tc1  1  0.094199  0.504741  0.998926  1
  Tc  Tc2  1  0.496433  0.088914  0.999522  1
  Tc  Tc3  1  0.503264  0.502775  0.592232  1
  Tc  Tc4  1  0.998170  0.347408  0.348314  1
  Tc  Tc5  1  0.646059  0.997737  0.652736  1
  Tc  Tc6  1  0.354130  0.006406  0.351459  1
  Tc  Tc7  1  0.001127  0.651777  0.650612  1
  Tc  Tc8  1  0.106384  0.105177  0.806664  1
  Tc  Tc9  1  0.891892  0.698107  0.999131  1
  Mo  Mo10  1  0.305280  0.302588  0.191802  1
  P  P11  1  0.500040  0.209346  0.709180  1
  P  P12  1  0.799869  0.504689  0.291118  1
  P  P13  1  0.197878  0.488866  0.703268  1
  P  P14  1  0.498987  0.793910  0.296364  1
  W  W15  1  0.697772  0.890108  0.997865  1
