# generated using pymatgen
data_Tb12Th4Mg4IrRu3
_symmetry_space_group_name_H-M   'P 1'
_cell_length_a   9.79978477
_cell_length_b   9.79978560
_cell_length_c   9.79978500
_cell_angle_alpha   60.00214530
_cell_angle_beta   60.00213919
_cell_angle_gamma   60.00214357
_symmetry_Int_Tables_number   1
_chemical_formula_structural   Tb12Th4Mg4IrRu3
_chemical_formula_sum   'Tb12 Th4 Mg4 Ir1 Ru3'
_cell_volume   665.51179782
_cell_formula_units_Z   1
loop_
 _symmetry_equiv_pos_site_id
 _symmetry_equiv_pos_as_xyz
  1  'x, y, z'
loop_
 _atom_site_type_symbol
 _atom_site_label
 _atom_site_symmetry_multiplicity
 _atom_site_fract_x
 _atom_site_fract_y
 _atom_site_fract_z
 _atom_site_occupancy
  Tb  Tb0  1  0.060381  0.437802  0.437802  1
  Tb  Tb1  1  0.436285  0.063143  0.063143  1
  Tb  Tb2  1  0.437802  0.060381  0.437802  1
  Tb  Tb3  1  0.063143  0.436285  0.063143  1
  Tb  Tb4  1  0.437802  0.437802  0.060381  1
  Tb  Tb5  1  0.063143  0.063143  0.436285  1
  Tb  Tb6  1  0.186543  0.814564  0.814564  1
  Tb  Tb7  1  0.813691  0.186585  0.186585  1
  Tb  Tb8  1  0.814564  0.186543  0.814564  1
  Tb  Tb9  1  0.186585  0.813691  0.186585  1
  Tb  Tb10  1  0.814564  0.814564  0.186543  1
  Tb  Tb11  1  0.186585  0.186585  0.813691  1
  Th  Th12  1  0.595143  0.595143  0.595143  1
  Th  Th13  1  0.598291  0.598291  0.209821  1
  Th  Th14  1  0.598291  0.209821  0.598291  1
  Th  Th15  1  0.209821  0.598291  0.598291  1
  Mg  Mg16  1  0.830300  0.830300  0.830300  1
  Mg  Mg17  1  0.829789  0.829789  0.509690  1
  Mg  Mg18  1  0.829789  0.509690  0.829789  1
  Mg  Mg19  1  0.509690  0.829789  0.829789  1
  Ir  Ir20  1  0.392812  0.392812  0.392812  1
  Ru  Ru21  1  0.394202  0.394202  0.816583  1
  Ru  Ru22  1  0.394202  0.816583  0.394202  1
  Ru  Ru23  1  0.816583  0.394202  0.394202  1
