# generated using pymatgen
data_Tb2DyIn3Ga2Pt
_symmetry_space_group_name_H-M   'P 1'
_cell_length_a   7.27746803
_cell_length_b   7.27861482
_cell_length_c   4.43699800
_cell_angle_alpha   90.00000000
_cell_angle_beta   90.00000000
_cell_angle_gamma   120.00521731
_symmetry_Int_Tables_number   1
_chemical_formula_structural   Tb2DyIn3Ga2Pt
_chemical_formula_sum   'Tb2 Dy1 In3 Ga2 Pt1'
_cell_volume   203.52889458
_cell_formula_units_Z   1
loop_
 _symmetry_equiv_pos_site_id
 _symmetry_equiv_pos_as_xyz
  1  'x, y, z'
loop_
 _atom_site_type_symbol
 _atom_site_label
 _atom_site_symmetry_multiplicity
 _atom_site_fract_x
 _atom_site_fract_y
 _atom_site_fract_z
 _atom_site_occupancy
  Tb  Tb0  1  0.590856  0.000019  0.500000  1
  Tb  Tb1  1  0.409144  0.409163  0.500000  1
  Dy  Dy2  1  0.000000  0.591015  0.500000  1
  In  In3  1  0.749802  0.749721  0.000000  1
  In  In4  1  0.000000  0.250348  0.000000  1
  In  In5  1  0.250198  0.999919  0.000000  1
  Ga  Ga6  1  0.333168  0.666614  0.000000  1
  Ga  Ga7  1  0.666832  0.333445  0.000000  1
  Pt  Pt8  1  0.000000  0.999755  0.500000  1
