# generated using pymatgen
data_Yb2Ru2I
_symmetry_space_group_name_H-M   'P 1'
_cell_length_a   4.13826100
_cell_length_b   4.13826148
_cell_length_c   17.53728500
_cell_angle_alpha   90.00000000
_cell_angle_beta   90.00000000
_cell_angle_gamma   119.99998814
_symmetry_Int_Tables_number   1
_chemical_formula_structural   Yb2Ru2I
_chemical_formula_sum   'Yb4 Ru4 I2'
_cell_volume   260.09311160
_cell_formula_units_Z   2
loop_
 _symmetry_equiv_pos_site_id
 _symmetry_equiv_pos_as_xyz
  1  'x, y, z'
loop_
 _atom_site_type_symbol
 _atom_site_label
 _atom_site_symmetry_multiplicity
 _atom_site_fract_x
 _atom_site_fract_y
 _atom_site_fract_z
 _atom_site_occupancy
  Yb  Yb0  1  0.000000  0.000000  0.115102  1
  Yb  Yb1  1  0.000000  0.000000  0.884898  1
  Yb  Yb2  1  0.000000  0.000000  0.615102  1
  Yb  Yb3  1  0.000000  0.000000  0.384898  1
  Ru  Ru4  1  0.333333  0.666667  0.507306  1
  Ru  Ru5  1  0.666667  0.333333  0.492694  1
  Ru  Ru6  1  0.666667  0.333333  0.007306  1
  Ru  Ru7  1  0.333333  0.666667  0.992694  1
  I  I8  1  0.333333  0.666667  0.250000  1
  I  I9  1  0.666667  0.333333  0.750000  1
