# generated using pymatgen
data_LiHo16Cd3IrPt3
_symmetry_space_group_name_H-M   'P 1'
_cell_length_a   9.66217249
_cell_length_b   9.61699234
_cell_length_c   9.61699278
_cell_angle_alpha   59.72911752
_cell_angle_beta   60.03047061
_cell_angle_gamma   60.03047318
_symmetry_Int_Tables_number   1
_chemical_formula_structural   LiHo16Cd3IrPt3
_chemical_formula_sum   'Li1 Ho16 Cd3 Ir1 Pt3'
_cell_volume   630.87080682
_cell_formula_units_Z   1
loop_
 _symmetry_equiv_pos_site_id
 _symmetry_equiv_pos_as_xyz
  1  'x, y, z'
loop_
 _atom_site_type_symbol
 _atom_site_label
 _atom_site_symmetry_multiplicity
 _atom_site_fract_x
 _atom_site_fract_y
 _atom_site_fract_z
 _atom_site_occupancy
  Li  Li0  1  0.822048  0.821760  0.821760  1
  Ho  Ho1  1  0.603260  0.600163  0.600163  1
  Ho  Ho2  1  0.603457  0.599412  0.198977  1
  Ho  Ho3  1  0.603457  0.198977  0.599412  1
  Ho  Ho4  1  0.191738  0.603635  0.603635  1
  Ho  Ho5  1  0.056988  0.441307  0.441307  1
  Ho  Ho6  1  0.437920  0.061389  0.061389  1
  Ho  Ho7  1  0.443432  0.059094  0.441073  1
  Ho  Ho8  1  0.059970  0.435947  0.065239  1
  Ho  Ho9  1  0.443432  0.441073  0.059094  1
  Ho  Ho10  1  0.059970  0.065239  0.435947  1
  Ho  Ho11  1  0.187035  0.814804  0.814804  1
  Ho  Ho12  1  0.814187  0.186116  0.186116  1
  Ho  Ho13  1  0.815777  0.186530  0.812366  1
  Ho  Ho14  1  0.185605  0.813377  0.186082  1
  Ho  Ho15  1  0.815777  0.812366  0.186530  1
  Ho  Ho16  1  0.185605  0.186082  0.813377  1
  Cd  Cd17  1  0.832568  0.832851  0.504034  1
  Cd  Cd18  1  0.832568  0.504034  0.832851  1
  Cd  Cd19  1  0.504848  0.832554  0.832554  1
  Ir  Ir20  1  0.824058  0.393206  0.393206  1
  Pt  Pt21  1  0.392164  0.394271  0.394271  1
  Pt  Pt22  1  0.392068  0.394316  0.821498  1
  Pt  Pt23  1  0.392068  0.821498  0.394316  1
