# generated using pymatgen
data_HoZrTa3Si4
_symmetry_space_group_name_H-M   'P 1'
_cell_length_a   6.95459018
_cell_length_b   6.95494978
_cell_length_c   12.86178177
_cell_angle_alpha   89.99495071
_cell_angle_beta   90.03945433
_cell_angle_gamma   89.88067673
_symmetry_Int_Tables_number   1
_chemical_formula_structural   HoZrTa3Si4
_chemical_formula_sum   'Ho4 Zr4 Ta12 Si16'
_cell_volume   622.10777849
_cell_formula_units_Z   4
loop_
 _symmetry_equiv_pos_site_id
 _symmetry_equiv_pos_as_xyz
  1  'x, y, z'
loop_
 _atom_site_type_symbol
 _atom_site_label
 _atom_site_symmetry_multiplicity
 _atom_site_fract_x
 _atom_site_fract_y
 _atom_site_fract_z
 _atom_site_occupancy
  Ho  Ho0  1  0.998312  0.659360  0.031809  1
  Ho  Ho1  1  0.002630  0.338400  0.530672  1
  Ho  Ho2  1  0.660544  0.998196  0.969842  1
  Ho  Ho3  1  0.161598  0.502484  0.780601  1
  Zr  Zr4  1  0.841750  0.501962  0.282408  1
  Zr  Zr5  1  0.498077  0.159652  0.219337  1
  Zr  Zr6  1  0.503884  0.844417  0.717513  1
  Zr  Zr7  1  0.343846  0.996612  0.468092  1
  Ta  Ta8  1  0.347770  0.506692  0.374939  1
  Ta  Ta9  1  0.845258  0.996092  0.373492  1
  Ta  Ta10  1  0.005874  0.153923  0.128392  1
  Ta  Ta11  1  0.992608  0.847535  0.623801  1
  Ta  Ta12  1  0.651415  0.492690  0.875213  1
  Ta  Ta13  1  0.503823  0.345627  0.621958  1
  Ta  Ta14  1  0.494594  0.651707  0.126743  1
  Ta  Ta15  1  0.154448  0.004386  0.873156  1
  Ta  Ta16  1  0.667514  0.671779  0.499117  1
  Ta  Ta17  1  0.828485  0.167042  0.748999  1
  Ta  Ta18  1  0.169316  0.831212  0.251165  1
  Ta  Ta19  1  0.330851  0.330141  0.001259  1
  Si  Si20  1  0.044018  0.704587  0.435999  1
  Si  Si21  1  0.956322  0.294813  0.936859  1
  Si  Si22  1  0.700624  0.044694  0.562806  1
  Si  Si23  1  0.202636  0.454958  0.187448  1
  Si  Si24  1  0.793841  0.543512  0.686005  1
  Si  Si25  1  0.456197  0.201245  0.813202  1
  Si  Si26  1  0.544000  0.799187  0.313867  1
  Si  Si27  1  0.297083  0.957442  0.064654  1
  Si  Si28  1  0.863603  0.794471  0.817831  1
  Si  Si29  1  0.136320  0.206116  0.321507  1
  Si  Si30  1  0.791983  0.866864  0.181636  1
  Si  Si31  1  0.296530  0.638578  0.570241  1
  Si  Si32  1  0.705007  0.364601  0.073304  1
  Si  Si33  1  0.632475  0.293224  0.426758  1
  Si  Si34  1  0.367351  0.706001  0.930493  1
  Si  Si35  1  0.209409  0.129800  0.678882  1
