# generated using pymatgen
data_Dy3In3Ni2Hg
_symmetry_space_group_name_H-M   'P 1'
_cell_length_a   7.72539200
_cell_length_b   7.72539224
_cell_length_c   3.75240500
_cell_angle_alpha   90.00000000
_cell_angle_beta   90.00000000
_cell_angle_gamma   119.99999898
_symmetry_Int_Tables_number   1
_chemical_formula_structural   Dy3In3Ni2Hg
_chemical_formula_sum   'Dy3 In3 Ni2 Hg1'
_cell_volume   193.94625878
_cell_formula_units_Z   1
loop_
 _symmetry_equiv_pos_site_id
 _symmetry_equiv_pos_as_xyz
  1  'x, y, z'
loop_
 _atom_site_type_symbol
 _atom_site_label
 _atom_site_symmetry_multiplicity
 _atom_site_fract_x
 _atom_site_fract_y
 _atom_site_fract_z
 _atom_site_occupancy
  Dy  Dy0  1  0.393902  0.420452  0.500000  1
  Dy  Dy1  1  0.579548  0.973449  0.500000  1
  Dy  Dy2  1  0.026551  0.606098  0.500000  1
  In  In3  1  0.748417  0.753085  0.000000  1
  In  In4  1  0.004668  0.251583  0.000000  1
  In  In5  1  0.246915  0.995332  0.000000  1
  Ni  Ni6  1  0.333333  0.666667  0.000000  1
  Ni  Ni7  1  0.000000  0.000000  0.500000  1
  Hg  Hg8  1  0.666667  0.333333  0.000000  1
