# generated using pymatgen
data_Cs10Mn5NiS14
_symmetry_space_group_name_H-M   'P 1'
_cell_length_a   10.72727043
_cell_length_b   10.72727039
_cell_length_c   9.10383061
_cell_angle_alpha   78.10705017
_cell_angle_beta   78.10705231
_cell_angle_gamma   72.13856498
_symmetry_Int_Tables_number   1
_chemical_formula_structural   Cs10Mn5NiS14
_chemical_formula_sum   'Cs10 Mn5 Ni1 S14'
_cell_volume   964.17045426
_cell_formula_units_Z   1
loop_
 _symmetry_equiv_pos_site_id
 _symmetry_equiv_pos_as_xyz
  1  'x, y, z'
loop_
 _atom_site_type_symbol
 _atom_site_label
 _atom_site_symmetry_multiplicity
 _atom_site_fract_x
 _atom_site_fract_y
 _atom_site_fract_z
 _atom_site_occupancy
  Cs  Cs0  1  0.040163  0.415972  0.732349  1
  Cs  Cs1  1  0.415972  0.040163  0.732349  1
  Cs  Cs2  1  0.972100  0.565964  0.268575  1
  Cs  Cs3  1  0.565964  0.972100  0.268575  1
  Cs  Cs4  1  0.284455  0.713719  0.002786  1
  Cs  Cs5  1  0.713719  0.284455  0.002786  1
  Cs  Cs6  1  0.848789  0.159021  0.494733  1
  Cs  Cs7  1  0.159021  0.848789  0.494733  1
  Cs  Cs8  1  0.429002  0.429002  0.702790  1
  Cs  Cs9  1  0.573920  0.573920  0.302394  1
  Mn  Mn10  1  0.793202  0.793202  0.809476  1
  Mn  Mn11  1  0.072250  0.072250  0.063127  1
  Mn  Mn12  1  0.920229  0.920229  0.930358  1
  Mn  Mn13  1  0.334514  0.334514  0.327428  1
  Mn  Mn14  1  0.670010  0.670010  0.676560  1
  Ni  Ni15  1  0.208870  0.208870  0.191836  1
  S  S16  1  0.002926  0.277717  0.125390  1
  S  S17  1  0.277717  0.002926  0.125390  1
  S  S18  1  0.993422  0.717431  0.870356  1
  S  S19  1  0.717431  0.993422  0.870356  1
  S  S20  1  0.206594  0.206594  0.436694  1
  S  S21  1  0.798020  0.798020  0.567539  1
  S  S22  1  0.052236  0.052236  0.818198  1
  S  S23  1  0.934891  0.934891  0.168850  1
  S  S24  1  0.339991  0.339991  0.083653  1
  S  S25  1  0.665068  0.665068  0.920224  1
  S  S26  1  0.261420  0.532842  0.395793  1
  S  S27  1  0.532842  0.261420  0.395793  1
  S  S28  1  0.742321  0.472944  0.610453  1
  S  S29  1  0.472944  0.742321  0.610453  1
