# generated using pymatgen
data_Ca11AcPd12
_symmetry_space_group_name_H-M   'P 1'
_cell_length_a   5.78033268
_cell_length_b   4.51072900
_cell_length_c   22.18211800
_cell_angle_alpha   90.00000000
_cell_angle_beta   96.69624067
_cell_angle_gamma   90.00000000
_symmetry_Int_Tables_number   1
_chemical_formula_structural   Ca11AcPd12
_chemical_formula_sum   'Ca11 Ac1 Pd12'
_cell_volume   574.42033353
_cell_formula_units_Z   1
loop_
 _symmetry_equiv_pos_site_id
 _symmetry_equiv_pos_as_xyz
  1  'x, y, z'
loop_
 _atom_site_type_symbol
 _atom_site_label
 _atom_site_symmetry_multiplicity
 _atom_site_fract_x
 _atom_site_fract_y
 _atom_site_fract_z
 _atom_site_occupancy
  Ca  Ca0  1  0.176440  0.750000  0.110146  1
  Ca  Ca1  1  0.506784  0.250001  0.231746  1
  Ca  Ca2  1  0.033198  0.750000  0.277193  1
  Ca  Ca3  1  0.813105  0.250001  0.395639  1
  Ca  Ca4  1  0.333681  0.750000  0.441290  1
  Ca  Ca5  1  0.665198  0.250001  0.560238  1
  Ca  Ca6  1  0.187373  0.750000  0.605724  1
  Ca  Ca7  1  0.969074  0.250001  0.724145  1
  Ca  Ca8  1  0.492245  0.750000  0.770766  1
  Ca  Ca9  1  0.823025  0.250001  0.888592  1
  Ca  Ca10  1  0.331422  0.750000  0.933165  1
  Ac  Ac11  1  0.661496  0.250001  0.060318  1
  Pd  Pd12  1  0.151838  0.250001  0.011846  1
  Pd  Pd13  1  0.693663  0.750000  0.157916  1
  Pd  Pd14  1  0.990563  0.250001  0.183381  1
  Pd  Pd15  1  0.557384  0.750000  0.324503  1
  Pd  Pd16  1  0.288192  0.250001  0.348593  1
  Pd  Pd17  1  0.853913  0.750000  0.488357  1
  Pd  Pd18  1  0.144718  0.250001  0.513277  1
  Pd  Pd19  1  0.712927  0.750000  0.653112  1
  Pd  Pd20  1  0.445384  0.250001  0.677585  1
  Pd  Pd21  1  0.009387  0.750000  0.815813  1
  Pd  Pd22  1  0.299694  0.250001  0.841258  1
  Pd  Pd23  1  0.859294  0.750000  0.985394  1
