# generated using pymatgen
data_Sr9RhAu5
_symmetry_space_group_name_H-M   'P 1'
_cell_length_a   8.31893861
_cell_length_b   8.35601021
_cell_length_c   8.26580138
_cell_angle_alpha   70.96672936
_cell_angle_beta   71.28836911
_cell_angle_gamma   70.39212615
_symmetry_Int_Tables_number   1
_chemical_formula_structural   Sr9RhAu5
_chemical_formula_sum   'Sr9 Rh1 Au5'
_cell_volume   497.04943672
_cell_formula_units_Z   1
loop_
 _symmetry_equiv_pos_site_id
 _symmetry_equiv_pos_as_xyz
  1  'x, y, z'
loop_
 _atom_site_type_symbol
 _atom_site_label
 _atom_site_symmetry_multiplicity
 _atom_site_fract_x
 _atom_site_fract_y
 _atom_site_fract_z
 _atom_site_occupancy
  Sr  Sr0  1  0.897914  0.174349  0.649426  1
  Sr  Sr1  1  0.666982  0.884847  0.173455  1
  Sr  Sr2  1  0.162667  0.656054  0.898991  1
  Sr  Sr3  1  0.097961  0.824799  0.340339  1
  Sr  Sr4  1  0.344862  0.104065  0.832626  1
  Sr  Sr5  1  0.837993  0.349564  0.112087  1
  Sr  Sr6  1  0.505721  0.501169  0.497295  1
  Sr  Sr7  1  0.290004  0.303213  0.297385  1
  Sr  Sr8  1  0.701895  0.699141  0.693647  1
  Rh  Rh9  1  0.910618  0.540617  0.355744  1
  Au  Au10  1  0.337063  0.910672  0.545788  1
  Au  Au11  1  0.544438  0.343057  0.911922  1
  Au  Au12  1  0.089918  0.458055  0.648178  1
  Au  Au13  1  0.653722  0.092293  0.456070  1
  Au  Au14  1  0.458241  0.658105  0.087049  1
