# generated using pymatgen
data_K3RbBa2(EuSb2)2
_symmetry_space_group_name_H-M   'P 1'
_cell_length_a   5.43810300
_cell_length_b   8.87047590
_cell_length_c   10.38030629
_cell_angle_alpha   89.83814685
_cell_angle_beta   90.00000000
_cell_angle_gamma   90.00000000
_symmetry_Int_Tables_number   1
_chemical_formula_structural   K3RbBa2(EuSb2)2
_chemical_formula_sum   'K3 Rb1 Ba2 Eu2 Sb4'
_cell_volume   500.72904672
_cell_formula_units_Z   1
loop_
 _symmetry_equiv_pos_site_id
 _symmetry_equiv_pos_as_xyz
  1  'x, y, z'
loop_
 _atom_site_type_symbol
 _atom_site_label
 _atom_site_symmetry_multiplicity
 _atom_site_fract_x
 _atom_site_fract_y
 _atom_site_fract_z
 _atom_site_occupancy
  K  K0  1  0.000000  0.345540  0.341400  1
  K  K1  1  0.500000  0.523388  0.584559  1
  K  K2  1  0.000000  0.844104  0.658882  1
  Rb  Rb3  1  0.500000  0.025866  0.419617  1
  Ba  Ba4  1  0.000000  0.996563  0.056733  1
  Ba  Ba5  1  0.000000  0.496940  0.942167  1
  Eu  Eu6  1  0.500000  0.150575  0.818719  1
  Eu  Eu7  1  0.500000  0.648510  0.180724  1
  Sb  Sb8  1  0.000000  0.249236  0.676876  1
  Sb  Sb9  1  0.500000  0.283006  0.113819  1
  Sb  Sb10  1  0.000000  0.744597  0.322477  1
  Sb  Sb11  1  0.500000  0.782875  0.884027  1
