# generated using pymatgen
data_K4HfZr5GeI18
_symmetry_space_group_name_H-M   'P 1'
_cell_length_a   11.31220758
_cell_length_b   11.45412307
_cell_length_c   11.56995701
_cell_angle_alpha   118.53869099
_cell_angle_beta   100.07192677
_cell_angle_gamma   103.80318457
_symmetry_Int_Tables_number   1
_chemical_formula_structural   K4HfZr5GeI18
_chemical_formula_sum   'K4 Hf1 Zr5 Ge1 I18'
_cell_volume   1203.40157804
_cell_formula_units_Z   1
loop_
 _symmetry_equiv_pos_site_id
 _symmetry_equiv_pos_as_xyz
  1  'x, y, z'
loop_
 _atom_site_type_symbol
 _atom_site_label
 _atom_site_symmetry_multiplicity
 _atom_site_fract_x
 _atom_site_fract_y
 _atom_site_fract_z
 _atom_site_occupancy
  K  K0  1  0.652595  0.538442  0.227403  1
  K  K1  1  0.347464  0.461771  0.772815  1
  K  K2  1  0.686431  0.224327  0.563681  1
  K  K3  1  0.313781  0.775573  0.436433  1
  Hf  Hf4  1  0.151289  0.056584  0.232147  1
  Zr  Zr5  1  0.849569  0.943702  0.769079  1
  Zr  Zr6  1  0.860375  0.127001  0.132794  1
  Zr  Zr7  1  0.138514  0.872584  0.865564  1
  Zr  Zr8  1  0.145828  0.240433  0.044768  1
  Zr  Zr9  1  0.853170  0.759177  0.953674  1
  Ge  Ge10  1  0.001084  0.000412  0.001691  1
  I  I11  1  0.007504  0.412182  0.198461  1
  I  I12  1  0.992590  0.587880  0.801659  1
  I  I13  1  0.329020  0.332855  0.312745  1
  I  I14  1  0.669708  0.664831  0.686990  1
  I  I15  1  0.323458  0.525403  0.100926  1
  I  I16  1  0.676732  0.474616  0.899466  1
  I  I17  1  0.005771  0.796895  0.211044  1
  I  I18  1  0.995808  0.205471  0.789581  1
  I  I19  1  0.700090  0.277880  0.290755  1
  I  I20  1  0.300213  0.722193  0.709737  1
  I  I21  1  0.318805  0.127963  0.902463  1
  I  I22  1  0.681293  0.872071  0.097655  1
  I  I23  1  0.015605  0.204804  0.409553  1
  I  I24  1  0.985972  0.794013  0.589308  1
  I  I25  1  0.321503  0.923537  0.112092  1
  I  I26  1  0.677338  0.077784  0.889466  1
  I  I27  1  0.332664  0.121182  0.503040  1
  I  I28  1  0.665826  0.878432  0.495009  1
