# generated using pymatgen
data_CeTaReB6
_symmetry_space_group_name_H-M   'P 1'
_cell_length_a   3.58727400
_cell_length_b   9.00745900
_cell_length_c   11.38944600
_cell_angle_alpha   90.00000000
_cell_angle_beta   90.00000000
_cell_angle_gamma   90.00000000
_symmetry_Int_Tables_number   1
_chemical_formula_structural   CeTaReB6
_chemical_formula_sum   'Ce4 Ta4 Re4 B24'
_cell_volume   368.01832443
_cell_formula_units_Z   4
loop_
 _symmetry_equiv_pos_site_id
 _symmetry_equiv_pos_as_xyz
  1  'x, y, z'
loop_
 _atom_site_type_symbol
 _atom_site_label
 _atom_site_symmetry_multiplicity
 _atom_site_fract_x
 _atom_site_fract_y
 _atom_site_fract_z
 _atom_site_occupancy
  Ce  Ce0  1  0.000000  0.323380  0.413463  1
  Ce  Ce1  1  0.000000  0.676620  0.586537  1
  Ce  Ce2  1  0.000000  0.823380  0.086537  1
  Ce  Ce3  1  0.000000  0.176620  0.913463  1
  Ta  Ta4  1  0.000000  0.946757  0.375729  1
  Ta  Ta5  1  0.000000  0.053243  0.624271  1
  Ta  Ta6  1  0.000000  0.446757  0.124271  1
  Ta  Ta7  1  0.000000  0.553243  0.875729  1
  Re  Re8  1  0.000000  0.644746  0.317822  1
  Re  Re9  1  0.000000  0.355254  0.682178  1
  Re  Re10  1  0.000000  0.144746  0.182178  1
  Re  Re11  1  0.000000  0.855254  0.817822  1
  B  B12  1  0.500000  0.554872  0.433136  1
  B  B13  1  0.500000  0.445128  0.566864  1
  B  B14  1  0.500000  0.054872  0.066864  1
  B  B15  1  0.500000  0.945128  0.933136  1
  B  B16  1  0.500000  0.755610  0.418170  1
  B  B17  1  0.500000  0.244390  0.581830  1
  B  B18  1  0.500000  0.255610  0.081830  1
  B  B19  1  0.500000  0.744390  0.918170  1
  B  B20  1  0.500000  0.797651  0.263763  1
  B  B21  1  0.500000  0.202349  0.736237  1
  B  B22  1  0.500000  0.297651  0.236237  1
  B  B23  1  0.500000  0.702349  0.763763  1
  B  B24  1  0.500000  0.629299  0.181386  1
  B  B25  1  0.500000  0.370701  0.818614  1
  B  B26  1  0.500000  0.129299  0.318614  1
  B  B27  1  0.500000  0.870701  0.681386  1
  B  B28  1  0.500000  0.981777  0.214882  1
  B  B29  1  0.500000  0.018223  0.785118  1
  B  B30  1  0.500000  0.481777  0.285118  1
  B  B31  1  0.500000  0.518223  0.714882  1
  B  B32  1  0.500000  0.598904  0.026360  1
  B  B33  1  0.500000  0.401096  0.973640  1
  B  B34  1  0.500000  0.098904  0.473640  1
  B  B35  1  0.500000  0.901096  0.526360  1
