# generated using pymatgen
data_Lu12ReTc3
_symmetry_space_group_name_H-M   'P 1'
_cell_length_a   6.05898273
_cell_length_b   7.44635786
_cell_length_c   8.86983300
_cell_angle_alpha   90.00000000
_cell_angle_beta   90.00000000
_cell_angle_gamma   89.89532442
_symmetry_Int_Tables_number   1
_chemical_formula_structural   Lu12ReTc3
_chemical_formula_sum   'Lu12 Re1 Tc3'
_cell_volume   400.18272510
_cell_formula_units_Z   1
loop_
 _symmetry_equiv_pos_site_id
 _symmetry_equiv_pos_as_xyz
  1  'x, y, z'
loop_
 _atom_site_type_symbol
 _atom_site_label
 _atom_site_symmetry_multiplicity
 _atom_site_fract_x
 _atom_site_fract_y
 _atom_site_fract_z
 _atom_site_occupancy
  Lu  Lu0  1  0.351160  0.673314  0.061231  1
  Lu  Lu1  1  0.149249  0.174162  0.437383  1
  Lu  Lu2  1  0.649999  0.325216  0.561617  1
  Lu  Lu3  1  0.849735  0.825809  0.937715  1
  Lu  Lu4  1  0.649999  0.325216  0.938383  1
  Lu  Lu5  1  0.849735  0.825809  0.562285  1
  Lu  Lu6  1  0.351160  0.673314  0.438769  1
  Lu  Lu7  1  0.149249  0.174162  0.062617  1
  Lu  Lu8  1  0.874922  0.540984  0.250000  1
  Lu  Lu9  1  0.625654  0.040767  0.250000  1
  Lu  Lu10  1  0.122311  0.460423  0.750000  1
  Lu  Lu11  1  0.374834  0.961264  0.750000  1
  Re  Re12  1  0.550688  0.618797  0.750000  1
  Tc  Tc13  1  0.046811  0.880675  0.250000  1
  Tc  Tc14  1  0.452416  0.380686  0.250000  1
  Tc  Tc15  1  0.952074  0.119400  0.750000  1
