# generated using pymatgen
data_Ho3Ga4S
_symmetry_space_group_name_H-M   'P 1'
_cell_length_a   7.69927298
_cell_length_b   7.69927289
_cell_length_c   7.69927360
_cell_angle_alpha   118.91874137
_cell_angle_beta   118.91873619
_cell_angle_gamma   91.88322819
_symmetry_Int_Tables_number   1
_chemical_formula_structural   Ho3Ga4S
_chemical_formula_sum   'Ho6 Ga8 S2'
_cell_volume   327.80897452
_cell_formula_units_Z   2
loop_
 _symmetry_equiv_pos_site_id
 _symmetry_equiv_pos_as_xyz
  1  'x, y, z'
loop_
 _atom_site_type_symbol
 _atom_site_label
 _atom_site_symmetry_multiplicity
 _atom_site_fract_x
 _atom_site_fract_y
 _atom_site_fract_z
 _atom_site_occupancy
  Ho  Ho0  1  0.835431  0.664569  0.500000  1
  Ho  Ho1  1  0.664569  0.164569  0.829138  1
  Ho  Ho2  1  0.335431  0.835431  0.170862  1
  Ho  Ho3  1  0.164569  0.335431  0.500000  1
  Ho  Ho4  1  0.250000  0.250000  0.000000  1
  Ho  Ho5  1  0.750000  0.750000  0.000000  1
  Ga  Ga6  1  0.162284  0.949676  0.500000  1
  Ga  Ga7  1  0.449676  0.662284  0.500000  1
  Ga  Ga8  1  0.550324  0.337716  0.500000  1
  Ga  Ga9  1  0.662284  0.162284  0.212608  1
  Ga  Ga10  1  0.837716  0.050324  0.500000  1
  Ga  Ga11  1  0.050324  0.550324  0.212608  1
  Ga  Ga12  1  0.337716  0.837716  0.787392  1
  Ga  Ga13  1  0.949676  0.449676  0.787392  1
  S  S14  1  0.000000  0.000000  0.000000  1
  S  S15  1  0.500000  0.500000  0.000000  1
