# generated using pymatgen
data_PrNd3(FeB10)2
_symmetry_space_group_name_H-M   'P 1'
_cell_length_a   4.20313800
_cell_length_b   5.65913312
_cell_length_c   11.25774510
_cell_angle_alpha   90.01125526
_cell_angle_beta   90.00000000
_cell_angle_gamma   90.00000000
_symmetry_Int_Tables_number   1
_chemical_formula_structural   PrNd3(FeB10)2
_chemical_formula_sum   'Pr1 Nd3 Fe2 B20'
_cell_volume   267.77804188
_cell_formula_units_Z   1
loop_
 _symmetry_equiv_pos_site_id
 _symmetry_equiv_pos_as_xyz
  1  'x, y, z'
loop_
 _atom_site_type_symbol
 _atom_site_label
 _atom_site_symmetry_multiplicity
 _atom_site_fract_x
 _atom_site_fract_y
 _atom_site_fract_z
 _atom_site_occupancy
  Pr  Pr0  1  0.500000  0.209452  0.367981  1
  Nd  Nd1  1  0.500000  0.289543  0.868424  1
  Nd  Nd2  1  0.500000  0.710809  0.131225  1
  Nd  Nd3  1  0.500000  0.789386  0.631833  1
  Fe  Fe4  1  0.000000  0.500039  0.500174  1
  Fe  Fe5  1  0.000000  0.999797  0.000012  1
  B  B6  1  0.000000  0.127622  0.540469  1
  B  B7  1  0.000000  0.871263  0.460468  1
  B  B8  1  0.000000  0.628105  0.959947  1
  B  B9  1  0.000000  0.371637  0.039519  1
  B  B10  1  0.000000  0.153575  0.697852  1
  B  B11  1  0.000000  0.847095  0.302711  1
  B  B12  1  0.297742  0.204193  0.112651  1
  B  B13  1  0.297812  0.795809  0.886965  1
  B  B14  1  0.702270  0.704014  0.386979  1
  B  B15  1  0.702237  0.295637  0.613350  1
  B  B16  1  0.702188  0.795809  0.886965  1
  B  B17  1  0.702258  0.204193  0.112651  1
  B  B18  1  0.297763  0.295637  0.613350  1
  B  B19  1  0.297730  0.704014  0.386979  1
  B  B20  1  0.000000  0.037020  0.186569  1
  B  B21  1  0.000000  0.963666  0.813676  1
  B  B22  1  0.000000  0.537224  0.313142  1
  B  B23  1  0.000000  0.463550  0.686640  1
  B  B24  1  0.000000  0.347301  0.196971  1
  B  B25  1  0.000000  0.653607  0.802496  1
