# generated using pymatgen
data_TbLu2Th(Ga3Rh)6
_symmetry_space_group_name_H-M   'P 1'
_cell_length_a   7.59241021
_cell_length_b   7.59802617
_cell_length_c   9.49541600
_cell_angle_alpha   90.00000000
_cell_angle_beta   90.00000000
_cell_angle_gamma   119.64011511
_symmetry_Int_Tables_number   1
_chemical_formula_structural   TbLu2Th(Ga3Rh)6
_chemical_formula_sum   'Tb1 Lu2 Th1 Ga18 Rh6'
_cell_volume   476.08952364
_cell_formula_units_Z   1
loop_
 _symmetry_equiv_pos_site_id
 _symmetry_equiv_pos_as_xyz
  1  'x, y, z'
loop_
 _atom_site_type_symbol
 _atom_site_label
 _atom_site_symmetry_multiplicity
 _atom_site_fract_x
 _atom_site_fract_y
 _atom_site_fract_z
 _atom_site_occupancy
  Tb  Tb0  1  0.670917  0.996892  0.250000  1
  Lu  Lu1  1  0.002035  0.329978  0.750000  1
  Lu  Lu2  1  0.329214  0.002503  0.750000  1
  Th  Th3  1  0.996944  0.669274  0.250000  1
  Ga  Ga4  1  0.342051  0.547689  0.250000  1
  Ga  Ga5  1  0.659625  0.449203  0.750000  1
  Ga  Ga6  1  0.543272  0.335725  0.250000  1
  Ga  Ga7  1  0.449667  0.662496  0.750000  1
  Ga  Ga8  1  0.000631  0.329249  0.075583  1
  Ga  Ga9  1  0.000905  0.664699  0.912267  1
  Ga  Ga10  1  0.000905  0.664699  0.587733  1
  Ga  Ga11  1  0.341213  0.005635  0.424003  1
  Ga  Ga12  1  0.000631  0.329249  0.424417  1
  Ga  Ga13  1  0.664981  0.002104  0.581824  1
  Ga  Ga14  1  0.664981  0.002104  0.918176  1
  Ga  Ga15  1  0.341213  0.005635  0.075997  1
  Ga  Ga16  1  0.330421  0.330495  0.570144  1
  Ga  Ga17  1  0.662239  0.667301  0.440774  1
  Ga  Ga18  1  0.662239  0.667301  0.059226  1
  Ga  Ga19  1  0.330421  0.330495  0.929856  1
  Ga  Ga20  1  0.129741  0.131639  0.250000  1
  Ga  Ga21  1  0.873396  0.876366  0.750000  1
  Rh  Rh22  1  0.673898  0.331298  0.999672  1
  Rh  Rh23  1  0.325862  0.670634  0.999742  1
  Rh  Rh24  1  0.325862  0.670634  0.500258  1
  Rh  Rh25  1  0.673898  0.331298  0.500328  1
  Rh  Rh26  1  0.001418  0.997705  0.999582  1
  Rh  Rh27  1  0.001418  0.997705  0.500418  1
