# generated using pymatgen
data_Ca20Zn11Sb
_symmetry_space_group_name_H-M   'P 1'
_cell_length_a   7.91889400
_cell_length_b   7.91889400
_cell_length_c   15.26205500
_cell_angle_alpha   90.00000000
_cell_angle_beta   90.00000000
_cell_angle_gamma   90.00000000
_symmetry_Int_Tables_number   1
_chemical_formula_structural   Ca20Zn11Sb
_chemical_formula_sum   'Ca20 Zn11 Sb1'
_cell_volume   957.06640887
_cell_formula_units_Z   1
loop_
 _symmetry_equiv_pos_site_id
 _symmetry_equiv_pos_as_xyz
  1  'x, y, z'
loop_
 _atom_site_type_symbol
 _atom_site_label
 _atom_site_symmetry_multiplicity
 _atom_site_fract_x
 _atom_site_fract_y
 _atom_site_fract_z
 _atom_site_occupancy
  Ca  Ca0  1  0.669011  0.173243  0.102565  1
  Ca  Ca1  1  0.170053  0.671025  0.603526  1
  Ca  Ca2  1  0.330989  0.826757  0.102565  1
  Ca  Ca3  1  0.829947  0.328975  0.603526  1
  Ca  Ca4  1  0.826757  0.669011  0.102565  1
  Ca  Ca5  1  0.328975  0.170053  0.603526  1
  Ca  Ca6  1  0.173243  0.330989  0.102565  1
  Ca  Ca7  1  0.671025  0.829947  0.603526  1
  Ca  Ca8  1  0.826757  0.330989  0.897435  1
  Ca  Ca9  1  0.328975  0.829947  0.396474  1
  Ca  Ca10  1  0.173243  0.669011  0.897435  1
  Ca  Ca11  1  0.671025  0.170053  0.396474  1
  Ca  Ca12  1  0.669011  0.826757  0.897435  1
  Ca  Ca13  1  0.170053  0.328975  0.396474  1
  Ca  Ca14  1  0.330989  0.173243  0.897435  1
  Ca  Ca15  1  0.829947  0.671025  0.396474  1
  Ca  Ca16  1  0.500000  0.500000  0.749321  1
  Ca  Ca17  1  0.000000  0.000000  0.249497  1
  Ca  Ca18  1  0.000000  0.000000  0.750503  1
  Ca  Ca19  1  0.500000  0.500000  0.250679  1
  Zn  Zn20  1  0.500000  0.500000  0.500000  1
  Zn  Zn21  1  0.500000  0.500000  0.000000  1
  Zn  Zn22  1  0.000000  0.000000  0.500000  1
  Zn  Zn23  1  0.617875  0.116418  0.750196  1
  Zn  Zn24  1  0.116418  0.617875  0.249804  1
  Zn  Zn25  1  0.883582  0.382125  0.249804  1
  Zn  Zn26  1  0.382125  0.883582  0.750196  1
  Zn  Zn27  1  0.883582  0.617875  0.750196  1
  Zn  Zn28  1  0.382125  0.116418  0.249804  1
  Zn  Zn29  1  0.116418  0.382125  0.750196  1
  Zn  Zn30  1  0.617875  0.883582  0.249804  1
  Sb  Sb31  1  0.000000  0.000000  0.000000  1
