# generated using pymatgen
data_Y7IrI12
_symmetry_space_group_name_H-M   'P 1'
_cell_length_a   9.82762654
_cell_length_b   9.82762619
_cell_length_c   9.82762537
_cell_angle_alpha   107.08425045
_cell_angle_beta   107.08425208
_cell_angle_gamma   107.08424774
_symmetry_Int_Tables_number   1
_chemical_formula_structural   Y7IrI12
_chemical_formula_sum   'Y7 Ir1 I12'
_cell_volume   788.65747887
_cell_formula_units_Z   1
loop_
 _symmetry_equiv_pos_site_id
 _symmetry_equiv_pos_as_xyz
  1  'x, y, z'
loop_
 _atom_site_type_symbol
 _atom_site_label
 _atom_site_symmetry_multiplicity
 _atom_site_fract_x
 _atom_site_fract_y
 _atom_site_fract_z
 _atom_site_occupancy
  Y  Y0  1  0.903955  0.702447  0.975119  1
  Y  Y1  1  0.975119  0.903955  0.702447  1
  Y  Y2  1  0.702447  0.975119  0.903955  1
  Y  Y3  1  0.096045  0.297553  0.024881  1
  Y  Y4  1  0.024881  0.096045  0.297553  1
  Y  Y5  1  0.297553  0.024881  0.096045  1
  Y  Y6  1  0.500000  0.500000  0.500000  1
  Ir  Ir7  1  0.000000  0.000000  0.000000  1
  I  I8  1  0.611197  0.837403  0.534141  1
  I  I9  1  0.534141  0.611197  0.837403  1
  I  I10  1  0.837403  0.534141  0.611197  1
  I  I11  1  0.388803  0.162597  0.465859  1
  I  I12  1  0.465859  0.388803  0.162597  1
  I  I13  1  0.162597  0.465859  0.388803  1
  I  I14  1  0.678806  0.073180  0.224721  1
  I  I15  1  0.224721  0.678806  0.073180  1
  I  I16  1  0.073180  0.224721  0.678806  1
  I  I17  1  0.321194  0.926820  0.775279  1
  I  I18  1  0.775279  0.321194  0.926820  1
  I  I19  1  0.926820  0.775279  0.321194  1
