# generated using pymatgen
data_Tb2Ce2Zn7NiRu2
_symmetry_space_group_name_H-M   'P 1'
_cell_length_a   7.10655282
_cell_length_b   7.10655337
_cell_length_c   5.09166001
_cell_angle_alpha   90.30571566
_cell_angle_beta   90.30571703
_cell_angle_gamma   90.37371855
_symmetry_Int_Tables_number   1
_chemical_formula_structural   Tb2Ce2Zn7NiRu2
_chemical_formula_sum   'Tb2 Ce2 Zn7 Ni1 Ru2'
_cell_volume   257.13175962
_cell_formula_units_Z   1
loop_
 _symmetry_equiv_pos_site_id
 _symmetry_equiv_pos_as_xyz
  1  'x, y, z'
loop_
 _atom_site_type_symbol
 _atom_site_label
 _atom_site_symmetry_multiplicity
 _atom_site_fract_x
 _atom_site_fract_y
 _atom_site_fract_z
 _atom_site_occupancy
  Tb  Tb0  1  0.006318  0.506318  0.766414  1
  Tb  Tb1  1  0.494423  0.994423  0.234231  1
  Ce  Ce2  1  0.009200  0.991295  0.010973  1
  Ce  Ce3  1  0.491295  0.509200  0.010973  1
  Zn  Zn4  1  0.824392  0.683448  0.293921  1
  Zn  Zn5  1  0.809229  0.309229  0.287561  1
  Zn  Zn6  1  0.317042  0.184738  0.713184  1
  Zn  Zn7  1  0.183448  0.324392  0.293921  1
  Zn  Zn8  1  0.689515  0.189515  0.726956  1
  Zn  Zn9  1  0.684738  0.817042  0.713184  1
  Zn  Zn10  1  0.303985  0.803985  0.687754  1
  Ni  Ni11  1  0.183162  0.683162  0.248963  1
  Ru  Ru12  1  0.504547  0.498705  0.505983  1
  Ru  Ru13  1  0.998705  0.004547  0.505983  1
