# generated using pymatgen
data_Gd4Co(AsRh)6
_symmetry_space_group_name_H-M   'P 1'
_cell_length_a   7.32797985
_cell_length_b   7.32797956
_cell_length_c   7.32797900
_cell_angle_alpha   109.47121357
_cell_angle_beta   109.47121274
_cell_angle_gamma   109.47122153
_symmetry_Int_Tables_number   1
_chemical_formula_structural   Gd4Co(AsRh)6
_chemical_formula_sum   'Gd4 Co1 As6 Rh6'
_cell_volume   302.92207045
_cell_formula_units_Z   1
loop_
 _symmetry_equiv_pos_site_id
 _symmetry_equiv_pos_as_xyz
  1  'x, y, z'
loop_
 _atom_site_type_symbol
 _atom_site_label
 _atom_site_symmetry_multiplicity
 _atom_site_fract_x
 _atom_site_fract_y
 _atom_site_fract_z
 _atom_site_occupancy
  Gd  Gd0  1  0.500000  0.500000  0.500000  1
  Gd  Gd1  1  0.000000  0.500000  0.000000  1
  Gd  Gd2  1  0.500000  0.000000  0.000000  1
  Gd  Gd3  1  0.000000  0.000000  0.500000  1
  Co  Co4  1  0.500000  0.750000  0.250000  1
  As  As5  1  0.680613  0.000000  0.680613  1
  As  As6  1  0.680613  0.680613  0.000000  1
  As  As7  1  0.319387  0.319387  0.000000  1
  As  As8  1  0.000000  0.680613  0.680613  1
  As  As9  1  0.000000  0.319387  0.319387  1
  As  As10  1  0.319387  0.000000  0.319387  1
  Rh  Rh11  1  0.750000  0.250000  0.500000  1
  Rh  Rh12  1  0.250000  0.750000  0.500000  1
  Rh  Rh13  1  0.250000  0.500000  0.750000  1
  Rh  Rh14  1  0.000000  0.000000  0.000000  1
  Rh  Rh15  1  0.500000  0.250000  0.750000  1
  Rh  Rh16  1  0.750000  0.500000  0.250000  1
