# generated using pymatgen
data_Ta10Si5Au
_symmetry_space_group_name_H-M   'P 1'
_cell_length_a   7.58764388
_cell_length_b   7.58764296
_cell_length_c   7.58764326
_cell_angle_alpha   128.14012798
_cell_angle_beta   128.14012387
_cell_angle_gamma   76.39814071
_symmetry_Int_Tables_number   1
_chemical_formula_structural   Ta10Si5Au
_chemical_formula_sum   'Ta10 Si5 Au1'
_cell_volume   262.56242171
_cell_formula_units_Z   1
loop_
 _symmetry_equiv_pos_site_id
 _symmetry_equiv_pos_as_xyz
  1  'x, y, z'
loop_
 _atom_site_type_symbol
 _atom_site_label
 _atom_site_symmetry_multiplicity
 _atom_site_fract_x
 _atom_site_fract_y
 _atom_site_fract_z
 _atom_site_occupancy
  Ta  Ta0  1  0.020481  0.194956  0.514390  1
  Ta  Ta1  1  0.680566  0.506091  0.485610  1
  Ta  Ta2  1  0.506091  0.020481  0.825524  1
  Ta  Ta3  1  0.194956  0.680566  0.174476  1
  Ta  Ta4  1  0.993909  0.819434  0.514390  1
  Ta  Ta5  1  0.305044  0.479519  0.485610  1
  Ta  Ta6  1  0.479519  0.993909  0.174476  1
  Ta  Ta7  1  0.819434  0.305044  0.825524  1
  Ta  Ta8  1  0.998244  0.998244  0.000000  1
  Ta  Ta9  1  0.501756  0.501756  0.000000  1
  Si  Si10  1  0.250000  0.250000  0.000000  1
  Si  Si11  1  0.369303  0.130697  0.500000  1
  Si  Si12  1  0.630697  0.869303  0.500000  1
  Si  Si13  1  0.869303  0.369303  0.238606  1
  Si  Si14  1  0.130697  0.630697  0.761394  1
  Au  Au15  1  0.750000  0.750000  0.000000  1
