# generated using pymatgen
data_BaAc11Si12
_symmetry_space_group_name_H-M   'P 1'
_cell_length_a   4.09179100
_cell_length_b   14.37062636
_cell_length_c   11.70588563
_cell_angle_alpha   89.99396184
_cell_angle_beta   90.00000000
_cell_angle_gamma   90.00000000
_symmetry_Int_Tables_number   1
_chemical_formula_structural   BaAc11Si12
_chemical_formula_sum   'Ba1 Ac11 Si12'
_cell_volume   688.32479572
_cell_formula_units_Z   1
loop_
 _symmetry_equiv_pos_site_id
 _symmetry_equiv_pos_as_xyz
  1  'x, y, z'
loop_
 _atom_site_type_symbol
 _atom_site_label
 _atom_site_symmetry_multiplicity
 _atom_site_fract_x
 _atom_site_fract_y
 _atom_site_fract_z
 _atom_site_occupancy
  Ba  Ba0  1  0.750000  0.500428  0.647112  1
  Ac  Ac1  1  0.250000  0.666670  0.859658  1
  Ac  Ac2  1  0.250000  0.835631  0.355625  1
  Ac  Ac3  1  0.750000  0.333252  0.142986  1
  Ac  Ac4  1  0.750000  0.164754  0.641080  1
  Ac  Ac5  1  0.250000  0.332629  0.860881  1
  Ac  Ac6  1  0.250000  0.164862  0.356838  1
  Ac  Ac7  1  0.750000  0.667084  0.141663  1
  Ac  Ac8  1  0.750000  0.835077  0.639929  1
  Ac  Ac9  1  0.250000  0.000294  0.859598  1
  Ac  Ac10  1  0.250000  0.499820  0.363488  1
  Ac  Ac11  1  0.750000  0.999471  0.138222  1
  Si  Si12  1  0.250000  0.328820  0.561368  1
  Si  Si13  1  0.250000  0.167443  0.064797  1
  Si  Si14  1  0.750000  0.670009  0.431196  1
  Si  Si15  1  0.750000  0.832532  0.933900  1
  Si  Si16  1  0.250000  0.671552  0.559035  1
  Si  Si17  1  0.250000  0.832192  0.062010  1
  Si  Si18  1  0.750000  0.330141  0.433658  1
  Si  Si19  1  0.750000  0.167293  0.936592  1
  Si  Si20  1  0.250000  0.000011  0.563560  1
  Si  Si21  1  0.250000  0.500100  0.068552  1
  Si  Si22  1  0.750000  0.000218  0.434517  1
  Si  Si23  1  0.750000  0.499718  0.943736  1
