# generated using pymatgen
data_Dy5Lu(SnIr)6
_symmetry_space_group_name_H-M   'P 1'
_cell_length_a   7.45433528
_cell_length_b   7.45217242
_cell_length_c   7.92896300
_cell_angle_alpha   90.00000000
_cell_angle_beta   90.00000000
_cell_angle_gamma   119.37834672
_symmetry_Int_Tables_number   1
_chemical_formula_structural   Dy5Lu(SnIr)6
_chemical_formula_sum   'Dy5 Lu1 Sn6 Ir6'
_cell_volume   383.81805555
_cell_formula_units_Z   1
loop_
 _symmetry_equiv_pos_site_id
 _symmetry_equiv_pos_as_xyz
  1  'x, y, z'
loop_
 _atom_site_type_symbol
 _atom_site_label
 _atom_site_symmetry_multiplicity
 _atom_site_fract_x
 _atom_site_fract_y
 _atom_site_fract_z
 _atom_site_occupancy
  Dy  Dy0  1  0.405297  0.998923  0.250000  1
  Dy  Dy1  1  0.594165  0.593510  0.250000  1
  Dy  Dy2  1  0.998365  0.404649  0.250000  1
  Dy  Dy3  1  0.998956  0.405304  0.750000  1
  Dy  Dy4  1  0.404411  0.997859  0.750000  1
  Lu  Lu5  1  0.597908  0.598597  0.750000  1
  Sn  Sn6  1  0.257908  0.257831  0.502655  1
  Sn  Sn7  1  0.257908  0.257831  0.997345  1
  Sn  Sn8  1  0.740676  0.000134  0.999727  1
  Sn  Sn9  1  0.999914  0.740484  0.500062  1
  Sn  Sn10  1  0.740676  0.000134  0.500273  1
  Sn  Sn11  1  0.999914  0.740484  0.999938  1
  Ir  Ir12  1  0.665366  0.337388  0.504184  1
  Ir  Ir13  1  0.665366  0.337388  0.995816  1
  Ir  Ir14  1  0.337439  0.665539  0.997729  1
  Ir  Ir15  1  0.337439  0.665539  0.502271  1
  Ir  Ir16  1  0.997640  0.997793  0.750000  1
  Ir  Ir17  1  0.000653  0.000608  0.250000  1
