# generated using pymatgen
data_MgAl2Zn3Pd10
_symmetry_space_group_name_H-M   'P 1'
_cell_length_a   4.13931500
_cell_length_b   5.46027624
_cell_length_c   10.59020203
_cell_angle_alpha   89.59928653
_cell_angle_beta   90.00000000
_cell_angle_gamma   90.00000000
_symmetry_Int_Tables_number   1
_chemical_formula_structural   MgAl2Zn3Pd10
_chemical_formula_sum   'Mg1 Al2 Zn3 Pd10'
_cell_volume   239.35180987
_cell_formula_units_Z   1
loop_
 _symmetry_equiv_pos_site_id
 _symmetry_equiv_pos_as_xyz
  1  'x, y, z'
loop_
 _atom_site_type_symbol
 _atom_site_label
 _atom_site_symmetry_multiplicity
 _atom_site_fract_x
 _atom_site_fract_y
 _atom_site_fract_z
 _atom_site_occupancy
  Mg  Mg0  1  0.500000  0.337089  0.859918  1
  Al  Al1  1  0.000000  0.003672  0.000235  1
  Al  Al2  1  0.000000  0.501537  0.499721  1
  Zn  Zn3  1  0.500000  0.163249  0.360501  1
  Zn  Zn4  1  0.500000  0.834613  0.639687  1
  Zn  Zn5  1  0.500000  0.663625  0.140235  1
  Pd  Pd6  1  0.500000  0.180494  0.109469  1
  Pd  Pd7  1  0.500000  0.823739  0.894216  1
  Pd  Pd8  1  0.500000  0.682116  0.393041  1
  Pd  Pd9  1  0.500000  0.316602  0.603266  1
  Pd  Pd10  1  0.000000  0.999761  0.498628  1
  Pd  Pd11  1  0.000000  0.505906  0.003852  1
  Pd  Pd12  1  0.000000  0.902380  0.234133  1
  Pd  Pd13  1  0.000000  0.090102  0.762191  1
  Pd  Pd14  1  0.000000  0.402154  0.267370  1
  Pd  Pd15  1  0.000000  0.592961  0.733535  1
