# generated using pymatgen
data_HfTa3Nb2(B2Ru5)2
_symmetry_space_group_name_H-M   'P 1'
_cell_length_a   9.47337631
_cell_length_b   9.47338846
_cell_length_c   3.04430400
_cell_angle_alpha   90.00000000
_cell_angle_beta   90.00000000
_cell_angle_gamma   90.03236933
_symmetry_Int_Tables_number   1
_chemical_formula_structural   HfTa3Nb2(B2Ru5)2
_chemical_formula_sum   'Hf1 Ta3 Nb2 B4 Ru10'
_cell_volume   273.21093897
_cell_formula_units_Z   1
loop_
 _symmetry_equiv_pos_site_id
 _symmetry_equiv_pos_as_xyz
  1  'x, y, z'
loop_
 _atom_site_type_symbol
 _atom_site_label
 _atom_site_symmetry_multiplicity
 _atom_site_fract_x
 _atom_site_fract_y
 _atom_site_fract_z
 _atom_site_occupancy
  Hf  Hf0  1  0.824464  0.675560  0.000000  1
  Ta  Ta1  1  0.676654  0.175699  0.000000  1
  Ta  Ta2  1  0.499978  0.500196  0.000000  1
  Ta  Ta3  1  0.999912  0.999939  0.000000  1
  Nb  Nb4  1  0.176138  0.323872  0.000000  1
  Nb  Nb5  1  0.324412  0.823493  0.000000  1
  B  B6  1  0.620901  0.879029  0.000000  1
  B  B7  1  0.378454  0.121459  0.000000  1
  B  B8  1  0.121276  0.621362  0.000000  1
  B  B9  1  0.878708  0.378787  0.000000  1
  Ru  Ru10  1  0.568217  0.719763  0.500000  1
  Ru  Ru11  1  0.428925  0.281730  0.500000  1
  Ru  Ru12  1  0.073780  0.782322  0.500000  1
  Ru  Ru13  1  0.928371  0.217710  0.500000  1
  Ru  Ru14  1  0.281872  0.570757  0.500000  1
  Ru  Ru15  1  0.717269  0.425276  0.500000  1
  Ru  Ru16  1  0.218396  0.071813  0.500000  1
  Ru  Ru17  1  0.780377  0.932570  0.500000  1
  Ru  Ru18  1  0.499683  0.001240  0.500000  1
  Ru  Ru19  1  0.002214  0.497422  0.500000  1
