# generated using pymatgen
data_Sr3Np(Al3Ir)6
_symmetry_space_group_name_H-M   'P 1'
_cell_length_a   7.60730481
_cell_length_b   7.62411678
_cell_length_c   9.74699200
_cell_angle_alpha   90.00000000
_cell_angle_beta   90.00000000
_cell_angle_gamma   119.27830088
_symmetry_Int_Tables_number   1
_chemical_formula_structural   Sr3Np(Al3Ir)6
_chemical_formula_sum   'Sr3 Np1 Al18 Ir6'
_cell_volume   493.09910073
_cell_formula_units_Z   1
loop_
 _symmetry_equiv_pos_site_id
 _symmetry_equiv_pos_as_xyz
  1  'x, y, z'
loop_
 _atom_site_type_symbol
 _atom_site_label
 _atom_site_symmetry_multiplicity
 _atom_site_fract_x
 _atom_site_fract_y
 _atom_site_fract_z
 _atom_site_occupancy
  Sr  Sr0  1  0.992919  0.672261  0.250000  1
  Sr  Sr1  1  0.005358  0.329005  0.750000  1
  Sr  Sr2  1  0.669942  0.990832  0.250000  1
  Np  Np3  1  0.328493  0.002918  0.750000  1
  Al  Al4  1  0.133101  0.133108  0.250000  1
  Al  Al5  1  0.871787  0.864552  0.750000  1
  Al  Al6  1  0.004748  0.335588  0.069535  1
  Al  Al7  1  0.000222  0.666309  0.927352  1
  Al  Al8  1  0.000222  0.666309  0.572648  1
  Al  Al9  1  0.335581  0.004750  0.434858  1
  Al  Al10  1  0.004748  0.335588  0.430465  1
  Al  Al11  1  0.663558  0.999141  0.572847  1
  Al  Al12  1  0.663558  0.999141  0.927153  1
  Al  Al13  1  0.335581  0.004750  0.065142  1
  Al  Al14  1  0.334399  0.332927  0.551502  1
  Al  Al15  1  0.664575  0.664813  0.466378  1
  Al  Al16  1  0.664575  0.664813  0.033622  1
  Al  Al17  1  0.334399  0.332927  0.948498  1
  Al  Al18  1  0.333557  0.540095  0.250000  1
  Al  Al19  1  0.653490  0.450392  0.750000  1
  Al  Al20  1  0.542648  0.333233  0.250000  1
  Al  Al21  1  0.458001  0.671492  0.750000  1
  Ir  Ir22  1  0.670776  0.330543  0.997606  1
  Ir  Ir23  1  0.330474  0.671070  0.997281  1
  Ir  Ir24  1  0.330474  0.671070  0.502719  1
  Ir  Ir25  1  0.670776  0.330543  0.502394  1
  Ir  Ir26  1  0.001019  0.000916  0.996178  1
  Ir  Ir27  1  0.001019  0.000916  0.503822  1
