# generated using pymatgen
data_Lu8Sc12Si13Au3
_symmetry_space_group_name_H-M   'P 1'
_cell_length_a   7.08195193
_cell_length_b   7.25671991
_cell_length_c   14.21142123
_cell_angle_alpha   89.91472680
_cell_angle_beta   88.38143984
_cell_angle_gamma   90.21449549
_symmetry_Int_Tables_number   1
_chemical_formula_structural   Lu8Sc12Si13Au3
_chemical_formula_sum   'Lu8 Sc12 Si13 Au3'
_cell_volume   730.05224674
_cell_formula_units_Z   1
loop_
 _symmetry_equiv_pos_site_id
 _symmetry_equiv_pos_as_xyz
  1  'x, y, z'
loop_
 _atom_site_type_symbol
 _atom_site_label
 _atom_site_symmetry_multiplicity
 _atom_site_fract_x
 _atom_site_fract_y
 _atom_site_fract_z
 _atom_site_occupancy
  Lu  Lu0  1  0.007396  0.176939  0.094742  1
  Lu  Lu1  1  0.991951  0.825040  0.905061  1
  Lu  Lu2  1  0.492320  0.678614  0.904765  1
  Lu  Lu3  1  0.005093  0.823129  0.603593  1
  Lu  Lu4  1  0.508154  0.323109  0.094381  1
  Lu  Lu5  1  0.994131  0.171253  0.396826  1
  Lu  Lu6  1  0.492873  0.321643  0.395824  1
  Lu  Lu7  1  0.506595  0.677496  0.605270  1
  Sc  Sc8  1  0.174068  0.502261  0.756263  1
  Sc  Sc9  1  0.825425  0.495485  0.245654  1
  Sc  Sc10  1  0.325234  0.001090  0.242840  1
  Sc  Sc11  1  0.673469  0.000039  0.751753  1
  Sc  Sc12  1  0.354313  0.175249  0.631653  1
  Sc  Sc13  1  0.643760  0.826260  0.372725  1
  Sc  Sc14  1  0.152188  0.671871  0.368621  1
  Sc  Sc15  1  0.665836  0.823758  0.122076  1
  Sc  Sc16  1  0.851030  0.329851  0.629571  1
  Sc  Sc17  1  0.336675  0.175657  0.877048  1
  Sc  Sc18  1  0.835183  0.323195  0.877141  1
  Sc  Sc19  1  0.164548  0.674651  0.122605  1
  Si  Si20  1  0.044860  0.115984  0.753787  1
  Si  Si21  1  0.953147  0.884086  0.246736  1
  Si  Si22  1  0.455269  0.612786  0.244787  1
  Si  Si23  1  0.544983  0.387800  0.755012  1
  Si  Si24  1  0.296595  0.869557  0.756183  1
  Si  Si25  1  0.702515  0.128771  0.244073  1
  Si  Si26  1  0.203429  0.367929  0.242688  1
  Si  Si27  1  0.797075  0.632773  0.756377  1
  Si  Si28  1  0.840446  0.534659  0.037747  1
  Si  Si29  1  0.680412  0.034585  0.539667  1
  Si  Si30  1  0.159308  0.465271  0.961518  1
  Si  Si31  1  0.659885  0.035345  0.961857  1
  Si  Si32  1  0.339326  0.964463  0.037750  1
  Au  Au33  1  0.186970  0.467630  0.538872  1
  Au  Au34  1  0.816833  0.532415  0.459979  1
  Au  Au35  1  0.318706  0.969357  0.464554  1
