# generated using pymatgen
data_Dy5Tm2P12Ir2Rh15
_symmetry_space_group_name_H-M   'P 1'
_cell_length_a   12.77267400
_cell_length_b   12.94002613
_cell_length_c   3.94435500
_cell_angle_alpha   90.00000000
_cell_angle_beta   90.00000000
_cell_angle_gamma   119.57309721
_symmetry_Int_Tables_number   1
_chemical_formula_structural   Dy5Tm2P12Ir2Rh15
_chemical_formula_sum   'Dy5 Tm2 P12 Ir2 Rh15'
_cell_volume   566.99053514
_cell_formula_units_Z   1
loop_
 _symmetry_equiv_pos_site_id
 _symmetry_equiv_pos_as_xyz
  1  'x, y, z'
loop_
 _atom_site_type_symbol
 _atom_site_label
 _atom_site_symmetry_multiplicity
 _atom_site_fract_x
 _atom_site_fract_y
 _atom_site_fract_z
 _atom_site_occupancy
  Dy  Dy0  1  0.330949  0.663209  0.500000  1
  Dy  Dy1  1  0.667741  0.336791  0.500000  1
  Dy  Dy2  1  0.000135  0.814257  0.000000  1
  Dy  Dy3  1  0.185878  0.185743  0.000000  1
  Dy  Dy4  1  0.809692  0.000000  0.000000  1
  Tm  Tm5  1  0.998034  0.442436  0.500000  1
  Tm  Tm6  1  0.555598  0.557564  0.500000  1
  P  P7  1  0.006889  0.653907  0.500000  1
  P  P8  1  0.352981  0.346093  0.500000  1
  P  P9  1  0.638446  0.000000  0.500000  1
  P  P10  1  0.514333  0.688973  0.000000  1
  P  P11  1  0.312714  0.829549  0.000000  1
  P  P12  1  0.169771  0.481506  0.000000  1
  P  P13  1  0.483164  0.170451  0.000000  1
  P  P14  1  0.688266  0.518494  0.000000  1
  P  P15  1  0.825360  0.311027  0.000000  1
  P  P16  1  0.998857  0.174627  0.500000  1
  P  P17  1  0.824231  0.825373  0.500000  1
  P  P18  1  0.182603  0.000000  0.500000  1
  Ir  Ir19  1  0.285027  0.000000  0.000000  1
  Ir  Ir20  1  0.004390  0.000000  0.500000  1
  Rh  Rh21  1  0.508099  0.868525  0.000000  1
  Rh  Rh22  1  0.126388  0.646821  0.000000  1
  Rh  Rh23  1  0.355403  0.489682  0.000000  1
  Rh  Rh24  1  0.479568  0.353179  0.000000  1
  Rh  Rh25  1  0.865723  0.510318  0.000000  1
  Rh  Rh26  1  0.639574  0.131475  0.000000  1
  Rh  Rh27  1  0.459054  0.000000  0.500000  1
  Rh  Rh28  1  0.995528  0.272262  0.000000  1
  Rh  Rh29  1  0.723266  0.727738  0.000000  1
  Rh  Rh30  1  0.624042  0.809968  0.500000  1
  Rh  Rh31  1  0.206033  0.826230  0.500000  1
  Rh  Rh32  1  0.178146  0.367909  0.500000  1
  Rh  Rh33  1  0.379803  0.173770  0.500000  1
  Rh  Rh34  1  0.810237  0.632091  0.500000  1
  Rh  Rh35  1  0.814075  0.190032  0.500000  1
