# generated using pymatgen
data_Y3Ho4Tm13Pb16
_symmetry_space_group_name_H-M   'P 1'
_cell_length_a   8.15579077
_cell_length_b   15.50987508
_cell_length_c   8.21695741
_cell_angle_alpha   90.01453648
_cell_angle_beta   89.86609118
_cell_angle_gamma   90.09839441
_symmetry_Int_Tables_number   1
_chemical_formula_structural   Y3Ho4Tm13Pb16
_chemical_formula_sum   'Y3 Ho4 Tm13 Pb16'
_cell_volume   1039.40205593
_cell_formula_units_Z   1
loop_
 _symmetry_equiv_pos_site_id
 _symmetry_equiv_pos_as_xyz
  1  'x, y, z'
loop_
 _atom_site_type_symbol
 _atom_site_label
 _atom_site_symmetry_multiplicity
 _atom_site_fract_x
 _atom_site_fract_y
 _atom_site_fract_z
 _atom_site_occupancy
  Y  Y0  1  0.963601  0.900256  0.823384  1
  Y  Y1  1  0.536605  0.099558  0.323667  1
  Y  Y2  1  0.036927  0.400327  0.176203  1
  Ho  Ho3  1  0.537004  0.400328  0.323887  1
  Ho  Ho4  1  0.036568  0.099598  0.176453  1
  Ho  Ho5  1  0.463701  0.900457  0.676376  1
  Ho  Ho6  1  0.963289  0.599750  0.823505  1
  Tm  Tm7  1  0.623093  0.621429  0.158376  1
  Tm  Tm8  1  0.123587  0.878545  0.341778  1
  Tm  Tm9  1  0.376660  0.121447  0.841710  1
  Tm  Tm10  1  0.877109  0.378678  0.658521  1
  Tm  Tm11  1  0.377203  0.378886  0.841406  1
  Tm  Tm12  1  0.876508  0.121458  0.658272  1
  Tm  Tm13  1  0.623339  0.878298  0.158167  1
  Tm  Tm14  1  0.123143  0.621466  0.341856  1
  Tm  Tm15  1  0.462158  0.600001  0.675742  1
  Tm  Tm16  1  0.791304  0.749711  0.495470  1
  Tm  Tm17  1  0.291767  0.749786  0.004702  1
  Tm  Tm18  1  0.208442  0.250102  0.504674  1
  Tm  Tm19  1  0.708355  0.250102  0.995248  1
  Pb  Pb20  1  0.718090  0.457352  0.966404  1
  Pb  Pb21  1  0.217689  0.042617  0.534401  1
  Pb  Pb22  1  0.282454  0.957193  0.033992  1
  Pb  Pb23  1  0.780817  0.542836  0.467129  1
  Pb  Pb24  1  0.282274  0.543026  0.033067  1
  Pb  Pb25  1  0.782275  0.957087  0.465814  1
  Pb  Pb26  1  0.717863  0.042687  0.966035  1
  Pb  Pb27  1  0.218633  0.457764  0.534233  1
  Pb  Pb28  1  0.428792  0.749997  0.373063  1
  Pb  Pb29  1  0.928912  0.749966  0.127552  1
  Pb  Pb30  1  0.571049  0.250137  0.627334  1
  Pb  Pb31  1  0.071032  0.249975  0.872337  1
  Pb  Pb32  1  0.650974  0.749428  0.845195  1
  Pb  Pb33  1  0.152244  0.749802  0.653922  1
  Pb  Pb34  1  0.348322  0.250128  0.153902  1
  Pb  Pb35  1  0.848217  0.249828  0.346219  1
