# generated using pymatgen
data_KLiSnF6
_symmetry_space_group_name_H-M   'P 1'
_cell_length_a   5.48119300
_cell_length_b   5.48119192
_cell_length_c   11.34891100
_cell_angle_alpha   90.00000000
_cell_angle_beta   90.00000000
_cell_angle_gamma   119.99998841
_symmetry_Int_Tables_number   1
_chemical_formula_structural   KLiSnF6
_chemical_formula_sum   'K2 Li2 Sn2 F12'
_cell_volume   295.28064163
_cell_formula_units_Z   2
loop_
 _symmetry_equiv_pos_site_id
 _symmetry_equiv_pos_as_xyz
  1  'x, y, z'
loop_
 _atom_site_type_symbol
 _atom_site_label
 _atom_site_symmetry_multiplicity
 _atom_site_fract_x
 _atom_site_fract_y
 _atom_site_fract_z
 _atom_site_occupancy
  K  K0  1  0.000000  0.000000  0.500000  1
  K  K1  1  0.000000  0.000000  0.000000  1
  Li  Li2  1  0.333333  0.666667  0.750000  1
  Li  Li3  1  0.666667  0.333333  0.250000  1
  Sn  Sn4  1  0.666667  0.333333  0.750000  1
  Sn  Sn5  1  0.333333  0.666667  0.250000  1
  F  F6  1  0.627633  0.011533  0.651319  1
  F  F7  1  0.372367  0.988467  0.348681  1
  F  F8  1  0.988467  0.616100  0.651319  1
  F  F9  1  0.627633  0.616100  0.848681  1
  F  F10  1  0.011533  0.383900  0.348681  1
  F  F11  1  0.372367  0.383900  0.151319  1
  F  F12  1  0.383900  0.372367  0.651319  1
  F  F13  1  0.988467  0.372367  0.848681  1
  F  F14  1  0.616100  0.627633  0.348681  1
  F  F15  1  0.011533  0.627633  0.151319  1
  F  F16  1  0.383900  0.011533  0.848681  1
  F  F17  1  0.616100  0.988467  0.151319  1
