# generated using pymatgen
data_Sr4AlMoO8
_symmetry_space_group_name_H-M   'P 1'
_cell_length_a   6.95748677
_cell_length_b   6.95748767
_cell_length_c   5.52881400
_cell_angle_alpha   90.00000000
_cell_angle_beta   90.00000000
_cell_angle_gamma   133.68471204
_symmetry_Int_Tables_number   1
_chemical_formula_structural   Sr4AlMoO8
_chemical_formula_sum   'Sr4 Al1 Mo1 O8'
_cell_volume   193.53792672
_cell_formula_units_Z   1
loop_
 _symmetry_equiv_pos_site_id
 _symmetry_equiv_pos_as_xyz
  1  'x, y, z'
loop_
 _atom_site_type_symbol
 _atom_site_label
 _atom_site_symmetry_multiplicity
 _atom_site_fract_x
 _atom_site_fract_y
 _atom_site_fract_z
 _atom_site_occupancy
  Sr  Sr0  1  0.350253  0.649747  0.000000  1
  Sr  Sr1  1  0.854366  0.145634  0.500000  1
  Sr  Sr2  1  0.145634  0.854366  0.500000  1
  Sr  Sr3  1  0.649747  0.350253  0.000000  1
  Al  Al4  1  0.000000  0.000000  0.000000  1
  Mo  Mo5  1  0.500000  0.500000  0.500000  1
  O  O6  1  0.154941  0.845059  0.000000  1
  O  O7  1  0.661293  0.338707  0.500000  1
  O  O8  1  0.338707  0.661293  0.500000  1
  O  O9  1  0.845059  0.154941  0.000000  1
  O  O10  1  0.248934  0.248934  0.245447  1
  O  O11  1  0.751066  0.751066  0.754553  1
  O  O12  1  0.248934  0.248934  0.754553  1
  O  O13  1  0.751066  0.751066  0.245447  1
