# generated using pymatgen
data_Er8MnSi16W11
_symmetry_space_group_name_H-M   'P 1'
_cell_length_a   6.84007522
_cell_length_b   6.83131891
_cell_length_c   12.74016691
_cell_angle_alpha   89.83609259
_cell_angle_beta   89.89019219
_cell_angle_gamma   90.03688649
_symmetry_Int_Tables_number   1
_chemical_formula_structural   Er8MnSi16W11
_chemical_formula_sum   'Er8 Mn1 Si16 W11'
_cell_volume   595.30275091
_cell_formula_units_Z   1
loop_
 _symmetry_equiv_pos_site_id
 _symmetry_equiv_pos_as_xyz
  1  'x, y, z'
loop_
 _atom_site_type_symbol
 _atom_site_label
 _atom_site_symmetry_multiplicity
 _atom_site_fract_x
 _atom_site_fract_y
 _atom_site_fract_z
 _atom_site_occupancy
  Er  Er0  1  0.338118  0.996988  0.469871  1
  Er  Er1  1  0.502228  0.837583  0.720004  1
  Er  Er2  1  0.497310  0.164633  0.219886  1
  Er  Er3  1  0.836542  0.503192  0.281540  1
  Er  Er4  1  0.162608  0.496170  0.779716  1
  Er  Er5  1  0.664813  0.002083  0.968171  1
  Er  Er6  1  0.997950  0.333585  0.530718  1
  Er  Er7  1  0.002508  0.664930  0.029708  1
  Mn  Mn8  1  0.003702  0.828051  0.623787  1
  Si  Si9  1  0.196164  0.114192  0.682874  1
  Si  Si10  1  0.375768  0.703048  0.932232  1
  Si  Si11  1  0.625021  0.295590  0.433897  1
  Si  Si12  1  0.702908  0.374492  0.066499  1
  Si  Si13  1  0.294177  0.628329  0.568304  1
  Si  Si14  1  0.796498  0.874577  0.182615  1
  Si  Si15  1  0.125184  0.202824  0.317943  1
  Si  Si16  1  0.879007  0.801821  0.812000  1
  Si  Si17  1  0.290948  0.965395  0.064667  1
  Si  Si18  1  0.533903  0.789385  0.314120  1
  Si  Si19  1  0.464098  0.212150  0.813030  1
  Si  Si20  1  0.790311  0.538150  0.682971  1
  Si  Si21  1  0.209350  0.465674  0.186882  1
  Si  Si22  1  0.718852  0.030125  0.566027  1
  Si  Si23  1  0.965290  0.291553  0.936385  1
  Si  Si24  1  0.032308  0.712511  0.440126  1
  W  W25  1  0.334120  0.335225  0.999956  1
  W  W26  1  0.164975  0.834429  0.250957  1
  W  W27  1  0.834370  0.167941  0.750186  1
  W  W28  1  0.664181  0.665697  0.499473  1
  W  W29  1  0.168818  0.002770  0.875450  1
  W  W30  1  0.500914  0.665689  0.123681  1
  W  W31  1  0.494430  0.333592  0.622719  1
  W  W32  1  0.668087  0.501758  0.875332  1
  W  W33  1  0.332406  0.499854  0.378056  1
  W  W34  1  0.832670  0.999300  0.372957  1
  W  W35  1  0.999460  0.166715  0.127256  1
