# generated using pymatgen
data_Dy16In3AgIr4
_symmetry_space_group_name_H-M   'P 1'
_cell_length_a   9.63926698
_cell_length_b   9.63926669
_cell_length_c   9.63926675
_cell_angle_alpha   59.91744302
_cell_angle_beta   59.91744320
_cell_angle_gamma   59.91744037
_symmetry_Int_Tables_number   1
_chemical_formula_structural   Dy16In3AgIr4
_chemical_formula_sum   'Dy16 In3 Ag1 Ir4'
_cell_volume   632.12492254
_cell_formula_units_Z   1
loop_
 _symmetry_equiv_pos_site_id
 _symmetry_equiv_pos_as_xyz
  1  'x, y, z'
loop_
 _atom_site_type_symbol
 _atom_site_label
 _atom_site_symmetry_multiplicity
 _atom_site_fract_x
 _atom_site_fract_y
 _atom_site_fract_z
 _atom_site_occupancy
  Dy  Dy0  1  0.599211  0.599211  0.599211  1
  Dy  Dy1  1  0.600295  0.600295  0.200806  1
  Dy  Dy2  1  0.600295  0.200806  0.600295  1
  Dy  Dy3  1  0.200806  0.600295  0.600295  1
  Dy  Dy4  1  0.057917  0.441282  0.441282  1
  Dy  Dy5  1  0.438525  0.059781  0.059781  1
  Dy  Dy6  1  0.441282  0.057917  0.441282  1
  Dy  Dy7  1  0.059781  0.438525  0.059781  1
  Dy  Dy8  1  0.441282  0.441282  0.057917  1
  Dy  Dy9  1  0.059781  0.059781  0.438525  1
  Dy  Dy10  1  0.186443  0.811288  0.811288  1
  Dy  Dy11  1  0.810439  0.189580  0.189580  1
  Dy  Dy12  1  0.811288  0.186443  0.811288  1
  Dy  Dy13  1  0.189580  0.810439  0.189580  1
  Dy  Dy14  1  0.811288  0.811288  0.186443  1
  Dy  Dy15  1  0.189580  0.189580  0.810439  1
  In  In16  1  0.832224  0.832224  0.503936  1
  In  In17  1  0.832224  0.503936  0.832224  1
  In  In18  1  0.503936  0.832224  0.832224  1
  Ag  Ag19  1  0.832881  0.832881  0.832881  1
  Ir  Ir20  1  0.392359  0.392359  0.392359  1
  Ir  Ir21  1  0.391649  0.391649  0.825286  1
  Ir  Ir22  1  0.391649  0.825286  0.391649  1
  Ir  Ir23  1  0.825286  0.391649  0.391649  1
