# generated using pymatgen
data_Sr2Pr3Al7Ga2
_symmetry_space_group_name_H-M   'P 1'
_cell_length_a   12.08211096
_cell_length_b   12.08211074
_cell_length_c   12.08211201
_cell_angle_alpha   27.40490892
_cell_angle_beta   27.40490806
_cell_angle_gamma   27.40491181
_symmetry_Int_Tables_number   1
_chemical_formula_structural   Sr2Pr3Al7Ga2
_chemical_formula_sum   'Sr2 Pr3 Al7 Ga2'
_cell_volume   329.75326995
_cell_formula_units_Z   1
loop_
 _symmetry_equiv_pos_site_id
 _symmetry_equiv_pos_as_xyz
  1  'x, y, z'
loop_
 _atom_site_type_symbol
 _atom_site_label
 _atom_site_symmetry_multiplicity
 _atom_site_fract_x
 _atom_site_fract_y
 _atom_site_fract_z
 _atom_site_occupancy
  Sr  Sr0  1  0.500338  0.500338  0.500338  1
  Sr  Sr1  1  0.215231  0.215231  0.215231  1
  Pr  Pr2  1  0.685329  0.685329  0.685329  1
  Pr  Pr3  1  0.313761  0.313761  0.313761  1
  Pr  Pr4  1  0.784902  0.784902  0.784902  1
  Al  Al5  1  0.237198  0.722345  0.237198  1
  Al  Al6  1  0.237198  0.237198  0.722345  1
  Al  Al7  1  0.722345  0.237198  0.237198  1
  Al  Al8  1  0.762956  0.278359  0.762956  1
  Al  Al9  1  0.762956  0.762956  0.278359  1
  Al  Al10  1  0.278359  0.762956  0.762956  1
  Al  Al11  1  0.999869  0.999869  0.999869  1
  Ga  Ga12  1  0.873975  0.873975  0.873975  1
  Ga  Ga13  1  0.125580  0.125580  0.125580  1
