# generated using pymatgen
data_Li3PrN2
_symmetry_space_group_name_H-M   'P 1'
_cell_length_a   9.34173046
_cell_length_b   9.34173044
_cell_length_c   9.34173000
_cell_angle_alpha   109.47121968
_cell_angle_beta   109.47121963
_cell_angle_gamma   109.47122170
_symmetry_Int_Tables_number   1
_chemical_formula_structural   Li3PrN2
_chemical_formula_sum   'Li24 Pr8 N16'
_cell_volume   627.56698578
_cell_formula_units_Z   8
loop_
 _symmetry_equiv_pos_site_id
 _symmetry_equiv_pos_as_xyz
  1  'x, y, z'
loop_
 _atom_site_type_symbol
 _atom_site_label
 _atom_site_symmetry_multiplicity
 _atom_site_fract_x
 _atom_site_fract_y
 _atom_site_fract_z
 _atom_site_occupancy
  Li  Li0  1  0.571290  0.512410  0.270542  1
  Li  Li1  1  0.758133  0.987590  0.558881  1
  Li  Li2  1  0.741867  0.300748  0.229458  1
  Li  Li3  1  0.928710  0.199252  0.941119  1
  Li  Li4  1  0.558881  0.758133  0.987590  1
  Li  Li5  1  0.270542  0.571290  0.512410  1
  Li  Li6  1  0.941119  0.928710  0.199252  1
  Li  Li7  1  0.229458  0.741867  0.300748  1
  Li  Li8  1  0.300748  0.229458  0.741867  1
  Li  Li9  1  0.199252  0.941119  0.928710  1
  Li  Li10  1  0.512410  0.270542  0.571290  1
  Li  Li11  1  0.987590  0.558881  0.758133  1
  Li  Li12  1  0.428710  0.487590  0.729458  1
  Li  Li13  1  0.241867  0.012410  0.441119  1
  Li  Li14  1  0.258133  0.699252  0.770542  1
  Li  Li15  1  0.071290  0.800748  0.058881  1
  Li  Li16  1  0.441119  0.241867  0.012410  1
  Li  Li17  1  0.729458  0.428710  0.487590  1
  Li  Li18  1  0.058881  0.071290  0.800748  1
  Li  Li19  1  0.770542  0.258133  0.699252  1
  Li  Li20  1  0.699252  0.770542  0.258133  1
  Li  Li21  1  0.800748  0.058881  0.071290  1
  Li  Li22  1  0.487590  0.729458  0.428710  1
  Li  Li23  1  0.012410  0.441119  0.241867  1
  Pr  Pr24  1  0.260184  0.260184  0.260184  1
  Pr  Pr25  1  0.000000  0.239816  0.500000  1
  Pr  Pr26  1  0.500000  0.000000  0.239816  1
  Pr  Pr27  1  0.239816  0.500000  0.000000  1
  Pr  Pr28  1  0.739816  0.739816  0.739816  1
  Pr  Pr29  1  0.000000  0.760184  0.500000  1
  Pr  Pr30  1  0.500000  0.000000  0.760184  1
  Pr  Pr31  1  0.760184  0.500000  0.000000  1
  N  N32  1  0.000000  0.000000  0.000000  1
  N  N33  1  0.000000  0.500000  0.500000  1
  N  N34  1  0.500000  0.000000  0.500000  1
  N  N35  1  0.500000  0.500000  0.000000  1
  N  N36  1  0.266489  0.250000  0.516489  1
  N  N37  1  0.233511  0.750000  0.983511  1
  N  N38  1  0.516489  0.266489  0.250000  1
  N  N39  1  0.983511  0.233511  0.750000  1
  N  N40  1  0.750000  0.983511  0.233511  1
  N  N41  1  0.250000  0.516489  0.266489  1
  N  N42  1  0.733511  0.750000  0.483511  1
  N  N43  1  0.766489  0.250000  0.016489  1
  N  N44  1  0.483511  0.733511  0.750000  1
  N  N45  1  0.016489  0.766489  0.250000  1
  N  N46  1  0.250000  0.016489  0.766489  1
  N  N47  1  0.750000  0.483511  0.733511  1
