# generated using pymatgen
data_Dy3YRu7W
_symmetry_space_group_name_H-M   'P 1'
_cell_length_a   5.49821510
_cell_length_b   5.18681659
_cell_length_c   9.05168405
_cell_angle_alpha   89.99045793
_cell_angle_beta   89.99918103
_cell_angle_gamma   122.05860229
_symmetry_Int_Tables_number   1
_chemical_formula_structural   Dy3YRu7W
_chemical_formula_sum   'Dy3 Y1 Ru7 W1'
_cell_volume   218.77344023
_cell_formula_units_Z   1
loop_
 _symmetry_equiv_pos_site_id
 _symmetry_equiv_pos_as_xyz
  1  'x, y, z'
loop_
 _atom_site_type_symbol
 _atom_site_label
 _atom_site_symmetry_multiplicity
 _atom_site_fract_x
 _atom_site_fract_y
 _atom_site_fract_z
 _atom_site_occupancy
  Dy  Dy0  1  0.334844  0.669722  0.431692  1
  Dy  Dy1  1  0.334920  0.669878  0.068257  1
  Dy  Dy2  1  0.672980  0.346523  0.936910  1
  Y  Y3  1  0.672906  0.346386  0.563099  1
  Ru  Ru4  1  0.009761  0.019728  0.498309  1
  Ru  Ru5  1  0.009726  0.019616  0.001584  1
  Ru  Ru6  1  0.171533  0.818496  0.750089  1
  Ru  Ru7  1  0.647654  0.818415  0.750089  1
  Ru  Ru8  1  0.823841  0.647250  0.249952  1
  Ru  Ru9  1  0.831885  0.164300  0.249989  1
  Ru  Ru10  1  0.333036  0.164684  0.249985  1
  W  W11  1  0.156913  0.315003  0.750044  1
