# generated using pymatgen
data_U4Si2(NiRu)3
_symmetry_space_group_name_H-M   'P 1'
_cell_length_a   5.19690799
_cell_length_b   5.29255667
_cell_length_c   7.70199800
_cell_angle_alpha   90.00000000
_cell_angle_beta   90.00000000
_cell_angle_gamma   117.13523927
_symmetry_Int_Tables_number   1
_chemical_formula_structural   U4Si2(NiRu)3
_chemical_formula_sum   'U4 Si2 Ni3 Ru3'
_cell_volume   188.52588682
_cell_formula_units_Z   1
loop_
 _symmetry_equiv_pos_site_id
 _symmetry_equiv_pos_as_xyz
  1  'x, y, z'
loop_
 _atom_site_type_symbol
 _atom_site_label
 _atom_site_symmetry_multiplicity
 _atom_site_fract_x
 _atom_site_fract_y
 _atom_site_fract_z
 _atom_site_occupancy
  U  U0  1  0.661110  0.342329  0.420743  1
  U  U1  1  0.340636  0.660047  0.577872  1
  U  U2  1  0.340636  0.660047  0.922128  1
  U  U3  1  0.661110  0.342329  0.079257  1
  Si  Si4  1  0.005072  0.003347  0.997550  1
  Si  Si5  1  0.005072  0.003347  0.502450  1
  Ni  Ni6  1  0.832564  0.158800  0.750000  1
  Ni  Ni7  1  0.161302  0.839120  0.250000  1
  Ni  Ni8  1  0.336836  0.157239  0.750000  1
  Ru  Ru9  1  0.658821  0.839752  0.250000  1
  Ru  Ru10  1  0.838846  0.653588  0.750000  1
  Ru  Ru11  1  0.157995  0.340052  0.250000  1
