# generated using pymatgen
data_CrSn3Bi4F28
_symmetry_space_group_name_H-M   'P 1'
_cell_length_a   5.62320526
_cell_length_b   9.17820129
_cell_length_c   12.27374100
_cell_angle_alpha   62.02545319
_cell_angle_beta   89.68081249
_cell_angle_gamma   90.07667318
_symmetry_Int_Tables_number   1
_chemical_formula_structural   CrSn3Bi4F28
_chemical_formula_sum   'Cr1 Sn3 Bi4 F28'
_cell_volume   559.42882316
_cell_formula_units_Z   1
loop_
 _symmetry_equiv_pos_site_id
 _symmetry_equiv_pos_as_xyz
  1  'x, y, z'
loop_
 _atom_site_type_symbol
 _atom_site_label
 _atom_site_symmetry_multiplicity
 _atom_site_fract_x
 _atom_site_fract_y
 _atom_site_fract_z
 _atom_site_occupancy
  Cr  Cr0  1  0.759944  0.273272  0.957239  1
  Sn  Sn1  1  0.255872  0.728538  0.540051  1
  Sn  Sn2  1  0.243165  0.726732  0.040982  1
  Sn  Sn3  1  0.743845  0.273835  0.458005  1
  Bi  Bi4  1  0.758995  0.813806  0.763381  1
  Bi  Bi5  1  0.262581  0.187689  0.742379  1
  Bi  Bi6  1  0.236145  0.187050  0.232018  1
  Bi  Bi7  1  0.739509  0.817784  0.260108  1
  F  F8  1  0.431662  0.704787  0.911755  1
  F  F9  1  0.933560  0.291149  0.588532  1
  F  F10  1  0.570131  0.286982  0.074709  1
  F  F11  1  0.064328  0.709041  0.411403  1
  F  F12  1  0.438302  0.273696  0.544364  1
  F  F13  1  0.934246  0.722982  0.960469  1
  F  F14  1  0.564002  0.726850  0.456084  1
  F  F15  1  0.041223  0.277472  0.042004  1
  F  F16  1  0.775191  0.497832  0.868247  1
  F  F17  1  0.277769  0.484909  0.639072  1
  F  F18  1  0.224100  0.483215  0.139377  1
  F  F19  1  0.722930  0.517958  0.359981  1
  F  F20  1  0.757823  0.043596  0.049299  1
  F  F21  1  0.261526  0.975296  0.443390  1
  F  F22  1  0.241372  0.973964  0.948640  1
  F  F23  1  0.742316  0.025697  0.555956  1
  F  F24  1  0.961096  0.727014  0.632261  1
  F  F25  1  0.488478  0.268838  0.868010  1
  F  F26  1  0.038994  0.271169  0.367237  1
  F  F27  1  0.540582  0.731329  0.128173  1
  F  F28  1  0.062532  0.746317  0.174494  1
  F  F29  1  0.562576  0.254804  0.324784  1
  F  F30  1  0.942374  0.253303  0.837575  1
  F  F31  1  0.438258  0.747020  0.672846  1
  F  F32  1  0.398269  0.966432  0.226598  1
  F  F33  1  0.900069  0.033081  0.273857  1
  F  F34  1  0.593086  0.028504  0.772408  1
  F  F35  1  0.093153  0.968058  0.734310  1
