# generated using pymatgen
data_Nd3SiAuSe7
_symmetry_space_group_name_H-M   'P 1'
_cell_length_a   10.73618601
_cell_length_b   10.73783642
_cell_length_c   6.10973700
_cell_angle_alpha   90.00001437
_cell_angle_beta   90.00009492
_cell_angle_gamma   120.00651115
_symmetry_Int_Tables_number   1
_chemical_formula_structural   Nd3SiAuSe7
_chemical_formula_sum   'Nd6 Si2 Au2 Se14'
_cell_volume   609.94610218
_cell_formula_units_Z   2
loop_
 _symmetry_equiv_pos_site_id
 _symmetry_equiv_pos_as_xyz
  1  'x, y, z'
loop_
 _atom_site_type_symbol
 _atom_site_label
 _atom_site_symmetry_multiplicity
 _atom_site_fract_x
 _atom_site_fract_y
 _atom_site_fract_z
 _atom_site_occupancy
  Nd  Nd0  1  0.356107  0.126553  0.249116  1
  Nd  Nd1  1  0.770433  0.644236  0.248648  1
  Nd  Nd2  1  0.873740  0.229883  0.248311  1
  Nd  Nd3  1  0.643894  0.873448  0.749115  1
  Nd  Nd4  1  0.229567  0.355764  0.748647  1
  Nd  Nd5  1  0.126260  0.770117  0.748312  1
  Si  Si6  1  0.333061  0.666334  0.334767  1
  Si  Si7  1  0.666939  0.333665  0.834768  1
  Au  Au8  1  0.999805  0.999995  0.221384  1
  Au  Au9  1  0.000195  0.000004  0.721383  1
  Se  Se10  1  0.175594  0.271446  0.234126  1
  Se  Se11  1  0.095813  0.824454  0.234122  1
  Se  Se12  1  0.728328  0.904237  0.234447  1
  Se  Se13  1  0.667061  0.333805  0.461893  1
  Se  Se14  1  0.107928  0.522631  0.486414  1
  Se  Se15  1  0.414661  0.891535  0.486350  1
  Se  Se16  1  0.476901  0.585063  0.486423  1
  Se  Se17  1  0.271671  0.095763  0.734447  1
  Se  Se18  1  0.824405  0.728554  0.734126  1
  Se  Se19  1  0.904188  0.175548  0.734123  1
  Se  Se20  1  0.332939  0.666194  0.961893  1
  Se  Se21  1  0.892071  0.477368  0.986413  1
  Se  Se22  1  0.585339  0.108465  0.986352  1
  Se  Se23  1  0.523100  0.414937  0.986421  1
