# generated using pymatgen
data_Na2Mn3Co9P7
_symmetry_space_group_name_H-M   'P 1'
_cell_length_a   3.55758500
_cell_length_b   9.00753550
_cell_length_c   9.00753500
_cell_angle_alpha   119.99999450
_cell_angle_beta   90.00000000
_cell_angle_gamma   90.00000000
_symmetry_Int_Tables_number   1
_chemical_formula_structural   Na2Mn3Co9P7
_chemical_formula_sum   'Na2 Mn3 Co9 P7'
_cell_volume   249.97575097
_cell_formula_units_Z   1
loop_
 _symmetry_equiv_pos_site_id
 _symmetry_equiv_pos_as_xyz
  1  'x, y, z'
loop_
 _atom_site_type_symbol
 _atom_site_label
 _atom_site_symmetry_multiplicity
 _atom_site_fract_x
 _atom_site_fract_y
 _atom_site_fract_z
 _atom_site_occupancy
  Na  Na0  1  0.000000  0.666667  0.333333  1
  Na  Na1  1  0.500000  0.333333  0.666667  1
  Mn  Mn2  1  0.500000  0.776325  0.901300  1
  Mn  Mn3  1  0.500000  0.124975  0.223675  1
  Mn  Mn4  1  0.500000  0.098700  0.875025  1
  Co  Co5  1  0.000000  0.568153  0.941813  1
  Co  Co6  1  0.000000  0.373660  0.431847  1
  Co  Co7  1  0.000000  0.058187  0.626340  1
  Co  Co8  1  0.000000  0.882121  0.156883  1
  Co  Co9  1  0.000000  0.274762  0.117879  1
  Co  Co10  1  0.000000  0.843117  0.725238  1
  Co  Co11  1  0.500000  0.951779  0.387406  1
  Co  Co12  1  0.500000  0.435626  0.048221  1
  Co  Co13  1  0.500000  0.612594  0.564374  1
  P  P14  1  0.000000  0.000000  0.000000  1
  P  P15  1  0.500000  0.710435  0.116698  1
  P  P16  1  0.500000  0.406264  0.289565  1
  P  P17  1  0.500000  0.883302  0.593736  1
  P  P18  1  0.000000  0.587719  0.703642  1
  P  P19  1  0.000000  0.115923  0.412281  1
  P  P20  1  0.000000  0.296358  0.884077  1
