# generated using pymatgen
data_Ce2Pa(SnIr)3
_symmetry_space_group_name_H-M   'P 1'
_cell_length_a   7.48430238
_cell_length_b   7.48430126
_cell_length_c   4.06179800
_cell_angle_alpha   90.00000000
_cell_angle_beta   90.00000000
_cell_angle_gamma   119.17625081
_symmetry_Int_Tables_number   1
_chemical_formula_structural   Ce2Pa(SnIr)3
_chemical_formula_sum   'Ce2 Pa1 Sn3 Ir3'
_cell_volume   198.65383029
_cell_formula_units_Z   1
loop_
 _symmetry_equiv_pos_site_id
 _symmetry_equiv_pos_as_xyz
  1  'x, y, z'
loop_
 _atom_site_type_symbol
 _atom_site_label
 _atom_site_symmetry_multiplicity
 _atom_site_fract_x
 _atom_site_fract_y
 _atom_site_fract_z
 _atom_site_occupancy
  Ce  Ce0  1  0.589755  0.000421  0.000000  1
  Ce  Ce1  1  0.000421  0.589755  0.000000  1
  Pa  Pa2  1  0.413968  0.413968  0.000000  1
  Sn  Sn3  1  0.992018  0.253509  0.500000  1
  Sn  Sn4  1  0.755706  0.755706  0.500000  1
  Sn  Sn5  1  0.253509  0.992018  0.500000  1
  Ir  Ir6  1  0.015805  0.015805  0.000000  1
  Ir  Ir7  1  0.643453  0.335365  0.500000  1
  Ir  Ir8  1  0.335365  0.643453  0.500000  1
