# generated using pymatgen
data_CsNpTiTe5
_symmetry_space_group_name_H-M   'P 1'
_cell_length_a   6.23175400
_cell_length_b   8.49025700
_cell_length_c   10.59385000
_cell_angle_alpha   90.00000000
_cell_angle_beta   90.00000000
_cell_angle_gamma   90.00000000
_symmetry_Int_Tables_number   1
_chemical_formula_structural   CsNpTiTe5
_chemical_formula_sum   'Cs2 Np2 Ti2 Te10'
_cell_volume   560.51205448
_cell_formula_units_Z   2
loop_
 _symmetry_equiv_pos_site_id
 _symmetry_equiv_pos_as_xyz
  1  'x, y, z'
loop_
 _atom_site_type_symbol
 _atom_site_label
 _atom_site_symmetry_multiplicity
 _atom_site_fract_x
 _atom_site_fract_y
 _atom_site_fract_z
 _atom_site_occupancy
  Cs  Cs0  1  0.750001  0.500000  0.218086  1
  Cs  Cs1  1  0.249999  0.500000  0.781914  1
  Np  Np2  1  0.249999  0.000000  0.332840  1
  Np  Np3  1  0.750001  0.000000  0.667159  1
  Ti  Ti4  1  0.000000  0.000000  0.000000  1
  Ti  Ti5  1  0.500000  0.000000  0.000000  1
  Te  Te6  1  0.249999  0.237477  0.107955  1
  Te  Te7  1  0.249999  0.762522  0.107955  1
  Te  Te8  1  0.750001  0.000000  0.219091  1
  Te  Te9  1  0.000000  0.241283  0.500000  1
  Te  Te10  1  0.500000  0.241283  0.500000  1
  Te  Te11  1  0.000000  0.758717  0.500000  1
  Te  Te12  1  0.500000  0.758717  0.500000  1
  Te  Te13  1  0.249999  0.000000  0.780909  1
  Te  Te14  1  0.750001  0.237477  0.892044  1
  Te  Te15  1  0.750001  0.762522  0.892044  1
