# generated using pymatgen
data_CaHo(ZnGa)2
_symmetry_space_group_name_H-M   'P 1'
_cell_length_a   4.49801000
_cell_length_b   4.49800833
_cell_length_c   7.20828400
_cell_angle_alpha   90.00000000
_cell_angle_beta   90.00000000
_cell_angle_gamma   120.00001227
_symmetry_Int_Tables_number   1
_chemical_formula_structural   CaHo(ZnGa)2
_chemical_formula_sum   'Ca1 Ho1 Zn2 Ga2'
_cell_volume   126.29993856
_cell_formula_units_Z   1
loop_
 _symmetry_equiv_pos_site_id
 _symmetry_equiv_pos_as_xyz
  1  'x, y, z'
loop_
 _atom_site_type_symbol
 _atom_site_label
 _atom_site_symmetry_multiplicity
 _atom_site_fract_x
 _atom_site_fract_y
 _atom_site_fract_z
 _atom_site_occupancy
  Ca  Ca0  1  0.000000  0.000000  0.500000  1
  Ho  Ho1  1  0.000000  0.000000  0.000000  1
  Zn  Zn2  1  0.333333  0.666667  0.781975  1
  Zn  Zn3  1  0.666667  0.333333  0.218025  1
  Ga  Ga4  1  0.333333  0.666667  0.215478  1
  Ga  Ga5  1  0.666667  0.333333  0.784522  1
