# generated using pymatgen
data_Ho2AlGaRh2
_symmetry_space_group_name_H-M   'P 1'
_cell_length_a   4.25444000
_cell_length_b   6.80528741
_cell_length_c   7.86995458
_cell_angle_alpha   89.83088739
_cell_angle_beta   90.00000000
_cell_angle_gamma   90.00000000
_symmetry_Int_Tables_number   1
_chemical_formula_structural   Ho2AlGaRh2
_chemical_formula_sum   'Ho4 Al2 Ga2 Rh4'
_cell_volume   227.85533864
_cell_formula_units_Z   2
loop_
 _symmetry_equiv_pos_site_id
 _symmetry_equiv_pos_as_xyz
  1  'x, y, z'
loop_
 _atom_site_type_symbol
 _atom_site_label
 _atom_site_symmetry_multiplicity
 _atom_site_fract_x
 _atom_site_fract_y
 _atom_site_fract_z
 _atom_site_occupancy
  Ho  Ho0  1  0.250000  0.534544  0.184379  1
  Ho  Ho1  1  0.750000  0.465456  0.815621  1
  Ho  Ho2  1  0.750000  0.967240  0.678675  1
  Ho  Ho3  1  0.250000  0.032760  0.321325  1
  Al  Al4  1  0.750000  0.860321  0.061521  1
  Al  Al5  1  0.250000  0.139679  0.938479  1
  Ga  Ga6  1  0.250000  0.645845  0.562570  1
  Ga  Ga7  1  0.750000  0.354155  0.437430  1
  Rh  Rh8  1  0.250000  0.766701  0.883695  1
  Rh  Rh9  1  0.750000  0.233299  0.116305  1
  Rh  Rh10  1  0.750000  0.736178  0.376575  1
  Rh  Rh11  1  0.250000  0.263822  0.623425  1
