# generated using pymatgen
data_Tm4Co3Si4Ir
_symmetry_space_group_name_H-M   'P 1'
_cell_length_a   4.15958100
_cell_length_b   6.76266783
_cell_length_c   7.07351309
_cell_angle_alpha   90.36698025
_cell_angle_beta   90.00000000
_cell_angle_gamma   90.00000000
_symmetry_Int_Tables_number   1
_chemical_formula_structural   Tm4Co3Si4Ir
_chemical_formula_sum   'Tm4 Co3 Si4 Ir1'
_cell_volume   198.97288412
_cell_formula_units_Z   1
loop_
 _symmetry_equiv_pos_site_id
 _symmetry_equiv_pos_as_xyz
  1  'x, y, z'
loop_
 _atom_site_type_symbol
 _atom_site_label
 _atom_site_symmetry_multiplicity
 _atom_site_fract_x
 _atom_site_fract_y
 _atom_site_fract_z
 _atom_site_occupancy
  Tm  Tm0  1  0.750000  0.516939  0.812546  1
  Tm  Tm1  1  0.750000  0.008386  0.696364  1
  Tm  Tm2  1  0.250000  0.490950  0.184117  1
  Tm  Tm3  1  0.250000  0.992268  0.307009  1
  Co  Co4  1  0.750000  0.847322  0.062416  1
  Co  Co5  1  0.250000  0.648159  0.564174  1
  Co  Co6  1  0.250000  0.148321  0.933396  1
  Si  Si7  1  0.750000  0.196097  0.098670  1
  Si  Si8  1  0.750000  0.704495  0.394265  1
  Si  Si9  1  0.250000  0.803295  0.894693  1
  Si  Si10  1  0.250000  0.301212  0.617802  1
  Ir  Ir11  1  0.750000  0.342556  0.434550  1
