# generated using pymatgen
data_Tb8Hf10ZrSi16Pd
_symmetry_space_group_name_H-M   'P 1'
_cell_length_a   7.29701860
_cell_length_b   7.29701923
_cell_length_c   13.29463219
_cell_angle_alpha   89.78912319
_cell_angle_beta   90.21087675
_cell_angle_gamma   89.82302281
_symmetry_Int_Tables_number   1
_chemical_formula_structural   Tb8Hf10ZrSi16Pd
_chemical_formula_sum   'Tb8 Hf10 Zr1 Si16 Pd1'
_cell_volume   707.87943806
_cell_formula_units_Z   1
loop_
 _symmetry_equiv_pos_site_id
 _symmetry_equiv_pos_as_xyz
  1  'x, y, z'
loop_
 _atom_site_type_symbol
 _atom_site_label
 _atom_site_symmetry_multiplicity
 _atom_site_fract_x
 _atom_site_fract_y
 _atom_site_fract_z
 _atom_site_occupancy
  Tb  Tb0  1  0.998256  0.345077  0.210508  1
  Tb  Tb1  1  0.005076  0.654224  0.716904  1
  Tb  Tb2  1  0.155691  0.495041  0.464538  1
  Tb  Tb3  1  0.499520  0.848325  0.033027  1
  Tb  Tb4  1  0.848325  0.499520  0.966973  1
  Tb  Tb5  1  0.495041  0.155691  0.535462  1
  Tb  Tb6  1  0.345077  0.998256  0.789492  1
  Tb  Tb7  1  0.654224  0.005076  0.283096  1
  Hf  Hf8  1  0.322300  0.676639  0.248570  1
  Hf  Hf9  1  0.676639  0.322300  0.751430  1
  Hf  Hf10  1  0.146277  0.996153  0.373232  1
  Hf  Hf11  1  0.855667  0.003674  0.878813  1
  Hf  Hf12  1  0.503545  0.646747  0.626208  1
  Hf  Hf13  1  0.354135  0.493185  0.877943  1
  Hf  Hf14  1  0.493185  0.354135  0.122057  1
  Hf  Hf15  1  0.646747  0.503545  0.373792  1
  Hf  Hf16  1  0.996153  0.146277  0.626768  1
  Hf  Hf17  1  0.003674  0.855667  0.121187  1
  Zr  Zr18  1  0.824833  0.824833  0.500000  1
  Si  Si19  1  0.360010  0.295835  0.315360  1
  Si  Si20  1  0.638766  0.704978  0.819396  1
  Si  Si21  1  0.207797  0.862023  0.568258  1
  Si  Si22  1  0.133554  0.781916  0.929647  1
  Si  Si23  1  0.781916  0.133554  0.070353  1
  Si  Si24  1  0.862023  0.207797  0.431742  1
  Si  Si25  1  0.295835  0.360010  0.684640  1
  Si  Si26  1  0.704978  0.638766  0.180604  1
  Si  Si27  1  0.292416  0.054860  0.185401  1
  Si  Si28  1  0.704530  0.950605  0.687628  1
  Si  Si29  1  0.449012  0.795455  0.435024  1
  Si  Si30  1  0.209403  0.560768  0.063735  1
  Si  Si31  1  0.560768  0.209403  0.936265  1
  Si  Si32  1  0.795455  0.449012  0.564976  1
  Si  Si33  1  0.054860  0.292416  0.814599  1
  Si  Si34  1  0.950605  0.704530  0.312372  1
  Pd  Pd35  1  0.173705  0.173705  0.000000  1
