# generated using pymatgen
data_K3Mo3(PO4)4
_symmetry_space_group_name_H-M   'P 1'
_cell_length_a   9.98510400
_cell_length_b   9.84603768
_cell_length_c   18.79062800
_cell_angle_alpha   58.76547761
_cell_angle_beta   90.00000000
_cell_angle_gamma   90.00000000
_symmetry_Int_Tables_number   1
_chemical_formula_structural   K3Mo3(PO4)4
_chemical_formula_sum   'K12 Mo12 P16 O64'
_cell_volume   1579.60280856
_cell_formula_units_Z   4
loop_
 _symmetry_equiv_pos_site_id
 _symmetry_equiv_pos_as_xyz
  1  'x, y, z'
loop_
 _atom_site_type_symbol
 _atom_site_label
 _atom_site_symmetry_multiplicity
 _atom_site_fract_x
 _atom_site_fract_y
 _atom_site_fract_z
 _atom_site_occupancy
  K  K0  1  0.284932  0.768379  0.218494  1
  K  K1  1  0.215068  0.768379  0.718494  1
  K  K2  1  0.118599  0.955893  0.366874  1
  K  K3  1  0.618599  0.044107  0.133126  1
  K  K4  1  0.528965  0.456480  0.885918  1
  K  K5  1  0.971035  0.456480  0.385918  1
  K  K6  1  0.471035  0.543520  0.114082  1
  K  K7  1  0.715068  0.231621  0.781506  1
  K  K8  1  0.881401  0.044107  0.633126  1
  K  K9  1  0.028965  0.543520  0.614082  1
  K  K10  1  0.381401  0.955893  0.866874  1
  K  K11  1  0.784932  0.231621  0.281506  1
  Mo  Mo12  1  0.426421  0.762952  0.489029  1
  Mo  Mo13  1  0.723900  0.812186  0.365575  1
  Mo  Mo14  1  0.073579  0.762952  0.989029  1
  Mo  Mo15  1  0.926421  0.237048  0.010971  1
  Mo  Mo16  1  0.848929  0.653578  0.165160  1
  Mo  Mo17  1  0.276100  0.187814  0.634425  1
  Mo  Mo18  1  0.151071  0.346422  0.834840  1
  Mo  Mo19  1  0.651071  0.653578  0.665160  1
  Mo  Mo20  1  0.776100  0.812186  0.865575  1
  Mo  Mo21  1  0.573579  0.237048  0.510971  1
  Mo  Mo22  1  0.223900  0.187814  0.134425  1
  Mo  Mo23  1  0.348929  0.346422  0.334840  1
  P  P24  1  0.723309  0.934467  0.508491  1
  P  P25  1  0.890245  0.561480  0.803145  1
  P  P26  1  0.963979  0.923451  0.215674  1
  P  P27  1  0.463979  0.076549  0.284326  1
  P  P28  1  0.109755  0.438520  0.196855  1
  P  P29  1  0.223309  0.065533  0.991509  1
  P  P30  1  0.218670  0.470519  0.974359  1
  P  P31  1  0.536021  0.923451  0.715674  1
  P  P32  1  0.609755  0.561480  0.303145  1
  P  P33  1  0.776691  0.934467  0.008491  1
  P  P34  1  0.718670  0.529481  0.525641  1
  P  P35  1  0.036021  0.076549  0.784326  1
  P  P36  1  0.781330  0.529481  0.025641  1
  P  P37  1  0.390245  0.438520  0.696855  1
  P  P38  1  0.276691  0.065533  0.491509  1
  P  P39  1  0.281330  0.470519  0.474359  1
  O  O40  1  0.204872  0.645962  0.947931  1
  O  O41  1  0.097887  0.356641  0.028739  1
  O  O42  1  0.893053  0.927076  0.288654  1
  O  O43  1  0.397176  0.956273  0.366794  1
  O  O44  1  0.196752  0.166465  0.408654  1
  O  O45  1  0.112593  0.970201  0.216911  1
  O  O46  1  0.234516  0.490757  0.226771  1
  O  O47  1  0.134923  0.270870  0.210873  1
  O  O48  1  0.836133  0.606628  0.461067  1
  O  O49  1  0.163867  0.393372  0.538933  1
  O  O50  1  0.086635  0.561411  0.105240  1
  O  O51  1  0.696752  0.833535  0.091346  1
  O  O52  1  0.080167  0.148642  0.963056  1
  O  O53  1  0.919833  0.851358  0.036944  1
  O  O54  1  0.542951  0.753878  0.729060  1
  O  O55  1  0.612593  0.029799  0.283089  1
  O  O56  1  0.704872  0.354038  0.552069  1
  O  O57  1  0.718427  0.924709  0.935156  1
  O  O58  1  0.102824  0.956273  0.866794  1
  O  O59  1  0.265484  0.490757  0.726771  1
  O  O60  1  0.602824  0.043727  0.633206  1
  O  O61  1  0.457049  0.246122  0.270940  1
  O  O62  1  0.281573  0.075291  0.064844  1
  O  O63  1  0.277641  0.888120  0.517953  1
  O  O64  1  0.781573  0.924709  0.435156  1
  O  O65  1  0.865077  0.729130  0.789127  1
  O  O66  1  0.734516  0.509243  0.273229  1
  O  O67  1  0.663867  0.606628  0.961067  1
  O  O68  1  0.897176  0.043727  0.133206  1
  O  O69  1  0.902113  0.643359  0.971261  1
  O  O70  1  0.981750  0.442186  0.243187  1
  O  O71  1  0.303248  0.166465  0.908654  1
  O  O72  1  0.365077  0.270870  0.710873  1
  O  O73  1  0.597887  0.643359  0.471261  1
  O  O74  1  0.258056  0.465059  0.394581  1
  O  O75  1  0.606947  0.927076  0.788654  1
  O  O76  1  0.241944  0.465059  0.894581  1
  O  O77  1  0.222359  0.888120  0.017953  1
  O  O78  1  0.481750  0.557814  0.256813  1
  O  O79  1  0.393053  0.072924  0.211346  1
  O  O80  1  0.387407  0.970201  0.716911  1
  O  O81  1  0.218427  0.075291  0.564844  1
  O  O82  1  0.413365  0.561411  0.605240  1
  O  O83  1  0.042951  0.246122  0.770940  1
  O  O84  1  0.765484  0.509243  0.773229  1
  O  O85  1  0.402113  0.356641  0.528739  1
  O  O86  1  0.913365  0.438589  0.894760  1
  O  O87  1  0.106947  0.072924  0.711346  1
  O  O88  1  0.295128  0.645962  0.447931  1
  O  O89  1  0.758056  0.534941  0.105419  1
  O  O90  1  0.887407  0.029799  0.783089  1
  O  O91  1  0.634923  0.729130  0.289127  1
  O  O92  1  0.777641  0.111880  0.982047  1
  O  O93  1  0.419833  0.148642  0.463056  1
  O  O94  1  0.795128  0.354038  0.052069  1
  O  O95  1  0.518250  0.442186  0.743187  1
  O  O96  1  0.741944  0.534941  0.605419  1
  O  O97  1  0.722359  0.111880  0.482047  1
  O  O98  1  0.957049  0.753878  0.229060  1
  O  O99  1  0.586635  0.438589  0.394760  1
  O  O100  1  0.580167  0.851358  0.536944  1
  O  O101  1  0.018250  0.557814  0.756813  1
  O  O102  1  0.336133  0.393372  0.038933  1
  O  O103  1  0.803248  0.833535  0.591346  1
