# generated using pymatgen
data_YHoPa2(InPd2)2
_symmetry_space_group_name_H-M   'P 1'
_cell_length_a   7.88920699
_cell_length_b   7.74795280
_cell_length_c   3.65238000
_cell_angle_alpha   90.00000000
_cell_angle_beta   90.00000000
_cell_angle_gamma   90.19132373
_symmetry_Int_Tables_number   1
_chemical_formula_structural   YHoPa2(InPd2)2
_chemical_formula_sum   'Y1 Ho1 Pa2 In2 Pd4'
_cell_volume   223.25122581
_cell_formula_units_Z   1
loop_
 _symmetry_equiv_pos_site_id
 _symmetry_equiv_pos_as_xyz
  1  'x, y, z'
loop_
 _atom_site_type_symbol
 _atom_site_label
 _atom_site_symmetry_multiplicity
 _atom_site_fract_x
 _atom_site_fract_y
 _atom_site_fract_z
 _atom_site_occupancy
  Y  Y0  1  0.173829  0.325873  0.500000  1
  Ho  Ho1  1  0.673762  0.174021  0.500000  1
  Pa  Pa2  1  0.328728  0.831908  0.500000  1
  Pa  Pa3  1  0.828533  0.668156  0.500000  1
  In  In4  1  0.996675  0.006843  0.000000  1
  In  In5  1  0.497091  0.493044  0.000000  1
  Pd  Pd6  1  0.372822  0.113405  0.000000  1
  Pd  Pd7  1  0.870758  0.385881  0.000000  1
  Pd  Pd8  1  0.128751  0.643489  0.000000  1
  Pd  Pd9  1  0.629049  0.857381  0.000000  1
