# generated using pymatgen
data_Dy9Y8Lu3Sn16
_symmetry_space_group_name_H-M   'P 1'
_cell_length_a   8.00951600
_cell_length_b   8.15769156
_cell_length_c   15.45575600
_cell_angle_alpha   90.00000000
_cell_angle_beta   90.00000000
_cell_angle_gamma   89.96408805
_symmetry_Int_Tables_number   1
_chemical_formula_structural   Dy9Y8Lu3Sn16
_chemical_formula_sum   'Dy9 Y8 Lu3 Sn16'
_cell_volume   1009.86593306
_cell_formula_units_Z   1
loop_
 _symmetry_equiv_pos_site_id
 _symmetry_equiv_pos_as_xyz
  1  'x, y, z'
loop_
 _atom_site_type_symbol
 _atom_site_label
 _atom_site_symmetry_multiplicity
 _atom_site_fract_x
 _atom_site_fract_y
 _atom_site_fract_z
 _atom_site_occupancy
  Dy  Dy0  1  0.367403  0.836557  0.877652  1
  Dy  Dy1  1  0.867409  0.663428  0.622126  1
  Dy  Dy2  1  0.633069  0.163820  0.378015  1
  Dy  Dy3  1  0.132277  0.336779  0.121996  1
  Dy  Dy4  1  0.633069  0.163820  0.121985  1
  Dy  Dy5  1  0.132277  0.336779  0.378004  1
  Dy  Dy6  1  0.367403  0.836557  0.622348  1
  Dy  Dy7  1  0.867409  0.663428  0.877874  1
  Dy  Dy8  1  0.301709  0.002757  0.250000  1
  Y  Y9  1  0.522148  0.320851  0.902264  1
  Y  Y10  1  0.022228  0.179131  0.597871  1
  Y  Y11  1  0.478097  0.678918  0.402347  1
  Y  Y12  1  0.977648  0.820593  0.097658  1
  Y  Y13  1  0.478097  0.678918  0.097653  1
  Y  Y14  1  0.977648  0.820593  0.402342  1
  Y  Y15  1  0.522148  0.320851  0.597736  1
  Y  Y16  1  0.022228  0.179131  0.902129  1
  Lu  Lu17  1  0.198533  0.503003  0.750000  1
  Lu  Lu18  1  0.698548  0.997020  0.750000  1
  Lu  Lu19  1  0.801269  0.496794  0.250000  1
  Sn  Sn20  1  0.292628  0.035119  0.041807  1
  Sn  Sn21  1  0.792652  0.465152  0.457532  1
  Sn  Sn22  1  0.707360  0.965204  0.542608  1
  Sn  Sn23  1  0.207430  0.534938  0.957396  1
  Sn  Sn24  1  0.707360  0.965204  0.957392  1
  Sn  Sn25  1  0.207430  0.534938  0.542604  1
  Sn  Sn26  1  0.292628  0.035119  0.458193  1
  Sn  Sn27  1  0.792652  0.465152  0.042468  1
  Sn  Sn28  1  0.564151  0.619244  0.750000  1
  Sn  Sn29  1  0.063893  0.880606  0.750000  1
  Sn  Sn30  1  0.436284  0.381458  0.250000  1
  Sn  Sn31  1  0.934326  0.120061  0.250000  1
  Sn  Sn32  1  0.330889  0.148758  0.750000  1
  Sn  Sn33  1  0.830631  0.351603  0.750000  1
  Sn  Sn34  1  0.670123  0.851187  0.250000  1
  Sn  Sn35  1  0.168949  0.646531  0.250000  1
