# generated using pymatgen
data_Zr6Al16Co2Cu3Ni2
_symmetry_space_group_name_H-M   'P 1'
_cell_length_a   8.58152626
_cell_length_b   8.58906084
_cell_length_c   8.60346612
_cell_angle_alpha   59.84993403
_cell_angle_beta   59.76249264
_cell_angle_gamma   59.81092727
_symmetry_Int_Tables_number   1
_chemical_formula_structural   Zr6Al16Co2Cu3Ni2
_chemical_formula_sum   'Zr6 Al16 Co2 Cu3 Ni2'
_cell_volume   446.44614857
_cell_formula_units_Z   1
loop_
 _symmetry_equiv_pos_site_id
 _symmetry_equiv_pos_as_xyz
  1  'x, y, z'
loop_
 _atom_site_type_symbol
 _atom_site_label
 _atom_site_symmetry_multiplicity
 _atom_site_fract_x
 _atom_site_fract_y
 _atom_site_fract_z
 _atom_site_occupancy
  Zr  Zr0  1  0.688724  0.310134  0.312029  1
  Zr  Zr1  1  0.697245  0.302733  0.696186  1
  Zr  Zr2  1  0.693214  0.694325  0.306731  1
  Zr  Zr3  1  0.311276  0.689866  0.687971  1
  Zr  Zr4  1  0.302755  0.697267  0.303814  1
  Zr  Zr5  1  0.306786  0.305675  0.693269  1
  Al  Al6  1  0.646786  0.119976  0.123321  1
  Al  Al7  1  0.121557  0.648186  0.111109  1
  Al  Al8  1  0.126660  0.112602  0.648002  1
  Al  Al9  1  0.113898  0.122547  0.113818  1
  Al  Al10  1  0.353214  0.880024  0.876679  1
  Al  Al11  1  0.878443  0.351814  0.888891  1
  Al  Al12  1  0.873340  0.887398  0.351998  1
  Al  Al13  1  0.886102  0.877453  0.886182  1
  Al  Al14  1  0.001633  0.335384  0.329328  1
  Al  Al15  1  0.336472  0.001766  0.334588  1
  Al  Al16  1  0.332950  0.336576  0.999266  1
  Al  Al17  1  0.337607  0.330783  0.332462  1
  Al  Al18  1  0.998367  0.664616  0.670672  1
  Al  Al19  1  0.663528  0.998234  0.665412  1
  Al  Al20  1  0.667050  0.663424  0.000734  1
  Al  Al21  1  0.662393  0.669217  0.667538  1
  Co  Co22  1  0.000000  0.000000  0.000000  1
  Co  Co23  1  0.500000  0.000000  0.500000  1
  Cu  Cu24  1  0.500000  0.000000  0.000000  1
  Cu  Cu25  1  0.000000  0.500000  0.500000  1
  Cu  Cu26  1  0.000000  0.000000  0.500000  1
  Ni  Ni27  1  0.500000  0.500000  0.000000  1
  Ni  Ni28  1  0.000000  0.500000  0.000000  1
