# generated using pymatgen
data_EuTmZr2(NiAs)4
_symmetry_space_group_name_H-M   'P 1'
_cell_length_a   4.01892400
_cell_length_b   4.01892462
_cell_length_c   15.14570200
_cell_angle_alpha   90.00000000
_cell_angle_beta   90.00000000
_cell_angle_gamma   119.99999487
_symmetry_Int_Tables_number   1
_chemical_formula_structural   EuTmZr2(NiAs)4
_chemical_formula_sum   'Eu1 Tm1 Zr2 Ni4 As4'
_cell_volume   211.85548681
_cell_formula_units_Z   1
loop_
 _symmetry_equiv_pos_site_id
 _symmetry_equiv_pos_as_xyz
  1  'x, y, z'
loop_
 _atom_site_type_symbol
 _atom_site_label
 _atom_site_symmetry_multiplicity
 _atom_site_fract_x
 _atom_site_fract_y
 _atom_site_fract_z
 _atom_site_occupancy
  Eu  Eu0  1  0.000000  0.000000  0.000000  1
  Tm  Tm1  1  0.000000  0.000000  0.500000  1
  Zr  Zr2  1  0.000000  0.000000  0.254326  1
  Zr  Zr3  1  0.000000  0.000000  0.745674  1
  Ni  Ni4  1  0.333333  0.666667  0.164725  1
  Ni  Ni5  1  0.666667  0.333333  0.835275  1
  Ni  Ni6  1  0.666667  0.333333  0.648375  1
  Ni  Ni7  1  0.333333  0.666667  0.351625  1
  As  As8  1  0.333333  0.666667  0.617783  1
  As  As9  1  0.666667  0.333333  0.382217  1
  As  As10  1  0.666667  0.333333  0.131231  1
  As  As11  1  0.333333  0.666667  0.868769  1
