# generated using pymatgen
data_AcYb2Pt9
_symmetry_space_group_name_H-M   'P 1'
_cell_length_a   9.39361593
_cell_length_b   9.39361607
_cell_length_c   9.39361538
_cell_angle_alpha   33.86373223
_cell_angle_beta   33.86373092
_cell_angle_gamma   33.86373082
_symmetry_Int_Tables_number   1
_chemical_formula_structural   AcYb2Pt9
_chemical_formula_sum   'Ac1 Yb2 Pt9'
_cell_volume   229.35796404
_cell_formula_units_Z   1
loop_
 _symmetry_equiv_pos_site_id
 _symmetry_equiv_pos_as_xyz
  1  'x, y, z'
loop_
 _atom_site_type_symbol
 _atom_site_label
 _atom_site_symmetry_multiplicity
 _atom_site_fract_x
 _atom_site_fract_y
 _atom_site_fract_z
 _atom_site_occupancy
  Ac  Ac0  1  0.000000  0.000000  0.000000  1
  Yb  Yb1  1  0.142826  0.142826  0.142826  1
  Yb  Yb2  1  0.857174  0.857174  0.857174  1
  Pt  Pt3  1  0.587415  0.587415  0.082852  1
  Pt  Pt4  1  0.332112  0.332112  0.332112  1
  Pt  Pt5  1  0.917149  0.412584  0.412585  1
  Pt  Pt6  1  0.412584  0.917149  0.412585  1
  Pt  Pt7  1  0.500000  0.500000  0.500000  1
  Pt  Pt8  1  0.587416  0.082851  0.587415  1
  Pt  Pt9  1  0.082851  0.587416  0.587415  1
  Pt  Pt10  1  0.667888  0.667888  0.667888  1
  Pt  Pt11  1  0.412585  0.412585  0.917149  1
