# generated using pymatgen
data_LiZr2MoPd12
_symmetry_space_group_name_H-M   'P 1'
_cell_length_a   5.64261600
_cell_length_b   5.64261704
_cell_length_c   9.17455700
_cell_angle_alpha   90.00000000
_cell_angle_beta   90.00000000
_cell_angle_gamma   119.99999391
_symmetry_Int_Tables_number   1
_chemical_formula_structural   LiZr2MoPd12
_chemical_formula_sum   'Li1 Zr2 Mo1 Pd12'
_cell_volume   252.97455089
_cell_formula_units_Z   1
loop_
 _symmetry_equiv_pos_site_id
 _symmetry_equiv_pos_as_xyz
  1  'x, y, z'
loop_
 _atom_site_type_symbol
 _atom_site_label
 _atom_site_symmetry_multiplicity
 _atom_site_fract_x
 _atom_site_fract_y
 _atom_site_fract_z
 _atom_site_occupancy
  Li  Li0  1  0.333333  0.666667  0.249679  1
  Zr  Zr1  1  0.000000  0.000000  0.003696  1
  Zr  Zr2  1  0.666667  0.333333  0.752306  1
  Mo  Mo3  1  0.000000  0.000000  0.492316  1
  Pd  Pd4  1  0.499772  0.500228  0.499015  1
  Pd  Pd5  1  0.499772  0.999544  0.499015  1
  Pd  Pd6  1  0.000456  0.500228  0.499015  1
  Pd  Pd7  1  0.499648  0.500352  0.001549  1
  Pd  Pd8  1  0.499648  0.999295  0.001549  1
  Pd  Pd9  1  0.000705  0.500352  0.001549  1
  Pd  Pd10  1  0.832874  0.167126  0.254816  1
  Pd  Pd11  1  0.832874  0.665748  0.254816  1
  Pd  Pd12  1  0.334252  0.167126  0.254816  1
  Pd  Pd13  1  0.166970  0.833030  0.745287  1
  Pd  Pd14  1  0.166970  0.333942  0.745287  1
  Pd  Pd15  1  0.666058  0.833030  0.745287  1
