# generated using pymatgen
data_Ho4B16IrRu15
_symmetry_space_group_name_H-M   'P 1'
_cell_length_a   9.19861844
_cell_length_b   7.48496590
_cell_length_c   7.48956776
_cell_angle_alpha   89.87307297
_cell_angle_beta   113.97120793
_cell_angle_gamma   114.03716048
_symmetry_Int_Tables_number   1
_chemical_formula_structural   Ho4B16IrRu15
_chemical_formula_sum   'Ho4 B16 Ir1 Ru15'
_cell_volume   422.01269904
_cell_formula_units_Z   1
loop_
 _symmetry_equiv_pos_site_id
 _symmetry_equiv_pos_as_xyz
  1  'x, y, z'
loop_
 _atom_site_type_symbol
 _atom_site_label
 _atom_site_symmetry_multiplicity
 _atom_site_fract_x
 _atom_site_fract_y
 _atom_site_fract_z
 _atom_site_occupancy
  Ho  Ho0  1  0.749983  0.874497  0.125216  1
  Ho  Ho1  1  0.251147  0.625533  0.375397  1
  Ho  Ho2  1  0.748906  0.374038  0.623171  1
  Ho  Ho3  1  0.249057  0.124560  0.874410  1
  B  B4  1  0.912646  0.284798  0.067371  1
  B  B5  1  0.413286  0.567146  0.125209  1
  B  B6  1  0.087094  0.211430  0.153649  1
  B  B7  1  0.585847  0.153026  0.210617  1
  B  B8  1  0.412652  0.066578  0.288212  1
  B  B9  1  0.913675  0.625349  0.349357  1
  B  B10  1  0.586275  0.653255  0.375091  1
  B  B11  1  0.087481  0.876459  0.434943  1
  B  B12  1  0.913729  0.125098  0.566966  1
  B  B13  1  0.413692  0.346827  0.624245  1
  B  B14  1  0.086891  0.374947  0.654020  1
  B  B15  1  0.586912  0.933481  0.711454  1
  B  B16  1  0.413979  0.847084  0.789139  1
  B  B17  1  0.913743  0.790237  0.846795  1
  B  B18  1  0.583953  0.431532  0.874654  1
  B  B19  1  0.087758  0.712815  0.932929  1
  Ir  Ir20  1  0.874735  0.551506  0.036755  1
  Ru  Ru21  1  0.373790  0.835614  0.051717  1
  Ru  Ru22  1  0.126101  0.947935  0.164738  1
  Ru  Ru23  1  0.627058  0.462248  0.178221  1
  Ru  Ru24  1  0.373617  0.335012  0.320856  1
  Ru  Ru25  1  0.873249  0.321539  0.335506  1
  Ru  Ru26  1  0.626590  0.962375  0.447766  1
  Ru  Ru27  1  0.126707  0.178872  0.461613  1
  Ru  Ru28  1  0.873139  0.821379  0.538447  1
  Ru  Ru29  1  0.373791  0.037637  0.552254  1
  Ru  Ru30  1  0.126742  0.678526  0.664357  1
  Ru  Ru31  1  0.625431  0.665265  0.677005  1
  Ru  Ru32  1  0.373541  0.538110  0.821918  1
  Ru  Ru33  1  0.873045  0.052073  0.835005  1
  Ru  Ru34  1  0.626880  0.165232  0.949112  1
  Ru  Ru35  1  0.126873  0.447991  0.961879  1
