# generated using pymatgen
data_Tb3HoCS3
_symmetry_space_group_name_H-M   'P 1'
_cell_length_a   6.75117549
_cell_length_b   6.75117587
_cell_length_c   6.74118700
_cell_angle_alpha   79.73425288
_cell_angle_beta   79.73425229
_cell_angle_gamma   32.72521087
_symmetry_Int_Tables_number   1
_chemical_formula_structural   Tb3HoCS3
_chemical_formula_sum   'Tb3 Ho1 C1 S3'
_cell_volume   163.21357091
_cell_formula_units_Z   1
loop_
 _symmetry_equiv_pos_site_id
 _symmetry_equiv_pos_as_xyz
  1  'x, y, z'
loop_
 _atom_site_type_symbol
 _atom_site_label
 _atom_site_symmetry_multiplicity
 _atom_site_fract_x
 _atom_site_fract_y
 _atom_site_fract_z
 _atom_site_occupancy
  Tb  Tb0  1  0.234274  0.234274  0.231371  1
  Tb  Tb1  1  0.508981  0.508981  0.467809  1
  Tb  Tb2  1  0.740815  0.740815  0.781815  1
  Ho  Ho3  1  0.015863  0.015863  0.018767  1
  C  C4  1  0.624227  0.624227  0.124045  1
  S  S5  1  0.869567  0.869567  0.375983  1
  S  S6  1  0.124398  0.124398  0.626547  1
  S  S7  1  0.381873  0.381873  0.873664  1
