# generated using pymatgen
data_LiLa(CuO2)4
_symmetry_space_group_name_H-M   'P 1'
_cell_length_a   6.28768600
_cell_length_b   6.28768641
_cell_length_c   6.28768622
_cell_angle_alpha   124.69492795
_cell_angle_beta   124.69492904
_cell_angle_gamma   82.04394210
_symmetry_Int_Tables_number   1
_chemical_formula_structural   LiLa(CuO2)4
_chemical_formula_sum   'Li1 La1 Cu4 O8'
_cell_volume   161.58703172
_cell_formula_units_Z   1
loop_
 _symmetry_equiv_pos_site_id
 _symmetry_equiv_pos_as_xyz
  1  'x, y, z'
loop_
 _atom_site_type_symbol
 _atom_site_label
 _atom_site_symmetry_multiplicity
 _atom_site_fract_x
 _atom_site_fract_y
 _atom_site_fract_z
 _atom_site_occupancy
  Li  Li0  1  0.000000  0.000000  0.000000  1
  La  La1  1  0.750000  0.250000  0.500000  1
  Cu  Cu2  1  0.374648  0.629553  0.252566  1
  Cu  Cu3  1  0.376986  0.122081  0.747434  1
  Cu  Cu4  1  0.370447  0.623014  0.745095  1
  Cu  Cu5  1  0.877919  0.625352  0.254905  1
  O  O6  1  0.725383  0.303899  0.126231  1
  O  O7  1  0.177667  0.599152  0.873769  1
  O  O8  1  0.028783  0.938944  0.365837  1
  O  O9  1  0.573107  0.662946  0.634163  1
  O  O10  1  0.061056  0.426893  0.089839  1
  O  O11  1  0.337054  0.971217  0.910161  1
  O  O12  1  0.400848  0.274617  0.578515  1
  O  O13  1  0.696101  0.822333  0.421485  1
