# generated using pymatgen
data_CeNp2(SnRh)3
_symmetry_space_group_name_H-M   'P 1'
_cell_length_a   7.39196000
_cell_length_b   7.47747599
_cell_length_c   4.06638200
_cell_angle_alpha   90.00000000
_cell_angle_beta   90.00000000
_cell_angle_gamma   119.62239999
_symmetry_Int_Tables_number   1
_chemical_formula_structural   CeNp2(SnRh)3
_chemical_formula_sum   'Ce1 Np2 Sn3 Rh3'
_cell_volume   195.38596579
_cell_formula_units_Z   1
loop_
 _symmetry_equiv_pos_site_id
 _symmetry_equiv_pos_as_xyz
  1  'x, y, z'
loop_
 _atom_site_type_symbol
 _atom_site_label
 _atom_site_symmetry_multiplicity
 _atom_site_fract_x
 _atom_site_fract_y
 _atom_site_fract_z
 _atom_site_occupancy
  Ce  Ce0  1  0.412644  0.000000  0.000000  1
  Np  Np1  1  0.003872  0.422478  0.000000  1
  Np  Np2  1  0.581393  0.577522  0.000000  1
  Sn  Sn3  1  0.250606  0.252445  0.500000  1
  Sn  Sn4  1  0.998161  0.747555  0.500000  1
  Sn  Sn5  1  0.747253  0.000000  0.500000  1
  Rh  Rh6  1  0.672728  0.339636  0.500000  1
  Rh  Rh7  1  0.333091  0.660364  0.500000  1
  Rh  Rh8  1  0.000252  0.000000  0.000000  1
