# generated using pymatgen
data_ThTe16
_symmetry_space_group_name_H-M   'P 1'
_cell_length_a   4.46669620
_cell_length_b   4.46669574
_cell_length_c   34.84617866
_cell_angle_alpha   86.32529935
_cell_angle_beta   86.32530017
_cell_angle_gamma   60.00000229
_symmetry_Int_Tables_number   1
_chemical_formula_structural   ThTe16
_chemical_formula_sum   'Th1 Te16'
_cell_volume   600.43500636
_cell_formula_units_Z   1
loop_
 _symmetry_equiv_pos_site_id
 _symmetry_equiv_pos_as_xyz
  1  'x, y, z'
loop_
 _atom_site_type_symbol
 _atom_site_label
 _atom_site_symmetry_multiplicity
 _atom_site_fract_x
 _atom_site_fract_y
 _atom_site_fract_z
 _atom_site_occupancy
  Th  Th0  1  0.000000  0.000000  0.000000  1
  Te  Te1  1  0.283629  0.283629  0.149114  1
  Te  Te2  1  0.716371  0.716371  0.850886  1
  Te  Te3  1  0.229076  0.229076  0.312772  1
  Te  Te4  1  0.770924  0.770924  0.687228  1
  Te  Te5  1  0.472443  0.472443  0.582670  1
  Te  Te6  1  0.527557  0.527557  0.417330  1
  Te  Te7  1  0.350523  0.350523  0.948430  1
  Te  Te8  1  0.649477  0.649477  0.051570  1
  Te  Te9  1  0.065800  0.065800  0.802599  1
  Te  Te10  1  0.934200  0.934200  0.197401  1
  Te  Te11  1  0.416351  0.416351  0.750949  1
  Te  Te12  1  0.583649  0.583649  0.249051  1
  Te  Te13  1  0.120933  0.120933  0.637200  1
  Te  Te14  1  0.879067  0.879067  0.362800  1
  Te  Te15  1  0.175040  0.175040  0.474879  1
  Te  Te16  1  0.824960  0.824960  0.525121  1
