# generated using pymatgen
data_Th4Np3IrN12
_symmetry_space_group_name_H-M   'P 1'
_cell_length_a   5.80068753
_cell_length_b   5.92021027
_cell_length_c   8.32829453
_cell_angle_alpha   89.15513238
_cell_angle_beta   89.99278740
_cell_angle_gamma   89.47297598
_symmetry_Int_Tables_number   1
_chemical_formula_structural   Th4Np3IrN12
_chemical_formula_sum   'Th4 Np3 Ir1 N12'
_cell_volume   285.96118596
_cell_formula_units_Z   1
loop_
 _symmetry_equiv_pos_site_id
 _symmetry_equiv_pos_as_xyz
  1  'x, y, z'
loop_
 _atom_site_type_symbol
 _atom_site_label
 _atom_site_symmetry_multiplicity
 _atom_site_fract_x
 _atom_site_fract_y
 _atom_site_fract_z
 _atom_site_occupancy
  Th  Th0  1  0.505622  0.542878  0.231564  1
  Th  Th1  1  0.986890  0.061944  0.232612  1
  Th  Th2  1  0.494378  0.457122  0.768436  1
  Th  Th3  1  0.013110  0.938056  0.767388  1
  Np  Np4  1  0.500000  0.000000  0.500000  1
  Np  Np5  1  0.000000  0.500000  0.500000  1
  Np  Np6  1  0.500000  0.000000  0.000000  1
  Ir  Ir7  1  0.000000  0.500000  0.000000  1
  N  N8  1  0.382634  0.961081  0.252645  1
  N  N9  1  0.099614  0.468693  0.251877  1
  N  N10  1  0.617366  0.038919  0.747355  1
  N  N11  1  0.900386  0.531307  0.748123  1
  N  N12  1  0.795053  0.795889  0.039424  1
  N  N13  1  0.699372  0.306919  0.430455  1
  N  N14  1  0.206531  0.190311  0.567824  1
  N  N15  1  0.296188  0.701890  0.954110  1
  N  N16  1  0.204947  0.204111  0.960576  1
  N  N17  1  0.300628  0.693081  0.569545  1
  N  N18  1  0.793469  0.809689  0.432176  1
  N  N19  1  0.703812  0.298110  0.045890  1
