# generated using pymatgen
data_Gd3In2(SnIr)2
_symmetry_space_group_name_H-M   'P 1'
_cell_length_a   7.75824200
_cell_length_b   7.77873916
_cell_length_c   3.93303000
_cell_angle_alpha   90.00000000
_cell_angle_beta   90.00000000
_cell_angle_gamma   119.99697579
_symmetry_Int_Tables_number   1
_chemical_formula_structural   Gd3In2(SnIr)2
_chemical_formula_sum   'Gd3 In2 Sn2 Ir2'
_cell_volume   205.56238862
_cell_formula_units_Z   1
loop_
 _symmetry_equiv_pos_site_id
 _symmetry_equiv_pos_as_xyz
  1  'x, y, z'
loop_
 _atom_site_type_symbol
 _atom_site_label
 _atom_site_symmetry_multiplicity
 _atom_site_fract_x
 _atom_site_fract_y
 _atom_site_fract_z
 _atom_site_occupancy
  Gd  Gd0  1  0.052808  0.304501  0.500000  1
  Gd  Gd1  1  0.693790  0.744674  0.500000  1
  Gd  Gd2  1  0.253992  0.951884  0.500000  1
  In  In3  1  0.410937  0.330339  0.000000  1
  In  In4  1  0.333308  0.666508  0.000000  1
  Sn  Sn5  1  0.667658  0.082537  0.000000  1
  Sn  Sn6  1  0.916809  0.587927  0.000000  1
  Ir  Ir7  1  0.674217  0.334502  0.500000  1
  Ir  Ir8  1  0.996480  0.997129  0.000000  1
