# generated using pymatgen
data_Dy4P3Se
_symmetry_space_group_name_H-M   'P 1'
_cell_length_a   6.96462914
_cell_length_b   6.96462739
_cell_length_c   6.95981300
_cell_angle_alpha   80.27858138
_cell_angle_beta   80.27858383
_cell_angle_gamma   33.57795769
_symmetry_Int_Tables_number   1
_chemical_formula_structural   Dy4P3Se
_chemical_formula_sum   'Dy4 P3 Se1'
_cell_volume   183.78581398
_cell_formula_units_Z   1
loop_
 _symmetry_equiv_pos_site_id
 _symmetry_equiv_pos_as_xyz
  1  'x, y, z'
loop_
 _atom_site_type_symbol
 _atom_site_label
 _atom_site_symmetry_multiplicity
 _atom_site_fract_x
 _atom_site_fract_y
 _atom_site_fract_z
 _atom_site_occupancy
  Dy  Dy0  1  0.248304  0.248304  0.259988  1
  Dy  Dy1  1  0.501660  0.501660  0.490021  1
  Dy  Dy2  1  0.743135  0.743135  0.741463  1
  Dy  Dy3  1  0.006885  0.006885  0.008549  1
  P  P4  1  0.627407  0.627407  0.122982  1
  P  P5  1  0.874996  0.874996  0.375000  1
  P  P6  1  0.122562  0.122562  0.627088  1
  Se  Se7  1  0.375049  0.375049  0.874908  1
