# generated using pymatgen
data_Tm3Lu17(HgBi5)2
_symmetry_space_group_name_H-M   'P 1'
_cell_length_a   8.10124931
_cell_length_b   9.36621300
_cell_length_c   11.81781344
_cell_angle_alpha   90.00000000
_cell_angle_beta   90.00031015
_cell_angle_gamma   90.00000000
_symmetry_Int_Tables_number   1
_chemical_formula_structural   Tm3Lu17(HgBi5)2
_chemical_formula_sum   'Tm3 Lu17 Hg2 Bi10'
_cell_volume   896.71236308
_cell_formula_units_Z   1
loop_
 _symmetry_equiv_pos_site_id
 _symmetry_equiv_pos_as_xyz
  1  'x, y, z'
loop_
 _atom_site_type_symbol
 _atom_site_label
 _atom_site_symmetry_multiplicity
 _atom_site_fract_x
 _atom_site_fract_y
 _atom_site_fract_z
 _atom_site_occupancy
  Tm  Tm0  1  0.809250  0.750000  0.216252  1
  Tm  Tm1  1  0.309304  0.750000  0.283866  1
  Tm  Tm2  1  0.684423  0.250000  0.714810  1
  Lu  Lu3  1  0.033498  0.250000  0.507958  1
  Lu  Lu4  1  0.980366  0.750000  0.490626  1
  Lu  Lu5  1  0.479906  0.750000  0.009020  1
  Lu  Lu6  1  0.533341  0.250000  0.991893  1
  Lu  Lu7  1  0.352147  0.250000  0.290877  1
  Lu  Lu8  1  0.653460  0.750000  0.718416  1
  Lu  Lu9  1  0.153287  0.750000  0.781966  1
  Lu  Lu10  1  0.851812  0.250000  0.208900  1
  Lu  Lu11  1  0.184227  0.250000  0.785619  1
  Lu  Lu12  1  0.187149  0.071319  0.057212  1
  Lu  Lu13  1  0.807199  0.945073  0.941221  1
  Lu  Lu14  1  0.307483  0.945363  0.559005  1
  Lu  Lu15  1  0.807199  0.554927  0.941221  1
  Lu  Lu16  1  0.687317  0.071249  0.442403  1
  Lu  Lu17  1  0.187149  0.428681  0.057212  1
  Lu  Lu18  1  0.687317  0.428751  0.442403  1
  Lu  Lu19  1  0.307483  0.554637  0.559005  1
  Hg  Hg20  1  0.405126  0.250000  0.542331  1
  Hg  Hg21  1  0.906246  0.250000  0.957403  1
  Bi  Bi22  1  0.596757  0.750000  0.458366  1
  Bi  Bi23  1  0.096729  0.750000  0.041872  1
  Bi  Bi24  1  0.058356  0.002444  0.323145  1
  Bi  Bi25  1  0.940072  0.998027  0.676823  1
  Bi  Bi26  1  0.439163  0.998095  0.823376  1
  Bi  Bi27  1  0.940072  0.501973  0.676823  1
  Bi  Bi28  1  0.558322  0.002384  0.176728  1
  Bi  Bi29  1  0.058356  0.497556  0.323145  1
  Bi  Bi30  1  0.558322  0.497616  0.176728  1
  Bi  Bi31  1  0.439163  0.501905  0.823376  1
