# generated using pymatgen
data_Y3Ga24RePd8
_symmetry_space_group_name_H-M   'P 1'
_cell_length_a   8.46732242
_cell_length_b   8.48034900
_cell_length_c   8.46390384
_cell_angle_alpha   89.73279505
_cell_angle_beta   89.41093139
_cell_angle_gamma   89.80667865
_symmetry_Int_Tables_number   1
_chemical_formula_structural   Y3Ga24RePd8
_chemical_formula_sum   'Y3 Ga24 Re1 Pd8'
_cell_volume   607.71571145
_cell_formula_units_Z   1
loop_
 _symmetry_equiv_pos_site_id
 _symmetry_equiv_pos_as_xyz
  1  'x, y, z'
loop_
 _atom_site_type_symbol
 _atom_site_label
 _atom_site_symmetry_multiplicity
 _atom_site_fract_x
 _atom_site_fract_y
 _atom_site_fract_z
 _atom_site_occupancy
  Y  Y0  1  0.000000  0.500000  0.000000  1
  Y  Y1  1  0.500000  0.000000  0.000000  1
  Y  Y2  1  0.000000  0.000000  0.500000  1
  Ga  Ga3  1  0.990027  0.643213  0.643316  1
  Ga  Ga4  1  0.643414  0.643327  0.989987  1
  Ga  Ga5  1  0.643163  0.990063  0.643171  1
  Ga  Ga6  1  0.009973  0.356787  0.356684  1
  Ga  Ga7  1  0.356586  0.356673  0.010013  1
  Ga  Ga8  1  0.356837  0.009937  0.356829  1
  Ga  Ga9  1  0.736077  0.499820  0.264064  1
  Ga  Ga10  1  0.263923  0.500180  0.735936  1
  Ga  Ga11  1  0.500679  0.263648  0.735742  1
  Ga  Ga12  1  0.499321  0.736352  0.264258  1
  Ga  Ga13  1  0.264202  0.736258  0.499507  1
  Ga  Ga14  1  0.735798  0.263742  0.500493  1
  Ga  Ga15  1  0.839213  0.141142  0.839161  1
  Ga  Ga16  1  0.141076  0.839674  0.839406  1
  Ga  Ga17  1  0.839561  0.839788  0.140956  1
  Ga  Ga18  1  0.160787  0.858858  0.160839  1
  Ga  Ga19  1  0.858924  0.160326  0.160594  1
  Ga  Ga20  1  0.160439  0.160212  0.859044  1
  Ga  Ga21  1  0.729373  0.490248  0.729201  1
  Ga  Ga22  1  0.490823  0.729775  0.728996  1
  Ga  Ga23  1  0.729081  0.729690  0.491042  1
  Ga  Ga24  1  0.270627  0.509752  0.270799  1
  Ga  Ga25  1  0.509177  0.270225  0.271004  1
  Ga  Ga26  1  0.270919  0.270310  0.508958  1
  Re  Re27  1  0.500000  0.500000  0.500000  1
  Pd  Pd28  1  0.834369  0.834674  0.834226  1
  Pd  Pd29  1  0.165631  0.165326  0.165774  1
  Pd  Pd30  1  0.664776  0.335348  0.000175  1
  Pd  Pd31  1  0.000257  0.335264  0.664878  1
  Pd  Pd32  1  0.335164  0.000076  0.664871  1
  Pd  Pd33  1  0.335224  0.664652  0.999825  1
  Pd  Pd34  1  0.999743  0.664736  0.335122  1
  Pd  Pd35  1  0.664836  0.999924  0.335129  1
