# generated using pymatgen
data_Gd2Dy10Co5Sn
_symmetry_space_group_name_H-M   'P 1'
_cell_length_a   8.30739606
_cell_length_b   8.30739648
_cell_length_c   8.30739600
_cell_angle_alpha   106.99136248
_cell_angle_beta   110.74841450
_cell_angle_gamma   110.70198722
_symmetry_Int_Tables_number   1
_chemical_formula_structural   Gd2Dy10Co5Sn
_chemical_formula_sum   'Gd2 Dy10 Co5 Sn1'
_cell_volume   440.72280431
_cell_formula_units_Z   1
loop_
 _symmetry_equiv_pos_site_id
 _symmetry_equiv_pos_as_xyz
  1  'x, y, z'
loop_
 _atom_site_type_symbol
 _atom_site_label
 _atom_site_symmetry_multiplicity
 _atom_site_fract_x
 _atom_site_fract_y
 _atom_site_fract_z
 _atom_site_occupancy
  Gd  Gd0  1  0.479631  0.293094  0.186537  1
  Gd  Gd1  1  0.106558  0.293094  0.813463  1
  Dy  Dy2  1  0.893300  0.707441  0.185859  1
  Dy  Dy3  1  0.521583  0.707441  0.814141  1
  Dy  Dy4  1  0.306657  0.620950  0.314294  1
  Dy  Dy5  1  0.306657  0.992364  0.685706  1
  Dy  Dy6  1  0.693232  0.380012  0.686779  1
  Dy  Dy7  1  0.693232  0.006452  0.313221  1
  Dy  Dy8  1  0.192300  0.206959  0.399603  1
  Dy  Dy9  1  0.807356  0.792697  0.600397  1
  Dy  Dy10  1  0.192300  0.792697  0.985340  1
  Dy  Dy11  1  0.807356  0.206959  0.014660  1
  Co  Co12  1  0.500895  0.613160  0.112265  1
  Co  Co13  1  0.500895  0.388630  0.887735  1
  Co  Co14  1  0.378052  0.999862  0.378190  1
  Co  Co15  1  0.621673  0.999862  0.621810  1
  Co  Co16  1  0.998357  0.998357  0.000000  1
  Sn  Sn17  1  0.999966  0.499966  0.500000  1
