# generated using pymatgen
data_SmYEr6(WO6)4
_symmetry_space_group_name_H-M   'P 1'
_cell_length_a   5.38815300
_cell_length_b   7.69402853
_cell_length_c   11.44903500
_cell_angle_alpha   75.34611468
_cell_angle_beta   90.00000000
_cell_angle_gamma   90.00000000
_symmetry_Int_Tables_number   1
_chemical_formula_structural   SmYEr6(WO6)4
_chemical_formula_sum   'Sm1 Y1 Er6 W4 O24'
_cell_volume   459.19891626
_cell_formula_units_Z   1
loop_
 _symmetry_equiv_pos_site_id
 _symmetry_equiv_pos_as_xyz
  1  'x, y, z'
loop_
 _atom_site_type_symbol
 _atom_site_label
 _atom_site_symmetry_multiplicity
 _atom_site_fract_x
 _atom_site_fract_y
 _atom_site_fract_z
 _atom_site_occupancy
  Sm  Sm0  1  0.684894  0.500000  0.250000  1
  Y  Y1  1  0.315561  0.500000  0.750000  1
  Er  Er2  1  0.184286  0.204010  0.422697  1
  Er  Er3  1  0.184286  0.795990  0.077303  1
  Er  Er4  1  0.816232  0.794747  0.578203  1
  Er  Er5  1  0.816232  0.205253  0.921797  1
  Er  Er6  1  0.741526  0.000000  0.250000  1
  Er  Er7  1  0.259117  0.000000  0.750000  1
  W  W8  1  0.255498  0.274265  0.114546  1
  W  W9  1  0.255498  0.725735  0.385454  1
  W  W10  1  0.744438  0.725071  0.884172  1
  W  W11  1  0.744438  0.274929  0.615828  1
  O  O12  1  0.457193  0.205460  0.273721  1
  O  O13  1  0.457193  0.794540  0.226279  1
  O  O14  1  0.541742  0.793231  0.725998  1
  O  O15  1  0.541742  0.206769  0.774002  1
  O  O16  1  0.042992  0.059164  0.103753  1
  O  O17  1  0.042992  0.940836  0.396247  1
  O  O18  1  0.956515  0.941404  0.894969  1
  O  O19  1  0.956515  0.058596  0.605031  1
  O  O20  1  0.983740  0.283727  0.230042  1
  O  O21  1  0.983740  0.716273  0.269958  1
  O  O22  1  0.019029  0.712780  0.770431  1
  O  O23  1  0.019029  0.287220  0.729569  1
  O  O24  1  0.852314  0.363250  0.453237  1
  O  O25  1  0.852314  0.636750  0.046763  1
  O  O26  1  0.149332  0.636921  0.548776  1
  O  O27  1  0.149332  0.363079  0.951224  1
  O  O28  1  0.641478  0.509804  0.614529  1
  O  O29  1  0.641478  0.490196  0.885471  1
  O  O30  1  0.353446  0.490033  0.387077  1
  O  O31  1  0.353446  0.509967  0.112923  1
  O  O32  1  0.463805  0.153534  0.569663  1
  O  O33  1  0.463805  0.846466  0.930337  1
  O  O34  1  0.537409  0.846248  0.430610  1
  O  O35  1  0.537409  0.153752  0.069390  1
