# generated using pymatgen
data_Dy3Ho(Al3Ir)6
_symmetry_space_group_name_H-M   'P 1'
_cell_length_a   7.54482406
_cell_length_b   7.54577712
_cell_length_c   9.48667200
_cell_angle_alpha   90.00000000
_cell_angle_beta   90.00000000
_cell_angle_gamma   119.33664913
_symmetry_Int_Tables_number   1
_chemical_formula_structural   Dy3Ho(Al3Ir)6
_chemical_formula_sum   'Dy3 Ho1 Al18 Ir6'
_cell_volume   470.82764085
_cell_formula_units_Z   1
loop_
 _symmetry_equiv_pos_site_id
 _symmetry_equiv_pos_as_xyz
  1  'x, y, z'
loop_
 _atom_site_type_symbol
 _atom_site_label
 _atom_site_symmetry_multiplicity
 _atom_site_fract_x
 _atom_site_fract_y
 _atom_site_fract_z
 _atom_site_occupancy
  Dy  Dy0  1  0.994522  0.670646  0.250000  1
  Dy  Dy1  1  0.005552  0.329331  0.750000  1
  Dy  Dy2  1  0.670633  0.994477  0.250000  1
  Ho  Ho3  1  0.329322  0.005533  0.750000  1
  Al  Al4  1  0.129000  0.128916  0.250000  1
  Al  Al5  1  0.871303  0.871105  0.750000  1
  Al  Al6  1  0.000908  0.334986  0.073506  1
  Al  Al7  1  0.999265  0.665200  0.926194  1
  Al  Al8  1  0.999265  0.665200  0.573806  1
  Al  Al9  1  0.334981  0.000919  0.426773  1
  Al  Al10  1  0.000908  0.334986  0.426494  1
  Al  Al11  1  0.664820  0.999086  0.573814  1
  Al  Al12  1  0.664820  0.999086  0.926186  1
  Al  Al13  1  0.334981  0.000919  0.073227  1
  Al  Al14  1  0.333487  0.333327  0.551695  1
  Al  Al15  1  0.666551  0.666543  0.448705  1
  Al  Al16  1  0.666551  0.666543  0.051295  1
  Al  Al17  1  0.333487  0.333327  0.948305  1
  Al  Al18  1  0.339323  0.547783  0.250000  1
  Al  Al19  1  0.660350  0.451918  0.750000  1
  Al  Al20  1  0.547678  0.339218  0.250000  1
  Al  Al21  1  0.452249  0.660941  0.750000  1
  Ir  Ir22  1  0.671903  0.328016  0.999906  1
  Ir  Ir23  1  0.328020  0.671910  0.999936  1
  Ir  Ir24  1  0.328020  0.671910  0.500064  1
  Ir  Ir25  1  0.671903  0.328016  0.500094  1
  Ir  Ir26  1  0.000099  0.000079  0.999893  1
  Ir  Ir27  1  0.000099  0.000079  0.500107  1
