# generated using pymatgen
data_TbEr3(CuPt)2
_symmetry_space_group_name_H-M   'P 1'
_cell_length_a   4.44170400
_cell_length_b   5.46571393
_cell_length_c   7.10387224
_cell_angle_alpha   90.22932602
_cell_angle_beta   90.00000000
_cell_angle_gamma   90.00000000
_symmetry_Int_Tables_number   1
_chemical_formula_structural   TbEr3(CuPt)2
_chemical_formula_sum   'Tb1 Er3 Cu2 Pt2'
_cell_volume   172.45991773
_cell_formula_units_Z   1
loop_
 _symmetry_equiv_pos_site_id
 _symmetry_equiv_pos_as_xyz
  1  'x, y, z'
loop_
 _atom_site_type_symbol
 _atom_site_label
 _atom_site_symmetry_multiplicity
 _atom_site_fract_x
 _atom_site_fract_y
 _atom_site_fract_z
 _atom_site_occupancy
  Tb  Tb0  1  0.500000  0.605787  0.815969  1
  Er  Er1  1  0.000000  0.115744  0.683767  1
  Er  Er2  1  0.000000  0.885054  0.185034  1
  Er  Er3  1  0.500000  0.394566  0.315832  1
  Cu  Cu4  1  0.500000  0.893584  0.463058  1
  Cu  Cu5  1  0.500000  0.107142  0.964821  1
  Pt  Pt6  1  0.000000  0.614429  0.533242  1
  Pt  Pt7  1  0.000000  0.383694  0.038280  1
