# generated using pymatgen
data_Dy8Ho12Sn15Sb
_symmetry_space_group_name_H-M   'P 1'
_cell_length_a   8.04459461
_cell_length_b   8.15175899
_cell_length_c   15.39476192
_cell_angle_alpha   90.10368775
_cell_angle_beta   90.42791196
_cell_angle_gamma   89.95311019
_symmetry_Int_Tables_number   1
_chemical_formula_structural   Dy8Ho12Sn15Sb
_chemical_formula_sum   'Dy8 Ho12 Sn15 Sb1'
_cell_volume   1009.52134918
_cell_formula_units_Z   1
loop_
 _symmetry_equiv_pos_site_id
 _symmetry_equiv_pos_as_xyz
  1  'x, y, z'
loop_
 _atom_site_type_symbol
 _atom_site_label
 _atom_site_symmetry_multiplicity
 _atom_site_fract_x
 _atom_site_fract_y
 _atom_site_fract_z
 _atom_site_occupancy
  Dy  Dy0  1  0.525489  0.324680  0.900905  1
  Dy  Dy1  1  0.020691  0.178791  0.597235  1
  Dy  Dy2  1  0.479429  0.678214  0.402564  1
  Dy  Dy3  1  0.972849  0.820872  0.099296  1
  Dy  Dy4  1  0.477060  0.676290  0.098053  1
  Dy  Dy5  1  0.979298  0.821147  0.402472  1
  Dy  Dy6  1  0.520918  0.321193  0.597389  1
  Dy  Dy7  1  0.022468  0.179342  0.901243  1
  Ho  Ho8  1  0.370827  0.838123  0.878927  1
  Ho  Ho9  1  0.867937  0.663032  0.622790  1
  Ho  Ho10  1  0.632459  0.162637  0.376930  1
  Ho  Ho11  1  0.129987  0.338766  0.122014  1
  Ho  Ho12  1  0.630591  0.162052  0.121136  1
  Ho  Ho13  1  0.133098  0.337436  0.376919  1
  Ho  Ho14  1  0.367334  0.837573  0.622725  1
  Ho  Ho15  1  0.869141  0.662176  0.877909  1
  Ho  Ho16  1  0.198983  0.502914  0.749790  1
  Ho  Ho17  1  0.698701  0.997179  0.750500  1
  Ho  Ho18  1  0.801154  0.496983  0.250475  1
  Ho  Ho19  1  0.301138  0.002358  0.251367  1
  Sn  Sn20  1  0.793833  0.462433  0.458340  1
  Sn  Sn21  1  0.706665  0.962705  0.541704  1
  Sn  Sn22  1  0.209770  0.535916  0.958148  1
  Sn  Sn23  1  0.712733  0.964829  0.957857  1
  Sn  Sn24  1  0.206614  0.537442  0.541558  1
  Sn  Sn25  1  0.293938  0.037172  0.458354  1
  Sn  Sn26  1  0.791014  0.463650  0.041912  1
  Sn  Sn27  1  0.565754  0.620152  0.750134  1
  Sn  Sn28  1  0.066100  0.880705  0.751204  1
  Sn  Sn29  1  0.434774  0.379961  0.248690  1
  Sn  Sn30  1  0.934542  0.119526  0.248829  1
  Sn  Sn31  1  0.331333  0.148091  0.750028  1
  Sn  Sn32  1  0.831589  0.352230  0.749414  1
  Sn  Sn33  1  0.667199  0.851928  0.249820  1
  Sn  Sn34  1  0.168648  0.648093  0.249927  1
  Sb  Sb35  1  0.285944  0.033413  0.043440  1
