# generated using pymatgen
data_Rb2Tb5YF20
_symmetry_space_group_name_H-M   'P 1'
_cell_length_a   8.32994194
_cell_length_b   8.32827732
_cell_length_c   8.32827717
_cell_angle_alpha   60.01313477
_cell_angle_beta   59.99332954
_cell_angle_gamma   59.99332972
_symmetry_Int_Tables_number   1
_chemical_formula_structural   Rb2Tb5YF20
_chemical_formula_sum   'Rb2 Tb5 Y1 F20'
_cell_volume   408.54190886
_cell_formula_units_Z   1
loop_
 _symmetry_equiv_pos_site_id
 _symmetry_equiv_pos_as_xyz
  1  'x, y, z'
loop_
 _atom_site_type_symbol
 _atom_site_label
 _atom_site_symmetry_multiplicity
 _atom_site_fract_x
 _atom_site_fract_y
 _atom_site_fract_z
 _atom_site_occupancy
  Rb  Rb0  1  0.250014  0.249986  0.249986  1
  Rb  Rb1  1  0.750014  0.749986  0.749986  1
  Tb  Tb2  1  0.240284  0.759716  0.759716  1
  Tb  Tb3  1  0.240293  0.759708  0.240266  1
  Tb  Tb4  1  0.759734  0.240266  0.759707  1
  Tb  Tb5  1  0.240293  0.240266  0.759708  1
  Tb  Tb6  1  0.759734  0.759707  0.240266  1
  Y  Y7  1  0.759489  0.240511  0.240511  1
  F  F8  1  0.829382  0.500000  0.500000  1
  F  F9  1  0.170617  0.500001  0.500001  1
  F  F10  1  0.500000  0.829382  0.170618  1
  F  F11  1  0.500000  0.170618  0.829382  1
  F  F12  1  0.500011  0.829346  0.499989  1
  F  F13  1  0.170655  0.499989  0.829345  1
  F  F14  1  0.500368  0.170691  0.499632  1
  F  F15  1  0.829309  0.499631  0.170691  1
  F  F16  1  0.500011  0.499989  0.829346  1
  F  F17  1  0.500368  0.499632  0.170691  1
  F  F18  1  0.170655  0.829345  0.499989  1
  F  F19  1  0.829309  0.170691  0.499631  1
  F  F20  1  0.110197  0.110673  0.110673  1
  F  F21  1  0.889425  0.889461  0.889461  1
  F  F22  1  0.110538  0.110575  0.668349  1
  F  F23  1  0.110538  0.668349  0.110575  1
  F  F24  1  0.889327  0.889804  0.331542  1
  F  F25  1  0.889327  0.331542  0.889804  1
  F  F26  1  0.668457  0.110673  0.110673  1
  F  F27  1  0.331652  0.889462  0.889462  1
