# generated using pymatgen
data_U2BiH2
_symmetry_space_group_name_H-M   'P 1'
_cell_length_a   4.17701966
_cell_length_b   4.17701939
_cell_length_c   5.66987038
_cell_angle_alpha   111.61405088
_cell_angle_beta   111.61405199
_cell_angle_gamma   90.00000021
_symmetry_Int_Tables_number   1
_chemical_formula_structural   U2BiH2
_chemical_formula_sum   'U2 Bi1 H2'
_cell_volume   84.44238533
_cell_formula_units_Z   1
loop_
 _symmetry_equiv_pos_site_id
 _symmetry_equiv_pos_as_xyz
  1  'x, y, z'
loop_
 _atom_site_type_symbol
 _atom_site_label
 _atom_site_symmetry_multiplicity
 _atom_site_fract_x
 _atom_site_fract_y
 _atom_site_fract_z
 _atom_site_occupancy
  U  U0  1  0.647964  0.647964  0.295926  1
  U  U1  1  0.352037  0.352037  0.704074  1
  Bi  Bi2  1  0.000000  0.000000  0.000000  1
  H  H3  1  0.750000  0.250000  0.500000  1
  H  H4  1  0.250000  0.750000  0.500000  1
