# generated using pymatgen
data_Sc4Si6Ir6Au
_symmetry_space_group_name_H-M   'P 1'
_cell_length_a   7.01819617
_cell_length_b   7.01819551
_cell_length_c   7.01819626
_cell_angle_alpha   109.70917055
_cell_angle_beta   109.70917205
_cell_angle_gamma   108.99635989
_symmetry_Int_Tables_number   1
_chemical_formula_structural   Sc4Si6Ir6Au
_chemical_formula_sum   'Sc4 Si6 Ir6 Au1'
_cell_volume   266.09225522
_cell_formula_units_Z   1
loop_
 _symmetry_equiv_pos_site_id
 _symmetry_equiv_pos_as_xyz
  1  'x, y, z'
loop_
 _atom_site_type_symbol
 _atom_site_label
 _atom_site_symmetry_multiplicity
 _atom_site_fract_x
 _atom_site_fract_y
 _atom_site_fract_z
 _atom_site_occupancy
  Sc  Sc0  1  0.003357  0.996643  0.500000  1
  Sc  Sc1  1  0.003357  0.503357  0.006713  1
  Sc  Sc2  1  0.496643  0.996643  0.993287  1
  Sc  Sc3  1  0.496643  0.503357  0.500000  1
  Si  Si4  1  0.680517  0.680517  0.000000  1
  Si  Si5  1  0.305990  0.991917  0.314073  1
  Si  Si6  1  0.008083  0.322156  0.314073  1
  Si  Si7  1  0.319483  0.319483  0.000000  1
  Si  Si8  1  0.677844  0.991917  0.685927  1
  Si  Si9  1  0.008083  0.694010  0.685927  1
  Ir  Ir10  1  0.751273  0.500002  0.251272  1
  Ir  Ir11  1  0.499998  0.248727  0.748728  1
  Ir  Ir12  1  0.248730  0.500002  0.748728  1
  Ir  Ir13  1  0.250000  0.750000  0.500000  1
  Ir  Ir14  1  0.499998  0.751270  0.251272  1
  Ir  Ir15  1  0.000000  0.000000  0.000000  1
  Au  Au16  1  0.750000  0.250000  0.500000  1
