# generated using pymatgen
data_Tb8Nd6ErTm(CdPt)4
_symmetry_space_group_name_H-M   'P 1'
_cell_length_a   9.80679119
_cell_length_b   9.80679192
_cell_length_c   9.79734400
_cell_angle_alpha   60.03185736
_cell_angle_beta   60.03185489
_cell_angle_gamma   60.25628232
_symmetry_Int_Tables_number   1
_chemical_formula_structural   Tb8Nd6ErTm(CdPt)4
_chemical_formula_sum   'Tb8 Nd6 Er1 Tm1 Cd4 Pt4'
_cell_volume   667.86874361
_cell_formula_units_Z   1
loop_
 _symmetry_equiv_pos_site_id
 _symmetry_equiv_pos_as_xyz
  1  'x, y, z'
loop_
 _atom_site_type_symbol
 _atom_site_label
 _atom_site_symmetry_multiplicity
 _atom_site_fract_x
 _atom_site_fract_y
 _atom_site_fract_z
 _atom_site_occupancy
  Tb  Tb0  1  0.350328  0.350328  0.351143  1
  Tb  Tb1  1  0.350328  0.350328  0.948200  1
  Tb  Tb2  1  0.351925  0.946565  0.350754  1
  Tb  Tb3  1  0.946565  0.351925  0.350754  1
  Tb  Tb4  1  0.812830  0.187354  0.187778  1
  Tb  Tb5  1  0.187354  0.812830  0.812038  1
  Tb  Tb6  1  0.187354  0.812830  0.187778  1
  Tb  Tb7  1  0.812830  0.187354  0.812038  1
  Nd  Nd8  1  0.938508  0.561633  0.562722  1
  Nd  Nd9  1  0.561633  0.938508  0.937137  1
  Nd  Nd10  1  0.561633  0.938508  0.562722  1
  Nd  Nd11  1  0.938508  0.561633  0.937137  1
  Nd  Nd12  1  0.562196  0.562196  0.937804  1
  Nd  Nd13  1  0.937968  0.937968  0.562032  1
  Er  Er14  1  0.811450  0.811450  0.188550  1
  Tm  Tm15  1  0.188602  0.188602  0.811398  1
  Cd  Cd16  1  0.580218  0.580218  0.579087  1
  Cd  Cd17  1  0.580218  0.580218  0.260478  1
  Cd  Cd18  1  0.579308  0.260180  0.580257  1
  Cd  Cd19  1  0.260180  0.579308  0.580257  1
  Pt  Pt20  1  0.143788  0.143788  0.140493  1
  Pt  Pt21  1  0.143788  0.143788  0.571931  1
  Pt  Pt22  1  0.140503  0.571986  0.143755  1
  Pt  Pt23  1  0.571986  0.140503  0.143755  1
