# generated using pymatgen
data_Ce2NbIrRu2
_symmetry_space_group_name_H-M   'P 1'
_cell_length_a   5.18213401
_cell_length_b   5.26905303
_cell_length_c   5.18213314
_cell_angle_alpha   66.83602451
_cell_angle_beta   67.86428552
_cell_angle_gamma   66.83602633
_symmetry_Int_Tables_number   1
_chemical_formula_structural   Ce2NbIrRu2
_chemical_formula_sum   'Ce2 Nb1 Ir1 Ru2'
_cell_volume   115.40178793
_cell_formula_units_Z   1
loop_
 _symmetry_equiv_pos_site_id
 _symmetry_equiv_pos_as_xyz
  1  'x, y, z'
loop_
 _atom_site_type_symbol
 _atom_site_label
 _atom_site_symmetry_multiplicity
 _atom_site_fract_x
 _atom_site_fract_y
 _atom_site_fract_z
 _atom_site_occupancy
  Ce  Ce0  1  0.621874  0.629900  0.621874  1
  Ce  Ce1  1  0.378126  0.370100  0.378126  1
  Nb  Nb2  1  0.000000  0.000000  0.000000  1
  Ir  Ir3  1  0.000000  0.500000  0.000000  1
  Ru  Ru4  1  0.500000  0.000000  0.000000  1
  Ru  Ru5  1  0.000000  0.000000  0.500000  1
