# generated using pymatgen
data_Ho4Ga4Ru3Pt
_symmetry_space_group_name_H-M   'P 1'
_cell_length_a   4.33041100
_cell_length_b   6.88172043
_cell_length_c   7.72413064
_cell_angle_alpha   90.27833420
_cell_angle_beta   90.00000000
_cell_angle_gamma   90.00000000
_symmetry_Int_Tables_number   1
_chemical_formula_structural   Ho4Ga4Ru3Pt
_chemical_formula_sum   'Ho4 Ga4 Ru3 Pt1'
_cell_volume   230.18161283
_cell_formula_units_Z   1
loop_
 _symmetry_equiv_pos_site_id
 _symmetry_equiv_pos_as_xyz
  1  'x, y, z'
loop_
 _atom_site_type_symbol
 _atom_site_label
 _atom_site_symmetry_multiplicity
 _atom_site_fract_x
 _atom_site_fract_y
 _atom_site_fract_z
 _atom_site_occupancy
  Ho  Ho0  1  0.250000  0.015914  0.807354  1
  Ho  Ho1  1  0.250000  0.512276  0.688787  1
  Ho  Ho2  1  0.750000  0.989058  0.196340  1
  Ho  Ho3  1  0.750000  0.486921  0.308211  1
  Ga  Ga4  1  0.250000  0.174303  0.421286  1
  Ga  Ga5  1  0.250000  0.665290  0.084294  1
  Ga  Ga6  1  0.750000  0.828811  0.574556  1
  Ga  Ga7  1  0.750000  0.322950  0.920830  1
  Ru  Ru8  1  0.250000  0.789913  0.401610  1
  Ru  Ru9  1  0.250000  0.279434  0.097249  1
  Ru  Ru10  1  0.750000  0.216820  0.597267  1
  Pt  Pt11  1  0.750000  0.718310  0.902216  1
