# generated using pymatgen
data_Dy2Er4TcRh
_symmetry_space_group_name_H-M   'P 1'
_cell_length_a   6.29910200
_cell_length_b   7.30778300
_cell_length_c   9.12286600
_cell_angle_alpha   90.00000000
_cell_angle_beta   90.00000000
_cell_angle_gamma   90.00000000
_symmetry_Int_Tables_number   1
_chemical_formula_structural   Dy2Er4TcRh
_chemical_formula_sum   'Dy4 Er8 Tc2 Rh2'
_cell_volume   419.94806012
_cell_formula_units_Z   2
loop_
 _symmetry_equiv_pos_site_id
 _symmetry_equiv_pos_as_xyz
  1  'x, y, z'
loop_
 _atom_site_type_symbol
 _atom_site_label
 _atom_site_symmetry_multiplicity
 _atom_site_fract_x
 _atom_site_fract_y
 _atom_site_fract_z
 _atom_site_occupancy
  Dy  Dy0  1  0.867014  0.960147  0.750000  1
  Dy  Dy1  1  0.367014  0.539853  0.250000  1
  Dy  Dy2  1  0.630923  0.461093  0.750000  1
  Dy  Dy3  1  0.130923  0.038907  0.250000  1
  Er  Er4  1  0.670654  0.176055  0.064949  1
  Er  Er5  1  0.170654  0.323945  0.935051  1
  Er  Er6  1  0.832531  0.678737  0.438411  1
  Er  Er7  1  0.332531  0.821263  0.561589  1
  Er  Er8  1  0.332531  0.821263  0.938411  1
  Er  Er9  1  0.832531  0.678737  0.061589  1
  Er  Er10  1  0.170654  0.323945  0.564949  1
  Er  Er11  1  0.670654  0.176055  0.435051  1
  Tc  Tc12  1  0.040052  0.612633  0.750000  1
  Tc  Tc13  1  0.540052  0.887367  0.250000  1
  Rh  Rh14  1  0.455641  0.115578  0.750000  1
  Rh  Rh15  1  0.955641  0.384422  0.250000  1
