# generated using pymatgen
data_Pr3AgPt2Au3
_symmetry_space_group_name_H-M   'P 1'
_cell_length_a   7.74680000
_cell_length_b   7.74679998
_cell_length_c   3.98056600
_cell_angle_alpha   90.00000000
_cell_angle_beta   90.00000000
_cell_angle_gamma   120.00000862
_symmetry_Int_Tables_number   1
_chemical_formula_structural   Pr3AgPt2Au3
_chemical_formula_sum   'Pr3 Ag1 Pt2 Au3'
_cell_volume   206.88076330
_cell_formula_units_Z   1
loop_
 _symmetry_equiv_pos_site_id
 _symmetry_equiv_pos_as_xyz
  1  'x, y, z'
loop_
 _atom_site_type_symbol
 _atom_site_label
 _atom_site_symmetry_multiplicity
 _atom_site_fract_x
 _atom_site_fract_y
 _atom_site_fract_z
 _atom_site_occupancy
  Pr  Pr0  1  0.591758  0.000000  0.000000  1
  Pr  Pr1  1  0.000000  0.591758  0.000000  1
  Pr  Pr2  1  0.408242  0.408242  0.000000  1
  Ag  Ag3  1  0.000000  0.000000  0.000000  1
  Pt  Pt4  1  0.333333  0.666667  0.500000  1
  Pt  Pt5  1  0.666667  0.333333  0.500000  1
  Au  Au6  1  0.260021  0.000000  0.500000  1
  Au  Au7  1  0.000000  0.260021  0.500000  1
  Au  Au8  1  0.739979  0.739979  0.500000  1
