# generated using pymatgen
data_Pr5PuThO12
_symmetry_space_group_name_H-M   'P 1'
_cell_length_a   6.86159747
_cell_length_b   6.89553322
_cell_length_c   6.85641500
_cell_angle_alpha   99.19550480
_cell_angle_beta   98.83923200
_cell_angle_gamma   98.91600839
_symmetry_Int_Tables_number   1
_chemical_formula_structural   Pr5PuThO12
_chemical_formula_sum   'Pr5 Pu1 Th1 O12'
_cell_volume   311.02800229
_cell_formula_units_Z   1
loop_
 _symmetry_equiv_pos_site_id
 _symmetry_equiv_pos_as_xyz
  1  'x, y, z'
loop_
 _atom_site_type_symbol
 _atom_site_label
 _atom_site_symmetry_multiplicity
 _atom_site_fract_x
 _atom_site_fract_y
 _atom_site_fract_z
 _atom_site_occupancy
  Pr  Pr0  1  0.609673  0.144563  0.309368  1
  Pr  Pr1  1  0.391675  0.861664  0.691522  1
  Pr  Pr2  1  0.695497  0.391087  0.857894  1
  Pr  Pr3  1  0.855987  0.691744  0.391818  1
  Pr  Pr4  1  0.142312  0.306112  0.609376  1
  Pu  Pu5  1  0.000043  0.998754  0.001032  1
  Th  Th6  1  0.304441  0.605596  0.140069  1
  O  O7  1  0.438561  0.179067  0.591153  1
  O  O8  1  0.937653  0.689216  0.055064  1
  O  O9  1  0.183174  0.587341  0.429576  1
  O  O10  1  0.823853  0.413472  0.561772  1
  O  O11  1  0.555799  0.819190  0.399724  1
  O  O12  1  0.576207  0.437667  0.177262  1
  O  O13  1  0.407584  0.568651  0.831374  1
  O  O14  1  0.952799  0.067943  0.302223  1
  O  O15  1  0.047410  0.931831  0.697600  1
  O  O16  1  0.699517  0.049331  0.930279  1
  O  O17  1  0.076051  0.311428  0.954050  1
  O  O18  1  0.301762  0.945344  0.068844  1
