# generated using pymatgen
data_Ti6Al4Pd2CN
_symmetry_space_group_name_H-M   'P 1'
_cell_length_a   8.22702194
_cell_length_b   8.22702272
_cell_length_c   8.23977900
_cell_angle_alpha   59.94869951
_cell_angle_beta   59.94869634
_cell_angle_gamma   59.83627378
_symmetry_Int_Tables_number   1
_chemical_formula_structural   Ti6Al4Pd2CN
_chemical_formula_sum   'Ti12 Al8 Pd4 C2 N2'
_cell_volume   393.55849200
_cell_formula_units_Z   2
loop_
 _symmetry_equiv_pos_site_id
 _symmetry_equiv_pos_as_xyz
  1  'x, y, z'
loop_
 _atom_site_type_symbol
 _atom_site_label
 _atom_site_symmetry_multiplicity
 _atom_site_fract_x
 _atom_site_fract_y
 _atom_site_fract_z
 _atom_site_occupancy
  Ti  Ti0  1  0.819687  0.819687  0.180313  1
  Ti  Ti1  1  0.069054  0.433097  0.429270  1
  Ti  Ti2  1  0.433097  0.069054  0.068579  1
  Ti  Ti3  1  0.067795  0.067795  0.432205  1
  Ti  Ti4  1  0.069054  0.433097  0.068579  1
  Ti  Ti5  1  0.433097  0.069054  0.429270  1
  Ti  Ti6  1  0.180946  0.816903  0.181421  1
  Ti  Ti7  1  0.180946  0.816903  0.820730  1
  Ti  Ti8  1  0.816903  0.180946  0.181421  1
  Ti  Ti9  1  0.816903  0.180946  0.820730  1
  Ti  Ti10  1  0.430313  0.430313  0.069687  1
  Ti  Ti11  1  0.182205  0.182205  0.817795  1
  Al  Al12  1  0.414030  0.755940  0.415015  1
  Al  Al13  1  0.835245  0.835245  0.494800  1
  Al  Al14  1  0.494060  0.835970  0.834985  1
  Al  Al15  1  0.835245  0.835245  0.834711  1
  Al  Al16  1  0.755940  0.414030  0.415015  1
  Al  Al17  1  0.414755  0.414755  0.415289  1
  Al  Al18  1  0.414755  0.414755  0.755200  1
  Al  Al19  1  0.835970  0.494060  0.834985  1
  Pd  Pd20  1  0.625000  0.125000  0.625000  1
  Pd  Pd21  1  0.625000  0.625000  0.125000  1
  Pd  Pd22  1  0.125000  0.625000  0.625000  1
  Pd  Pd23  1  0.625000  0.625000  0.625000  1
  C  C24  1  0.125000  0.125000  0.625000  1
  C  C25  1  0.125000  0.125000  0.125000  1
  N  N26  1  0.125000  0.625000  0.125000  1
  N  N27  1  0.625000  0.125000  0.125000  1
