# generated using pymatgen
data_Pr2Nd3SnRuO12
_symmetry_space_group_name_H-M   'P 1'
_cell_length_a   7.15161315
_cell_length_b   7.15022188
_cell_length_c   7.63932936
_cell_angle_alpha   74.44160588
_cell_angle_beta   74.45039715
_cell_angle_gamma   50.92641450
_symmetry_Int_Tables_number   1
_chemical_formula_structural   Pr2Nd3SnRuO12
_chemical_formula_sum   'Pr2 Nd3 Sn1 Ru1 O12'
_cell_volume   289.58581194
_cell_formula_units_Z   1
loop_
 _symmetry_equiv_pos_site_id
 _symmetry_equiv_pos_as_xyz
  1  'x, y, z'
loop_
 _atom_site_type_symbol
 _atom_site_label
 _atom_site_symmetry_multiplicity
 _atom_site_fract_x
 _atom_site_fract_y
 _atom_site_fract_z
 _atom_site_occupancy
  Pr  Pr0  1  0.301095  0.308937  0.832769  1
  Pr  Pr1  1  0.005025  0.995132  0.499603  1
  Nd  Nd2  1  0.298958  0.306263  0.359938  1
  Nd  Nd3  1  0.693719  0.700830  0.639193  1
  Nd  Nd4  1  0.690685  0.698647  0.167706  1
  Sn  Sn5  1  0.761867  0.238009  0.000320  1
  Ru  Ru6  1  0.250021  0.750085  0.000431  1
  O  O7  1  0.092150  0.596929  0.575030  1
  O  O8  1  0.018075  0.981156  0.180560  1
  O  O9  1  0.404208  0.906764  0.423167  1
  O  O10  1  0.490640  0.510088  0.180241  1
  O  O11  1  0.100047  0.581325  0.081124  1
  O  O12  1  0.902450  0.406487  0.422385  1
  O  O13  1  0.019456  0.982198  0.819454  1
  O  O14  1  0.594796  0.096518  0.575620  1
  O  O15  1  0.490271  0.509440  0.820391  1
  O  O16  1  0.570225  0.101544  0.082509  1
  O  O17  1  0.420594  0.897665  0.920415  1
  O  O18  1  0.895718  0.431982  0.919144  1
