# generated using pymatgen
data_Tb7Tm(Si4W3)4
_symmetry_space_group_name_H-M   'P 1'
_cell_length_a   6.79268456
_cell_length_b   6.95084372
_cell_length_c   12.92792274
_cell_angle_alpha   90.03957598
_cell_angle_beta   89.99399717
_cell_angle_gamma   90.02935389
_symmetry_Int_Tables_number   1
_chemical_formula_structural   Tb7Tm(Si4W3)4
_chemical_formula_sum   'Tb7 Tm1 Si16 W12'
_cell_volume   610.39020598
_cell_formula_units_Z   1
loop_
 _symmetry_equiv_pos_site_id
 _symmetry_equiv_pos_as_xyz
  1  'x, y, z'
loop_
 _atom_site_type_symbol
 _atom_site_label
 _atom_site_symmetry_multiplicity
 _atom_site_fract_x
 _atom_site_fract_y
 _atom_site_fract_z
 _atom_site_occupancy
  Tb  Tb0  1  0.495490  0.667249  0.593436  1
  Tb  Tb1  1  0.995746  0.832798  0.906698  1
  Tb  Tb2  1  0.504670  0.332800  0.093516  1
  Tb  Tb3  1  0.004062  0.167719  0.407307  1
  Tb  Tb4  1  0.504002  0.332379  0.407314  1
  Tb  Tb5  1  0.004312  0.167460  0.093515  1
  Tb  Tb6  1  0.495490  0.667402  0.905650  1
  Tm  Tm7  1  0.994072  0.831723  0.593643  1
  Si  Si8  1  0.661685  0.956987  0.453802  1
  Si  Si9  1  0.161358  0.542955  0.047042  1
  Si  Si10  1  0.339547  0.043403  0.952233  1
  Si  Si11  1  0.839380  0.458489  0.547437  1
  Si  Si12  1  0.336247  0.041407  0.547413  1
  Si  Si13  1  0.838818  0.456794  0.952533  1
  Si  Si14  1  0.661036  0.956665  0.047122  1
  Si  Si15  1  0.161097  0.544222  0.453708  1
  Si  Si16  1  0.463485  0.368976  0.749709  1
  Si  Si17  1  0.964173  0.128633  0.748841  1
  Si  Si18  1  0.536907  0.630564  0.250378  1
  Si  Si19  1  0.036724  0.870109  0.250264  1
  Si  Si20  1  0.697946  0.867269  0.749204  1
  Si  Si21  1  0.195071  0.633340  0.748988  1
  Si  Si22  1  0.303349  0.132608  0.250360  1
  Si  Si23  1  0.803662  0.368256  0.250678  1
  W  W24  1  0.667939  0.162815  0.625560  1
  W  W25  1  0.166942  0.336077  0.873334  1
  W  W26  1  0.332537  0.836794  0.125711  1
  W  W27  1  0.832910  0.664612  0.375053  1
  W  W28  1  0.332258  0.836648  0.374498  1
  W  W29  1  0.832847  0.663836  0.126073  1
  W  W30  1  0.668654  0.163018  0.873721  1
  W  W31  1  0.167782  0.336474  0.625524  1
  W  W32  1  0.834050  0.498754  0.749456  1
  W  W33  1  0.333747  0.000206  0.749202  1
  W  W34  1  0.166178  0.501865  0.250432  1
  W  W35  1  0.665829  0.998692  0.250641  1
