# generated using pymatgen
data_Na20Ta2Ga2AsP11
_symmetry_space_group_name_H-M   'P 1'
_cell_length_a   7.38259269
_cell_length_b   8.16970912
_cell_length_c   15.51235258
_cell_angle_alpha   59.15919202
_cell_angle_beta   90.02607605
_cell_angle_gamma   89.95061554
_symmetry_Int_Tables_number   1
_chemical_formula_structural   Na20Ta2Ga2AsP11
_chemical_formula_sum   'Na20 Ta2 Ga2 As1 P11'
_cell_volume   803.30619961
_cell_formula_units_Z   1
loop_
 _symmetry_equiv_pos_site_id
 _symmetry_equiv_pos_as_xyz
  1  'x, y, z'
loop_
 _atom_site_type_symbol
 _atom_site_label
 _atom_site_symmetry_multiplicity
 _atom_site_fract_x
 _atom_site_fract_y
 _atom_site_fract_z
 _atom_site_occupancy
  Na  Na0  1  0.738244  0.941596  0.246118  1
  Na  Na1  1  0.261774  0.941153  0.746484  1
  Na  Na2  1  0.772581  0.055301  0.760924  1
  Na  Na3  1  0.229949  0.053163  0.260471  1
  Na  Na4  1  0.267957  0.245038  0.420164  1
  Na  Na5  1  0.734027  0.245083  0.918836  1
  Na  Na6  1  0.218105  0.752605  0.579252  1
  Na  Na7  1  0.782220  0.752809  0.079114  1
  Na  Na8  1  0.088237  0.344704  0.583318  1
  Na  Na9  1  0.910792  0.345587  0.080406  1
  Na  Na10  1  0.405901  0.655984  0.418774  1
  Na  Na11  1  0.594168  0.656354  0.918626  1
  Na  Na12  1  0.591921  0.335457  0.242859  1
  Na  Na13  1  0.403449  0.335197  0.743255  1
  Na  Na14  1  0.908278  0.663580  0.760277  1
  Na  Na15  1  0.093498  0.669183  0.259935  1
  Na  Na16  1  0.769945  0.423521  0.408428  1
  Na  Na17  1  0.229161  0.422784  0.907838  1
  Na  Na18  1  0.740505  0.578594  0.589341  1
  Na  Na19  1  0.259956  0.580501  0.088102  1
  Ta  Ta20  1  0.615815  0.989091  0.578718  1
  Ta  Ta21  1  0.384174  0.990055  0.077896  1
  Ga  Ga22  1  0.888692  0.005688  0.418473  1
  Ga  Ga23  1  0.108807  0.012434  0.915158  1
  As  As24  1  0.982544  0.320925  0.270427  1
  P  P25  1  0.019578  0.315045  0.773385  1
  P  P26  1  0.520564  0.695586  0.723555  1
  P  P27  1  0.479393  0.697024  0.223479  1
  P  P28  1  0.942202  0.018235  0.573752  1
  P  P29  1  0.057519  0.019550  0.072614  1
  P  P30  1  0.544540  0.978929  0.429754  1
  P  P31  1  0.455222  0.979725  0.929123  1
  P  P32  1  0.003390  0.725059  0.422761  1
  P  P33  1  0.996936  0.727958  0.921297  1
  P  P34  1  0.491793  0.263034  0.578881  1
  P  P35  1  0.508162  0.263465  0.078202  1
