# generated using pymatgen
data_Rb6HoInBi4
_symmetry_space_group_name_H-M   'P 1'
_cell_length_a   10.36153504
_cell_length_b   10.36153549
_cell_length_c   10.36153739
_cell_angle_alpha   128.40147665
_cell_angle_beta   69.14052998
_cell_angle_gamma   137.29953146
_symmetry_Int_Tables_number   1
_chemical_formula_structural   Rb6HoInBi4
_chemical_formula_sum   'Rb6 Ho1 In1 Bi4'
_cell_volume   580.56439009
_cell_formula_units_Z   1
loop_
 _symmetry_equiv_pos_site_id
 _symmetry_equiv_pos_as_xyz
  1  'x, y, z'
loop_
 _atom_site_type_symbol
 _atom_site_label
 _atom_site_symmetry_multiplicity
 _atom_site_fract_x
 _atom_site_fract_y
 _atom_site_fract_z
 _atom_site_occupancy
  Rb  Rb0  1  0.250000  0.250000  0.000000  1
  Rb  Rb1  1  0.750000  0.750000  0.000000  1
  Rb  Rb2  1  0.826230  0.315201  0.125869  1
  Rb  Rb3  1  0.673769  0.799639  0.488971  1
  Rb  Rb4  1  0.310667  0.184799  0.511029  1
  Rb  Rb5  1  0.189332  0.700362  0.874131  1
  Ho  Ho6  1  0.750000  0.250000  0.500000  1
  In  In7  1  0.250000  0.750000  0.500000  1
  Bi  Bi8  1  0.393912  0.801558  0.204490  1
  Bi  Bi9  1  0.106088  0.310578  0.407646  1
  Bi  Bi10  1  0.902933  0.698442  0.592355  1
  Bi  Bi11  1  0.597067  0.189422  0.795510  1
