# generated using pymatgen
data_Tb4Y3Co6Sn23
_symmetry_space_group_name_H-M   'P 1'
_cell_length_a   9.72923301
_cell_length_b   9.73061915
_cell_length_c   9.98918307
_cell_angle_alpha   89.99694535
_cell_angle_beta   90.00880035
_cell_angle_gamma   120.01257279
_symmetry_Int_Tables_number   1
_chemical_formula_structural   Tb4Y3Co6Sn23
_chemical_formula_sum   'Tb4 Y3 Co6 Sn23'
_cell_volume   818.88825560
_cell_formula_units_Z   1
loop_
 _symmetry_equiv_pos_site_id
 _symmetry_equiv_pos_as_xyz
  1  'x, y, z'
loop_
 _atom_site_type_symbol
 _atom_site_label
 _atom_site_symmetry_multiplicity
 _atom_site_fract_x
 _atom_site_fract_y
 _atom_site_fract_z
 _atom_site_occupancy
  Tb  Tb0  1  0.999938  0.999876  0.000103  1
  Tb  Tb1  1  0.521799  0.043501  0.694206  1
  Tb  Tb2  1  0.043520  0.521761  0.305776  1
  Tb  Tb3  1  0.956493  0.478185  0.694204  1
  Y  Y4  1  0.478277  0.521619  0.305780  1
  Y  Y5  1  0.521662  0.478341  0.694204  1
  Y  Y6  1  0.478285  0.956685  0.305771  1
  Co  Co7  1  0.832637  0.167205  0.196673  1
  Co  Co8  1  0.167295  0.832764  0.803295  1
  Co  Co9  1  0.832595  0.665421  0.196737  1
  Co  Co10  1  0.167491  0.334782  0.803337  1
  Co  Co11  1  0.334848  0.167469  0.196711  1
  Co  Co12  1  0.665170  0.832513  0.803261  1
  Sn  Sn13  1  0.345817  0.000081  0.999973  1
  Sn  Sn14  1  0.654155  0.999864  0.999991  1
  Sn  Sn15  1  0.000049  0.345765  0.000005  1
  Sn  Sn16  1  0.999973  0.654195  0.999983  1
  Sn  Sn17  1  0.654167  0.654256  0.999973  1
  Sn  Sn18  1  0.345753  0.345731  0.000000  1
  Sn  Sn19  1  0.333309  0.666632  0.818172  1
  Sn  Sn20  1  0.666659  0.333302  0.181876  1
  Sn  Sn21  1  0.999963  0.999920  0.499997  1
  Sn  Sn22  1  0.780938  0.218677  0.451217  1
  Sn  Sn23  1  0.218945  0.781128  0.548588  1
  Sn  Sn24  1  0.780827  0.562141  0.451324  1
  Sn  Sn25  1  0.219099  0.437663  0.548733  1
  Sn  Sn26  1  0.437739  0.218929  0.451190  1
  Sn  Sn27  1  0.562266  0.780944  0.548638  1
  Sn  Sn28  1  0.334006  0.666933  0.116052  1
  Sn  Sn29  1  0.666298  0.333663  0.884165  1
  Sn  Sn30  1  0.117886  0.882414  0.274853  1
  Sn  Sn31  1  0.882380  0.117597  0.725222  1
  Sn  Sn32  1  0.117897  0.235548  0.274840  1
  Sn  Sn33  1  0.882072  0.764436  0.725129  1
  Sn  Sn34  1  0.764077  0.882061  0.274894  1
  Sn  Sn35  1  0.235715  0.117994  0.725130  1
