# generated using pymatgen
data_Tb8Hg2IrRh
_symmetry_space_group_name_H-M   'P 1'
_cell_length_a   9.61204896
_cell_length_b   9.63006182
_cell_length_c   9.63006132
_cell_angle_alpha   60.15131787
_cell_angle_beta   60.06184695
_cell_angle_gamma   60.06185768
_symmetry_Int_Tables_number   1
_chemical_formula_structural   Tb8Hg2IrRh
_chemical_formula_sum   'Tb16 Hg4 Ir2 Rh2'
_cell_volume   631.62544080
_cell_formula_units_Z   2
loop_
 _symmetry_equiv_pos_site_id
 _symmetry_equiv_pos_as_xyz
  1  'x, y, z'
loop_
 _atom_site_type_symbol
 _atom_site_label
 _atom_site_symmetry_multiplicity
 _atom_site_fract_x
 _atom_site_fract_y
 _atom_site_fract_z
 _atom_site_occupancy
  Tb  Tb0  1  0.301112  0.899141  0.899141  1
  Tb  Tb1  1  0.688176  0.311727  0.687320  1
  Tb  Tb2  1  0.312778  0.687320  0.311727  1
  Tb  Tb3  1  0.059425  0.440575  0.440575  1
  Tb  Tb4  1  0.687305  0.312695  0.312695  1
  Tb  Tb5  1  0.439798  0.060293  0.440825  1
  Tb  Tb6  1  0.440344  0.059656  0.059656  1
  Tb  Tb7  1  0.900606  0.899141  0.899141  1
  Tb  Tb8  1  0.059084  0.440825  0.060293  1
  Tb  Tb9  1  0.899469  0.303481  0.897581  1
  Tb  Tb10  1  0.311585  0.688415  0.688415  1
  Tb  Tb11  1  0.899469  0.897581  0.303481  1
  Tb  Tb12  1  0.439798  0.440825  0.060293  1
  Tb  Tb13  1  0.312778  0.311727  0.687320  1
  Tb  Tb14  1  0.688176  0.687320  0.311727  1
  Tb  Tb15  1  0.059084  0.060293  0.440825  1
  Hg  Hg16  1  0.004144  0.665205  0.665205  1
  Hg  Hg17  1  0.664898  0.005391  0.664814  1
  Hg  Hg18  1  0.664898  0.664814  0.005391  1
  Hg  Hg19  1  0.665445  0.665205  0.665205  1
  Ir  Ir20  1  0.108462  0.107136  0.675939  1
  Ir  Ir21  1  0.108462  0.675939  0.107136  1
  Rh  Rh22  1  0.108970  0.107646  0.107646  1
  Rh  Rh23  1  0.675738  0.107646  0.107646  1
