# generated using pymatgen
data_Nb8V2Si6BH
_symmetry_space_group_name_H-M   'P 1'
_cell_length_a   7.53670300
_cell_length_b   7.53670166
_cell_length_c   5.18683100
_cell_angle_alpha   90.00000000
_cell_angle_beta   90.00000000
_cell_angle_gamma   120.00000149
_symmetry_Int_Tables_number   1
_chemical_formula_structural   Nb8V2Si6BH
_chemical_formula_sum   'Nb8 V2 Si6 B1 H1'
_cell_volume   255.14992697
_cell_formula_units_Z   1
loop_
 _symmetry_equiv_pos_site_id
 _symmetry_equiv_pos_as_xyz
  1  'x, y, z'
loop_
 _atom_site_type_symbol
 _atom_site_label
 _atom_site_symmetry_multiplicity
 _atom_site_fract_x
 _atom_site_fract_y
 _atom_site_fract_z
 _atom_site_occupancy
  Nb  Nb0  1  0.333333  0.666667  0.000000  1
  Nb  Nb1  1  0.666667  0.333333  0.000000  1
  Nb  Nb2  1  0.754210  0.754210  0.251187  1
  Nb  Nb3  1  0.245790  0.000000  0.251187  1
  Nb  Nb4  1  0.000000  0.245790  0.251187  1
  Nb  Nb5  1  0.245790  0.245790  0.748813  1
  Nb  Nb6  1  0.754210  0.000000  0.748813  1
  Nb  Nb7  1  0.000000  0.754210  0.748813  1
  V  V8  1  0.666667  0.333333  0.500000  1
  V  V9  1  0.333333  0.666667  0.500000  1
  Si  Si10  1  0.402592  0.402592  0.269628  1
  Si  Si11  1  0.597408  0.000000  0.269628  1
  Si  Si12  1  0.000000  0.597408  0.269628  1
  Si  Si13  1  0.597408  0.597408  0.730372  1
  Si  Si14  1  0.402592  0.000000  0.730372  1
  Si  Si15  1  0.000000  0.402592  0.730372  1
  B  B16  1  0.000000  0.000000  0.000000  1
  H  H17  1  0.000000  0.000000  0.500000  1
