# generated using pymatgen
data_SrNiSb12Os2Ru
_symmetry_space_group_name_H-M   'P 1'
_cell_length_a   8.12334941
_cell_length_b   8.12006061
_cell_length_c   8.12905551
_cell_angle_alpha   109.35727442
_cell_angle_beta   109.36429192
_cell_angle_gamma   109.34429714
_symmetry_Int_Tables_number   1
_chemical_formula_structural   SrNiSb12Os2Ru
_chemical_formula_sum   'Sr1 Ni1 Sb12 Os2 Ru1'
_cell_volume   414.53653017
_cell_formula_units_Z   1
loop_
 _symmetry_equiv_pos_site_id
 _symmetry_equiv_pos_as_xyz
  1  'x, y, z'
loop_
 _atom_site_type_symbol
 _atom_site_label
 _atom_site_symmetry_multiplicity
 _atom_site_fract_x
 _atom_site_fract_y
 _atom_site_fract_z
 _atom_site_occupancy
  Sr  Sr0  1  0.000000  0.000000  0.000000  1
  Ni  Ni1  1  0.500000  0.500000  0.500000  1
  Sb  Sb2  1  0.159542  0.498382  0.342753  1
  Sb  Sb3  1  0.501636  0.657128  0.840554  1
  Sb  Sb4  1  0.339973  0.841350  0.182766  1
  Sb  Sb5  1  0.817994  0.661226  0.159673  1
  Sb  Sb6  1  0.658219  0.840819  0.501626  1
  Sb  Sb7  1  0.182006  0.338774  0.840327  1
  Sb  Sb8  1  0.660027  0.158650  0.817234  1
  Sb  Sb9  1  0.341781  0.159181  0.498374  1
  Sb  Sb10  1  0.498364  0.342872  0.159446  1
  Sb  Sb11  1  0.840458  0.501618  0.657247  1
  Sb  Sb12  1  0.841503  0.181937  0.340435  1
  Sb  Sb13  1  0.158497  0.818063  0.659565  1
  Os  Os14  1  0.500000  0.000000  0.000000  1
  Os  Os15  1  0.000000  0.500000  0.000000  1
  Ru  Ru16  1  0.000000  0.000000  0.500000  1
