# generated using pymatgen
data_Y12Ru7
_symmetry_space_group_name_H-M   'P 1'
_cell_length_a   11.39430932
_cell_length_b   8.41086834
_cell_length_c   11.29057717
_cell_angle_alpha   56.58337532
_cell_angle_beta   89.96930094
_cell_angle_gamma   89.99422087
_symmetry_Int_Tables_number   1
_chemical_formula_structural   Y12Ru7
_chemical_formula_sum   'Y24 Ru14'
_cell_volume   903.16922833
_cell_formula_units_Z   2
loop_
 _symmetry_equiv_pos_site_id
 _symmetry_equiv_pos_as_xyz
  1  'x, y, z'
loop_
 _atom_site_type_symbol
 _atom_site_label
 _atom_site_symmetry_multiplicity
 _atom_site_fract_x
 _atom_site_fract_y
 _atom_site_fract_z
 _atom_site_occupancy
  Y  Y0  1  0.705487  0.243216  0.530059  1
  Y  Y1  1  0.205531  0.756628  0.970008  1
  Y  Y2  1  0.844980  0.507963  0.654570  1
  Y  Y3  1  0.345062  0.491906  0.845379  1
  Y  Y4  1  0.154943  0.492096  0.345336  1
  Y  Y5  1  0.655014  0.508103  0.154490  1
  Y  Y6  1  0.006926  0.852413  0.361544  1
  Y  Y7  1  0.506912  0.147564  0.138413  1
  Y  Y8  1  0.992995  0.147652  0.638551  1
  Y  Y9  1  0.493193  0.852420  0.861689  1
  Y  Y10  1  0.794437  0.243280  0.030017  1
  Y  Y11  1  0.294524  0.756579  0.469946  1
  Y  Y12  1  0.931301  0.777230  0.089789  1
  Y  Y13  1  0.431392  0.222910  0.410028  1
  Y  Y14  1  0.068558  0.222805  0.910139  1
  Y  Y15  1  0.568718  0.777307  0.589753  1
  Y  Y16  1  0.300960  0.240754  0.675954  1
  Y  Y17  1  0.800978  0.759337  0.824080  1
  Y  Y18  1  0.699073  0.759231  0.324017  1
  Y  Y19  1  0.199045  0.240773  0.175802  1
  Y  Y20  1  0.925434  0.280724  0.292949  1
  Y  Y21  1  0.425598  0.719275  0.207099  1
  Y  Y22  1  0.074391  0.719083  0.707228  1
  Y  Y23  1  0.574554  0.280609  0.793017  1
  Ru  Ru24  1  0.500083  0.500031  0.500080  1
  Ru  Ru25  1  0.999943  0.499977  0.000116  1
  Ru  Ru26  1  0.649187  0.925288  0.032079  1
  Ru  Ru27  1  0.149461  0.074342  0.468349  1
  Ru  Ru28  1  0.350686  0.074517  0.968251  1
  Ru  Ru29  1  0.850656  0.925442  0.531904  1
  Ru  Ru30  1  0.398598  0.484276  0.102815  1
  Ru  Ru31  1  0.898715  0.515815  0.397165  1
  Ru  Ru32  1  0.601359  0.515887  0.897069  1
  Ru  Ru33  1  0.101385  0.484225  0.602866  1
  Ru  Ru34  1  0.818132  0.096778  0.850618  1
  Ru  Ru35  1  0.317972  0.903614  0.648995  1
  Ru  Ru36  1  0.181800  0.903339  0.149191  1
  Ru  Ru37  1  0.682018  0.096612  0.350643  1
