# generated using pymatgen
data_La14NiIr5
_symmetry_space_group_name_H-M   'P 1'
_cell_length_a   10.18427069
_cell_length_b   10.24482054
_cell_length_c   6.56923470
_cell_angle_alpha   89.99999938
_cell_angle_beta   90.22048634
_cell_angle_gamma   120.19686439
_symmetry_Int_Tables_number   1
_chemical_formula_structural   La14NiIr5
_chemical_formula_sum   'La14 Ni1 Ir5'
_cell_volume   592.39372037
_cell_formula_units_Z   1
loop_
 _symmetry_equiv_pos_site_id
 _symmetry_equiv_pos_as_xyz
  1  'x, y, z'
loop_
 _atom_site_type_symbol
 _atom_site_label
 _atom_site_symmetry_multiplicity
 _atom_site_fract_x
 _atom_site_fract_y
 _atom_site_fract_z
 _atom_site_occupancy
  La  La0  1  0.464945  0.540279  0.311641  1
  La  La1  1  0.335342  0.667671  0.771211  1
  La  La2  1  0.874339  0.126880  0.501985  1
  La  La3  1  0.748465  0.874232  0.004613  1
  La  La4  1  0.874339  0.747459  0.501985  1
  La  La5  1  0.077244  0.538622  0.311825  1
  La  La6  1  0.125335  0.874087  0.003820  1
  La  La7  1  0.536272  0.076114  0.811316  1
  La  La8  1  0.922796  0.461398  0.810959  1
  La  La9  1  0.666100  0.333050  0.272849  1
  La  La10  1  0.464945  0.924668  0.311641  1
  La  La11  1  0.249162  0.124581  0.503341  1
  La  La12  1  0.536272  0.460158  0.811316  1
  La  La13  1  0.125335  0.251248  0.003820  1
  Ni  Ni14  1  0.623263  0.811632  0.548388  1
  Ir  Ir15  1  0.373751  0.186875  0.051751  1
  Ir  Ir16  1  0.190517  0.813793  0.552124  1
  Ir  Ir17  1  0.810529  0.625216  0.052646  1
  Ir  Ir18  1  0.190517  0.376724  0.552124  1
  Ir  Ir19  1  0.810529  0.185313  0.052646  1
