# generated using pymatgen
data_Y4Tm3Co6Sn22Hg
_symmetry_space_group_name_H-M   'P 1'
_cell_length_a   9.66392400
_cell_length_b   9.66392527
_cell_length_c   10.00396700
_cell_angle_alpha   90.00000000
_cell_angle_beta   90.00000000
_cell_angle_gamma   120.00000933
_symmetry_Int_Tables_number   1
_chemical_formula_structural   Y4Tm3Co6Sn22Hg
_chemical_formula_sum   'Y4 Tm3 Co6 Sn22 Hg1'
_cell_volume   809.11436235
_cell_formula_units_Z   1
loop_
 _symmetry_equiv_pos_site_id
 _symmetry_equiv_pos_as_xyz
  1  'x, y, z'
loop_
 _atom_site_type_symbol
 _atom_site_label
 _atom_site_symmetry_multiplicity
 _atom_site_fract_x
 _atom_site_fract_y
 _atom_site_fract_z
 _atom_site_occupancy
  Y  Y0  1  0.000000  0.000000  0.000539  1
  Y  Y1  1  0.956222  0.478111  0.692737  1
  Y  Y2  1  0.521889  0.043778  0.692737  1
  Y  Y3  1  0.521889  0.478111  0.692737  1
  Tm  Tm4  1  0.041551  0.520775  0.306107  1
  Tm  Tm5  1  0.479225  0.958449  0.306107  1
  Tm  Tm6  1  0.479225  0.520775  0.306107  1
  Co  Co7  1  0.167925  0.832075  0.803397  1
  Co  Co8  1  0.664151  0.832075  0.803397  1
  Co  Co9  1  0.167925  0.335849  0.803397  1
  Co  Co10  1  0.831717  0.168283  0.197411  1
  Co  Co11  1  0.336566  0.168283  0.197411  1
  Co  Co12  1  0.831717  0.663434  0.197411  1
  Sn  Sn13  1  0.117429  0.882571  0.270427  1
  Sn  Sn14  1  0.765140  0.882571  0.270427  1
  Sn  Sn15  1  0.117429  0.234860  0.270427  1
  Sn  Sn16  1  0.883400  0.116600  0.730213  1
  Sn  Sn17  1  0.233203  0.116600  0.730213  1
  Sn  Sn18  1  0.883400  0.766797  0.730213  1
  Sn  Sn19  1  0.346492  0.000014  0.000342  1
  Sn  Sn20  1  0.653523  0.653508  0.000342  1
  Sn  Sn21  1  0.999986  0.346477  0.000342  1
  Sn  Sn22  1  0.346492  0.346477  0.000342  1
  Sn  Sn23  1  0.999986  0.653508  0.000342  1
  Sn  Sn24  1  0.653523  0.000014  0.000342  1
  Sn  Sn25  1  0.782400  0.564799  0.451441  1
  Sn  Sn26  1  0.782400  0.217600  0.451441  1
  Sn  Sn27  1  0.435201  0.217600  0.451441  1
  Sn  Sn28  1  0.217654  0.435309  0.546028  1
  Sn  Sn29  1  0.217654  0.782346  0.546028  1
  Sn  Sn30  1  0.564691  0.782346  0.546028  1
  Sn  Sn31  1  0.666667  0.333333  0.182223  1
  Sn  Sn32  1  0.333333  0.666667  0.818003  1
  Sn  Sn33  1  0.666667  0.333333  0.883112  1
  Sn  Sn34  1  0.333333  0.666667  0.121155  1
  Hg  Hg35  1  0.000000  0.000000  0.499635  1
