# generated using pymatgen
data_Hf4NbTc8W3
_symmetry_space_group_name_H-M   'P 1'
_cell_length_a   6.41634205
_cell_length_b   4.51901404
_cell_length_c   9.05293000
_cell_angle_alpha   90.00088699
_cell_angle_beta   89.99669609
_cell_angle_gamma   90.01426031
_symmetry_Int_Tables_number   1
_chemical_formula_structural   Hf4NbTc8W3
_chemical_formula_sum   'Hf4 Nb1 Tc8 W3'
_cell_volume   262.49458354
_cell_formula_units_Z   1
loop_
 _symmetry_equiv_pos_site_id
 _symmetry_equiv_pos_as_xyz
  1  'x, y, z'
loop_
 _atom_site_type_symbol
 _atom_site_label
 _atom_site_symmetry_multiplicity
 _atom_site_fract_x
 _atom_site_fract_y
 _atom_site_fract_z
 _atom_site_occupancy
  Hf  Hf0  1  0.249991  0.249996  0.125008  1
  Hf  Hf1  1  0.749998  0.749999  0.375643  1
  Hf  Hf2  1  0.250001  0.249996  0.625009  1
  Hf  Hf3  1  0.750016  0.750001  0.874338  1
  Nb  Nb4  1  0.749993  0.249997  0.125002  1
  Tc  Tc5  1  0.004007  0.749976  0.125001  1
  Tc  Tc6  1  0.495973  0.750025  0.125001  1
  Tc  Tc7  1  0.001758  0.250025  0.377918  1
  Tc  Tc8  1  0.498229  0.249970  0.377912  1
  Tc  Tc9  1  0.500328  0.750027  0.624989  1
  Tc  Tc10  1  0.999677  0.749972  0.624988  1
  Tc  Tc11  1  0.498242  0.249978  0.872091  1
  Tc  Tc12  1  0.001775  0.250024  0.872086  1
  W  W13  1  0.249995  0.750000  0.374835  1
  W  W14  1  0.749994  0.250000  0.624985  1
  W  W15  1  0.250018  0.749999  0.875200  1
