# generated using pymatgen
data_K8Hf6BI20
_symmetry_space_group_name_H-M   'P 1'
_cell_length_a   12.57977549
_cell_length_b   12.57977606
_cell_length_c   12.57977500
_cell_angle_alpha   60.00000016
_cell_angle_beta   59.99999866
_cell_angle_gamma   59.99999757
_symmetry_Int_Tables_number   1
_chemical_formula_structural   K8Hf6BI20
_chemical_formula_sum   'K8 Hf6 B1 I20'
_cell_volume   1407.67910485
_cell_formula_units_Z   1
loop_
 _symmetry_equiv_pos_site_id
 _symmetry_equiv_pos_as_xyz
  1  'x, y, z'
loop_
 _atom_site_type_symbol
 _atom_site_label
 _atom_site_symmetry_multiplicity
 _atom_site_fract_x
 _atom_site_fract_y
 _atom_site_fract_z
 _atom_site_occupancy
  K  K0  1  0.361773  0.361773  0.361773  1
  K  K1  1  0.638227  0.638227  0.638227  1
  K  K2  1  0.361773  0.361773  0.914683  1
  K  K3  1  0.361773  0.914683  0.361773  1
  K  K4  1  0.638227  0.638227  0.085317  1
  K  K5  1  0.638227  0.085317  0.638227  1
  K  K6  1  0.914683  0.361773  0.361773  1
  K  K7  1  0.085317  0.638227  0.638227  1
  Hf  Hf8  1  0.869676  0.130324  0.130324  1
  Hf  Hf9  1  0.130324  0.869676  0.869676  1
  Hf  Hf10  1  0.130324  0.869676  0.130324  1
  Hf  Hf11  1  0.869676  0.130324  0.869676  1
  Hf  Hf12  1  0.130324  0.130324  0.869676  1
  Hf  Hf13  1  0.869676  0.869676  0.130324  1
  B  B14  1  0.000000  0.000000  0.000000  1
  I  I15  1  0.321219  0.000000  0.000000  1
  I  I16  1  0.678781  0.000000  0.000000  1
  I  I17  1  0.000000  0.321219  0.678781  1
  I  I18  1  0.000000  0.678781  0.321219  1
  I  I19  1  0.000000  0.321219  0.000000  1
  I  I20  1  0.678781  0.000000  0.321219  1
  I  I21  1  0.000000  0.678781  0.000000  1
  I  I22  1  0.321219  0.000000  0.678781  1
  I  I23  1  0.000000  0.000000  0.321219  1
  I  I24  1  0.000000  0.000000  0.678781  1
  I  I25  1  0.678781  0.321219  0.000000  1
  I  I26  1  0.321219  0.678781  0.000000  1
  I  I27  1  0.687587  0.312413  0.312413  1
  I  I28  1  0.312413  0.687587  0.687587  1
  I  I29  1  0.312413  0.687587  0.312413  1
  I  I30  1  0.687587  0.312413  0.687587  1
  I  I31  1  0.312413  0.312413  0.687587  1
  I  I32  1  0.687587  0.687587  0.312413  1
  I  I33  1  0.250000  0.250000  0.250000  1
  I  I34  1  0.750000  0.750000  0.750000  1
