# generated using pymatgen
data_Tm7TaAlPd24
_symmetry_space_group_name_H-M   'P 1'
_cell_length_a   8.27832555
_cell_length_b   8.27832549
_cell_length_c   8.27832600
_cell_angle_alpha   89.66612039
_cell_angle_beta   90.33387960
_cell_angle_gamma   90.33388163
_symmetry_Int_Tables_number   1
_chemical_formula_structural   Tm7TaAlPd24
_chemical_formula_sum   'Tm7 Ta1 Al1 Pd24'
_cell_volume   567.29047023
_cell_formula_units_Z   1
loop_
 _symmetry_equiv_pos_site_id
 _symmetry_equiv_pos_as_xyz
  1  'x, y, z'
loop_
 _atom_site_type_symbol
 _atom_site_label
 _atom_site_symmetry_multiplicity
 _atom_site_fract_x
 _atom_site_fract_y
 _atom_site_fract_z
 _atom_site_occupancy
  Tm  Tm0  1  0.250605  0.252703  0.252703  1
  Tm  Tm1  1  0.747983  0.748255  0.748255  1
  Tm  Tm2  1  0.747297  0.749395  0.252703  1
  Tm  Tm3  1  0.747297  0.252703  0.749395  1
  Tm  Tm4  1  0.251745  0.252017  0.748255  1
  Tm  Tm5  1  0.251745  0.748255  0.252017  1
  Tm  Tm6  1  0.253802  0.746198  0.746198  1
  Ta  Ta7  1  0.741854  0.258146  0.258146  1
  Al  Al8  1  0.005515  0.994485  0.994485  1
  Pd  Pd9  1  0.258477  0.497129  0.000935  1
  Pd  Pd10  1  0.741049  0.494444  0.009341  1
  Pd  Pd11  1  0.990659  0.258951  0.494444  1
  Pd  Pd12  1  0.505556  0.258951  0.009341  1
  Pd  Pd13  1  0.999065  0.741523  0.497129  1
  Pd  Pd14  1  0.502871  0.741523  0.000935  1
  Pd  Pd15  1  0.505556  0.009341  0.258951  1
  Pd  Pd16  1  0.258477  0.000935  0.497129  1
  Pd  Pd17  1  0.502871  0.000935  0.741523  1
  Pd  Pd18  1  0.741049  0.009341  0.494444  1
  Pd  Pd19  1  0.990659  0.494444  0.258951  1
  Pd  Pd20  1  0.999065  0.497129  0.741523  1
  Pd  Pd21  1  0.251799  0.498348  0.498348  1
  Pd  Pd22  1  0.746711  0.494357  0.494357  1
  Pd  Pd23  1  0.505643  0.253289  0.494357  1
  Pd  Pd24  1  0.501652  0.748201  0.498348  1
  Pd  Pd25  1  0.505643  0.494357  0.253289  1
  Pd  Pd26  1  0.501652  0.498348  0.748201  1
  Pd  Pd27  1  0.291316  0.999863  0.999863  1
  Pd  Pd28  1  0.718098  0.007995  0.007995  1
  Pd  Pd29  1  0.992005  0.281902  0.007995  1
  Pd  Pd30  1  0.000137  0.708684  0.999863  1
  Pd  Pd31  1  0.992005  0.007995  0.281902  1
  Pd  Pd32  1  0.000137  0.999863  0.708684  1
