# generated using pymatgen
data_Mg2Fe4Co7NiP7
_symmetry_space_group_name_H-M   'P 1'
_cell_length_a   8.91876789
_cell_length_b   8.97170029
_cell_length_c   3.53322500
_cell_angle_alpha   90.00000000
_cell_angle_beta   90.00000000
_cell_angle_gamma   120.46094483
_symmetry_Int_Tables_number   1
_chemical_formula_structural   Mg2Fe4Co7NiP7
_chemical_formula_sum   'Mg2 Fe4 Co7 Ni1 P7'
_cell_volume   243.69439630
_cell_formula_units_Z   1
loop_
 _symmetry_equiv_pos_site_id
 _symmetry_equiv_pos_as_xyz
  1  'x, y, z'
loop_
 _atom_site_type_symbol
 _atom_site_label
 _atom_site_symmetry_multiplicity
 _atom_site_fract_x
 _atom_site_fract_y
 _atom_site_fract_z
 _atom_site_occupancy
  Mg  Mg0  1  0.998121  0.001071  0.000000  1
  Mg  Mg1  1  0.334966  0.666111  0.500000  1
  Fe  Fe2  1  0.716887  0.946649  0.500000  1
  Fe  Fe3  1  0.889057  0.427664  0.500000  1
  Fe  Fe4  1  0.543765  0.118244  0.500000  1
  Fe  Fe5  1  0.571387  0.458982  0.500000  1
  Co  Co6  1  0.389399  0.214287  0.000000  1
  Co  Co7  1  0.785605  0.177598  0.000000  1
  Co  Co8  1  0.828079  0.613197  0.000000  1
  Co  Co9  1  0.602578  0.704096  0.000000  1
  Co  Co10  1  0.292576  0.895674  0.000000  1
  Co  Co11  1  0.104734  0.396543  0.000000  1
  Co  Co12  1  0.224820  0.276082  0.500000  1
  Ni  Ni13  1  0.052386  0.774731  0.500000  1
  P  P14  1  0.263899  0.047044  0.500000  1
  P  P15  1  0.953348  0.213627  0.500000  1
  P  P16  1  0.778468  0.739877  0.500000  1
  P  P17  1  0.372689  0.448992  0.000000  1
  P  P18  1  0.549731  0.921154  0.000000  1
  P  P19  1  0.078783  0.622663  0.000000  1
  P  P20  1  0.668726  0.335714  0.000000  1
