# generated using pymatgen
data_Yb(EuSn2)5
_symmetry_space_group_name_H-M   'P 1'
_cell_length_a   6.67154432
_cell_length_b   6.67154373
_cell_length_c   10.62760100
_cell_angle_alpha   90.00000000
_cell_angle_beta   90.00000000
_cell_angle_gamma   101.32697321
_symmetry_Int_Tables_number   1
_chemical_formula_structural   Yb(EuSn2)5
_chemical_formula_sum   'Yb1 Eu5 Sn10'
_cell_volume   463.81568400
_cell_formula_units_Z   1
loop_
 _symmetry_equiv_pos_site_id
 _symmetry_equiv_pos_as_xyz
  1  'x, y, z'
loop_
 _atom_site_type_symbol
 _atom_site_label
 _atom_site_symmetry_multiplicity
 _atom_site_fract_x
 _atom_site_fract_y
 _atom_site_fract_z
 _atom_site_occupancy
  Yb  Yb0  1  0.628437  0.628437  0.250000  1
  Eu  Eu1  1  0.796588  0.203502  0.000321  1
  Eu  Eu2  1  0.203502  0.796588  0.000321  1
  Eu  Eu3  1  0.203502  0.796588  0.499679  1
  Eu  Eu4  1  0.796588  0.203502  0.499679  1
  Eu  Eu5  1  0.371283  0.371283  0.750000  1
  Sn  Sn6  1  0.072128  0.496537  0.250000  1
  Sn  Sn7  1  0.926282  0.504474  0.750000  1
  Sn  Sn8  1  0.496537  0.072127  0.250000  1
  Sn  Sn9  1  0.504474  0.926282  0.750000  1
  Sn  Sn10  1  0.024475  0.024475  0.250000  1
  Sn  Sn11  1  0.974786  0.974786  0.750000  1
  Sn  Sn12  1  0.310127  0.310127  0.049166  1
  Sn  Sn13  1  0.690583  0.690583  0.952824  1
  Sn  Sn14  1  0.690583  0.690583  0.547176  1
  Sn  Sn15  1  0.310127  0.310127  0.450834  1
