# generated using pymatgen
data_Nd7Th(GePd)8
_symmetry_space_group_name_H-M   'P 1'
_cell_length_a   4.51520100
_cell_length_b   7.75084842
_cell_length_c   14.56881752
_cell_angle_alpha   90.03403484
_cell_angle_beta   90.00000000
_cell_angle_gamma   90.00000000
_symmetry_Int_Tables_number   1
_chemical_formula_structural   Nd7Th(GePd)8
_chemical_formula_sum   'Nd7 Th1 Ge8 Pd8'
_cell_volume   509.85955034
_cell_formula_units_Z   1
loop_
 _symmetry_equiv_pos_site_id
 _symmetry_equiv_pos_as_xyz
  1  'x, y, z'
loop_
 _atom_site_type_symbol
 _atom_site_label
 _atom_site_symmetry_multiplicity
 _atom_site_fract_x
 _atom_site_fract_y
 _atom_site_fract_z
 _atom_site_occupancy
  Nd  Nd0  1  0.000000  0.216106  0.751732  1
  Nd  Nd1  1  0.000000  0.218928  0.248243  1
  Nd  Nd2  1  0.500000  0.783896  0.748056  1
  Nd  Nd3  1  0.000000  0.286654  0.499933  1
  Nd  Nd4  1  0.500000  0.714640  0.999095  1
  Nd  Nd5  1  0.000000  0.294792  0.999943  1
  Nd  Nd6  1  0.500000  0.705083  0.501283  1
  Th  Th7  1  0.500000  0.781672  0.252200  1
  Ge  Ge8  1  0.000000  0.590122  0.856542  1
  Ge  Ge9  1  0.000000  0.589211  0.144428  1
  Ge  Ge10  1  0.500000  0.409682  0.643033  1
  Ge  Ge11  1  0.500000  0.407893  0.357640  1
  Ge  Ge12  1  0.000000  0.910550  0.402415  1
  Ge  Ge13  1  0.000000  0.911496  0.596561  1
  Ge  Ge14  1  0.500000  0.090059  0.097640  1
  Ge  Ge15  1  0.500000  0.088696  0.904113  1
  Pd  Pd16  1  0.000000  0.924186  0.890644  1
  Pd  Pd17  1  0.000000  0.923165  0.111210  1
  Pd  Pd18  1  0.500000  0.076062  0.609558  1
  Pd  Pd19  1  0.500000  0.071731  0.387818  1
  Pd  Pd20  1  0.000000  0.585309  0.344534  1
  Pd  Pd21  1  0.000000  0.579767  0.653391  1
  Pd  Pd22  1  0.500000  0.421275  0.153034  1
  Pd  Pd23  1  0.500000  0.419024  0.846956  1
