# generated using pymatgen
data_K2Rb3Bi2Au
_symmetry_space_group_name_H-M   'P 1'
_cell_length_a   6.27085300
_cell_length_b   6.27085375
_cell_length_c   21.81745600
_cell_angle_alpha   90.00000000
_cell_angle_beta   90.00000000
_cell_angle_gamma   120.00001188
_symmetry_Int_Tables_number   1
_chemical_formula_structural   K2Rb3Bi2Au
_chemical_formula_sum   'K4 Rb6 Bi4 Au2'
_cell_volume   742.99857509
_cell_formula_units_Z   2
loop_
 _symmetry_equiv_pos_site_id
 _symmetry_equiv_pos_as_xyz
  1  'x, y, z'
loop_
 _atom_site_type_symbol
 _atom_site_label
 _atom_site_symmetry_multiplicity
 _atom_site_fract_x
 _atom_site_fract_y
 _atom_site_fract_z
 _atom_site_occupancy
  K  K0  1  0.000000  0.000000  0.148093  1
  K  K1  1  0.000000  0.000000  0.648093  1
  K  K2  1  0.000000  0.000000  0.851907  1
  K  K3  1  0.000000  0.000000  0.351907  1
  Rb  Rb4  1  0.333333  0.666667  0.550640  1
  Rb  Rb5  1  0.666667  0.333333  0.050640  1
  Rb  Rb6  1  0.666667  0.333333  0.449360  1
  Rb  Rb7  1  0.333333  0.666667  0.949360  1
  Rb  Rb8  1  0.333333  0.666667  0.750000  1
  Rb  Rb9  1  0.666667  0.333333  0.250000  1
  Bi  Bi10  1  0.333333  0.666667  0.122692  1
  Bi  Bi11  1  0.666667  0.333333  0.622692  1
  Bi  Bi12  1  0.333333  0.666667  0.377308  1
  Bi  Bi13  1  0.666667  0.333333  0.877308  1
  Au  Au14  1  0.666667  0.333333  0.750000  1
  Au  Au15  1  0.333333  0.666667  0.250000  1
