# generated using pymatgen
data_Ho4Pa4Re3B24W
_symmetry_space_group_name_H-M   'P 1'
_cell_length_a   3.72164000
_cell_length_b   9.17402525
_cell_length_c   11.52525031
_cell_angle_alpha   89.97318453
_cell_angle_beta   90.00000000
_cell_angle_gamma   90.00000000
_symmetry_Int_Tables_number   1
_chemical_formula_structural   Ho4Pa4Re3B24W
_chemical_formula_sum   'Ho4 Pa4 Re3 B24 W1'
_cell_volume   393.49988613
_cell_formula_units_Z   1
loop_
 _symmetry_equiv_pos_site_id
 _symmetry_equiv_pos_as_xyz
  1  'x, y, z'
loop_
 _atom_site_type_symbol
 _atom_site_label
 _atom_site_symmetry_multiplicity
 _atom_site_fract_x
 _atom_site_fract_y
 _atom_site_fract_z
 _atom_site_occupancy
  Ho  Ho0  1  0.000000  0.945662  0.374686  1
  Ho  Ho1  1  0.000000  0.055022  0.625568  1
  Ho  Ho2  1  0.000000  0.445336  0.124960  1
  Ho  Ho3  1  0.000000  0.555098  0.874282  1
  Pa  Pa4  1  0.000000  0.322955  0.412699  1
  Pa  Pa5  1  0.000000  0.677669  0.586079  1
  Pa  Pa6  1  0.000000  0.821623  0.087907  1
  Pa  Pa7  1  0.000000  0.177018  0.913589  1
  Re  Re8  1  0.000000  0.361034  0.678684  1
  Re  Re9  1  0.000000  0.138923  0.177897  1
  Re  Re10  1  0.000000  0.861738  0.821767  1
  B  B11  1  0.500000  0.552352  0.433730  1
  B  B12  1  0.500000  0.446776  0.567487  1
  B  B13  1  0.500000  0.052919  0.066881  1
  B  B14  1  0.500000  0.947093  0.933130  1
  B  B15  1  0.500000  0.747915  0.421128  1
  B  B16  1  0.500000  0.252344  0.579881  1
  B  B17  1  0.500000  0.248043  0.079700  1
  B  B18  1  0.500000  0.751983  0.919984  1
  B  B19  1  0.500000  0.794156  0.265285  1
  B  B20  1  0.500000  0.206785  0.733997  1
  B  B21  1  0.500000  0.292656  0.233813  1
  B  B22  1  0.500000  0.707134  0.766071  1
  B  B23  1  0.500000  0.633717  0.184628  1
  B  B24  1  0.500000  0.366593  0.814739  1
  B  B25  1  0.500000  0.133006  0.314325  1
  B  B26  1  0.500000  0.866947  0.685439  1
  B  B27  1  0.500000  0.982972  0.213498  1
  B  B28  1  0.500000  0.017140  0.786430  1
  B  B29  1  0.500000  0.481490  0.286372  1
  B  B30  1  0.500000  0.516953  0.713655  1
  B  B31  1  0.500000  0.612564  0.030407  1
  B  B32  1  0.500000  0.387363  0.968712  1
  B  B33  1  0.500000  0.112496  0.468922  1
  B  B34  1  0.500000  0.888010  0.531910  1
  W  W35  1  0.000000  0.638515  0.321759  1
