# generated using pymatgen
data_Ho3ErB16(RuRh)2
_symmetry_space_group_name_H-M   'P 1'
_cell_length_a   3.55192300
_cell_length_b   5.94739178
_cell_length_c   11.52015603
_cell_angle_alpha   90.06051738
_cell_angle_beta   90.00000000
_cell_angle_gamma   90.00000000
_symmetry_Int_Tables_number   1
_chemical_formula_structural   Ho3ErB16(RuRh)2
_chemical_formula_sum   'Ho3 Er1 B16 Ru2 Rh2'
_cell_volume   243.35944667
_cell_formula_units_Z   1
loop_
 _symmetry_equiv_pos_site_id
 _symmetry_equiv_pos_as_xyz
  1  'x, y, z'
loop_
 _atom_site_type_symbol
 _atom_site_label
 _atom_site_symmetry_multiplicity
 _atom_site_fract_x
 _atom_site_fract_y
 _atom_site_fract_z
 _atom_site_occupancy
  Ho  Ho0  1  0.000000  0.369783  0.351540  1
  Ho  Ho1  1  0.000000  0.130248  0.849932  1
  Ho  Ho2  1  0.000000  0.869763  0.150037  1
  Er  Er3  1  0.000000  0.630229  0.648459  1
  B  B4  1  0.500000  0.974833  0.692054  1
  B  B5  1  0.500000  0.024918  0.307953  1
  B  B6  1  0.500000  0.477484  0.806448  1
  B  B7  1  0.500000  0.522617  0.193381  1
  B  B8  1  0.500000  0.789455  0.812418  1
  B  B9  1  0.500000  0.210491  0.187440  1
  B  B10  1  0.500000  0.289628  0.686267  1
  B  B11  1  0.500000  0.710689  0.313737  1
  B  B12  1  0.500000  0.863746  0.970217  1
  B  B13  1  0.500000  0.136236  0.029760  1
  B  B14  1  0.500000  0.364173  0.530380  1
  B  B15  1  0.500000  0.635939  0.469847  1
  B  B16  1  0.500000  0.887690  0.546705  1
  B  B17  1  0.500000  0.111990  0.453476  1
  B  B18  1  0.500000  0.387365  0.952509  1
  B  B19  1  0.500000  0.612671  0.047450  1
  Ru  Ru20  1  0.000000  0.141264  0.592761  1
  Ru  Ru21  1  0.000000  0.858780  0.407419  1
  Rh  Rh22  1  0.000000  0.641903  0.905094  1
  Rh  Rh23  1  0.000000  0.358105  0.094716  1
