# generated using pymatgen
data_Er3Tm5C14
_symmetry_space_group_name_H-M   'P 1'
_cell_length_a   13.63694150
_cell_length_b   3.65421558
_cell_length_c   6.37224321
_cell_angle_alpha   74.85713255
_cell_angle_beta   90.02782256
_cell_angle_gamma   89.99438894
_symmetry_Int_Tables_number   1
_chemical_formula_structural   Er3Tm5C14
_chemical_formula_sum   'Er3 Tm5 C14'
_cell_volume   306.51772016
_cell_formula_units_Z   1
loop_
 _symmetry_equiv_pos_site_id
 _symmetry_equiv_pos_as_xyz
  1  'x, y, z'
loop_
 _atom_site_type_symbol
 _atom_site_label
 _atom_site_symmetry_multiplicity
 _atom_site_fract_x
 _atom_site_fract_y
 _atom_site_fract_z
 _atom_site_occupancy
  Er  Er0  1  0.945402  0.367603  0.260128  1
  Er  Er1  1  0.554756  0.367923  0.760256  1
  Er  Er2  1  0.445091  0.632160  0.239729  1
  Tm  Tm3  1  0.338543  0.944973  0.660265  1
  Tm  Tm4  1  0.661221  0.055388  0.339487  1
  Tm  Tm5  1  0.838926  0.055003  0.839237  1
  Tm  Tm6  1  0.161218  0.945106  0.160150  1
  Tm  Tm7  1  0.054496  0.631723  0.740336  1
  C  C8  1  0.896168  0.735935  0.551228  1
  C  C9  1  0.104284  0.261531  0.451644  1
  C  C10  1  0.395406  0.263320  0.949485  1
  C  C11  1  0.604336  0.737294  0.050449  1
  C  C12  1  0.214954  0.538273  0.925527  1
  C  C13  1  0.784698  0.461776  0.073493  1
  C  C14  1  0.715680  0.462354  0.573338  1
  C  C15  1  0.284536  0.538519  0.426057  1
  C  C16  1  0.803498  0.622284  0.544855  1
  C  C17  1  0.196780  0.378064  0.455661  1
  C  C18  1  0.302748  0.378108  0.954651  1
  C  C19  1  0.696942  0.622308  0.044724  1
  C  C20  1  0.500033  0.000031  0.500019  1
  C  C21  1  0.000284  0.000326  0.999280  1
