# generated using pymatgen
data_CeNd3TlInPd4
_symmetry_space_group_name_H-M   'P 1'
_cell_length_a   7.92876362
_cell_length_b   7.93980240
_cell_length_c   3.82038100
_cell_angle_alpha   90.00000000
_cell_angle_beta   90.00000000
_cell_angle_gamma   91.31608990
_symmetry_Int_Tables_number   1
_chemical_formula_structural   CeNd3TlInPd4
_chemical_formula_sum   'Ce1 Nd3 Tl1 In1 Pd4'
_cell_volume   240.44029851
_cell_formula_units_Z   1
loop_
 _symmetry_equiv_pos_site_id
 _symmetry_equiv_pos_as_xyz
  1  'x, y, z'
loop_
 _atom_site_type_symbol
 _atom_site_label
 _atom_site_symmetry_multiplicity
 _atom_site_fract_x
 _atom_site_fract_y
 _atom_site_fract_z
 _atom_site_occupancy
  Ce  Ce0  1  0.673294  0.174510  0.500000  1
  Nd  Nd1  1  0.325193  0.823908  0.500000  1
  Nd  Nd2  1  0.825151  0.675160  0.500000  1
  Nd  Nd3  1  0.177699  0.327041  0.500000  1
  Tl  Tl4  1  0.000499  0.002807  0.000000  1
  In  In5  1  0.502116  0.500694  0.000000  1
  Pd  Pd6  1  0.385137  0.131839  0.000000  1
  Pd  Pd7  1  0.861863  0.368177  0.000000  1
  Pd  Pd8  1  0.123887  0.617764  0.000000  1
  Pd  Pd9  1  0.625161  0.878101  0.000000  1
