# generated using pymatgen
data_Rb4(TlZn)7
_symmetry_space_group_name_H-M   'P 1'
_cell_length_a   3.64820300
_cell_length_b   17.07004831
_cell_length_c   18.50692400
_cell_angle_alpha   90.00000000
_cell_angle_beta   90.00000000
_cell_angle_gamma   96.13432500
_symmetry_Int_Tables_number   1
_chemical_formula_structural   Rb4(TlZn)7
_chemical_formula_sum   'Rb8 Tl14 Zn14'
_cell_volume   1145.91951746
_cell_formula_units_Z   2
loop_
 _symmetry_equiv_pos_site_id
 _symmetry_equiv_pos_as_xyz
  1  'x, y, z'
loop_
 _atom_site_type_symbol
 _atom_site_label
 _atom_site_symmetry_multiplicity
 _atom_site_fract_x
 _atom_site_fract_y
 _atom_site_fract_z
 _atom_site_occupancy
  Rb  Rb0  1  0.138373  0.276747  0.899105  1
  Rb  Rb1  1  0.861627  0.723253  0.100895  1
  Rb  Rb2  1  0.138373  0.276747  0.600895  1
  Rb  Rb3  1  0.861627  0.723253  0.399105  1
  Rb  Rb4  1  0.709572  0.419144  0.250000  1
  Rb  Rb5  1  0.290428  0.580856  0.750000  1
  Rb  Rb6  1  0.000000  0.000000  0.500000  1
  Rb  Rb7  1  0.000000  0.000000  0.000000  1
  Tl  Tl8  1  0.452230  0.904461  0.341413  1
  Tl  Tl9  1  0.547770  0.095539  0.658587  1
  Tl  Tl10  1  0.452230  0.904461  0.158587  1
  Tl  Tl11  1  0.547770  0.095539  0.841413  1
  Tl  Tl12  1  0.263792  0.527586  0.420737  1
  Tl  Tl13  1  0.736208  0.472414  0.579263  1
  Tl  Tl14  1  0.263792  0.527586  0.079263  1
  Tl  Tl15  1  0.736208  0.472414  0.920737  1
  Tl  Tl16  1  0.591732  0.183464  0.441033  1
  Tl  Tl17  1  0.408268  0.816536  0.558967  1
  Tl  Tl18  1  0.591732  0.183464  0.058967  1
  Tl  Tl19  1  0.408268  0.816536  0.941033  1
  Tl  Tl20  1  0.106799  0.213599  0.250000  1
  Tl  Tl21  1  0.893201  0.786401  0.750000  1
  Zn  Zn22  1  0.152124  0.304247  0.401935  1
  Zn  Zn23  1  0.847876  0.695753  0.598065  1
  Zn  Zn24  1  0.152124  0.304247  0.098065  1
  Zn  Zn25  1  0.847876  0.695753  0.901935  1
  Zn  Zn26  1  0.301083  0.602166  0.935037  1
  Zn  Zn27  1  0.698917  0.397834  0.064963  1
  Zn  Zn28  1  0.301083  0.602166  0.564963  1
  Zn  Zn29  1  0.698917  0.397834  0.435037  1
  Zn  Zn30  1  0.541903  0.083806  0.321279  1
  Zn  Zn31  1  0.458097  0.916194  0.678721  1
  Zn  Zn32  1  0.541903  0.083806  0.178721  1
  Zn  Zn33  1  0.458097  0.916194  0.821279  1
  Zn  Zn34  1  0.000491  0.000983  0.250000  1
  Zn  Zn35  1  0.999509  0.999017  0.750000  1
