# generated using pymatgen
data_TbHo9In8Pd3Rh
_symmetry_space_group_name_H-M   'P 1'
_cell_length_a   3.61164600
_cell_length_b   8.12481882
_cell_length_c   18.25397606
_cell_angle_alpha   90.03031595
_cell_angle_beta   90.00000000
_cell_angle_gamma   90.00000000
_symmetry_Int_Tables_number   1
_chemical_formula_structural   TbHo9In8Pd3Rh
_chemical_formula_sum   'Tb1 Ho9 In8 Pd3 Rh1'
_cell_volume   535.64403984
_cell_formula_units_Z   1
loop_
 _symmetry_equiv_pos_site_id
 _symmetry_equiv_pos_as_xyz
  1  'x, y, z'
loop_
 _atom_site_type_symbol
 _atom_site_label
 _atom_site_symmetry_multiplicity
 _atom_site_fract_x
 _atom_site_fract_y
 _atom_site_fract_z
 _atom_site_occupancy
  Tb  Tb0  1  0.000000  0.500157  0.499822  1
  Ho  Ho1  1  0.000000  0.999776  0.000380  1
  Ho  Ho2  1  0.000000  0.732056  0.277892  1
  Ho  Ho3  1  0.000000  0.260630  0.719844  1
  Ho  Ho4  1  0.000000  0.759948  0.779950  1
  Ho  Ho5  1  0.000000  0.251830  0.219856  1
  Ho  Ho6  1  0.000000  0.613136  0.086478  1
  Ho  Ho7  1  0.000000  0.384062  0.917072  1
  Ho  Ho8  1  0.000000  0.883924  0.583063  1
  Ho  Ho9  1  0.000000  0.116055  0.415904  1
  In  In10  1  0.500000  0.709952  0.932223  1
  In  In11  1  0.500000  0.289900  0.068690  1
  In  In12  1  0.500000  0.790304  0.431471  1
  In  In13  1  0.500000  0.209408  0.568189  1
  In  In14  1  0.500000  0.580801  0.649746  1
  In  In15  1  0.500000  0.420906  0.350132  1
  In  In16  1  0.500000  0.920030  0.149826  1
  In  In17  1  0.500000  0.080602  0.850375  1
  Pd  Pd18  1  0.500000  0.476433  0.804115  1
  Pd  Pd19  1  0.500000  0.976581  0.696073  1
  Pd  Pd20  1  0.500000  0.021888  0.303694  1
  Rh  Rh21  1  0.500000  0.521623  0.195205  1
