# generated using pymatgen
data_YbTa8MnS16
_symmetry_space_group_name_H-M   'P 1'
_cell_length_a   6.70711200
_cell_length_b   6.70710771
_cell_length_c   13.35194000
_cell_angle_alpha   90.00006892
_cell_angle_beta   89.99990154
_cell_angle_gamma   119.99999422
_symmetry_Int_Tables_number   1
_chemical_formula_structural   YbTa8MnS16
_chemical_formula_sum   'Yb1 Ta8 Mn1 S16'
_cell_volume   520.17067910
_cell_formula_units_Z   1
loop_
 _symmetry_equiv_pos_site_id
 _symmetry_equiv_pos_as_xyz
  1  'x, y, z'
loop_
 _atom_site_type_symbol
 _atom_site_label
 _atom_site_symmetry_multiplicity
 _atom_site_fract_x
 _atom_site_fract_y
 _atom_site_fract_z
 _atom_site_occupancy
  Yb  Yb0  1  0.000000  0.000000  0.500000  1
  Ta  Ta1  1  0.505352  0.494649  0.767259  1
  Ta  Ta2  1  0.010704  0.505352  0.232740  1
  Ta  Ta3  1  0.494647  0.989295  0.232740  1
  Ta  Ta4  1  0.505353  0.010705  0.767260  1
  Ta  Ta5  1  0.989296  0.494648  0.767260  1
  Ta  Ta6  1  0.494648  0.505351  0.232741  1
  Ta  Ta7  1  0.000000  0.000001  0.767897  1
  Ta  Ta8  1  0.000000  0.999999  0.232103  1
  Mn  Mn9  1  0.000000  0.000000  0.000000  1
  S  S10  1  0.832422  0.167576  0.349212  1
  S  S11  1  0.832422  0.664846  0.349213  1
  S  S12  1  0.335152  0.167576  0.349213  1
  S  S13  1  0.662706  0.831353  0.883244  1
  S  S14  1  0.167578  0.335154  0.650787  1
  S  S15  1  0.168646  0.831354  0.883243  1
  S  S16  1  0.168647  0.337294  0.883244  1
  S  S17  1  0.831354  0.168646  0.116757  1
  S  S18  1  0.337294  0.168647  0.116756  1
  S  S19  1  0.664848  0.832424  0.650787  1
  S  S20  1  0.333334  0.666665  0.113888  1
  S  S21  1  0.666667  0.333334  0.646821  1
  S  S22  1  0.666666  0.333335  0.886112  1
  S  S23  1  0.333333  0.666666  0.353179  1
  S  S24  1  0.831353  0.662706  0.116756  1
  S  S25  1  0.167578  0.832424  0.650788  1
