# generated using pymatgen
data_Lu12GaCo4Tc
_symmetry_space_group_name_H-M   'P 1'
_cell_length_a   8.01326978
_cell_length_b   8.01326966
_cell_length_c   8.01327132
_cell_angle_alpha   111.50380050
_cell_angle_beta   110.46720311
_cell_angle_gamma   106.48509658
_symmetry_Int_Tables_number   1
_chemical_formula_structural   Lu12GaCo4Tc
_chemical_formula_sum   'Lu12 Ga1 Co4 Tc1'
_cell_volume   395.26657933
_cell_formula_units_Z   1
loop_
 _symmetry_equiv_pos_site_id
 _symmetry_equiv_pos_as_xyz
  1  'x, y, z'
loop_
 _atom_site_type_symbol
 _atom_site_label
 _atom_site_symmetry_multiplicity
 _atom_site_fract_x
 _atom_site_fract_y
 _atom_site_fract_z
 _atom_site_occupancy
  Lu  Lu0  1  0.425096  0.230646  0.194450  1
  Lu  Lu1  1  0.574904  0.769354  0.805550  1
  Lu  Lu2  1  0.036195  0.230646  0.805550  1
  Lu  Lu3  1  0.963805  0.769354  0.194450  1
  Lu  Lu4  1  0.182118  0.276046  0.458164  1
  Lu  Lu5  1  0.817882  0.723954  0.541836  1
  Lu  Lu6  1  0.182118  0.723954  0.906073  1
  Lu  Lu7  1  0.817882  0.276046  0.093927  1
  Lu  Lu8  1  0.316529  0.618630  0.302100  1
  Lu  Lu9  1  0.683471  0.381370  0.697900  1
  Lu  Lu10  1  0.316529  0.014430  0.697900  1
  Lu  Lu11  1  0.683471  0.985570  0.302100  1
  Ga  Ga12  1  0.500000  0.500000  0.000000  1
  Co  Co13  1  0.370604  0.000000  0.370604  1
  Co  Co14  1  0.629396  0.000000  0.629396  1
  Co  Co15  1  0.114226  0.614226  0.500000  1
  Co  Co16  1  0.885774  0.385774  0.500000  1
  Tc  Tc17  1  0.000000  0.000000  0.000000  1
