# generated using pymatgen
data_CoBi3Ir3RhO14
_symmetry_space_group_name_H-M   'P 1'
_cell_length_a   7.33113239
_cell_length_b   7.20237469
_cell_length_c   7.33113300
_cell_angle_alpha   59.40684828
_cell_angle_beta   60.00000176
_cell_angle_gamma   59.40684501
_symmetry_Int_Tables_number   1
_chemical_formula_structural   CoBi3Ir3RhO14
_chemical_formula_sum   'Co1 Bi3 Ir3 Rh1 O14'
_cell_volume   271.23795525
_cell_formula_units_Z   1
loop_
 _symmetry_equiv_pos_site_id
 _symmetry_equiv_pos_as_xyz
  1  'x, y, z'
loop_
 _atom_site_type_symbol
 _atom_site_label
 _atom_site_symmetry_multiplicity
 _atom_site_fract_x
 _atom_site_fract_y
 _atom_site_fract_z
 _atom_site_occupancy
  Co  Co0  1  0.125000  0.625000  0.125000  1
  Bi  Bi1  1  0.125000  0.125000  0.125000  1
  Bi  Bi2  1  0.625000  0.125000  0.125000  1
  Bi  Bi3  1  0.125000  0.125000  0.625000  1
  Ir  Ir4  1  0.625000  0.625000  0.625000  1
  Ir  Ir5  1  0.625000  0.625000  0.125000  1
  Ir  Ir6  1  0.125000  0.625000  0.625000  1
  Rh  Rh7  1  0.625000  0.125000  0.625000  1
  O  O8  1  0.238242  0.285275  0.238242  1
  O  O9  1  0.294790  0.702121  0.294790  1
  O  O10  1  0.961367  0.958996  0.539818  1
  O  O11  1  0.539818  0.958996  0.539818  1
  O  O12  1  0.708299  0.702121  0.294790  1
  O  O13  1  0.955210  0.547879  0.541701  1
  O  O14  1  0.710182  0.291004  0.710182  1
  O  O15  1  0.288633  0.291004  0.710182  1
  O  O16  1  0.710182  0.291004  0.288633  1
  O  O17  1  0.294790  0.702121  0.708299  1
  O  O18  1  0.955210  0.547879  0.955210  1
  O  O19  1  0.541701  0.547879  0.955210  1
  O  O20  1  0.011758  0.964725  0.011758  1
  O  O21  1  0.539818  0.958996  0.961367  1
