# generated using pymatgen
data_Nb3AlAu2C
_symmetry_space_group_name_H-M   'P 1'
_cell_length_a   8.54830773
_cell_length_b   8.54830912
_cell_length_c   8.54830700
_cell_angle_alpha   59.99999659
_cell_angle_beta   59.99999122
_cell_angle_gamma   59.99999728
_symmetry_Int_Tables_number   1
_chemical_formula_structural   Nb3AlAu2C
_chemical_formula_sum   'Nb12 Al4 Au8 C4'
_cell_volume   441.69799775
_cell_formula_units_Z   4
loop_
 _symmetry_equiv_pos_site_id
 _symmetry_equiv_pos_as_xyz
  1  'x, y, z'
loop_
 _atom_site_type_symbol
 _atom_site_label
 _atom_site_symmetry_multiplicity
 _atom_site_fract_x
 _atom_site_fract_y
 _atom_site_fract_z
 _atom_site_occupancy
  Nb  Nb0  1  0.821973  0.178027  0.821973  1
  Nb  Nb1  1  0.071973  0.428027  0.428027  1
  Nb  Nb2  1  0.428027  0.071973  0.071973  1
  Nb  Nb3  1  0.071973  0.428027  0.071973  1
  Nb  Nb4  1  0.428027  0.428027  0.071973  1
  Nb  Nb5  1  0.071973  0.071973  0.428027  1
  Nb  Nb6  1  0.821973  0.821973  0.178027  1
  Nb  Nb7  1  0.178027  0.821973  0.821973  1
  Nb  Nb8  1  0.821973  0.178027  0.178027  1
  Nb  Nb9  1  0.178027  0.178027  0.821973  1
  Nb  Nb10  1  0.428027  0.071973  0.428027  1
  Nb  Nb11  1  0.178027  0.821973  0.178027  1
  Al  Al12  1  0.625000  0.625000  0.625000  1
  Al  Al13  1  0.125000  0.625000  0.625000  1
  Al  Al14  1  0.625000  0.125000  0.625000  1
  Al  Al15  1  0.625000  0.625000  0.125000  1
  Au  Au16  1  0.414387  0.414387  0.414387  1
  Au  Au17  1  0.493163  0.835613  0.835613  1
  Au  Au18  1  0.835613  0.493163  0.835613  1
  Au  Au19  1  0.835613  0.835613  0.493163  1
  Au  Au20  1  0.414387  0.756837  0.414387  1
  Au  Au21  1  0.414387  0.414387  0.756837  1
  Au  Au22  1  0.756837  0.414387  0.414387  1
  Au  Au23  1  0.835613  0.835613  0.835613  1
  C  C24  1  0.125000  0.125000  0.125000  1
  C  C25  1  0.625000  0.125000  0.125000  1
  C  C26  1  0.125000  0.625000  0.125000  1
  C  C27  1  0.125000  0.125000  0.625000  1
