# generated using pymatgen
data_CsFe2(Sb6Os)2
_symmetry_space_group_name_H-M   'P 1'
_cell_length_a   8.16884218
_cell_length_b   8.14824877
_cell_length_c   8.16884237
_cell_angle_alpha   109.51635423
_cell_angle_beta   109.37816702
_cell_angle_gamma   109.62187870
_symmetry_Int_Tables_number   1
_chemical_formula_structural   CsFe2(Sb6Os)2
_chemical_formula_sum   'Cs1 Fe2 Sb12 Os2'
_cell_volume   418.03250392
_cell_formula_units_Z   1
loop_
 _symmetry_equiv_pos_site_id
 _symmetry_equiv_pos_as_xyz
  1  'x, y, z'
loop_
 _atom_site_type_symbol
 _atom_site_label
 _atom_site_symmetry_multiplicity
 _atom_site_fract_x
 _atom_site_fract_y
 _atom_site_fract_z
 _atom_site_occupancy
  Cs  Cs0  1  0.000000  0.000000  0.000000  1
  Fe  Fe1  1  0.000000  0.000000  0.500000  1
  Fe  Fe2  1  0.500000  0.000000  0.000000  1
  Sb  Sb3  1  0.340718  0.179556  0.838836  1
  Sb  Sb4  1  0.659282  0.820444  0.161164  1
  Sb  Sb5  1  0.657069  0.498070  0.841002  1
  Sb  Sb6  1  0.342931  0.501930  0.158998  1
  Sb  Sb7  1  0.181008  0.842614  0.344381  1
  Sb  Sb8  1  0.818992  0.157386  0.655619  1
  Sb  Sb9  1  0.498232  0.842614  0.661605  1
  Sb  Sb10  1  0.501768  0.157386  0.338395  1
  Sb  Sb11  1  0.836667  0.338241  0.180404  1
  Sb  Sb12  1  0.163333  0.661759  0.819596  1
  Sb  Sb13  1  0.842164  0.661759  0.498426  1
  Sb  Sb14  1  0.157836  0.338241  0.501574  1
  Os  Os15  1  0.000000  0.500000  0.000000  1
  Os  Os16  1  0.500000  0.500000  0.500000  1
