# generated using pymatgen
data_Ho20IrRu2Rh9
_symmetry_space_group_name_H-M   'P 1'
_cell_length_a   10.81294313
_cell_length_b   10.81309004
_cell_length_c   6.37883707
_cell_angle_alpha   90.00482769
_cell_angle_beta   90.01615421
_cell_angle_gamma   89.99213627
_symmetry_Int_Tables_number   1
_chemical_formula_structural   Ho20IrRu2Rh9
_chemical_formula_sum   'Ho20 Ir1 Ru2 Rh9'
_cell_volume   745.82205960
_cell_formula_units_Z   1
loop_
 _symmetry_equiv_pos_site_id
 _symmetry_equiv_pos_as_xyz
  1  'x, y, z'
loop_
 _atom_site_type_symbol
 _atom_site_label
 _atom_site_symmetry_multiplicity
 _atom_site_fract_x
 _atom_site_fract_y
 _atom_site_fract_z
 _atom_site_occupancy
  Ho  Ho0  1  0.294675  0.086275  0.377938  1
  Ho  Ho1  1  0.294706  0.912296  0.877429  1
  Ho  Ho2  1  0.705412  0.086329  0.877835  1
  Ho  Ho3  1  0.705299  0.913674  0.377837  1
  Ho  Ho4  1  0.585175  0.794073  0.877607  1
  Ho  Ho5  1  0.586464  0.205421  0.378040  1
  Ho  Ho6  1  0.413201  0.794006  0.378956  1
  Ho  Ho7  1  0.413740  0.205358  0.877822  1
  Ho  Ho8  1  0.209963  0.412756  0.622148  1
  Ho  Ho9  1  0.209932  0.589005  0.120874  1
  Ho  Ho10  1  0.790510  0.411377  0.121669  1
  Ho  Ho11  1  0.790583  0.588631  0.621765  1
  Ho  Ho12  1  0.911455  0.709423  0.121632  1
  Ho  Ho13  1  0.911408  0.290501  0.621953  1
  Ho  Ho14  1  0.090072  0.709327  0.622326  1
  Ho  Ho15  1  0.088603  0.290648  0.121799  1
  Ho  Ho16  1  0.000007  0.999900  0.498328  1
  Ho  Ho17  1  0.000077  0.000021  0.998483  1
  Ho  Ho18  1  0.499767  0.500271  0.998205  1
  Ho  Ho19  1  0.499716  0.500093  0.498467  1
  Ir  Ir20  1  0.345590  0.651883  0.750008  1
  Ru  Ru21  1  0.500210  0.000550  0.124869  1
  Ru  Ru22  1  0.500215  0.000605  0.624714  1
  Rh  Rh23  1  0.848229  0.154240  0.250189  1
  Rh  Rh24  1  0.848136  0.845832  0.749967  1
  Rh  Rh25  1  0.151720  0.154201  0.750392  1
  Rh  Rh26  1  0.151418  0.846265  0.250193  1
  Rh  Rh27  1  0.654305  0.348137  0.750147  1
  Rh  Rh28  1  0.654770  0.651742  0.250272  1
  Rh  Rh29  1  0.345780  0.347649  0.249871  1
  Rh  Rh30  1  0.999298  0.499677  0.879334  1
  Rh  Rh31  1  0.999562  0.499832  0.378930  1
