# generated using pymatgen
data_CeNd7Si12PtRh3
_symmetry_space_group_name_H-M   'P 1'
_cell_length_a   8.23486200
_cell_length_b   8.23486140
_cell_length_c   8.41987900
_cell_angle_alpha   90.00000000
_cell_angle_beta   90.00000000
_cell_angle_gamma   120.00000240
_symmetry_Int_Tables_number   1
_chemical_formula_structural   CeNd7Si12PtRh3
_chemical_formula_sum   'Ce1 Nd7 Si12 Pt1 Rh3'
_cell_volume   494.48041089
_cell_formula_units_Z   1
loop_
 _symmetry_equiv_pos_site_id
 _symmetry_equiv_pos_as_xyz
  1  'x, y, z'
loop_
 _atom_site_type_symbol
 _atom_site_label
 _atom_site_symmetry_multiplicity
 _atom_site_fract_x
 _atom_site_fract_y
 _atom_site_fract_z
 _atom_site_occupancy
  Ce  Ce0  1  0.000000  0.000000  0.749350  1
  Nd  Nd1  1  0.000000  0.000000  0.250626  1
  Nd  Nd2  1  0.497810  0.502190  0.747561  1
  Nd  Nd3  1  0.497810  0.995622  0.747561  1
  Nd  Nd4  1  0.004378  0.502190  0.747561  1
  Nd  Nd5  1  0.500255  0.499745  0.252402  1
  Nd  Nd6  1  0.999492  0.499745  0.252402  1
  Nd  Nd7  1  0.500255  0.000508  0.252402  1
  Si  Si8  1  0.835612  0.164388  0.999438  1
  Si  Si9  1  0.835612  0.671226  0.999438  1
  Si  Si10  1  0.328774  0.164388  0.999438  1
  Si  Si11  1  0.833622  0.166378  0.500653  1
  Si  Si12  1  0.833622  0.667245  0.500653  1
  Si  Si13  1  0.332755  0.166378  0.500653  1
  Si  Si14  1  0.166181  0.833819  0.503677  1
  Si  Si15  1  0.667638  0.833819  0.503677  1
  Si  Si16  1  0.166181  0.332362  0.503677  1
  Si  Si17  1  0.167250  0.832750  0.996038  1
  Si  Si18  1  0.665499  0.832750  0.996038  1
  Si  Si19  1  0.167250  0.334501  0.996038  1
  Pt  Pt20  1  0.666667  0.333333  0.996977  1
  Rh  Rh21  1  0.666667  0.333333  0.502936  1
  Rh  Rh22  1  0.333333  0.666667  0.491974  1
  Rh  Rh23  1  0.333333  0.666667  0.008832  1
