# generated using pymatgen
data_Tb8Tm12Sn15Sb
_symmetry_space_group_name_H-M   'P 1'
_cell_length_a   8.00380092
_cell_length_b   8.12090355
_cell_length_c   15.31732441
_cell_angle_alpha   90.04057346
_cell_angle_beta   90.23559683
_cell_angle_gamma   90.01118622
_symmetry_Int_Tables_number   1
_chemical_formula_structural   Tb8Tm12Sn15Sb
_chemical_formula_sum   'Tb8 Tm12 Sn15 Sb1'
_cell_volume   995.58822507
_cell_formula_units_Z   1
loop_
 _symmetry_equiv_pos_site_id
 _symmetry_equiv_pos_as_xyz
  1  'x, y, z'
loop_
 _atom_site_type_symbol
 _atom_site_label
 _atom_site_symmetry_multiplicity
 _atom_site_fract_x
 _atom_site_fract_y
 _atom_site_fract_z
 _atom_site_occupancy
  Tb  Tb0  1  0.522541  0.322644  0.902328  1
  Tb  Tb1  1  0.020327  0.178905  0.597023  1
  Tb  Tb2  1  0.479415  0.678517  0.402757  1
  Tb  Tb3  1  0.975728  0.820991  0.098157  1
  Tb  Tb4  1  0.478880  0.677533  0.097241  1
  Tb  Tb5  1  0.979413  0.821177  0.402754  1
  Tb  Tb6  1  0.520614  0.321091  0.597066  1
  Tb  Tb7  1  0.020699  0.179287  0.902072  1
  Tm  Tm8  1  0.368139  0.837573  0.877879  1
  Tm  Tm9  1  0.866526  0.662590  0.623185  1
  Tm  Tm10  1  0.633578  0.162433  0.376475  1
  Tm  Tm11  1  0.132107  0.338587  0.122965  1
  Tm  Tm12  1  0.634006  0.162291  0.122180  1
  Tm  Tm13  1  0.134116  0.337648  0.376501  1
  Tm  Tm14  1  0.366163  0.837601  0.623081  1
  Tm  Tm15  1  0.866733  0.662422  0.877148  1
  Tm  Tm16  1  0.197364  0.503460  0.749721  1
  Tm  Tm17  1  0.697251  0.996186  0.750538  1
  Tm  Tm18  1  0.802661  0.496449  0.250505  1
  Tm  Tm19  1  0.302747  0.003239  0.251158  1
  Sn  Sn20  1  0.795408  0.461118  0.458312  1
  Sn  Sn21  1  0.704733  0.961023  0.541556  1
  Sn  Sn22  1  0.206307  0.537997  0.958289  1
  Sn  Sn23  1  0.709403  0.962529  0.958156  1
  Sn  Sn24  1  0.204642  0.538813  0.541386  1
  Sn  Sn25  1  0.295720  0.038800  0.458320  1
  Sn  Sn26  1  0.794348  0.461958  0.041958  1
  Sn  Sn27  1  0.563569  0.621678  0.750005  1
  Sn  Sn28  1  0.064221  0.878892  0.750950  1
  Sn  Sn29  1  0.436717  0.377863  0.248918  1
  Sn  Sn30  1  0.936673  0.121237  0.249170  1
  Sn  Sn31  1  0.330653  0.147880  0.750062  1
  Sn  Sn32  1  0.830550  0.352355  0.749771  1
  Sn  Sn33  1  0.668173  0.851949  0.249882  1
  Sn  Sn34  1  0.169023  0.648200  0.249772  1
  Sb  Sb35  1  0.290851  0.037084  0.042757  1
