# generated using pymatgen
data_MgNiHg2(PdO4)2
_symmetry_space_group_name_H-M   'P 1'
_cell_length_a   6.34467272
_cell_length_b   6.22719925
_cell_length_c   6.36200350
_cell_angle_alpha   60.53744937
_cell_angle_beta   89.14289630
_cell_angle_gamma   119.18511010
_symmetry_Int_Tables_number   1
_chemical_formula_structural   MgNiHg2(PdO4)2
_chemical_formula_sum   'Mg1 Ni1 Hg2 Pd2 O8'
_cell_volume   180.01542348
_cell_formula_units_Z   1
loop_
 _symmetry_equiv_pos_site_id
 _symmetry_equiv_pos_as_xyz
  1  'x, y, z'
loop_
 _atom_site_type_symbol
 _atom_site_label
 _atom_site_symmetry_multiplicity
 _atom_site_fract_x
 _atom_site_fract_y
 _atom_site_fract_z
 _atom_site_occupancy
  Mg  Mg0  1  0.375001  0.249945  0.375029  1
  Ni  Ni1  1  0.374896  0.750290  0.374890  1
  Hg  Hg2  1  0.974741  0.003953  0.974785  1
  Hg  Hg3  1  0.775178  0.495966  0.775172  1
  Pd  Pd4  1  0.875104  0.250019  0.375015  1
  Pd  Pd5  1  0.374989  0.749934  0.875042  1
  O  O6  1  0.138260  0.290107  0.137978  1
  O  O7  1  0.609567  0.207156  0.191834  1
  O  O8  1  0.558088  0.710193  0.140583  1
  O  O9  1  0.137592  0.709853  0.137874  1
  O  O10  1  0.611757  0.209714  0.612060  1
  O  O11  1  0.140607  0.292979  0.558110  1
  O  O12  1  0.191819  0.789699  0.609516  1
  O  O13  1  0.612403  0.790194  0.612114  1
