# generated using pymatgen
data_Dy2Lu3Ta3(P3Ir4)4
_symmetry_space_group_name_H-M   'P 1'
_cell_length_a   12.74498421
_cell_length_b   12.74101281
_cell_length_c   3.97757000
_cell_angle_alpha   90.00000000
_cell_angle_beta   90.00000000
_cell_angle_gamma   119.98969408
_symmetry_Int_Tables_number   1
_chemical_formula_structural   Dy2Lu3Ta3(P3Ir4)4
_chemical_formula_sum   'Dy2 Lu3 Ta3 P12 Ir16'
_cell_volume   559.41848009
_cell_formula_units_Z   1
loop_
 _symmetry_equiv_pos_site_id
 _symmetry_equiv_pos_as_xyz
  1  'x, y, z'
loop_
 _atom_site_type_symbol
 _atom_site_label
 _atom_site_symmetry_multiplicity
 _atom_site_fract_x
 _atom_site_fract_y
 _atom_site_fract_z
 _atom_site_occupancy
  Dy  Dy0  1  0.186187  0.186178  0.000000  1
  Dy  Dy1  1  0.813813  0.999991  0.000000  1
  Lu  Lu2  1  0.333378  0.666657  0.500000  1
  Lu  Lu3  1  0.666622  0.333278  0.500000  1
  Lu  Lu4  1  0.000000  0.813940  0.000000  1
  Ta  Ta5  1  0.000000  0.453355  0.500000  1
  Ta  Ta6  1  0.546994  0.546901  0.500000  1
  Ta  Ta7  1  0.453006  0.999907  0.500000  1
  P  P8  1  0.000000  0.644248  0.500000  1
  P  P9  1  0.356661  0.356668  0.500000  1
  P  P10  1  0.643339  0.000006  0.500000  1
  P  P11  1  0.516870  0.684871  0.000000  1
  P  P12  1  0.315308  0.831923  0.000000  1
  P  P13  1  0.168072  0.483287  0.000000  1
  P  P14  1  0.483130  0.168002  0.000000  1
  P  P15  1  0.684692  0.516615  0.000000  1
  P  P16  1  0.831928  0.315215  0.000000  1
  P  P17  1  0.000000  0.175960  0.500000  1
  P  P18  1  0.824053  0.823552  0.500000  1
  P  P19  1  0.175947  0.999499  0.500000  1
  Ir  Ir20  1  0.505796  0.862484  0.000000  1
  Ir  Ir21  1  0.137614  0.643375  0.000000  1
  Ir  Ir22  1  0.356774  0.494345  0.000000  1
  Ir  Ir23  1  0.494204  0.356686  0.000000  1
  Ir  Ir24  1  0.862386  0.505759  0.000000  1
  Ir  Ir25  1  0.643226  0.137569  0.000000  1
  Ir  Ir26  1  0.000000  0.283832  0.000000  1
  Ir  Ir27  1  0.716743  0.716365  0.000000  1
  Ir  Ir28  1  0.283257  0.999622  0.000000  1
  Ir  Ir29  1  0.626549  0.804321  0.500000  1
  Ir  Ir30  1  0.194198  0.821978  0.500000  1
  Ir  Ir31  1  0.177846  0.373485  0.500000  1
  Ir  Ir32  1  0.373451  0.177772  0.500000  1
  Ir  Ir33  1  0.805802  0.627779  0.500000  1
  Ir  Ir34  1  0.822154  0.195640  0.500000  1
  Ir  Ir35  1  0.000000  0.998935  0.500000  1
