# generated using pymatgen
data_TbHo6Er(Sc3Si4)4
_symmetry_space_group_name_H-M   'P 1'
_cell_length_a   7.08785917
_cell_length_b   7.37988134
_cell_length_c   13.98250830
_cell_angle_alpha   90.01150608
_cell_angle_beta   90.01316241
_cell_angle_gamma   90.02615806
_symmetry_Int_Tables_number   1
_chemical_formula_structural   TbHo6Er(Sc3Si4)4
_chemical_formula_sum   'Tb1 Ho6 Er1 Sc12 Si16'
_cell_volume   731.39077673
_cell_formula_units_Z   1
loop_
 _symmetry_equiv_pos_site_id
 _symmetry_equiv_pos_as_xyz
  1  'x, y, z'
loop_
 _atom_site_type_symbol
 _atom_site_label
 _atom_site_symmetry_multiplicity
 _atom_site_fract_x
 _atom_site_fract_y
 _atom_site_fract_z
 _atom_site_occupancy
  Tb  Tb0  1  0.011873  0.175320  0.096508  1
  Ho  Ho1  1  0.987930  0.824224  0.902930  1
  Ho  Ho2  1  0.488083  0.675707  0.903169  1
  Ho  Ho3  1  0.987962  0.824152  0.596799  1
  Ho  Ho4  1  0.511950  0.324507  0.096744  1
  Ho  Ho5  1  0.012109  0.175710  0.403247  1
  Ho  Ho6  1  0.511986  0.324357  0.403495  1
  Er  Er7  1  0.487967  0.675928  0.596905  1
  Sc  Sc8  1  0.160650  0.502778  0.749919  1
  Sc  Sc9  1  0.839273  0.497437  0.250135  1
  Sc  Sc10  1  0.339431  0.002613  0.250116  1
  Sc  Sc11  1  0.660667  0.997162  0.749926  1
  Sc  Sc12  1  0.331074  0.176979  0.625347  1
  Sc  Sc13  1  0.668882  0.822978  0.374828  1
  Sc  Sc14  1  0.169081  0.676812  0.374831  1
  Sc  Sc15  1  0.668868  0.822915  0.125334  1
  Sc  Sc16  1  0.830815  0.323277  0.625288  1
  Sc  Sc17  1  0.331105  0.176861  0.874497  1
  Sc  Sc18  1  0.830712  0.323392  0.874528  1
  Sc  Sc19  1  0.169173  0.676726  0.125321  1
  Si  Si20  1  0.033182  0.116087  0.749918  1
  Si  Si21  1  0.966687  0.883455  0.250235  1
  Si  Si22  1  0.466779  0.615994  0.250048  1
  Si  Si23  1  0.533113  0.384247  0.749857  1
  Si  Si24  1  0.285494  0.872575  0.749802  1
  Si  Si25  1  0.714266  0.127010  0.250349  1
  Si  Si26  1  0.215131  0.373243  0.250312  1
  Si  Si27  1  0.784978  0.627365  0.749793  1
  Si  Si28  1  0.158778  0.465130  0.539521  1
  Si  Si29  1  0.841682  0.535112  0.460653  1
  Si  Si30  1  0.341811  0.964628  0.460773  1
  Si  Si31  1  0.841513  0.535681  0.039210  1
  Si  Si32  1  0.658036  0.034659  0.539582  1
  Si  Si33  1  0.158362  0.465430  0.960361  1
  Si  Si34  1  0.657970  0.035004  0.960480  1
  Si  Si35  1  0.342626  0.964546  0.039241  1
