# generated using pymatgen
data_LuTh3(Ga3Ir)6
_symmetry_space_group_name_H-M   'P 1'
_cell_length_a   7.68157360
_cell_length_b   7.69204766
_cell_length_c   9.46486100
_cell_angle_alpha   90.00000000
_cell_angle_beta   90.00000000
_cell_angle_gamma   119.74987846
_symmetry_Int_Tables_number   1
_chemical_formula_structural   LuTh3(Ga3Ir)6
_chemical_formula_sum   'Lu1 Th3 Ga18 Ir6'
_cell_volume   485.54123407
_cell_formula_units_Z   1
loop_
 _symmetry_equiv_pos_site_id
 _symmetry_equiv_pos_as_xyz
  1  'x, y, z'
loop_
 _atom_site_type_symbol
 _atom_site_label
 _atom_site_symmetry_multiplicity
 _atom_site_fract_x
 _atom_site_fract_y
 _atom_site_fract_z
 _atom_site_occupancy
  Lu  Lu0  1  0.327871  0.004986  0.750000  1
  Th  Th1  1  0.996540  0.670795  0.250000  1
  Th  Th2  1  0.002330  0.329362  0.750000  1
  Th  Th3  1  0.670066  0.995526  0.250000  1
  Ga  Ga4  1  0.136817  0.133239  0.250000  1
  Ga  Ga5  1  0.870314  0.868360  0.750000  1
  Ga  Ga6  1  0.004460  0.335419  0.079749  1
  Ga  Ga7  1  0.003468  0.671365  0.916298  1
  Ga  Ga8  1  0.003468  0.671365  0.583702  1
  Ga  Ga9  1  0.335290  0.002978  0.427602  1
  Ga  Ga10  1  0.004460  0.335419  0.420251  1
  Ga  Ga11  1  0.657605  0.997036  0.583568  1
  Ga  Ga12  1  0.657605  0.997036  0.916432  1
  Ga  Ga13  1  0.335290  0.002978  0.072398  1
  Ga  Ga14  1  0.335310  0.330194  0.563686  1
  Ga  Ga15  1  0.663882  0.663642  0.444028  1
  Ga  Ga16  1  0.663882  0.663642  0.055972  1
  Ga  Ga17  1  0.335310  0.330194  0.936314  1
  Ga  Ga18  1  0.343441  0.543772  0.250000  1
  Ga  Ga19  1  0.654407  0.449252  0.750000  1
  Ga  Ga20  1  0.543583  0.339341  0.250000  1
  Ga  Ga21  1  0.454095  0.662005  0.750000  1
  Ir  Ir22  1  0.675437  0.329550  0.999932  1
  Ir  Ir23  1  0.326859  0.670835  0.000059  1
  Ir  Ir24  1  0.326859  0.670835  0.499941  1
  Ir  Ir25  1  0.675437  0.329550  0.500068  1
  Ir  Ir26  1  0.997959  0.000665  0.000042  1
  Ir  Ir27  1  0.997959  0.000665  0.499958  1
