# generated using pymatgen
data_Tb4Nd2Co17MoP12
_symmetry_space_group_name_H-M   'P 1'
_cell_length_a   3.72722900
_cell_length_b   10.57953600
_cell_length_c   12.28624400
_cell_angle_alpha   90.00000000
_cell_angle_beta   90.00000000
_cell_angle_gamma   90.00000000
_symmetry_Int_Tables_number   1
_chemical_formula_structural   Tb4Nd2Co17MoP12
_chemical_formula_sum   'Tb4 Nd2 Co17 Mo1 P12'
_cell_volume   484.47551519
_cell_formula_units_Z   1
loop_
 _symmetry_equiv_pos_site_id
 _symmetry_equiv_pos_as_xyz
  1  'x, y, z'
loop_
 _atom_site_type_symbol
 _atom_site_label
 _atom_site_symmetry_multiplicity
 _atom_site_fract_x
 _atom_site_fract_y
 _atom_site_fract_z
 _atom_site_occupancy
  Tb  Tb0  1  0.500000  0.818108  0.205580  1
  Tb  Tb1  1  0.500000  0.181892  0.205580  1
  Tb  Tb2  1  0.000000  0.682970  0.796479  1
  Tb  Tb3  1  0.000000  0.317030  0.796479  1
  Nd  Nd4  1  0.000000  0.500000  0.525097  1
  Nd  Nd5  1  0.500000  0.000000  0.478009  1
  Co  Co6  1  0.000000  0.000000  0.841663  1
  Co  Co7  1  0.500000  0.500000  0.704837  1
  Co  Co8  1  0.000000  0.000000  0.293759  1
  Co  Co9  1  0.000000  0.500000  0.986035  1
  Co  Co10  1  0.500000  0.000000  0.013900  1
  Co  Co11  1  0.500000  0.331152  0.990902  1
  Co  Co12  1  0.500000  0.668848  0.990902  1
  Co  Co13  1  0.000000  0.165658  0.005332  1
  Co  Co14  1  0.000000  0.834342  0.005332  1
  Co  Co15  1  0.500000  0.295516  0.430512  1
  Co  Co16  1  0.500000  0.704484  0.430512  1
  Co  Co17  1  0.000000  0.203571  0.570654  1
  Co  Co18  1  0.000000  0.796429  0.570654  1
  Co  Co19  1  0.500000  0.880060  0.711146  1
  Co  Co20  1  0.500000  0.119940  0.711146  1
  Co  Co21  1  0.000000  0.621196  0.290106  1
  Co  Co22  1  0.000000  0.378804  0.290106  1
  Mo  Mo23  1  0.500000  0.500000  0.154224  1
  P  P24  1  0.500000  0.500000  0.882493  1
  P  P25  1  0.000000  0.000000  0.115728  1
  P  P26  1  0.500000  0.500000  0.345509  1
  P  P27  1  0.000000  0.000000  0.660082  1
  P  P28  1  0.500000  0.307106  0.617879  1
  P  P29  1  0.500000  0.692894  0.617879  1
  P  P30  1  0.000000  0.191980  0.383818  1
  P  P31  1  0.000000  0.808020  0.383818  1
  P  P32  1  0.500000  0.849593  0.892665  1
  P  P33  1  0.500000  0.150407  0.892665  1
  P  P34  1  0.000000  0.656761  0.104259  1
  P  P35  1  0.000000  0.343239  0.104259  1
