# generated using pymatgen
data_YHo3(Fe2O7)2
_symmetry_space_group_name_H-M   'P 1'
_cell_length_a   7.14597075
_cell_length_b   7.14509233
_cell_length_c   7.14798412
_cell_angle_alpha   59.99683403
_cell_angle_beta   59.98667465
_cell_angle_gamma   59.99771285
_symmetry_Int_Tables_number   1
_chemical_formula_structural   YHo3(Fe2O7)2
_chemical_formula_sum   'Y1 Ho3 Fe4 O14'
_cell_volume   258.03345013
_cell_formula_units_Z   1
loop_
 _symmetry_equiv_pos_site_id
 _symmetry_equiv_pos_as_xyz
  1  'x, y, z'
loop_
 _atom_site_type_symbol
 _atom_site_label
 _atom_site_symmetry_multiplicity
 _atom_site_fract_x
 _atom_site_fract_y
 _atom_site_fract_z
 _atom_site_occupancy
  Y  Y0  1  0.500005  0.500003  0.999999  1
  Ho  Ho1  1  0.500007  0.000000  0.499996  1
  Ho  Ho2  1  0.000000  0.499989  0.500004  1
  Ho  Ho3  1  0.499989  0.500011  0.500000  1
  Fe  Fe4  1  0.000005  0.500000  0.000000  1
  Fe  Fe5  1  0.499999  0.999995  0.999996  1
  Fe  Fe6  1  0.000004  0.000001  0.500001  1
  Fe  Fe7  1  0.999991  0.000005  0.000004  1
  O  O8  1  0.625632  0.625628  0.623067  1
  O  O9  1  0.374370  0.374373  0.376932  1
  O  O10  1  0.333358  0.917435  0.915802  1
  O  O11  1  0.083742  0.666357  0.666083  1
  O  O12  1  0.917384  0.333458  0.915723  1
  O  O13  1  0.916304  0.916274  0.333835  1
  O  O14  1  0.333395  0.333361  0.915845  1
  O  O15  1  0.333717  0.916228  0.333960  1
  O  O16  1  0.916237  0.333644  0.333916  1
  O  O17  1  0.666615  0.666627  0.084168  1
  O  O18  1  0.083710  0.083711  0.666175  1
  O  O19  1  0.666625  0.082570  0.084194  1
  O  O20  1  0.666290  0.083783  0.666034  1
  O  O21  1  0.082624  0.666552  0.084268  1
