# generated using pymatgen
data_Dy4Lu8Ni4SnAu
_symmetry_space_group_name_H-M   'P 1'
_cell_length_a   8.24225393
_cell_length_b   8.24225532
_cell_length_c   8.24225609
_cell_angle_alpha   112.23390893
_cell_angle_beta   109.35077488
_cell_angle_gamma   106.87356466
_symmetry_Int_Tables_number   1
_chemical_formula_structural   Dy4Lu8Ni4SnAu
_chemical_formula_sum   'Dy4 Lu8 Ni4 Sn1 Au1'
_cell_volume   430.09189182
_cell_formula_units_Z   1
loop_
 _symmetry_equiv_pos_site_id
 _symmetry_equiv_pos_as_xyz
  1  'x, y, z'
loop_
 _atom_site_type_symbol
 _atom_site_label
 _atom_site_symmetry_multiplicity
 _atom_site_fract_x
 _atom_site_fract_y
 _atom_site_fract_z
 _atom_site_occupancy
  Dy  Dy0  1  0.182057  0.205928  0.387986  1
  Dy  Dy1  1  0.817943  0.205928  0.023870  1
  Dy  Dy2  1  0.182057  0.794072  0.976130  1
  Dy  Dy3  1  0.817943  0.794072  0.612014  1
  Lu  Lu4  1  0.022660  0.721889  0.300770  1
  Lu  Lu5  1  0.977340  0.278111  0.699230  1
  Lu  Lu6  1  0.578881  0.278111  0.300770  1
  Lu  Lu7  1  0.421119  0.721889  0.699230  1
  Lu  Lu8  1  0.675165  0.867710  0.192545  1
  Lu  Lu9  1  0.324835  0.517379  0.192545  1
  Lu  Lu10  1  0.324835  0.132290  0.807455  1
  Lu  Lu11  1  0.675165  0.482621  0.807455  1
  Ni  Ni12  1  0.638138  0.500000  0.138138  1
  Ni  Ni13  1  0.361862  0.500000  0.861862  1
  Ni  Ni14  1  0.870775  0.870775  0.000000  1
  Ni  Ni15  1  0.129225  0.129225  0.000000  1
  Sn  Sn16  1  0.500000  0.000000  0.500000  1
  Au  Au17  1  0.000000  0.500000  0.500000  1
