# generated using pymatgen
data_SmYLu2(WO6)2
_symmetry_space_group_name_H-M   'P 1'
_cell_length_a   5.40542900
_cell_length_b   7.68699132
_cell_length_c   11.37892601
_cell_angle_alpha   75.66025567
_cell_angle_beta   90.00000000
_cell_angle_gamma   90.00000000
_symmetry_Int_Tables_number   1
_chemical_formula_structural   SmYLu2(WO6)2
_chemical_formula_sum   'Sm2 Y2 Lu4 W4 O24'
_cell_volume   458.08045115
_cell_formula_units_Z   2
loop_
 _symmetry_equiv_pos_site_id
 _symmetry_equiv_pos_as_xyz
  1  'x, y, z'
loop_
 _atom_site_type_symbol
 _atom_site_label
 _atom_site_symmetry_multiplicity
 _atom_site_fract_x
 _atom_site_fract_y
 _atom_site_fract_z
 _atom_site_occupancy
  Sm  Sm0  1  0.315257  0.500000  0.750000  1
  Sm  Sm1  1  0.684743  0.500000  0.250000  1
  Y  Y2  1  0.255844  0.000000  0.750000  1
  Y  Y3  1  0.744156  0.000000  0.250000  1
  Lu  Lu4  1  0.182732  0.794039  0.078985  1
  Lu  Lu5  1  0.182732  0.205961  0.421015  1
  Lu  Lu6  1  0.817268  0.205961  0.921015  1
  Lu  Lu7  1  0.817268  0.794039  0.578985  1
  W  W8  1  0.743905  0.725863  0.885854  1
  W  W9  1  0.256095  0.725863  0.385854  1
  W  W10  1  0.743905  0.274137  0.614146  1
  W  W11  1  0.256095  0.274137  0.114146  1
  O  O12  1  0.541295  0.159363  0.066538  1
  O  O13  1  0.049361  0.057505  0.102076  1
  O  O14  1  0.014935  0.716539  0.769588  1
  O  O15  1  0.458705  0.159363  0.566538  1
  O  O16  1  0.351237  0.489130  0.387739  1
  O  O17  1  0.950639  0.057505  0.602076  1
  O  O18  1  0.546691  0.793909  0.725207  1
  O  O19  1  0.453309  0.793909  0.225207  1
  O  O20  1  0.142802  0.637999  0.548505  1
  O  O21  1  0.049361  0.942495  0.397924  1
  O  O22  1  0.458705  0.840637  0.933462  1
  O  O23  1  0.453309  0.206091  0.274793  1
  O  O24  1  0.857198  0.362001  0.451495  1
  O  O25  1  0.648763  0.489130  0.887739  1
  O  O26  1  0.351237  0.510870  0.112261  1
  O  O27  1  0.950639  0.942495  0.897924  1
  O  O28  1  0.541295  0.840637  0.433462  1
  O  O29  1  0.985065  0.283461  0.230412  1
  O  O30  1  0.546691  0.206091  0.774793  1
  O  O31  1  0.857198  0.637999  0.048505  1
  O  O32  1  0.014935  0.283461  0.730412  1
  O  O33  1  0.142802  0.362001  0.951495  1
  O  O34  1  0.985065  0.716539  0.269588  1
  O  O35  1  0.648763  0.510870  0.612261  1
