# generated using pymatgen
data_CrFe2BO5
_symmetry_space_group_name_H-M   'P 1'
_cell_length_a   3.10351800
_cell_length_b   9.64298200
_cell_length_c   12.37233800
_cell_angle_alpha   90.00000000
_cell_angle_beta   90.00000000
_cell_angle_gamma   90.00000000
_symmetry_Int_Tables_number   1
_chemical_formula_structural   CrFe2BO5
_chemical_formula_sum   'Cr4 Fe8 B4 O20'
_cell_volume   370.26904049
_cell_formula_units_Z   4
loop_
 _symmetry_equiv_pos_site_id
 _symmetry_equiv_pos_as_xyz
  1  'x, y, z'
loop_
 _atom_site_type_symbol
 _atom_site_label
 _atom_site_symmetry_multiplicity
 _atom_site_fract_x
 _atom_site_fract_y
 _atom_site_fract_z
 _atom_site_occupancy
  Cr  Cr0  1  0.500000  0.744626  0.386298  1
  Cr  Cr1  1  0.500000  0.755374  0.886298  1
  Cr  Cr2  1  0.500000  0.255374  0.613702  1
  Cr  Cr3  1  0.500000  0.244626  0.113702  1
  Fe  Fe4  1  0.500000  0.500000  0.000000  1
  Fe  Fe5  1  0.500000  0.000000  0.500000  1
  Fe  Fe6  1  0.000000  0.001166  0.724940  1
  Fe  Fe7  1  0.000000  0.998834  0.275060  1
  Fe  Fe8  1  0.000000  0.498834  0.224940  1
  Fe  Fe9  1  0.000000  0.501166  0.775060  1
  Fe  Fe10  1  0.000000  0.500000  0.500000  1
  Fe  Fe11  1  0.000000  0.000000  0.000000  1
  B  B12  1  0.500000  0.734763  0.637683  1
  B  B13  1  0.500000  0.765237  0.137683  1
  B  B14  1  0.500000  0.234763  0.862317  1
  B  B15  1  0.500000  0.265237  0.362317  1
  O  O16  1  0.500000  0.660213  0.540907  1
  O  O17  1  0.500000  0.377885  0.861270  1
  O  O18  1  0.000000  0.113319  0.140462  1
  O  O19  1  0.000000  0.120187  0.583270  1
  O  O20  1  0.500000  0.337525  0.264848  1
  O  O21  1  0.500000  0.622115  0.138730  1
  O  O22  1  0.000000  0.379813  0.083270  1
  O  O23  1  0.000000  0.613319  0.359538  1
  O  O24  1  0.000000  0.886681  0.859538  1
  O  O25  1  0.000000  0.620187  0.916730  1
  O  O26  1  0.000000  0.879813  0.416730  1
  O  O27  1  0.500000  0.837525  0.235152  1
  O  O28  1  0.500000  0.339787  0.459093  1
  O  O29  1  0.500000  0.662475  0.735152  1
  O  O30  1  0.500000  0.160213  0.959093  1
  O  O31  1  0.500000  0.839787  0.040907  1
  O  O32  1  0.000000  0.386681  0.640462  1
  O  O33  1  0.500000  0.122115  0.361270  1
  O  O34  1  0.500000  0.162475  0.764848  1
  O  O35  1  0.500000  0.877885  0.638730  1
