# generated using pymatgen
data_Pr20Si15Br
_symmetry_space_group_name_H-M   'P 1'
_cell_length_a   7.98209727
_cell_length_b   7.92950778
_cell_length_c   15.38694042
_cell_angle_alpha   89.63647742
_cell_angle_beta   89.24062802
_cell_angle_gamma   90.20700050
_symmetry_Int_Tables_number   1
_chemical_formula_structural   Pr20Si15Br
_chemical_formula_sum   'Pr20 Si15 Br1'
_cell_volume   973.79079187
_cell_formula_units_Z   1
loop_
 _symmetry_equiv_pos_site_id
 _symmetry_equiv_pos_as_xyz
  1  'x, y, z'
loop_
 _atom_site_type_symbol
 _atom_site_label
 _atom_site_symmetry_multiplicity
 _atom_site_fract_x
 _atom_site_fract_y
 _atom_site_fract_z
 _atom_site_occupancy
  Pr  Pr0  1  0.309571  0.310299  0.999838  1
  Pr  Pr1  1  0.187890  0.808924  0.249992  1
  Pr  Pr2  1  0.796384  0.189377  0.752628  1
  Pr  Pr3  1  0.687221  0.688866  0.496928  1
  Pr  Pr4  1  0.382531  0.005930  0.442508  1
  Pr  Pr5  1  0.497632  0.869584  0.698756  1
  Pr  Pr6  1  0.510592  0.121366  0.196920  1
  Pr  Pr7  1  0.876183  0.486785  0.300797  1
  Pr  Pr8  1  0.121335  0.518331  0.804541  1
  Pr  Pr9  1  0.630662  0.985761  0.951792  1
  Pr  Pr10  1  0.997065  0.383469  0.545322  1
  Pr  Pr11  1  0.991397  0.622297  0.053341  1
  Pr  Pr12  1  0.138847  0.988185  0.875049  1
  Pr  Pr13  1  0.517552  0.629263  0.126268  1
  Pr  Pr14  1  0.483212  0.371087  0.630185  1
  Pr  Pr15  1  0.633366  0.521456  0.876423  1
  Pr  Pr16  1  0.369179  0.478109  0.375020  1
  Pr  Pr17  1  0.871501  0.019388  0.376339  1
  Pr  Pr18  1  0.982980  0.128225  0.124484  1
  Pr  Pr19  1  0.012173  0.861165  0.621008  1
  Si  Si20  1  0.330659  0.697350  0.951050  1
  Si  Si21  1  0.663121  0.304675  0.453375  1
  Si  Si22  1  0.700537  0.334919  0.050387  1
  Si  Si23  1  0.304597  0.667987  0.549798  1
  Si  Si24  1  0.803341  0.832435  0.202284  1
  Si  Si25  1  0.167890  0.195482  0.297239  1
  Si  Si26  1  0.841831  0.804798  0.797422  1
  Si  Si27  1  0.286738  0.921577  0.058560  1
  Si  Si28  1  0.576778  0.786639  0.308472  1
  Si  Si29  1  0.451455  0.209746  0.824899  1
  Si  Si30  1  0.790948  0.576477  0.688933  1
  Si  Si31  1  0.211428  0.423558  0.191164  1
  Si  Si32  1  0.705401  0.075778  0.560241  1
  Si  Si33  1  0.926119  0.290712  0.940435  1
  Si  Si34  1  0.077615  0.710876  0.440599  1
  Br  Br35  1  0.164269  0.179122  0.687003  1
