# generated using pymatgen
data_Tb3AuO7
_symmetry_space_group_name_H-M   'P 1'
_cell_length_a   6.53387634
_cell_length_b   6.53387734
_cell_length_c   7.49135000
_cell_angle_alpha   90.00000000
_cell_angle_beta   90.00000000
_cell_angle_gamma   108.85004953
_symmetry_Int_Tables_number   1
_chemical_formula_structural   Tb3AuO7
_chemical_formula_sum   'Tb6 Au2 O14'
_cell_volume   302.66468014
_cell_formula_units_Z   2
loop_
 _symmetry_equiv_pos_site_id
 _symmetry_equiv_pos_as_xyz
  1  'x, y, z'
loop_
 _atom_site_type_symbol
 _atom_site_label
 _atom_site_symmetry_multiplicity
 _atom_site_fract_x
 _atom_site_fract_y
 _atom_site_fract_z
 _atom_site_occupancy
  Tb  Tb0  1  0.500000  0.500000  0.500000  1
  Tb  Tb1  1  0.500000  0.500000  0.000000  1
  Tb  Tb2  1  0.529225  0.997440  0.750000  1
  Tb  Tb3  1  0.997440  0.529225  0.250000  1
  Tb  Tb4  1  0.470775  0.002560  0.250000  1
  Tb  Tb5  1  0.002560  0.470775  0.750000  1
  Au  Au6  1  0.000000  0.000000  0.500000  1
  Au  Au7  1  0.000000  0.000000  0.000000  1
  O  O8  1  0.671496  0.919727  0.475577  1
  O  O9  1  0.919727  0.671496  0.524423  1
  O  O10  1  0.671496  0.919727  0.024423  1
  O  O11  1  0.919727  0.671496  0.975577  1
  O  O12  1  0.328504  0.080273  0.524423  1
  O  O13  1  0.080273  0.328504  0.475577  1
  O  O14  1  0.328504  0.080273  0.975577  1
  O  O15  1  0.080273  0.328504  0.024423  1
  O  O16  1  0.921135  0.078865  0.750000  1
  O  O17  1  0.078865  0.921135  0.250000  1
  O  O18  1  0.368854  0.631146  0.750000  1
  O  O19  1  0.631146  0.368854  0.250000  1
  O  O20  1  0.638656  0.361344  0.750000  1
  O  O21  1  0.361344  0.638656  0.250000  1
