# generated using pymatgen
data_Ho3Hf5Pt4
_symmetry_space_group_name_H-M   'P 1'
_cell_length_a   4.62858400
_cell_length_b   6.94067469
_cell_length_c   8.19704337
_cell_angle_alpha   89.78389748
_cell_angle_beta   90.00000000
_cell_angle_gamma   90.00000000
_symmetry_Int_Tables_number   1
_chemical_formula_structural   Ho3Hf5Pt4
_chemical_formula_sum   'Ho3 Hf5 Pt4'
_cell_volume   263.33220936
_cell_formula_units_Z   1
loop_
 _symmetry_equiv_pos_site_id
 _symmetry_equiv_pos_as_xyz
  1  'x, y, z'
loop_
 _atom_site_type_symbol
 _atom_site_label
 _atom_site_symmetry_multiplicity
 _atom_site_fract_x
 _atom_site_fract_y
 _atom_site_fract_z
 _atom_site_occupancy
  Ho  Ho0  1  0.250000  0.483994  0.181545  1
  Ho  Ho1  1  0.750000  0.013621  0.675756  1
  Ho  Ho2  1  0.750000  0.514785  0.819634  1
  Hf  Hf3  1  0.250000  0.851386  0.926036  1
  Hf  Hf4  1  0.250000  0.348046  0.578083  1
  Hf  Hf5  1  0.750000  0.144047  0.082782  1
  Hf  Hf6  1  0.750000  0.653747  0.419420  1
  Hf  Hf7  1  0.250000  0.988200  0.329021  1
  Pt  Pt8  1  0.250000  0.232519  0.905235  1
  Pt  Pt9  1  0.250000  0.738955  0.587667  1
  Pt  Pt10  1  0.750000  0.766623  0.094997  1
  Pt  Pt11  1  0.750000  0.264077  0.399824  1
