# generated using pymatgen
data_Ho3ErTc4F28
_symmetry_space_group_name_H-M   'P 1'
_cell_length_a   5.56259204
_cell_length_b   8.86085073
_cell_length_c   11.98636250
_cell_angle_alpha   62.70017111
_cell_angle_beta   89.98737049
_cell_angle_gamma   89.99054901
_symmetry_Int_Tables_number   1
_chemical_formula_structural   Ho3ErTc4F28
_chemical_formula_sum   'Ho3 Er1 Tc4 F28'
_cell_volume   524.99531423
_cell_formula_units_Z   1
loop_
 _symmetry_equiv_pos_site_id
 _symmetry_equiv_pos_as_xyz
  1  'x, y, z'
loop_
 _atom_site_type_symbol
 _atom_site_label
 _atom_site_symmetry_multiplicity
 _atom_site_fract_x
 _atom_site_fract_y
 _atom_site_fract_z
 _atom_site_occupancy
  Ho  Ho0  1  0.758724  0.813509  0.764700  1
  Ho  Ho1  1  0.258702  0.186450  0.735275  1
  Ho  Ho2  1  0.241287  0.186057  0.235350  1
  Er  Er3  1  0.741264  0.813700  0.264592  1
  Tc  Tc4  1  0.758302  0.272499  0.957092  1
  Tc  Tc5  1  0.258439  0.727296  0.542744  1
  Tc  Tc6  1  0.241632  0.727319  0.043354  1
  Tc  Tc7  1  0.741654  0.273100  0.456810  1
  F  F8  1  0.441690  0.706349  0.916832  1
  F  F9  1  0.941827  0.293689  0.583320  1
  F  F10  1  0.558059  0.293633  0.083381  1
  F  F11  1  0.057628  0.706552  0.416473  1
  F  F12  1  0.443333  0.274951  0.545502  1
  F  F13  1  0.943575  0.725070  0.954560  1
  F  F14  1  0.556952  0.725390  0.453901  1
  F  F15  1  0.056662  0.274854  0.045583  1
  F  F16  1  0.776623  0.521205  0.859661  1
  F  F17  1  0.276650  0.478703  0.640347  1
  F  F18  1  0.223385  0.478640  0.140430  1
  F  F19  1  0.723460  0.521959  0.359422  1
  F  F20  1  0.755014  0.025021  0.053264  1
  F  F21  1  0.254959  0.974762  0.447046  1
  F  F22  1  0.244993  0.974711  0.947147  1
  F  F23  1  0.744998  0.025527  0.552791  1
  F  F24  1  0.972435  0.727503  0.638827  1
  F  F25  1  0.472244  0.272452  0.861135  1
  F  F26  1  0.027808  0.272460  0.361060  1
  F  F27  1  0.527981  0.727803  0.139204  1
  F  F28  1  0.046305  0.747461  0.173562  1
  F  F29  1  0.547247  0.252823  0.326599  1
  F  F30  1  0.952679  0.252769  0.826647  1
  F  F31  1  0.452652  0.747172  0.673272  1
  F  F32  1  0.420170  0.970247  0.232493  1
  F  F33  1  0.918444  0.028358  0.267622  1
  F  F34  1  0.581119  0.029293  0.767650  1
  F  F35  1  0.081103  0.970713  0.732352  1
