# generated using pymatgen
data_Dy6Er4BiPb5
_symmetry_space_group_name_H-M   'P 1'
_cell_length_a   9.06300900
_cell_length_b   9.06300992
_cell_length_c   6.53950600
_cell_angle_alpha   90.00000000
_cell_angle_beta   90.00000000
_cell_angle_gamma   119.99845523
_symmetry_Int_Tables_number   1
_chemical_formula_structural   Dy6Er4BiPb5
_chemical_formula_sum   'Dy6 Er4 Bi1 Pb5'
_cell_volume   465.18660525
_cell_formula_units_Z   1
loop_
 _symmetry_equiv_pos_site_id
 _symmetry_equiv_pos_as_xyz
  1  'x, y, z'
loop_
 _atom_site_type_symbol
 _atom_site_label
 _atom_site_symmetry_multiplicity
 _atom_site_fract_x
 _atom_site_fract_y
 _atom_site_fract_z
 _atom_site_occupancy
  Dy  Dy0  1  0.762008  0.762008  0.750000  1
  Dy  Dy1  1  0.237842  0.997538  0.750000  1
  Dy  Dy2  1  0.997538  0.237842  0.750000  1
  Dy  Dy3  1  0.238794  0.238794  0.250000  1
  Dy  Dy4  1  0.761223  0.000491  0.250000  1
  Dy  Dy5  1  0.000491  0.761223  0.250000  1
  Er  Er6  1  0.667948  0.332947  0.999618  1
  Er  Er7  1  0.332947  0.667948  0.999618  1
  Er  Er8  1  0.332947  0.667948  0.500382  1
  Er  Er9  1  0.667948  0.332947  0.500382  1
  Bi  Bi10  1  0.394189  0.394189  0.750000  1
  Pb  Pb11  1  0.605282  0.000043  0.750000  1
  Pb  Pb12  1  0.000043  0.605282  0.750000  1
  Pb  Pb13  1  0.605788  0.605788  0.250000  1
  Pb  Pb14  1  0.394483  0.000530  0.250000  1
  Pb  Pb15  1  0.000530  0.394483  0.250000  1
