# generated using pymatgen
data_DyEr(TaS2)8
_symmetry_space_group_name_H-M   'P 1'
_cell_length_a   6.70573200
_cell_length_b   6.70573141
_cell_length_c   13.80300200
_cell_angle_alpha   90.00000000
_cell_angle_beta   90.00000000
_cell_angle_gamma   120.00001280
_symmetry_Int_Tables_number   1
_chemical_formula_structural   DyEr(TaS2)8
_chemical_formula_sum   'Dy1 Er1 Ta8 S16'
_cell_volume   537.52228365
_cell_formula_units_Z   1
loop_
 _symmetry_equiv_pos_site_id
 _symmetry_equiv_pos_as_xyz
  1  'x, y, z'
loop_
 _atom_site_type_symbol
 _atom_site_label
 _atom_site_symmetry_multiplicity
 _atom_site_fract_x
 _atom_site_fract_y
 _atom_site_fract_z
 _atom_site_occupancy
  Dy  Dy0  1  0.000000  0.000000  0.500000  1
  Er  Er1  1  0.000000  0.000000  0.000000  1
  Ta  Ta2  1  0.504862  0.495138  0.751389  1
  Ta  Ta3  1  0.009722  0.504862  0.248611  1
  Ta  Ta4  1  0.495138  0.990278  0.248611  1
  Ta  Ta5  1  0.504862  0.009722  0.751389  1
  Ta  Ta6  1  0.990278  0.495138  0.751389  1
  Ta  Ta7  1  0.495138  0.504862  0.248611  1
  Ta  Ta8  1  0.000000  0.000000  0.750729  1
  Ta  Ta9  1  0.000000  0.000000  0.249271  1
  S  S10  1  0.831180  0.168820  0.362089  1
  S  S11  1  0.831180  0.662361  0.362089  1
  S  S12  1  0.337639  0.168820  0.362089  1
  S  S13  1  0.663710  0.831855  0.864400  1
  S  S14  1  0.168820  0.337639  0.637911  1
  S  S15  1  0.168145  0.831855  0.864400  1
  S  S16  1  0.168145  0.336290  0.864400  1
  S  S17  1  0.831855  0.168145  0.135600  1
  S  S18  1  0.336290  0.168145  0.135600  1
  S  S19  1  0.662361  0.831180  0.637911  1
  S  S20  1  0.333333  0.666667  0.132579  1
  S  S21  1  0.666667  0.333333  0.635638  1
  S  S22  1  0.666667  0.333333  0.867421  1
  S  S23  1  0.333333  0.666667  0.364362  1
  S  S24  1  0.831855  0.663710  0.135600  1
  S  S25  1  0.168820  0.831180  0.637911  1
