# generated using pymatgen
data_Er2Tm4MoO12
_symmetry_space_group_name_H-M   'P 1'
_cell_length_a   6.39971238
_cell_length_b   6.40140743
_cell_length_c   6.40371404
_cell_angle_alpha   98.68503013
_cell_angle_beta   98.66266772
_cell_angle_gamma   98.71811910
_symmetry_Int_Tables_number   1
_chemical_formula_structural   Er2Tm4MoO12
_chemical_formula_sum   'Er2 Tm4 Mo1 O12'
_cell_volume   252.26387732
_cell_formula_units_Z   1
loop_
 _symmetry_equiv_pos_site_id
 _symmetry_equiv_pos_as_xyz
  1  'x, y, z'
loop_
 _atom_site_type_symbol
 _atom_site_label
 _atom_site_symmetry_multiplicity
 _atom_site_fract_x
 _atom_site_fract_y
 _atom_site_fract_z
 _atom_site_occupancy
  Er  Er0  1  0.683136  0.856371  0.388850  1
  Er  Er1  1  0.388443  0.682456  0.856075  1
  Tm  Tm2  1  0.855781  0.388759  0.681685  1
  Tm  Tm3  1  0.318221  0.144506  0.610926  1
  Tm  Tm4  1  0.611073  0.318158  0.144175  1
  Tm  Tm5  1  0.144069  0.610633  0.318280  1
  Mo  Mo6  1  0.000659  0.000710  0.000472  1
  O  O7  1  0.429603  0.588139  0.178245  1
  O  O8  1  0.176973  0.429066  0.588953  1
  O  O9  1  0.589434  0.178936  0.430287  1
  O  O10  1  0.570406  0.408803  0.822729  1
  O  O11  1  0.823189  0.568547  0.409972  1
  O  O12  1  0.408512  0.823239  0.568838  1
  O  O13  1  0.921285  0.037173  0.701337  1
  O  O14  1  0.963733  0.299318  0.079686  1
  O  O15  1  0.299584  0.079735  0.963692  1
  O  O16  1  0.079760  0.963537  0.299219  1
  O  O17  1  0.035090  0.700555  0.920488  1
  O  O18  1  0.701049  0.921359  0.036090  1
