# generated using pymatgen
data_K4ZnP2Pd
_symmetry_space_group_name_H-M   'P 1'
_cell_length_a   6.28529954
_cell_length_b   6.28530014
_cell_length_c   5.77739775
_cell_angle_alpha   88.66830475
_cell_angle_beta   91.33168646
_cell_angle_gamma   74.88312341
_symmetry_Int_Tables_number   1
_chemical_formula_structural   K4ZnP2Pd
_chemical_formula_sum   'K4 Zn1 P2 Pd1'
_cell_volume   220.17709943
_cell_formula_units_Z   1
loop_
 _symmetry_equiv_pos_site_id
 _symmetry_equiv_pos_as_xyz
  1  'x, y, z'
loop_
 _atom_site_type_symbol
 _atom_site_label
 _atom_site_symmetry_multiplicity
 _atom_site_fract_x
 _atom_site_fract_y
 _atom_site_fract_z
 _atom_site_occupancy
  K  K0  1  0.316412  0.024978  0.253996  1
  K  K1  1  0.975023  0.683589  0.253996  1
  K  K2  1  0.024978  0.316412  0.746003  1
  K  K3  1  0.683589  0.975023  0.746003  1
  Zn  Zn4  1  0.500000  0.500000  0.000000  1
  P  P5  1  0.743236  0.256764  0.242616  1
  P  P6  1  0.256764  0.743236  0.757383  1
  Pd  Pd7  1  0.500000  0.500000  0.500000  1
