# generated using pymatgen
data_Pr2Ga9Ru5
_symmetry_space_group_name_H-M   'P 1'
_cell_length_a   8.19518476
_cell_length_b   8.19518453
_cell_length_c   8.19518556
_cell_angle_alpha   135.21041509
_cell_angle_beta   135.21041827
_cell_angle_gamma   65.20343631
_symmetry_Int_Tables_number   1
_chemical_formula_structural   Pr2Ga9Ru5
_chemical_formula_sum   'Pr2 Ga9 Ru5'
_cell_volume   269.21056447
_cell_formula_units_Z   1
loop_
 _symmetry_equiv_pos_site_id
 _symmetry_equiv_pos_as_xyz
  1  'x, y, z'
loop_
 _atom_site_type_symbol
 _atom_site_label
 _atom_site_symmetry_multiplicity
 _atom_site_fract_x
 _atom_site_fract_y
 _atom_site_fract_z
 _atom_site_occupancy
  Pr  Pr0  1  0.000000  0.500000  0.500000  1
  Pr  Pr1  1  0.500000  0.000000  0.500000  1
  Ga  Ga2  1  0.443160  0.860776  0.000000  1
  Ga  Ga3  1  0.139224  0.139224  0.582384  1
  Ga  Ga4  1  0.860776  0.443160  0.000000  1
  Ga  Ga5  1  0.860776  0.860776  0.417616  1
  Ga  Ga6  1  0.556840  0.139224  0.000000  1
  Ga  Ga7  1  0.139224  0.556840  0.000000  1
  Ga  Ga8  1  0.556840  0.556840  0.417616  1
  Ga  Ga9  1  0.000000  0.000000  0.000000  1
  Ga  Ga10  1  0.443160  0.443160  0.582384  1
  Ru  Ru11  1  0.177657  0.177657  0.000000  1
  Ru  Ru12  1  0.822343  0.822343  0.000000  1
  Ru  Ru13  1  0.250000  0.750000  0.500000  1
  Ru  Ru14  1  0.750000  0.250000  0.500000  1
  Ru  Ru15  1  0.500000  0.500000  0.000000  1
