# generated using pymatgen
data_TbDyB6Ir5Rh4
_symmetry_space_group_name_H-M   'P 1'
_cell_length_a   5.63563222
_cell_length_b   5.62435947
_cell_length_c   8.63066400
_cell_angle_alpha   90.00000000
_cell_angle_beta   90.00000000
_cell_angle_gamma   119.93385757
_symmetry_Int_Tables_number   1
_chemical_formula_structural   TbDyB6Ir5Rh4
_chemical_formula_sum   'Tb1 Dy1 B6 Ir5 Rh4'
_cell_volume   237.07165093
_cell_formula_units_Z   1
loop_
 _symmetry_equiv_pos_site_id
 _symmetry_equiv_pos_as_xyz
  1  'x, y, z'
loop_
 _atom_site_type_symbol
 _atom_site_label
 _atom_site_symmetry_multiplicity
 _atom_site_fract_x
 _atom_site_fract_y
 _atom_site_fract_z
 _atom_site_occupancy
  Tb  Tb0  1  0.000000  0.000000  0.701096  1
  Dy  Dy1  1  0.000000  0.000000  0.298876  1
  B  B2  1  0.667694  0.333846  0.000050  1
  B  B3  1  0.332306  0.666154  0.000050  1
  B  B4  1  0.667204  0.333601  0.667966  1
  B  B5  1  0.332796  0.666399  0.667966  1
  B  B6  1  0.332790  0.666396  0.331983  1
  B  B7  1  0.667210  0.333604  0.331983  1
  Ir  Ir8  1  0.000000  0.500000  0.836603  1
  Ir  Ir9  1  0.000000  0.500000  0.163534  1
  Ir  Ir10  1  0.500000  0.500000  0.499901  1
  Ir  Ir11  1  0.500000  0.000000  0.499901  1
  Ir  Ir12  1  0.000000  0.500000  0.499887  1
  Rh  Rh13  1  0.500000  0.500000  0.836744  1
  Rh  Rh14  1  0.500000  0.000000  0.836744  1
  Rh  Rh15  1  0.500000  0.500000  0.163356  1
  Rh  Rh16  1  0.500000  0.000000  0.163356  1
