# generated using pymatgen
data_Tb2Y8InPb5
_symmetry_space_group_name_H-M   'P 1'
_cell_length_a   9.05022102
_cell_length_b   9.05022163
_cell_length_c   6.66839300
_cell_angle_alpha   89.99670162
_cell_angle_beta   89.99669529
_cell_angle_gamma   120.03560844
_symmetry_Int_Tables_number   1
_chemical_formula_structural   Tb2Y8InPb5
_chemical_formula_sum   'Tb2 Y8 In1 Pb5'
_cell_volume   472.84006967
_cell_formula_units_Z   1
loop_
 _symmetry_equiv_pos_site_id
 _symmetry_equiv_pos_as_xyz
  1  'x, y, z'
loop_
 _atom_site_type_symbol
 _atom_site_label
 _atom_site_symmetry_multiplicity
 _atom_site_fract_x
 _atom_site_fract_y
 _atom_site_fract_z
 _atom_site_occupancy
  Tb  Tb0  1  0.333330  0.663265  0.501879  1
  Tb  Tb1  1  0.663265  0.333330  0.501879  1
  Y  Y2  1  0.664290  0.333822  0.997971  1
  Y  Y3  1  0.333822  0.664290  0.997971  1
  Y  Y4  1  0.760966  0.760966  0.749805  1
  Y  Y5  1  0.239514  0.004709  0.750372  1
  Y  Y6  1  0.004709  0.239514  0.750372  1
  Y  Y7  1  0.237350  0.237350  0.249362  1
  Y  Y8  1  0.762204  0.999433  0.250012  1
  Y  Y9  1  0.999433  0.762204  0.250012  1
  In  In10  1  0.397278  0.397278  0.750061  1
  Pb  Pb11  1  0.605914  0.000101  0.750058  1
  Pb  Pb12  1  0.000101  0.605914  0.750058  1
  Pb  Pb13  1  0.604503  0.604503  0.249907  1
  Pb  Pb14  1  0.394708  0.998613  0.250141  1
  Pb  Pb15  1  0.998613  0.394708  0.250141  1
