# generated using pymatgen
data_CsNb6PbCl18
_symmetry_space_group_name_H-M   'P 1'
_cell_length_a   9.53660100
_cell_length_b   9.53660062
_cell_length_c   17.62460400
_cell_angle_alpha   90.00000000
_cell_angle_beta   90.00000000
_cell_angle_gamma   120.00000480
_symmetry_Int_Tables_number   1
_chemical_formula_structural   CsNb6PbCl18
_chemical_formula_sum   'Cs2 Nb12 Pb2 Cl36'
_cell_volume   1388.15252154
_cell_formula_units_Z   2
loop_
 _symmetry_equiv_pos_site_id
 _symmetry_equiv_pos_as_xyz
  1  'x, y, z'
loop_
 _atom_site_type_symbol
 _atom_site_label
 _atom_site_symmetry_multiplicity
 _atom_site_fract_x
 _atom_site_fract_y
 _atom_site_fract_z
 _atom_site_occupancy
  Cs  Cs0  1  0.666667  0.333333  0.750000  1
  Cs  Cs1  1  0.333333  0.666667  0.250000  1
  Nb  Nb2  1  0.806917  0.835189  0.930889  1
  Nb  Nb3  1  0.835189  0.028272  0.069111  1
  Nb  Nb4  1  0.193083  0.028272  0.430889  1
  Nb  Nb5  1  0.193083  0.164811  0.069111  1
  Nb  Nb6  1  0.164811  0.971728  0.930889  1
  Nb  Nb7  1  0.971728  0.164811  0.430889  1
  Nb  Nb8  1  0.806917  0.971728  0.569111  1
  Nb  Nb9  1  0.028272  0.835189  0.569111  1
  Nb  Nb10  1  0.164811  0.193083  0.569111  1
  Nb  Nb11  1  0.835189  0.806917  0.430889  1
  Nb  Nb12  1  0.971728  0.806917  0.069111  1
  Nb  Nb13  1  0.028272  0.193083  0.930889  1
  Pb  Pb14  1  0.666667  0.333333  0.250000  1
  Pb  Pb15  1  0.333333  0.666667  0.750000  1
  Cl  Cl16  1  0.840904  0.586489  0.500549  1
  Cl  Cl17  1  0.058907  0.628594  0.656596  1
  Cl  Cl18  1  0.413511  0.159096  0.999451  1
  Cl  Cl19  1  0.745584  0.159096  0.500549  1
  Cl  Cl20  1  0.159096  0.745584  0.000549  1
  Cl  Cl21  1  0.159096  0.413511  0.499451  1
  Cl  Cl22  1  0.222838  0.032106  0.659518  1
  Cl  Cl23  1  0.967894  0.190732  0.659518  1
  Cl  Cl24  1  0.628594  0.058907  0.156596  1
  Cl  Cl25  1  0.190732  0.967894  0.159518  1
  Cl  Cl26  1  0.032106  0.222838  0.159518  1
  Cl  Cl27  1  0.569689  0.628594  0.843404  1
  Cl  Cl28  1  0.586489  0.840904  0.000549  1
  Cl  Cl29  1  0.371406  0.430311  0.656596  1
  Cl  Cl30  1  0.413511  0.254416  0.500549  1
  Cl  Cl31  1  0.840904  0.254416  0.999451  1
  Cl  Cl32  1  0.430311  0.058907  0.343404  1
  Cl  Cl33  1  0.777162  0.967894  0.340482  1
  Cl  Cl34  1  0.586489  0.745584  0.499451  1
  Cl  Cl35  1  0.809268  0.032106  0.840482  1
  Cl  Cl36  1  0.254416  0.840904  0.499451  1
  Cl  Cl37  1  0.628594  0.569689  0.343404  1
  Cl  Cl38  1  0.941093  0.569689  0.156596  1
  Cl  Cl39  1  0.941093  0.371406  0.343404  1
  Cl  Cl40  1  0.777162  0.809268  0.159518  1
  Cl  Cl41  1  0.967894  0.777162  0.840482  1
  Cl  Cl42  1  0.569689  0.941093  0.656596  1
  Cl  Cl43  1  0.222838  0.190732  0.840482  1
  Cl  Cl44  1  0.254416  0.413511  0.000549  1
  Cl  Cl45  1  0.190732  0.222838  0.340482  1
  Cl  Cl46  1  0.371406  0.941093  0.843404  1
  Cl  Cl47  1  0.058907  0.430311  0.843404  1
  Cl  Cl48  1  0.809268  0.777162  0.659518  1
  Cl  Cl49  1  0.430311  0.371406  0.156596  1
  Cl  Cl50  1  0.032106  0.809268  0.340482  1
  Cl  Cl51  1  0.745584  0.586489  0.999451  1
