# generated using pymatgen
data_Nd4(Al8Pd3)3
_symmetry_space_group_name_H-M   'P 1'
_cell_length_a   7.55225384
_cell_length_b   7.60798238
_cell_length_c   13.40741777
_cell_angle_alpha   84.90404017
_cell_angle_beta   100.49810931
_cell_angle_gamma   119.58846230
_symmetry_Int_Tables_number   1
_chemical_formula_structural   Nd4(Al8Pd3)3
_chemical_formula_sum   'Nd4 Al24 Pd9'
_cell_volume   658.68281535
_cell_formula_units_Z   1
loop_
 _symmetry_equiv_pos_site_id
 _symmetry_equiv_pos_as_xyz
  1  'x, y, z'
loop_
 _atom_site_type_symbol
 _atom_site_label
 _atom_site_symmetry_multiplicity
 _atom_site_fract_x
 _atom_site_fract_y
 _atom_site_fract_z
 _atom_site_occupancy
  Nd  Nd0  1  0.437155  0.830439  0.808703  1
  Nd  Nd1  1  0.562845  0.169561  0.191297  1
  Nd  Nd2  1  0.769802  0.502968  0.808884  1
  Nd  Nd3  1  0.230198  0.497032  0.191116  1
  Al  Al4  1  0.479419  0.166681  0.946362  1
  Al  Al5  1  0.520581  0.833319  0.053638  1
  Al  Al6  1  0.021019  0.166523  0.558841  1
  Al  Al7  1  0.978981  0.833477  0.441159  1
  Al  Al8  1  0.355275  0.833237  0.557612  1
  Al  Al9  1  0.644725  0.166763  0.442388  1
  Al  Al10  1  0.620443  0.834560  0.332061  1
  Al  Al11  1  0.379557  0.165440  0.667939  1
  Al  Al12  1  0.056484  0.492496  0.666839  1
  Al  Al13  1  0.943516  0.507504  0.333161  1
  Al  Al14  1  0.732980  0.841502  0.665929  1
  Al  Al15  1  0.267020  0.158498  0.334071  1
  Al  Al16  1  0.147859  0.496708  0.947238  1
  Al  Al17  1  0.852141  0.503292  0.052762  1
  Al  Al18  1  0.819957  0.834938  0.956718  1
  Al  Al19  1  0.180043  0.165062  0.043282  1
  Al  Al20  1  0.312457  0.500432  0.441469  1
  Al  Al21  1  0.687543  0.499568  0.558531  1
  Al  Al22  1  0.101896  0.836185  0.183807  1
  Al  Al23  1  0.898104  0.163815  0.816193  1
  Al  Al24  1  0.305255  0.367450  0.814708  1
  Al  Al25  1  0.694745  0.632550  0.185292  1
  Al  Al26  1  0.102808  0.961000  0.815673  1
  Al  Al27  1  0.897192  0.039000  0.184327  1
  Pd  Pd28  1  0.385901  0.504465  0.636079  1
  Pd  Pd29  1  0.614099  0.495535  0.363921  1
  Pd  Pd30  1  0.172195  0.829373  0.999253  1
  Pd  Pd31  1  0.827805  0.170627  0.000747  1
  Pd  Pd32  1  0.293025  0.833971  0.363147  1
  Pd  Pd33  1  0.706975  0.166029  0.636853  1
  Pd  Pd34  1  0.049169  0.828237  0.635671  1
  Pd  Pd35  1  0.950831  0.171763  0.364329  1
  Pd  Pd36  1  0.500000  0.500000  0.000000  1
