# generated using pymatgen
data_Hf7Zr3(CoAs3)2
_symmetry_space_group_name_H-M   'P 1'
_cell_length_a   3.70441300
_cell_length_b   10.50040409
_cell_length_c   17.47086115
_cell_angle_alpha   90.01495054
_cell_angle_beta   90.00000000
_cell_angle_gamma   90.00000000
_symmetry_Int_Tables_number   1
_chemical_formula_structural   Hf7Zr3(CoAs3)2
_chemical_formula_sum   'Hf14 Zr6 Co4 As12'
_cell_volume   679.57862342
_cell_formula_units_Z   2
loop_
 _symmetry_equiv_pos_site_id
 _symmetry_equiv_pos_as_xyz
  1  'x, y, z'
loop_
 _atom_site_type_symbol
 _atom_site_label
 _atom_site_symmetry_multiplicity
 _atom_site_fract_x
 _atom_site_fract_y
 _atom_site_fract_z
 _atom_site_occupancy
  Hf  Hf0  1  0.750000  0.378753  0.022548  1
  Hf  Hf1  1  0.250000  0.621247  0.977452  1
  Hf  Hf2  1  0.250000  0.943913  0.076849  1
  Hf  Hf3  1  0.750000  0.056087  0.923151  1
  Hf  Hf4  1  0.750000  0.443633  0.422915  1
  Hf  Hf5  1  0.250000  0.556367  0.577085  1
  Hf  Hf6  1  0.250000  0.242034  0.166523  1
  Hf  Hf7  1  0.750000  0.757966  0.833477  1
  Hf  Hf8  1  0.750000  0.741589  0.333076  1
  Hf  Hf9  1  0.250000  0.258411  0.666924  1
  Hf  Hf10  1  0.250000  0.515550  0.276282  1
  Hf  Hf11  1  0.750000  0.484450  0.723718  1
  Hf  Hf12  1  0.750000  0.015692  0.223264  1
  Hf  Hf13  1  0.250000  0.984308  0.776736  1
  Zr  Zr14  1  0.250000  0.184984  0.367028  1
  Zr  Zr15  1  0.750000  0.815016  0.632972  1
  Zr  Zr16  1  0.750000  0.684414  0.131922  1
  Zr  Zr17  1  0.250000  0.315586  0.868078  1
  Zr  Zr18  1  0.250000  0.878855  0.477336  1
  Zr  Zr19  1  0.750000  0.121145  0.522664  1
  Co  Co20  1  0.250000  0.629634  0.407412  1
  Co  Co21  1  0.750000  0.370366  0.592588  1
  Co  Co22  1  0.750000  0.130758  0.091970  1
  Co  Co23  1  0.250000  0.869242  0.908030  1
  As  As24  1  0.250000  0.490147  0.118272  1
  As  As25  1  0.750000  0.509853  0.881728  1
  As  As26  1  0.750000  0.990986  0.380155  1
  As  As27  1  0.250000  0.009014  0.619845  1
  As  As28  1  0.250000  0.816118  0.219359  1
  As  As29  1  0.750000  0.183882  0.780641  1
  As  As30  1  0.750000  0.316482  0.280058  1
  As  As31  1  0.250000  0.683518  0.719942  1
  As  As32  1  0.250000  0.188466  0.008043  1
  As  As33  1  0.750000  0.811534  0.991957  1
  As  As34  1  0.750000  0.687133  0.491860  1
  As  As35  1  0.250000  0.312867  0.508140  1
