# generated using pymatgen
data_Tb3YMg4(B6Ru)4
_symmetry_space_group_name_H-M   'P 1'
_cell_length_a   3.57430400
_cell_length_b   8.91026101
_cell_length_c   11.28957208
_cell_angle_alpha   89.99121441
_cell_angle_beta   90.00000000
_cell_angle_gamma   90.00000000
_symmetry_Int_Tables_number   1
_chemical_formula_structural   Tb3YMg4(B6Ru)4
_chemical_formula_sum   'Tb3 Y1 Mg4 B24 Ru4'
_cell_volume   359.55007908
_cell_formula_units_Z   1
loop_
 _symmetry_equiv_pos_site_id
 _symmetry_equiv_pos_as_xyz
  1  'x, y, z'
loop_
 _atom_site_type_symbol
 _atom_site_label
 _atom_site_symmetry_multiplicity
 _atom_site_fract_x
 _atom_site_fract_y
 _atom_site_fract_z
 _atom_site_occupancy
  Tb  Tb0  1  0.000000  0.323290  0.413886  1
  Tb  Tb1  1  0.000000  0.676666  0.586182  1
  Tb  Tb2  1  0.000000  0.823337  0.086072  1
  Y  Y3  1  0.000000  0.176602  0.913883  1
  Mg  Mg4  1  0.000000  0.943896  0.370887  1
  Mg  Mg5  1  0.000000  0.056124  0.629116  1
  Mg  Mg6  1  0.000000  0.443898  0.129036  1
  Mg  Mg7  1  0.000000  0.556166  0.870964  1
  B  B8  1  0.500000  0.556095  0.431830  1
  B  B9  1  0.500000  0.443823  0.568259  1
  B  B10  1  0.500000  0.056139  0.067993  1
  B  B11  1  0.500000  0.943941  0.931852  1
  B  B12  1  0.500000  0.755366  0.417785  1
  B  B13  1  0.500000  0.244587  0.582296  1
  B  B14  1  0.500000  0.255439  0.081985  1
  B  B15  1  0.500000  0.744644  0.917815  1
  B  B16  1  0.500000  0.793870  0.263421  1
  B  B17  1  0.500000  0.206042  0.736723  1
  B  B18  1  0.500000  0.293864  0.236466  1
  B  B19  1  0.500000  0.706165  0.763463  1
  B  B20  1  0.500000  0.627894  0.182427  1
  B  B21  1  0.500000  0.372041  0.817723  1
  B  B22  1  0.500000  0.127918  0.317471  1
  B  B23  1  0.500000  0.872153  0.682472  1
  B  B24  1  0.500000  0.981772  0.213318  1
  B  B25  1  0.500000  0.018371  0.786670  1
  B  B26  1  0.500000  0.481716  0.286568  1
  B  B27  1  0.500000  0.518230  0.713482  1
  B  B28  1  0.500000  0.592533  0.025306  1
  B  B29  1  0.500000  0.407404  0.974658  1
  B  B30  1  0.500000  0.092490  0.474687  1
  B  B31  1  0.500000  0.907525  0.525317  1
  Ru  Ru32  1  0.000000  0.641455  0.317797  1
  Ru  Ru33  1  0.000000  0.358483  0.682339  1
  Ru  Ru34  1  0.000000  0.141491  0.182047  1
  Ru  Ru35  1  0.000000  0.858571  0.817801  1
