# generated using pymatgen
data_TmTa5Re5Si6W
_symmetry_space_group_name_H-M   'P 1'
_cell_length_a   7.64594614
_cell_length_b   7.60435636
_cell_length_c   7.64054329
_cell_angle_alpha   126.78767022
_cell_angle_beta   125.38598592
_cell_angle_gamma   79.82819595
_symmetry_Int_Tables_number   1
_chemical_formula_structural   TmTa5Re5Si6W
_chemical_formula_sum   'Tm1 Ta5 Re5 Si6 W1'
_cell_volume   280.02578799
_cell_formula_units_Z   1
loop_
 _symmetry_equiv_pos_site_id
 _symmetry_equiv_pos_as_xyz
  1  'x, y, z'
loop_
 _atom_site_type_symbol
 _atom_site_label
 _atom_site_symmetry_multiplicity
 _atom_site_fract_x
 _atom_site_fract_y
 _atom_site_fract_z
 _atom_site_occupancy
  Tm  Tm0  1  0.536628  0.066255  0.029533  1
  Ta  Ta1  1  0.461488  0.492294  0.532307  1
  Ta  Ta2  1  0.943835  0.484936  0.040085  1
  Ta  Ta3  1  0.056219  0.103025  0.547429  1
  Ta  Ta4  1  0.744420  0.906826  0.660261  1
  Ta  Ta5  1  0.254415  0.910830  0.158933  1
  Re  Re6  1  0.008188  0.245801  0.252006  1
  Re  Re7  1  0.087890  0.749213  0.586066  1
  Re  Re8  1  0.900679  0.498423  0.651886  1
  Re  Re9  1  0.664206  0.750978  0.163569  1
  Re  Re10  1  0.345897  0.498484  0.097106  1
  Si  Si11  1  0.733120  0.483683  0.252347  1
  Si  Si12  1  0.274569  0.539929  0.763047  1
  Si  Si13  1  0.320508  0.820648  0.478762  1
  Si  Si14  1  0.676022  0.161007  0.504470  1
  Si  Si15  1  0.842427  0.822112  0.000934  1
  Si  Si16  1  0.156370  0.161109  0.986815  1
  W  W17  1  0.493120  0.246644  0.736642  1
