# generated using pymatgen
data_Ho2Er3Lu11(Ga3Co)2
_symmetry_space_group_name_H-M   'P 1'
_cell_length_a   9.80619400
_cell_length_b   9.80619340
_cell_length_c   6.83789300
_cell_angle_alpha   90.00000000
_cell_angle_beta   90.00000000
_cell_angle_gamma   119.99999529
_symmetry_Int_Tables_number   1
_chemical_formula_structural   Ho2Er3Lu11(Ga3Co)2
_chemical_formula_sum   'Ho2 Er3 Lu11 Ga6 Co2'
_cell_volume   569.44775867
_cell_formula_units_Z   1
loop_
 _symmetry_equiv_pos_site_id
 _symmetry_equiv_pos_as_xyz
  1  'x, y, z'
loop_
 _atom_site_type_symbol
 _atom_site_label
 _atom_site_symmetry_multiplicity
 _atom_site_fract_x
 _atom_site_fract_y
 _atom_site_fract_z
 _atom_site_occupancy
  Ho  Ho0  1  0.000000  0.000000  0.230566  1
  Ho  Ho1  1  0.000000  0.000000  0.730723  1
  Er  Er2  1  0.535126  0.464874  0.707983  1
  Er  Er3  1  0.929748  0.464874  0.707983  1
  Er  Er4  1  0.535126  0.070252  0.707983  1
  Lu  Lu5  1  0.174334  0.825666  0.509274  1
  Lu  Lu6  1  0.651330  0.825666  0.509274  1
  Lu  Lu7  1  0.174334  0.348670  0.509274  1
  Lu  Lu8  1  0.825839  0.174161  0.012889  1
  Lu  Lu9  1  0.348322  0.174161  0.012889  1
  Lu  Lu10  1  0.825839  0.651678  0.012889  1
  Lu  Lu11  1  0.333333  0.666667  0.828277  1
  Lu  Lu12  1  0.666667  0.333333  0.327015  1
  Lu  Lu13  1  0.463483  0.536517  0.207336  1
  Lu  Lu14  1  0.073031  0.536517  0.207336  1
  Lu  Lu15  1  0.463483  0.926969  0.207336  1
  Ga  Ga16  1  0.163916  0.836084  0.960237  1
  Ga  Ga17  1  0.672168  0.836084  0.960237  1
  Ga  Ga18  1  0.163916  0.327832  0.960237  1
  Ga  Ga19  1  0.836361  0.163639  0.458774  1
  Ga  Ga20  1  0.327279  0.163639  0.458774  1
  Ga  Ga21  1  0.836361  0.672721  0.458774  1
  Co  Co22  1  0.333333  0.666667  0.443064  1
  Co  Co23  1  0.666667  0.333333  0.944920  1
