# generated using pymatgen
data_Tb5Y3Hf11Si16Os
_symmetry_space_group_name_H-M   'P 1'
_cell_length_a   7.25296377
_cell_length_b   7.25296354
_cell_length_c   13.26754400
_cell_angle_alpha   89.86966378
_cell_angle_beta   90.13033622
_cell_angle_gamma   90.02672861
_symmetry_Int_Tables_number   1
_chemical_formula_structural   Tb5Y3Hf11Si16Os
_chemical_formula_sum   'Tb5 Y3 Hf11 Si16 Os1'
_cell_volume   697.94185764
_cell_formula_units_Z   1
loop_
 _symmetry_equiv_pos_site_id
 _symmetry_equiv_pos_as_xyz
  1  'x, y, z'
loop_
 _atom_site_type_symbol
 _atom_site_label
 _atom_site_symmetry_multiplicity
 _atom_site_fract_x
 _atom_site_fract_y
 _atom_site_fract_z
 _atom_site_occupancy
  Tb  Tb0  1  0.501856  0.846512  0.032666  1
  Tb  Tb1  1  0.846512  0.501856  0.967334  1
  Tb  Tb2  1  0.494715  0.156010  0.534706  1
  Tb  Tb3  1  0.343363  0.998935  0.788195  1
  Tb  Tb4  1  0.654906  0.005019  0.282597  1
  Y  Y5  1  0.998935  0.343363  0.211805  1
  Y  Y6  1  0.005019  0.654906  0.717403  1
  Y  Y7  1  0.156010  0.494715  0.465294  1
  Hf  Hf8  1  0.824880  0.824880  0.500000  1
  Hf  Hf9  1  0.324445  0.674665  0.247943  1
  Hf  Hf10  1  0.674665  0.324445  0.752057  1
  Hf  Hf11  1  0.147183  0.997600  0.372018  1
  Hf  Hf12  1  0.852605  0.004450  0.878470  1
  Hf  Hf13  1  0.503139  0.647335  0.625398  1
  Hf  Hf14  1  0.351238  0.496495  0.877341  1
  Hf  Hf15  1  0.496495  0.351238  0.122659  1
  Hf  Hf16  1  0.647335  0.503139  0.374602  1
  Hf  Hf17  1  0.997600  0.147183  0.627982  1
  Hf  Hf18  1  0.004450  0.852605  0.121530  1
  Si  Si19  1  0.360639  0.295089  0.315308  1
  Si  Si20  1  0.638675  0.705017  0.818234  1
  Si  Si21  1  0.205811  0.861846  0.566972  1
  Si  Si22  1  0.136503  0.794736  0.931375  1
  Si  Si23  1  0.794736  0.136503  0.068625  1
  Si  Si24  1  0.861846  0.205811  0.433028  1
  Si  Si25  1  0.295089  0.360639  0.684692  1
  Si  Si26  1  0.705017  0.638675  0.181766  1
  Si  Si27  1  0.292682  0.054142  0.180139  1
  Si  Si28  1  0.704013  0.950839  0.686117  1
  Si  Si29  1  0.449480  0.796163  0.434755  1
  Si  Si30  1  0.206471  0.547534  0.064477  1
  Si  Si31  1  0.547534  0.206471  0.935523  1
  Si  Si32  1  0.796163  0.449480  0.565245  1
  Si  Si33  1  0.054142  0.292682  0.819861  1
  Si  Si34  1  0.950839  0.704013  0.313883  1
  Os  Os35  1  0.175013  0.175013  0.000000  1
