# generated using pymatgen
data_Zr10Al2(SnSb)3
_symmetry_space_group_name_H-M   'P 1'
_cell_length_a   8.71790500
_cell_length_b   8.71790458
_cell_length_c   5.90456800
_cell_angle_alpha   90.00000000
_cell_angle_beta   90.00000000
_cell_angle_gamma   119.99999780
_symmetry_Int_Tables_number   1
_chemical_formula_structural   Zr10Al2(SnSb)3
_chemical_formula_sum   'Zr10 Al2 Sn3 Sb3'
_cell_volume   388.63598711
_cell_formula_units_Z   1
loop_
 _symmetry_equiv_pos_site_id
 _symmetry_equiv_pos_as_xyz
  1  'x, y, z'
loop_
 _atom_site_type_symbol
 _atom_site_label
 _atom_site_symmetry_multiplicity
 _atom_site_fract_x
 _atom_site_fract_y
 _atom_site_fract_z
 _atom_site_occupancy
  Zr  Zr0  1  0.725955  0.725955  0.750000  1
  Zr  Zr1  1  0.274045  0.000000  0.750000  1
  Zr  Zr2  1  0.000000  0.274045  0.750000  1
  Zr  Zr3  1  0.267138  0.267138  0.250000  1
  Zr  Zr4  1  0.732862  0.000000  0.250000  1
  Zr  Zr5  1  0.000000  0.732862  0.250000  1
  Zr  Zr6  1  0.666667  0.333333  0.998019  1
  Zr  Zr7  1  0.333333  0.666667  0.998019  1
  Zr  Zr8  1  0.333333  0.666667  0.501981  1
  Zr  Zr9  1  0.666667  0.333333  0.501981  1
  Al  Al10  1  0.000000  0.000000  0.991885  1
  Al  Al11  1  0.000000  0.000000  0.508115  1
  Sn  Sn12  1  0.383602  0.383602  0.750000  1
  Sn  Sn13  1  0.616398  0.000000  0.750000  1
  Sn  Sn14  1  0.000000  0.616398  0.750000  1
  Sb  Sb15  1  0.610379  0.610379  0.250000  1
  Sb  Sb16  1  0.389621  0.000000  0.250000  1
  Sb  Sb17  1  0.000000  0.389621  0.250000  1
