# generated using pymatgen
data_SmSn6PdRu3
_symmetry_space_group_name_H-M   'P 1'
_cell_length_a   6.95787189
_cell_length_b   6.95787204
_cell_length_c   7.00501247
_cell_angle_alpha   119.90963495
_cell_angle_beta   119.90963856
_cell_angle_gamma   89.78437202
_symmetry_Int_Tables_number   1
_chemical_formula_structural   SmSn6PdRu3
_chemical_formula_sum   'Sm1 Sn6 Pd1 Ru3'
_cell_volume   240.89599211
_cell_formula_units_Z   1
loop_
 _symmetry_equiv_pos_site_id
 _symmetry_equiv_pos_as_xyz
  1  'x, y, z'
loop_
 _atom_site_type_symbol
 _atom_site_label
 _atom_site_symmetry_multiplicity
 _atom_site_fract_x
 _atom_site_fract_y
 _atom_site_fract_z
 _atom_site_occupancy
  Sm  Sm0  1  0.989282  0.989282  0.981884  1
  Sn  Sn1  1  0.990069  0.496485  0.501126  1
  Sn  Sn2  1  0.466758  0.466758  0.336718  1
  Sn  Sn3  1  0.536684  0.889038  0.015163  1
  Sn  Sn4  1  0.889038  0.536684  0.015163  1
  Sn  Sn5  1  0.123942  0.123942  0.661108  1
  Sn  Sn6  1  0.496485  0.990069  0.501126  1
  Pd  Pd7  1  0.399972  0.399972  0.636283  1
  Ru  Ru8  1  0.759478  0.759478  0.359323  1
  Ru  Ru9  1  0.250120  0.598172  0.996052  1
  Ru  Ru10  1  0.598172  0.250120  0.996052  1
