# generated using pymatgen
data_Yb3Pu(SbPd)4
_symmetry_space_group_name_H-M   'P 1'
_cell_length_a   4.67035000
_cell_length_b   7.34873099
_cell_length_c   7.94714047
_cell_angle_alpha   89.60415697
_cell_angle_beta   90.00000000
_cell_angle_gamma   90.00000000
_symmetry_Int_Tables_number   1
_chemical_formula_structural   Yb3Pu(SbPd)4
_chemical_formula_sum   'Yb3 Pu1 Sb4 Pd4'
_cell_volume   272.74845703
_cell_formula_units_Z   1
loop_
 _symmetry_equiv_pos_site_id
 _symmetry_equiv_pos_as_xyz
  1  'x, y, z'
loop_
 _atom_site_type_symbol
 _atom_site_label
 _atom_site_symmetry_multiplicity
 _atom_site_fract_x
 _atom_site_fract_y
 _atom_site_fract_z
 _atom_site_occupancy
  Yb  Yb0  1  0.750000  0.507208  0.795183  1
  Yb  Yb1  1  0.250000  0.992457  0.293249  1
  Yb  Yb2  1  0.750000  0.006200  0.706137  1
  Pu  Pu3  1  0.250000  0.494564  0.206471  1
  Sb  Sb4  1  0.250000  0.300702  0.591080  1
  Sb  Sb5  1  0.750000  0.205215  0.092840  1
  Sb  Sb6  1  0.250000  0.794671  0.908529  1
  Sb  Sb7  1  0.750000  0.696155  0.405724  1
  Pd  Pd8  1  0.750000  0.303001  0.422041  1
  Pd  Pd9  1  0.250000  0.191753  0.919155  1
  Pd  Pd10  1  0.750000  0.815798  0.079489  1
  Pd  Pd11  1  0.250000  0.692275  0.580104  1
