# generated using pymatgen
data_Ho3ErGa4Pd3Ru
_symmetry_space_group_name_H-M   'P 1'
_cell_length_a   4.41593000
_cell_length_b   6.87234468
_cell_length_c   7.69953704
_cell_angle_alpha   89.58657300
_cell_angle_beta   90.00000000
_cell_angle_gamma   90.00000000
_symmetry_Int_Tables_number   1
_chemical_formula_structural   Ho3ErGa4Pd3Ru
_chemical_formula_sum   'Ho3 Er1 Ga4 Pd3 Ru1'
_cell_volume   233.65787347
_cell_formula_units_Z   1
loop_
 _symmetry_equiv_pos_site_id
 _symmetry_equiv_pos_as_xyz
  1  'x, y, z'
loop_
 _atom_site_type_symbol
 _atom_site_label
 _atom_site_symmetry_multiplicity
 _atom_site_fract_x
 _atom_site_fract_y
 _atom_site_fract_z
 _atom_site_occupancy
  Ho  Ho0  1  0.250000  0.487019  0.193288  1
  Ho  Ho1  1  0.750000  0.525218  0.812206  1
  Ho  Ho2  1  0.750000  0.022088  0.691459  1
  Er  Er3  1  0.250000  0.977713  0.301217  1
  Ga  Ga4  1  0.250000  0.829407  0.929918  1
  Ga  Ga5  1  0.750000  0.159377  0.072224  1
  Ga  Ga6  1  0.250000  0.332730  0.571335  1
  Ga  Ga7  1  0.750000  0.671183  0.426588  1
  Pd  Pd8  1  0.250000  0.222763  0.897160  1
  Pd  Pd9  1  0.750000  0.279144  0.395236  1
  Pd  Pd10  1  0.250000  0.723783  0.605071  1
  Ru  Ru11  1  0.750000  0.769577  0.104299  1
