# generated using pymatgen
data_Zr4Al3Re3Tc2
_symmetry_space_group_name_H-M   'P 1'
_cell_length_a   5.26718001
_cell_length_b   5.26717939
_cell_length_c   8.70992800
_cell_angle_alpha   90.00000000
_cell_angle_beta   90.00000000
_cell_angle_gamma   120.24176713
_symmetry_Int_Tables_number   1
_chemical_formula_structural   Zr4Al3Re3Tc2
_chemical_formula_sum   'Zr4 Al3 Re3 Tc2'
_cell_volume   208.75566678
_cell_formula_units_Z   1
loop_
 _symmetry_equiv_pos_site_id
 _symmetry_equiv_pos_as_xyz
  1  'x, y, z'
loop_
 _atom_site_type_symbol
 _atom_site_label
 _atom_site_symmetry_multiplicity
 _atom_site_fract_x
 _atom_site_fract_y
 _atom_site_fract_z
 _atom_site_occupancy
  Zr  Zr0  1  0.336352  0.663648  0.432682  1
  Zr  Zr1  1  0.667649  0.332351  0.938397  1
  Zr  Zr2  1  0.667649  0.332351  0.561603  1
  Zr  Zr3  1  0.336352  0.663648  0.067318  1
  Al  Al4  1  0.997368  0.002632  0.996592  1
  Al  Al5  1  0.997368  0.002632  0.503408  1
  Al  Al6  1  0.170052  0.829948  0.750000  1
  Re  Re7  1  0.827665  0.172335  0.250000  1
  Re  Re8  1  0.335559  0.169035  0.250000  1
  Re  Re9  1  0.830965  0.664441  0.250000  1
  Tc  Tc10  1  0.173700  0.340682  0.750000  1
  Tc  Tc11  1  0.659318  0.826300  0.750000  1
