# generated using pymatgen
data_Gd6Sn7Ir5
_symmetry_space_group_name_H-M   'P 1'
_cell_length_a   7.79007700
_cell_length_b   7.79007711
_cell_length_c   7.38891900
_cell_angle_alpha   90.00000000
_cell_angle_beta   90.00000000
_cell_angle_gamma   119.99999527
_symmetry_Int_Tables_number   1
_chemical_formula_structural   Gd6Sn7Ir5
_chemical_formula_sum   'Gd6 Sn7 Ir5'
_cell_volume   388.32474462
_cell_formula_units_Z   1
loop_
 _symmetry_equiv_pos_site_id
 _symmetry_equiv_pos_as_xyz
  1  'x, y, z'
loop_
 _atom_site_type_symbol
 _atom_site_label
 _atom_site_symmetry_multiplicity
 _atom_site_fract_x
 _atom_site_fract_y
 _atom_site_fract_z
 _atom_site_occupancy
  Gd  Gd0  1  0.401268  0.999993  0.240769  1
  Gd  Gd1  1  0.598726  0.598732  0.240769  1
  Gd  Gd2  1  0.000007  0.401274  0.240769  1
  Gd  Gd3  1  0.380545  0.966625  0.761533  1
  Gd  Gd4  1  0.586080  0.619455  0.761533  1
  Gd  Gd5  1  0.033375  0.413920  0.761533  1
  Sn  Sn6  1  0.277530  0.265100  0.997879  1
  Sn  Sn7  1  0.987569  0.722470  0.997879  1
  Sn  Sn8  1  0.013024  0.757081  0.495313  1
  Sn  Sn9  1  0.744056  0.986976  0.495313  1
  Sn  Sn10  1  0.242919  0.255944  0.495313  1
  Sn  Sn11  1  0.734900  0.012431  0.997879  1
  Sn  Sn12  1  0.666667  0.333333  0.543174  1
  Ir  Ir13  1  0.000000  0.000000  0.759683  1
  Ir  Ir14  1  0.000000  0.000000  0.232759  1
  Ir  Ir15  1  0.666667  0.333333  0.974723  1
  Ir  Ir16  1  0.333333  0.666667  0.486829  1
  Ir  Ir17  1  0.333333  0.666667  0.016345  1
