# generated using pymatgen
data_YTm5(AuO7)2
_symmetry_space_group_name_H-M   'P 1'
_cell_length_a   6.41683276
_cell_length_b   6.41683351
_cell_length_c   7.36107902
_cell_angle_alpha   90.00770997
_cell_angle_beta   89.99229165
_cell_angle_gamma   108.64487861
_symmetry_Int_Tables_number   1
_chemical_formula_structural   YTm5(AuO7)2
_chemical_formula_sum   'Y1 Tm5 Au2 O14'
_cell_volume   287.19082815
_cell_formula_units_Z   1
loop_
 _symmetry_equiv_pos_site_id
 _symmetry_equiv_pos_as_xyz
  1  'x, y, z'
loop_
 _atom_site_type_symbol
 _atom_site_label
 _atom_site_symmetry_multiplicity
 _atom_site_fract_x
 _atom_site_fract_y
 _atom_site_fract_z
 _atom_site_occupancy
  Y  Y0  1  0.500000  0.500000  0.000000  1
  Tm  Tm1  1  0.500000  0.500000  0.500000  1
  Tm  Tm2  1  0.528820  0.998049  0.748815  1
  Tm  Tm3  1  0.998049  0.528820  0.251185  1
  Tm  Tm4  1  0.471180  0.001951  0.251185  1
  Tm  Tm5  1  0.001951  0.471180  0.748815  1
  Au  Au6  1  0.000000  0.000000  0.500000  1
  Au  Au7  1  0.000000  0.000000  0.000000  1
  O  O8  1  0.666800  0.916512  0.475473  1
  O  O9  1  0.916512  0.666800  0.524527  1
  O  O10  1  0.666991  0.919597  0.024545  1
  O  O11  1  0.919597  0.666991  0.975455  1
  O  O12  1  0.333200  0.083488  0.524527  1
  O  O13  1  0.083488  0.333200  0.475473  1
  O  O14  1  0.333009  0.080403  0.975455  1
  O  O15  1  0.080403  0.333009  0.024545  1
  O  O16  1  0.917555  0.082445  0.749906  1
  O  O17  1  0.082445  0.917555  0.250094  1
  O  O18  1  0.366119  0.633881  0.746121  1
  O  O19  1  0.633881  0.366119  0.253879  1
  O  O20  1  0.640378  0.359622  0.746255  1
  O  O21  1  0.359622  0.640378  0.253745  1
