# generated using pymatgen
data_Tb16Al4Ru3Pt
_symmetry_space_group_name_H-M   'P 1'
_cell_length_a   9.59221772
_cell_length_b   9.59221794
_cell_length_c   9.59221837
_cell_angle_alpha   59.89893654
_cell_angle_beta   59.89893765
_cell_angle_gamma   59.89893421
_symmetry_Int_Tables_number   1
_chemical_formula_structural   Tb16Al4Ru3Pt
_chemical_formula_sum   'Tb16 Al4 Ru3 Pt1'
_cell_volume   622.65176131
_cell_formula_units_Z   1
loop_
 _symmetry_equiv_pos_site_id
 _symmetry_equiv_pos_as_xyz
  1  'x, y, z'
loop_
 _atom_site_type_symbol
 _atom_site_label
 _atom_site_symmetry_multiplicity
 _atom_site_fract_x
 _atom_site_fract_y
 _atom_site_fract_z
 _atom_site_occupancy
  Tb  Tb0  1  0.104874  0.693033  0.104874  1
  Tb  Tb1  1  0.944766  0.944766  0.550234  1
  Tb  Tb2  1  0.944766  0.550234  0.944766  1
  Tb  Tb3  1  0.311228  0.689254  0.311228  1
  Tb  Tb4  1  0.941920  0.555228  0.555228  1
  Tb  Tb5  1  0.311228  0.311228  0.689254  1
  Tb  Tb6  1  0.100236  0.100236  0.100236  1
  Tb  Tb7  1  0.555228  0.555228  0.941920  1
  Tb  Tb8  1  0.104874  0.104874  0.693033  1
  Tb  Tb9  1  0.689098  0.313120  0.689098  1
  Tb  Tb10  1  0.689098  0.689098  0.313120  1
  Tb  Tb11  1  0.689254  0.311228  0.311228  1
  Tb  Tb12  1  0.313120  0.689098  0.689098  1
  Tb  Tb13  1  0.555228  0.941920  0.555228  1
  Tb  Tb14  1  0.693033  0.104874  0.104874  1
  Tb  Tb15  1  0.550234  0.944766  0.944766  1
  Al  Al16  1  0.326762  0.326762  0.326762  1
  Al  Al17  1  0.019696  0.326325  0.326325  1
  Al  Al18  1  0.326325  0.019696  0.326325  1
  Al  Al19  1  0.326325  0.326325  0.019696  1
  Ru  Ru20  1  0.890501  0.890501  0.329349  1
  Ru  Ru21  1  0.329349  0.890501  0.890501  1
  Ru  Ru22  1  0.890501  0.329349  0.890501  1
  Pt  Pt23  1  0.892354  0.892354  0.892354  1
