# generated using pymatgen
data_Tb9Y7Cd4(CoNi)2
_symmetry_space_group_name_H-M   'P 1'
_cell_length_a   9.57199731
_cell_length_b   9.57199741
_cell_length_c   9.58352800
_cell_angle_alpha   59.96014360
_cell_angle_beta   59.96014323
_cell_angle_gamma   60.00741204
_symmetry_Int_Tables_number   1
_chemical_formula_structural   Tb9Y7Cd4(CoNi)2
_chemical_formula_sum   'Tb9 Y7 Cd4 Co2 Ni2'
_cell_volume   620.55167923
_cell_formula_units_Z   1
loop_
 _symmetry_equiv_pos_site_id
 _symmetry_equiv_pos_as_xyz
  1  'x, y, z'
loop_
 _atom_site_type_symbol
 _atom_site_label
 _atom_site_symmetry_multiplicity
 _atom_site_fract_x
 _atom_site_fract_y
 _atom_site_fract_z
 _atom_site_occupancy
  Tb  Tb0  1  0.596655  0.596655  0.599468  1
  Tb  Tb1  1  0.596655  0.596655  0.207222  1
  Tb  Tb2  1  0.595919  0.208560  0.597761  1
  Tb  Tb3  1  0.208560  0.595919  0.597761  1
  Tb  Tb4  1  0.064543  0.437766  0.439625  1
  Tb  Tb5  1  0.437766  0.064543  0.058066  1
  Tb  Tb6  1  0.437766  0.064543  0.439625  1
  Tb  Tb7  1  0.064543  0.437766  0.058066  1
  Tb  Tb8  1  0.438814  0.438814  0.061186  1
  Y  Y9  1  0.060771  0.060771  0.439229  1
  Y  Y10  1  0.187158  0.811257  0.814610  1
  Y  Y11  1  0.811257  0.187158  0.186975  1
  Y  Y12  1  0.811257  0.187158  0.814610  1
  Y  Y13  1  0.187158  0.811257  0.186975  1
  Y  Y14  1  0.812848  0.812848  0.187152  1
  Y  Y15  1  0.187555  0.187555  0.812445  1
  Cd  Cd16  1  0.830088  0.830088  0.830792  1
  Cd  Cd17  1  0.830088  0.830088  0.509029  1
  Cd  Cd18  1  0.831048  0.505943  0.831504  1
  Cd  Cd19  1  0.505943  0.831048  0.831504  1
  Co  Co20  1  0.392710  0.392710  0.390766  1
  Co  Co21  1  0.392710  0.392710  0.823817  1
  Ni  Ni22  1  0.393566  0.824624  0.390906  1
  Ni  Ni23  1  0.824624  0.393566  0.390906  1
