# generated using pymatgen
data_InBi3Ir3RuO14
_symmetry_space_group_name_H-M   'P 1'
_cell_length_a   7.28084814
_cell_length_b   7.28084847
_cell_length_c   7.28084773
_cell_angle_alpha   60.51792118
_cell_angle_beta   60.51792367
_cell_angle_gamma   60.51792234
_symmetry_Int_Tables_number   1
_chemical_formula_structural   InBi3Ir3RuO14
_chemical_formula_sum   'In1 Bi3 Ir3 Ru1 O14'
_cell_volume   276.11132472
_cell_formula_units_Z   1
loop_
 _symmetry_equiv_pos_site_id
 _symmetry_equiv_pos_as_xyz
  1  'x, y, z'
loop_
 _atom_site_type_symbol
 _atom_site_label
 _atom_site_symmetry_multiplicity
 _atom_site_fract_x
 _atom_site_fract_y
 _atom_site_fract_z
 _atom_site_occupancy
  In  In0  1  0.125000  0.125000  0.125000  1
  Bi  Bi1  1  0.625000  0.125000  0.125000  1
  Bi  Bi2  1  0.125000  0.625000  0.125000  1
  Bi  Bi3  1  0.125000  0.125000  0.625000  1
  Ir  Ir4  1  0.125000  0.625000  0.625000  1
  Ir  Ir5  1  0.625000  0.125000  0.625000  1
  Ir  Ir6  1  0.625000  0.625000  0.125000  1
  Ru  Ru7  1  0.625000  0.625000  0.625000  1
  O  O8  1  0.705732  0.705732  0.293994  1
  O  O9  1  0.290784  0.290784  0.715783  1
  O  O10  1  0.705732  0.293994  0.705732  1
  O  O11  1  0.290784  0.715783  0.290784  1
  O  O12  1  0.293994  0.705732  0.705732  1
  O  O13  1  0.715783  0.290784  0.290784  1
  O  O14  1  0.544268  0.544268  0.956006  1
  O  O15  1  0.959216  0.959216  0.534217  1
  O  O16  1  0.544268  0.956006  0.544268  1
  O  O17  1  0.959216  0.534217  0.959216  1
  O  O18  1  0.956006  0.544268  0.544268  1
  O  O19  1  0.534217  0.959216  0.959216  1
  O  O20  1  0.244122  0.244122  0.244122  1
  O  O21  1  0.005878  0.005878  0.005878  1
