# generated using pymatgen
data_Tb5CeIr17Rh
_symmetry_space_group_name_H-M   'P 1'
_cell_length_a   5.32485400
_cell_length_b   5.32476320
_cell_length_c   17.53319600
_cell_angle_alpha   90.00000000
_cell_angle_beta   90.00000000
_cell_angle_gamma   119.99890666
_symmetry_Int_Tables_number   1
_chemical_formula_structural   Tb5CeIr17Rh
_chemical_formula_sum   'Tb5 Ce1 Ir17 Rh1'
_cell_volume   430.53107881
_cell_formula_units_Z   1
loop_
 _symmetry_equiv_pos_site_id
 _symmetry_equiv_pos_as_xyz
  1  'x, y, z'
loop_
 _atom_site_type_symbol
 _atom_site_label
 _atom_site_symmetry_multiplicity
 _atom_site_fract_x
 _atom_site_fract_y
 _atom_site_fract_z
 _atom_site_occupancy
  Tb  Tb0  1  0.333389  0.666665  0.959341  1
  Tb  Tb1  1  0.666721  0.333359  0.041187  1
  Tb  Tb2  1  0.666721  0.333359  0.458813  1
  Tb  Tb3  1  0.333389  0.666665  0.540659  1
  Tb  Tb4  1  0.666535  0.333246  0.250000  1
  Ce  Ce5  1  0.332937  0.666618  0.750000  1
  Ir  Ir6  1  0.167611  0.832462  0.373656  1
  Ir  Ir7  1  0.167606  0.335174  0.373663  1
  Ir  Ir8  1  0.664865  0.832453  0.373642  1
  Ir  Ir9  1  0.833116  0.166897  0.626058  1
  Ir  Ir10  1  0.833085  0.666137  0.626082  1
  Ir  Ir11  1  0.333879  0.166928  0.626070  1
  Ir  Ir12  1  0.833116  0.166897  0.873942  1
  Ir  Ir13  1  0.833085  0.666137  0.873918  1
  Ir  Ir14  1  0.333879  0.166928  0.873930  1
  Ir  Ir15  1  0.167611  0.832462  0.126344  1
  Ir  Ir16  1  0.167606  0.335174  0.126337  1
  Ir  Ir17  1  0.664865  0.832453  0.126358  1
  Ir  Ir18  1  0.666673  0.333276  0.750000  1
  Ir  Ir19  1  0.000034  0.000050  0.250000  1
  Ir  Ir20  1  0.999994  0.000064  0.750000  1
  Ir  Ir21  1  0.000038  0.000001  0.499738  1
  Ir  Ir22  1  0.000038  0.000001  0.000262  1
  Rh  Rh23  1  0.333205  0.666591  0.250000  1
