# generated using pymatgen
data_Ca7ErBi6
_symmetry_space_group_name_H-M   'P 1'
_cell_length_a   8.31878037
_cell_length_b   8.39865693
_cell_length_c   8.39865836
_cell_angle_alpha   109.66307628
_cell_angle_beta   109.27867283
_cell_angle_gamma   109.27867237
_symmetry_Int_Tables_number   1
_chemical_formula_structural   Ca7ErBi6
_chemical_formula_sum   'Ca7 Er1 Bi6'
_cell_volume   452.77667677
_cell_formula_units_Z   1
loop_
 _symmetry_equiv_pos_site_id
 _symmetry_equiv_pos_as_xyz
  1  'x, y, z'
loop_
 _atom_site_type_symbol
 _atom_site_label
 _atom_site_symmetry_multiplicity
 _atom_site_fract_x
 _atom_site_fract_y
 _atom_site_fract_z
 _atom_site_occupancy
  Ca  Ca0  1  0.501871  0.005256  0.361483  1
  Ca  Ca1  1  0.502577  0.001102  0.852362  1
  Ca  Ca2  1  0.650215  0.647638  0.648740  1
  Ca  Ca3  1  0.996615  0.356228  0.494744  1
  Ca  Ca4  1  0.140387  0.138517  0.143772  1
  Ca  Ca5  1  0.852485  0.500000  0.000000  1
  Ca  Ca6  1  0.001475  0.851260  0.498898  1
  Er  Er7  1  0.353066  0.500000  0.000000  1
  Bi  Bi8  1  0.131863  0.744477  0.877616  1
  Bi  Bi9  1  0.887385  0.133139  0.755523  1
  Bi  Bi10  1  0.614969  0.374173  0.242921  1
  Bi  Bi11  1  0.372049  0.257079  0.631252  1
  Bi  Bi12  1  0.740796  0.868748  0.125827  1
  Bi  Bi13  1  0.254247  0.622384  0.366861  1
