# generated using pymatgen
data_SrCe11(Si3Ir)4
_symmetry_space_group_name_H-M   'P 1'
_cell_length_a   4.35306300
_cell_length_b   10.52458016
_cell_length_c   12.84304123
_cell_angle_alpha   89.89733306
_cell_angle_beta   90.00000000
_cell_angle_gamma   90.00000000
_symmetry_Int_Tables_number   1
_chemical_formula_structural   SrCe11(Si3Ir)4
_chemical_formula_sum   'Sr1 Ce11 Si12 Ir4'
_cell_volume   588.39220757
_cell_formula_units_Z   1
loop_
 _symmetry_equiv_pos_site_id
 _symmetry_equiv_pos_as_xyz
  1  'x, y, z'
loop_
 _atom_site_type_symbol
 _atom_site_label
 _atom_site_symmetry_multiplicity
 _atom_site_fract_x
 _atom_site_fract_y
 _atom_site_fract_z
 _atom_site_occupancy
  Sr  Sr0  1  0.250000  0.895598  0.026621  1
  Ce  Ce1  1  0.250000  0.597090  0.527297  1
  Ce  Ce2  1  0.750000  0.104823  0.970386  1
  Ce  Ce3  1  0.750000  0.402217  0.472729  1
  Ce  Ce4  1  0.250000  0.914203  0.594724  1
  Ce  Ce5  1  0.250000  0.581368  0.095160  1
  Ce  Ce6  1  0.750000  0.087261  0.406255  1
  Ce  Ce7  1  0.750000  0.415147  0.904670  1
  Ce  Ce8  1  0.250000  0.664404  0.804322  1
  Ce  Ce9  1  0.250000  0.838105  0.305178  1
  Ce  Ce10  1  0.750000  0.336223  0.194404  1
  Ce  Ce11  1  0.750000  0.165715  0.694119  1
  Si  Si12  1  0.250000  0.999517  0.808834  1
  Si  Si13  1  0.250000  0.502565  0.312109  1
  Si  Si14  1  0.750000  0.008168  0.189960  1
  Si  Si15  1  0.750000  0.496849  0.688304  1
  Si  Si16  1  0.250000  0.235881  0.842564  1
  Si  Si17  1  0.250000  0.266194  0.344886  1
  Si  Si18  1  0.750000  0.758028  0.159280  1
  Si  Si19  1  0.750000  0.735322  0.656227  1
  Si  Si20  1  0.250000  0.218097  0.540968  1
  Si  Si21  1  0.250000  0.282480  0.041120  1
  Si  Si22  1  0.750000  0.782495  0.459197  1
  Si  Si23  1  0.750000  0.707529  0.956824  1
  Ir  Ir24  1  0.250000  0.382531  0.687872  1
  Ir  Ir25  1  0.250000  0.123716  0.191781  1
  Ir  Ir26  1  0.750000  0.615789  0.314440  1
  Ir  Ir27  1  0.750000  0.882687  0.809770  1
