# generated using pymatgen
data_Ho5Er2Co6Sn22Au
_symmetry_space_group_name_H-M   'P 1'
_cell_length_a   9.64323601
_cell_length_b   9.64345318
_cell_length_c   9.93485201
_cell_angle_alpha   90.00015255
_cell_angle_beta   90.00513311
_cell_angle_gamma   120.00088446
_symmetry_Int_Tables_number   1
_chemical_formula_structural   Ho5Er2Co6Sn22Au
_chemical_formula_sum   'Ho5 Er2 Co6 Sn22 Au1'
_cell_volume   800.09864176
_cell_formula_units_Z   1
loop_
 _symmetry_equiv_pos_site_id
 _symmetry_equiv_pos_as_xyz
  1  'x, y, z'
loop_
 _atom_site_type_symbol
 _atom_site_label
 _atom_site_symmetry_multiplicity
 _atom_site_fract_x
 _atom_site_fract_y
 _atom_site_fract_z
 _atom_site_occupancy
  Ho  Ho0  1  0.000006  0.000005  0.999986  1
  Ho  Ho1  1  0.958035  0.479010  0.693243  1
  Ho  Ho2  1  0.041963  0.520981  0.306755  1
  Ho  Ho3  1  0.479025  0.958039  0.306805  1
  Ho  Ho4  1  0.479026  0.520990  0.306807  1
  Er  Er5  1  0.520922  0.479091  0.693201  1
  Er  Er6  1  0.520914  0.041817  0.693216  1
  Co  Co7  1  0.168008  0.832158  0.803096  1
  Co  Co8  1  0.168006  0.335847  0.803098  1
  Co  Co9  1  0.664099  0.832050  0.803063  1
  Co  Co10  1  0.335814  0.167907  0.196870  1
  Co  Co11  1  0.832093  0.664179  0.196856  1
  Co  Co12  1  0.832093  0.167913  0.196857  1
  Sn  Sn13  1  0.666674  0.333324  0.182417  1
  Sn  Sn14  1  0.666387  0.333187  0.880017  1
  Sn  Sn15  1  0.333335  0.666666  0.119667  1
  Sn  Sn16  1  0.346150  0.346165  0.999917  1
  Sn  Sn17  1  0.000012  0.653857  0.000006  1
  Sn  Sn18  1  0.653832  0.999969  0.999948  1
  Sn  Sn19  1  0.653810  0.653856  0.999937  1
  Sn  Sn20  1  0.333406  0.666682  0.817544  1
  Sn  Sn21  1  0.434143  0.217074  0.453435  1
  Sn  Sn22  1  0.217291  0.783150  0.546898  1
  Sn  Sn23  1  0.217290  0.434134  0.546922  1
  Sn  Sn24  1  0.565857  0.782930  0.547002  1
  Sn  Sn25  1  0.113942  0.886054  0.277112  1
  Sn  Sn26  1  0.782840  0.565874  0.453322  1
  Sn  Sn27  1  0.782846  0.216961  0.453317  1
  Sn  Sn28  1  0.346169  0.000011  0.999941  1
  Sn  Sn29  1  0.113932  0.227889  0.277110  1
  Sn  Sn30  1  0.772116  0.886068  0.277111  1
  Sn  Sn31  1  0.228120  0.114091  0.722820  1
  Sn  Sn32  1  0.885897  0.772008  0.722857  1
  Sn  Sn33  1  0.885920  0.113913  0.722858  1
  Sn  Sn34  1  0.000025  0.346148  0.999987  1
  Au  Au35  1  0.000002  0.000003  0.500004  1
