# generated using pymatgen
data_Pr8Y7Ho5Pb16
_symmetry_space_group_name_H-M   'P 1'
_cell_length_a   8.31209602
_cell_length_b   8.40868701
_cell_length_c   15.90500203
_cell_angle_alpha   90.00007353
_cell_angle_beta   89.99318369
_cell_angle_gamma   89.99432565
_symmetry_Int_Tables_number   1
_chemical_formula_structural   Pr8Y7Ho5Pb16
_chemical_formula_sum   'Pr8 Y7 Ho5 Pb16'
_cell_volume   1111.66123809
_cell_formula_units_Z   1
loop_
 _symmetry_equiv_pos_site_id
 _symmetry_equiv_pos_as_xyz
  1  'x, y, z'
loop_
 _atom_site_type_symbol
 _atom_site_label
 _atom_site_symmetry_multiplicity
 _atom_site_fract_x
 _atom_site_fract_y
 _atom_site_fract_z
 _atom_site_occupancy
  Pr  Pr0  1  0.476293  0.677596  0.597601  1
  Pr  Pr1  1  0.976309  0.822192  0.902303  1
  Pr  Pr2  1  0.523754  0.322241  0.097589  1
  Pr  Pr3  1  0.023691  0.177922  0.402602  1
  Pr  Pr4  1  0.523914  0.322254  0.402441  1
  Pr  Pr5  1  0.023774  0.177719  0.097622  1
  Pr  Pr6  1  0.476183  0.677662  0.902363  1
  Pr  Pr7  1  0.976292  0.822284  0.597587  1
  Y  Y8  1  0.634954  0.158032  0.622626  1
  Y  Y9  1  0.134891  0.341774  0.877243  1
  Y  Y10  1  0.365112  0.841877  0.122711  1
  Y  Y11  1  0.865142  0.658190  0.377272  1
  Y  Y12  1  0.364927  0.841815  0.377519  1
  Y  Y13  1  0.865105  0.658152  0.122712  1
  Y  Y14  1  0.634924  0.158215  0.877188  1
  Ho  Ho15  1  0.134701  0.341852  0.622900  1
  Ho  Ho16  1  0.800599  0.495947  0.749840  1
  Ho  Ho17  1  0.300308  0.004106  0.749911  1
  Ho  Ho18  1  0.199607  0.503886  0.250073  1
  Ho  Ho19  1  0.699590  0.996087  0.250001  1
  Pb  Pb20  1  0.705109  0.960176  0.456695  1
  Pb  Pb21  1  0.205140  0.539751  0.043339  1
  Pb  Pb22  1  0.294807  0.039723  0.956617  1
  Pb  Pb23  1  0.795676  0.459957  0.543429  1
  Pb  Pb24  1  0.294493  0.040708  0.543499  1
  Pb  Pb25  1  0.794812  0.460242  0.956580  1
  Pb  Pb26  1  0.705154  0.960244  0.043301  1
  Pb  Pb27  1  0.204936  0.539390  0.457113  1
  Pb  Pb28  1  0.438436  0.371222  0.749733  1
  Pb  Pb29  1  0.938885  0.129047  0.749602  1
  Pb  Pb30  1  0.561165  0.628822  0.250064  1
  Pb  Pb31  1  0.061382  0.871203  0.250031  1
  Pb  Pb32  1  0.663595  0.849583  0.749974  1
  Pb  Pb33  1  0.163800  0.650125  0.749813  1
  Pb  Pb34  1  0.336276  0.150429  0.250054  1
  Pb  Pb35  1  0.836261  0.349575  0.250052  1
