# generated using pymatgen
data_Ac(Sb3Ru)4
_symmetry_space_group_name_H-M   'P 1'
_cell_length_a   8.14835195
_cell_length_b   8.14835227
_cell_length_c   8.14835300
_cell_angle_alpha   109.47121747
_cell_angle_beta   109.47121828
_cell_angle_gamma   109.47122217
_symmetry_Int_Tables_number   1
_chemical_formula_structural   Ac(Sb3Ru)4
_chemical_formula_sum   'Ac1 Sb12 Ru4'
_cell_volume   416.47366123
_cell_formula_units_Z   1
loop_
 _symmetry_equiv_pos_site_id
 _symmetry_equiv_pos_as_xyz
  1  'x, y, z'
loop_
 _atom_site_type_symbol
 _atom_site_label
 _atom_site_symmetry_multiplicity
 _atom_site_fract_x
 _atom_site_fract_y
 _atom_site_fract_z
 _atom_site_occupancy
  Ac  Ac0  1  0.000000  0.000000  0.000000  1
  Sb  Sb1  1  0.341502  0.182520  0.841017  1
  Sb  Sb2  1  0.658497  0.817480  0.158983  1
  Sb  Sb3  1  0.658497  0.499514  0.841017  1
  Sb  Sb4  1  0.341503  0.500486  0.158983  1
  Sb  Sb5  1  0.182520  0.841017  0.341503  1
  Sb  Sb6  1  0.817480  0.158983  0.658498  1
  Sb  Sb7  1  0.499514  0.841017  0.658498  1
  Sb  Sb8  1  0.500486  0.158983  0.341503  1
  Sb  Sb9  1  0.841017  0.341502  0.182520  1
  Sb  Sb10  1  0.158983  0.658497  0.817480  1
  Sb  Sb11  1  0.841017  0.658497  0.499514  1
  Sb  Sb12  1  0.158983  0.341503  0.500486  1
  Ru  Ru13  1  0.000000  0.000000  0.500000  1
  Ru  Ru14  1  0.500000  0.000000  0.000000  1
  Ru  Ru15  1  0.000000  0.500000  0.000000  1
  Ru  Ru16  1  0.500000  0.500000  0.500000  1
