# generated using pymatgen
data_Ba2PtRh2O9
_symmetry_space_group_name_H-M   'P 1'
_cell_length_a   8.30175090
_cell_length_b   8.29041010
_cell_length_c   8.28619700
_cell_angle_alpha   109.54036006
_cell_angle_beta   109.15279622
_cell_angle_gamma   109.71286889
_symmetry_Int_Tables_number   1
_chemical_formula_structural   Ba2PtRh2O9
_chemical_formula_sum   'Ba4 Pt2 Rh4 O18'
_cell_volume   439.04783824
_cell_formula_units_Z   2
loop_
 _symmetry_equiv_pos_site_id
 _symmetry_equiv_pos_as_xyz
  1  'x, y, z'
loop_
 _atom_site_type_symbol
 _atom_site_label
 _atom_site_symmetry_multiplicity
 _atom_site_fract_x
 _atom_site_fract_y
 _atom_site_fract_z
 _atom_site_occupancy
  Ba  Ba0  1  0.002154  0.001335  0.384876  1
  Ba  Ba1  1  0.000027  0.384224  0.999303  1
  Ba  Ba2  1  0.615785  0.614613  0.617032  1
  Ba  Ba3  1  0.384015  0.999288  0.999472  1
  Pt  Pt4  1  0.499764  0.844410  0.343990  1
  Pt  Pt5  1  0.655861  0.499530  0.155978  1
  Rh  Rh6  1  0.343424  0.499775  0.842506  1
  Rh  Rh7  1  0.845599  0.344184  0.501214  1
  Rh  Rh8  1  0.499499  0.157518  0.657505  1
  Rh  Rh9  1  0.156587  0.656192  0.501566  1
  O  O10  1  0.361206  0.002073  0.361363  1
  O  O11  1  0.358804  0.359932  0.998102  1
  O  O12  1  0.999269  0.638150  0.638178  1
  O  O13  1  0.638509  0.640671  0.999640  1
  O  O14  1  0.999441  0.362400  0.361322  1
  O  O15  1  0.638213  0.000855  0.640792  1
  O  O16  1  0.358879  0.311117  0.633106  1
  O  O17  1  0.047954  0.322593  0.689322  1
  O  O18  1  0.724247  0.364502  0.675452  1
  O  O19  1  0.366594  0.677150  0.724708  1
  O  O20  1  0.275262  0.951231  0.640382  1
  O  O21  1  0.630667  0.356493  0.310935  1
  O  O22  1  0.308996  0.629152  0.357795  1
  O  O23  1  0.691456  0.048537  0.319834  1
  O  O24  1  0.953826  0.643383  0.274046  1
  O  O25  1  0.682586  0.729724  0.373350  1
  O  O26  1  0.641886  0.271547  0.952006  1
  O  O27  1  0.319490  0.689422  0.046226  1
