# generated using pymatgen
data_Tb17Dy2HoPb16
_symmetry_space_group_name_H-M   'P 1'
_cell_length_a   8.22780250
_cell_length_b   15.69869000
_cell_length_c   8.31831304
_cell_angle_alpha   90.00000000
_cell_angle_beta   90.02577122
_cell_angle_gamma   90.00000000
_symmetry_Int_Tables_number   1
_chemical_formula_structural   Tb17Dy2HoPb16
_chemical_formula_sum   'Tb17 Dy2 Ho1 Pb16'
_cell_volume   1074.44079143
_cell_formula_units_Z   1
loop_
 _symmetry_equiv_pos_site_id
 _symmetry_equiv_pos_as_xyz
  1  'x, y, z'
loop_
 _atom_site_type_symbol
 _atom_site_label
 _atom_site_symmetry_multiplicity
 _atom_site_fract_x
 _atom_site_fract_y
 _atom_site_fract_z
 _atom_site_occupancy
  Tb  Tb0  1  0.622724  0.620355  0.159199  1
  Tb  Tb1  1  0.123133  0.879664  0.340523  1
  Tb  Tb2  1  0.377030  0.120326  0.840691  1
  Tb  Tb3  1  0.877040  0.379592  0.659309  1
  Tb  Tb4  1  0.377030  0.379674  0.840691  1
  Tb  Tb5  1  0.877040  0.120408  0.659309  1
  Tb  Tb6  1  0.622724  0.879645  0.159199  1
  Tb  Tb7  1  0.123133  0.620336  0.340523  1
  Tb  Tb8  1  0.466156  0.600194  0.676956  1
  Tb  Tb9  1  0.966419  0.899788  0.823375  1
  Tb  Tb10  1  0.533736  0.100259  0.323214  1
  Tb  Tb11  1  0.033701  0.399815  0.176786  1
  Tb  Tb12  1  0.533736  0.399741  0.323214  1
  Tb  Tb13  1  0.033701  0.100185  0.176786  1
  Tb  Tb14  1  0.466156  0.899806  0.676956  1
  Tb  Tb15  1  0.966419  0.600212  0.823375  1
  Tb  Tb16  1  0.791084  0.750000  0.496655  1
  Dy  Dy17  1  0.209022  0.250000  0.503468  1
  Dy  Dy18  1  0.709019  0.250000  0.996604  1
  Ho  Ho19  1  0.290929  0.750000  0.003568  1
  Pb  Pb20  1  0.718872  0.457212  0.966847  1
  Pb  Pb21  1  0.218862  0.042793  0.533091  1
  Pb  Pb22  1  0.281157  0.956984  0.033057  1
  Pb  Pb23  1  0.781123  0.542727  0.466791  1
  Pb  Pb24  1  0.281157  0.543016  0.033057  1
  Pb  Pb25  1  0.781123  0.957273  0.466791  1
  Pb  Pb26  1  0.718872  0.042788  0.966847  1
  Pb  Pb27  1  0.218862  0.457207  0.533091  1
  Pb  Pb28  1  0.426775  0.750000  0.373292  1
  Pb  Pb29  1  0.927536  0.750000  0.125902  1
  Pb  Pb30  1  0.572799  0.250000  0.626389  1
  Pb  Pb31  1  0.072805  0.250000  0.873642  1
  Pb  Pb32  1  0.654612  0.750000  0.848656  1
  Pb  Pb33  1  0.155139  0.750000  0.652362  1
  Pb  Pb34  1  0.345138  0.250000  0.151762  1
  Pb  Pb35  1  0.845241  0.250000  0.348018  1
