# generated using pymatgen
data_Pr8Y12Ga7Sn9
_symmetry_space_group_name_H-M   'P 1'
_cell_length_a   7.79976503
_cell_length_b   8.31410568
_cell_length_c   15.64665100
_cell_angle_alpha   90.00000000
_cell_angle_beta   90.00000000
_cell_angle_gamma   90.14956917
_symmetry_Int_Tables_number   1
_chemical_formula_structural   Pr8Y12Ga7Sn9
_chemical_formula_sum   'Pr8 Y12 Ga7 Sn9'
_cell_volume   1014.65167396
_cell_formula_units_Z   1
loop_
 _symmetry_equiv_pos_site_id
 _symmetry_equiv_pos_as_xyz
  1  'x, y, z'
loop_
 _atom_site_type_symbol
 _atom_site_label
 _atom_site_symmetry_multiplicity
 _atom_site_fract_x
 _atom_site_fract_y
 _atom_site_fract_z
 _atom_site_occupancy
  Pr  Pr0  1  0.500496  0.318758  0.901717  1
  Pr  Pr1  1  0.000652  0.183685  0.599270  1
  Pr  Pr2  1  0.502620  0.683256  0.404150  1
  Pr  Pr3  1  0.996735  0.821562  0.096426  1
  Pr  Pr4  1  0.502620  0.683256  0.095850  1
  Pr  Pr5  1  0.996735  0.821562  0.403574  1
  Pr  Pr6  1  0.500496  0.318758  0.598283  1
  Pr  Pr7  1  0.000652  0.183685  0.900730  1
  Y  Y8  1  0.337541  0.829354  0.868358  1
  Y  Y9  1  0.838065  0.671114  0.631332  1
  Y  Y10  1  0.667085  0.168755  0.370415  1
  Y  Y11  1  0.158278  0.323722  0.128445  1
  Y  Y12  1  0.667085  0.168755  0.129585  1
  Y  Y13  1  0.158278  0.323722  0.371555  1
  Y  Y14  1  0.337541  0.829354  0.631642  1
  Y  Y15  1  0.838065  0.671114  0.868668  1
  Y  Y16  1  0.182193  0.484073  0.750000  1
  Y  Y17  1  0.680973  0.016801  0.750000  1
  Y  Y18  1  0.808184  0.513107  0.250000  1
  Y  Y19  1  0.325200  0.995048  0.250000  1
  Ga  Ga20  1  0.542689  0.609299  0.750000  1
  Ga  Ga21  1  0.042248  0.893506  0.750000  1
  Ga  Ga22  1  0.456163  0.374326  0.250000  1
  Ga  Ga23  1  0.958820  0.105986  0.250000  1
  Ga  Ga24  1  0.291509  0.124821  0.750000  1
  Ga  Ga25  1  0.790635  0.375789  0.750000  1
  Ga  Ga26  1  0.706175  0.875054  0.250000  1
  Sn  Sn27  1  0.324358  0.037570  0.037698  1
  Sn  Sn28  1  0.823171  0.462171  0.461961  1
  Sn  Sn29  1  0.677541  0.961822  0.539934  1
  Sn  Sn30  1  0.178419  0.539939  0.961899  1
  Sn  Sn31  1  0.677541  0.961822  0.960066  1
  Sn  Sn32  1  0.178419  0.539939  0.538101  1
  Sn  Sn33  1  0.324358  0.037570  0.462302  1
  Sn  Sn34  1  0.823171  0.462171  0.038039  1
  Sn  Sn35  1  0.205291  0.628773  0.250000  1
