# generated using pymatgen
data_Pr5Nd5(Sn3O)2
_symmetry_space_group_name_H-M   'P 1'
_cell_length_a   9.41175388
_cell_length_b   9.41175438
_cell_length_c   9.41020874
_cell_angle_alpha   126.18029073
_cell_angle_beta   126.18028479
_cell_angle_gamma   79.57672268
_symmetry_Int_Tables_number   1
_chemical_formula_structural   Pr5Nd5(Sn3O)2
_chemical_formula_sum   'Pr5 Nd5 Sn6 O2'
_cell_volume   524.80944984
_cell_formula_units_Z   1
loop_
 _symmetry_equiv_pos_site_id
 _symmetry_equiv_pos_as_xyz
  1  'x, y, z'
loop_
 _atom_site_type_symbol
 _atom_site_label
 _atom_site_symmetry_multiplicity
 _atom_site_fract_x
 _atom_site_fract_y
 _atom_site_fract_z
 _atom_site_occupancy
  Pr  Pr0  1  0.497409  0.304831  0.499805  1
  Pr  Pr1  1  0.804831  0.997409  0.499805  1
  Pr  Pr2  1  0.997578  0.497578  0.192772  1
  Pr  Pr3  1  0.502388  0.502608  0.999905  1
  Pr  Pr4  1  0.002608  0.002388  0.999905  1
  Nd  Nd5  1  0.303540  0.803540  0.804753  1
  Nd  Nd6  1  0.503298  0.698873  0.500238  1
  Nd  Nd7  1  0.198873  0.003298  0.500238  1
  Nd  Nd8  1  0.003208  0.503208  0.804570  1
  Nd  Nd9  1  0.698515  0.198515  0.195259  1
  Sn  Sn10  1  0.140353  0.360640  0.500425  1
  Sn  Sn11  1  0.860640  0.640353  0.500425  1
  Sn  Sn12  1  0.640130  0.140130  0.780171  1
  Sn  Sn13  1  0.359926  0.859926  0.219031  1
  Sn  Sn14  1  0.751765  0.752356  0.999849  1
  Sn  Sn15  1  0.252356  0.251765  0.999849  1
  O  O16  1  0.752457  0.252457  0.500178  1
  O  O17  1  0.252966  0.752966  0.502825  1
