# generated using pymatgen
data_Zr8Tc3PdRu4
_symmetry_space_group_name_H-M   'P 1'
_cell_length_a   6.60159900
_cell_length_b   6.60619300
_cell_length_c   6.56038000
_cell_angle_alpha   90.00000000
_cell_angle_beta   90.00029602
_cell_angle_gamma   90.00000000
_symmetry_Int_Tables_number   1
_chemical_formula_structural   Zr8Tc3PdRu4
_chemical_formula_sum   'Zr8 Tc3 Pd1 Ru4'
_cell_volume   286.10759974
_cell_formula_units_Z   1
loop_
 _symmetry_equiv_pos_site_id
 _symmetry_equiv_pos_as_xyz
  1  'x, y, z'
loop_
 _atom_site_type_symbol
 _atom_site_label
 _atom_site_symmetry_multiplicity
 _atom_site_fract_x
 _atom_site_fract_y
 _atom_site_fract_z
 _atom_site_occupancy
  Zr  Zr0  1  0.997687  0.497317  0.251885  1
  Zr  Zr1  1  0.997687  0.002684  0.251885  1
  Zr  Zr2  1  0.502935  0.002741  0.251848  1
  Zr  Zr3  1  0.502935  0.497258  0.251848  1
  Zr  Zr4  1  0.502302  0.497328  0.748110  1
  Zr  Zr5  1  0.502302  0.002673  0.748110  1
  Zr  Zr6  1  0.997070  0.002747  0.748136  1
  Zr  Zr7  1  0.997070  0.497252  0.748136  1
  Tc  Tc8  1  0.749968  0.250000  0.499772  1
  Tc  Tc9  1  0.250042  0.750000  0.500228  1
  Tc  Tc10  1  0.750038  0.250000  0.999777  1
  Pd  Pd11  1  0.249936  0.750000  0.000288  1
  Ru  Ru12  1  0.750035  0.750000  0.000096  1
  Ru  Ru13  1  0.250014  0.250000  0.499900  1
  Ru  Ru14  1  0.749988  0.750000  0.500095  1
  Ru  Ru15  1  0.249987  0.250000  0.999888  1
