# generated using pymatgen
data_TaBe8VRh2
_symmetry_space_group_name_H-M   'P 1'
_cell_length_a   4.40675600
_cell_length_b   4.40675356
_cell_length_c   7.19939600
_cell_angle_alpha   89.99995729
_cell_angle_beta   90.00011063
_cell_angle_gamma   119.99996179
_symmetry_Int_Tables_number   1
_chemical_formula_structural   TaBe8VRh2
_chemical_formula_sum   'Ta1 Be8 V1 Rh2'
_cell_volume   121.07783030
_cell_formula_units_Z   1
loop_
 _symmetry_equiv_pos_site_id
 _symmetry_equiv_pos_as_xyz
  1  'x, y, z'
loop_
 _atom_site_type_symbol
 _atom_site_label
 _atom_site_symmetry_multiplicity
 _atom_site_fract_x
 _atom_site_fract_y
 _atom_site_fract_z
 _atom_site_occupancy
  Ta  Ta0  1  0.666665  0.333333  0.565360  1
  Be  Be1  1  0.000001  0.000000  0.493598  1
  Be  Be2  1  0.999999  0.000005  0.003334  1
  Be  Be3  1  0.168736  0.337468  0.757998  1
  Be  Be4  1  0.168746  0.831255  0.757997  1
  Be  Be5  1  0.662534  0.831265  0.757996  1
  Be  Be6  1  0.831466  0.662954  0.243225  1
  Be  Be7  1  0.831476  0.168526  0.243228  1
  Be  Be8  1  0.337046  0.168537  0.243226  1
  V  V9  1  0.666666  0.333332  0.935273  1
  Rh  Rh10  1  0.333326  0.666667  0.445240  1
  Rh  Rh11  1  0.333338  0.666660  0.053528  1
