# generated using pymatgen
data_Y6Sb7Pd16Se
_symmetry_space_group_name_H-M   'P 1'
_cell_length_a   9.34814161
_cell_length_b   9.34814116
_cell_length_c   9.34814100
_cell_angle_alpha   59.99999701
_cell_angle_beta   59.99999862
_cell_angle_gamma   59.99999747
_symmetry_Int_Tables_number   1
_chemical_formula_structural   Y6Sb7Pd16Se
_chemical_formula_sum   'Y6 Sb7 Pd16 Se1'
_cell_volume   577.64468022
_cell_formula_units_Z   1
loop_
 _symmetry_equiv_pos_site_id
 _symmetry_equiv_pos_as_xyz
  1  'x, y, z'
loop_
 _atom_site_type_symbol
 _atom_site_label
 _atom_site_symmetry_multiplicity
 _atom_site_fract_x
 _atom_site_fract_y
 _atom_site_fract_z
 _atom_site_occupancy
  Y  Y0  1  0.718535  0.281465  0.281465  1
  Y  Y1  1  0.281465  0.718535  0.718535  1
  Y  Y2  1  0.281465  0.718535  0.281465  1
  Y  Y3  1  0.718535  0.281465  0.718535  1
  Y  Y4  1  0.281465  0.281465  0.718535  1
  Y  Y5  1  0.718535  0.718535  0.281465  1
  Sb  Sb6  1  0.000000  0.000000  0.000000  1
  Sb  Sb7  1  0.500000  0.000000  0.000000  1
  Sb  Sb8  1  0.000000  0.500000  0.500000  1
  Sb  Sb9  1  0.000000  0.500000  0.000000  1
  Sb  Sb10  1  0.500000  0.000000  0.500000  1
  Sb  Sb11  1  0.000000  0.000000  0.500000  1
  Sb  Sb12  1  0.500000  0.500000  0.000000  1
  Pd  Pd13  1  0.118124  0.118124  0.118124  1
  Pd  Pd14  1  0.881876  0.881876  0.881876  1
  Pd  Pd15  1  0.118124  0.118124  0.645627  1
  Pd  Pd16  1  0.118124  0.645627  0.118124  1
  Pd  Pd17  1  0.881876  0.881876  0.354373  1
  Pd  Pd18  1  0.881876  0.354373  0.881876  1
  Pd  Pd19  1  0.645627  0.118124  0.118124  1
  Pd  Pd20  1  0.354373  0.881876  0.881876  1
  Pd  Pd21  1  0.333253  0.333253  0.333253  1
  Pd  Pd22  1  0.666747  0.666747  0.666747  1
  Pd  Pd23  1  0.333253  0.333253  0.000240  1
  Pd  Pd24  1  0.333253  0.000240  0.333253  1
  Pd  Pd25  1  0.666747  0.666747  0.999760  1
  Pd  Pd26  1  0.666747  0.999760  0.666747  1
  Pd  Pd27  1  0.000240  0.333253  0.333253  1
  Pd  Pd28  1  0.999760  0.666747  0.666747  1
  Se  Se29  1  0.500000  0.500000  0.500000  1
