# generated using pymatgen
data_Na3Ga(IO3)6
_symmetry_space_group_name_H-M   'P 1'
_cell_length_a   6.74221405
_cell_length_b   6.86058439
_cell_length_c   10.31136100
_cell_angle_alpha   99.00065235
_cell_angle_beta   108.62546704
_cell_angle_gamma   100.88202539
_symmetry_Int_Tables_number   1
_chemical_formula_structural   Na3Ga(IO3)6
_chemical_formula_sum   'Na3 Ga1 I6 O18'
_cell_volume   431.64368535
_cell_formula_units_Z   1
loop_
 _symmetry_equiv_pos_site_id
 _symmetry_equiv_pos_as_xyz
  1  'x, y, z'
loop_
 _atom_site_type_symbol
 _atom_site_label
 _atom_site_symmetry_multiplicity
 _atom_site_fract_x
 _atom_site_fract_y
 _atom_site_fract_z
 _atom_site_occupancy
  Na  Na0  1  0.394694  0.540813  0.306289  1
  Na  Na1  1  0.605306  0.459187  0.693711  1
  Na  Na2  1  0.000000  0.500000  0.500000  1
  Ga  Ga3  1  0.000000  0.000000  0.000000  1
  I  I4  1  0.561857  0.036760  0.196484  1
  I  I5  1  0.438143  0.963240  0.803516  1
  I  I6  1  0.793439  0.534395  0.107519  1
  I  I7  1  0.206561  0.465605  0.892481  1
  I  I8  1  0.147758  0.067627  0.381322  1
  I  I9  1  0.852242  0.932373  0.618678  1
  O  O10  1  0.585439  0.658378  0.134160  1
  O  O11  1  0.414561  0.341622  0.865840  1
  O  O12  1  0.987089  0.361506  0.721461  1
  O  O13  1  0.012911  0.638494  0.278539  1
  O  O14  1  0.599273  0.314206  0.241816  1
  O  O15  1  0.400727  0.685794  0.758184  1
  O  O16  1  0.049910  0.113092  0.200156  1
  O  O17  1  0.950090  0.886908  0.799844  1
  O  O18  1  0.298241  0.961251  0.038185  1
  O  O19  1  0.701759  0.038749  0.961815  1
  O  O20  1  0.301733  0.329935  0.468549  1
  O  O21  1  0.698267  0.670065  0.531451  1
  O  O22  1  0.890565  0.102001  0.405168  1
  O  O23  1  0.109435  0.897999  0.594832  1
  O  O24  1  0.555417  0.044712  0.676267  1
  O  O25  1  0.444583  0.955288  0.323733  1
  O  O26  1  0.104438  0.307860  0.001321  1
  O  O27  1  0.895562  0.692140  0.998679  1
