# generated using pymatgen
data_Y3Er3Co16(MoP6)2
_symmetry_space_group_name_H-M   'P 1'
_cell_length_a   3.71731000
_cell_length_b   10.55573711
_cell_length_c   12.23355614
_cell_angle_alpha   90.01693898
_cell_angle_beta   90.00000000
_cell_angle_gamma   90.00000000
_symmetry_Int_Tables_number   1
_chemical_formula_structural   Y3Er3Co16(MoP6)2
_chemical_formula_sum   'Y3 Er3 Co16 Mo2 P12'
_cell_volume   480.03184145
_cell_formula_units_Z   1
loop_
 _symmetry_equiv_pos_site_id
 _symmetry_equiv_pos_as_xyz
  1  'x, y, z'
loop_
 _atom_site_type_symbol
 _atom_site_label
 _atom_site_symmetry_multiplicity
 _atom_site_fract_x
 _atom_site_fract_y
 _atom_site_fract_z
 _atom_site_occupancy
  Y  Y0  1  0.750000  0.250020  0.475384  1
  Y  Y1  1  0.250000  0.749832  0.524279  1
  Y  Y2  1  0.250000  0.931040  0.795365  1
  Er  Er3  1  0.250000  0.568803  0.795640  1
  Er  Er4  1  0.750000  0.069092  0.204386  1
  Er  Er5  1  0.750000  0.431130  0.204816  1
  Co  Co6  1  0.250000  0.250206  0.297940  1
  Co  Co7  1  0.750000  0.749055  0.701686  1
  Co  Co8  1  0.750000  0.250591  0.014053  1
  Co  Co9  1  0.250000  0.749362  0.986760  1
  Co  Co10  1  0.250000  0.417711  0.010310  1
  Co  Co11  1  0.250000  0.082898  0.010414  1
  Co  Co12  1  0.750000  0.582026  0.990306  1
  Co  Co13  1  0.750000  0.917476  0.990767  1
  Co  Co14  1  0.250000  0.454253  0.568749  1
  Co  Co15  1  0.250000  0.045761  0.567953  1
  Co  Co16  1  0.750000  0.545526  0.431192  1
  Co  Co17  1  0.750000  0.954314  0.430543  1
  Co  Co18  1  0.250000  0.872228  0.292425  1
  Co  Co19  1  0.250000  0.627761  0.292978  1
  Co  Co20  1  0.750000  0.128535  0.706663  1
  Co  Co21  1  0.750000  0.372386  0.707262  1
  Mo  Mo22  1  0.250000  0.250262  0.843937  1
  Mo  Mo23  1  0.750000  0.749853  0.156189  1
  P  P24  1  0.250000  0.250329  0.119510  1
  P  P25  1  0.750000  0.749144  0.881170  1
  P  P26  1  0.250000  0.249914  0.650962  1
  P  P27  1  0.750000  0.750013  0.348960  1
  P  P28  1  0.250000  0.438901  0.383327  1
  P  P29  1  0.250000  0.061219  0.382753  1
  P  P30  1  0.750000  0.560810  0.616678  1
  P  P31  1  0.750000  0.938890  0.615580  1
  P  P32  1  0.250000  0.905676  0.106961  1
  P  P33  1  0.250000  0.594159  0.107460  1
  P  P34  1  0.750000  0.095116  0.893662  1
  P  P35  1  0.750000  0.405709  0.892980  1
