# generated using pymatgen
data_La16Ho4Sn15Bi
_symmetry_space_group_name_H-M   'P 1'
_cell_length_a   8.42574395
_cell_length_b   8.50113036
_cell_length_c   16.25603400
_cell_angle_alpha   89.98540837
_cell_angle_beta   90.12778051
_cell_angle_gamma   89.91179548
_symmetry_Int_Tables_number   1
_chemical_formula_structural   La16Ho4Sn15Bi
_chemical_formula_sum   'La16 Ho4 Sn15 Bi1'
_cell_volume   1164.38854138
_cell_formula_units_Z   1
loop_
 _symmetry_equiv_pos_site_id
 _symmetry_equiv_pos_as_xyz
  1  'x, y, z'
loop_
 _atom_site_type_symbol
 _atom_site_label
 _atom_site_symmetry_multiplicity
 _atom_site_fract_x
 _atom_site_fract_y
 _atom_site_fract_z
 _atom_site_occupancy
  La  La0  1  0.969081  0.820792  0.899413  1
  La  La1  1  0.461357  0.681050  0.602321  1
  La  La2  1  0.530854  0.319691  0.100489  1
  La  La3  1  0.035116  0.177859  0.397673  1
  La  La4  1  0.966835  0.824222  0.602109  1
  La  La5  1  0.468525  0.680127  0.899571  1
  La  La6  1  0.529320  0.317446  0.397066  1
  La  La7  1  0.030391  0.181152  0.100013  1
  La  La8  1  0.882447  0.661697  0.381742  1
  La  La9  1  0.379621  0.841467  0.117180  1
  La  La10  1  0.618569  0.154641  0.618260  1
  La  La11  1  0.121897  0.342540  0.882317  1
  La  La12  1  0.124320  0.340915  0.617291  1
  La  La13  1  0.621658  0.157375  0.882150  1
  La  La14  1  0.380691  0.840820  0.382557  1
  La  La15  1  0.879133  0.657792  0.117438  1
  Ho  Ho16  1  0.284804  0.002753  0.751370  1
  Ho  Ho17  1  0.785659  0.496827  0.755158  1
  Ho  Ho18  1  0.214630  0.503951  0.248894  1
  Ho  Ho19  1  0.714495  0.997047  0.248845  1
  Sn  Sn20  1  0.280465  0.029371  0.952346  1
  Sn  Sn21  1  0.721685  0.974251  0.451788  1
  Sn  Sn22  1  0.219948  0.528950  0.047712  1
  Sn  Sn23  1  0.222170  0.526696  0.451332  1
  Sn  Sn24  1  0.719860  0.971062  0.047754  1
  Sn  Sn25  1  0.278874  0.026999  0.548371  1
  Sn  Sn26  1  0.780427  0.470171  0.952728  1
  Sn  Sn27  1  0.163468  0.645880  0.750011  1
  Sn  Sn28  1  0.663537  0.852941  0.749951  1
  Sn  Sn29  1  0.334608  0.144919  0.249173  1
  Sn  Sn30  1  0.834870  0.354786  0.250206  1
  Sn  Sn31  1  0.924539  0.121000  0.749269  1
  Sn  Sn32  1  0.423995  0.380208  0.749415  1
  Sn  Sn33  1  0.577914  0.618811  0.250482  1
  Sn  Sn34  1  0.076839  0.881011  0.249145  1
  Bi  Bi35  1  0.777399  0.472780  0.548463  1
