# generated using pymatgen
data_La2TbThPt4
_symmetry_space_group_name_H-M   'P 1'
_cell_length_a   4.66261600
_cell_length_b   5.73296560
_cell_length_c   7.36616023
_cell_angle_alpha   90.44718350
_cell_angle_beta   90.00000000
_cell_angle_gamma   90.00000000
_symmetry_Int_Tables_number   1
_chemical_formula_structural   La2TbThPt4
_chemical_formula_sum   'La2 Tb1 Th1 Pt4'
_cell_volume   196.89601160
_cell_formula_units_Z   1
loop_
 _symmetry_equiv_pos_site_id
 _symmetry_equiv_pos_as_xyz
  1  'x, y, z'
loop_
 _atom_site_type_symbol
 _atom_site_label
 _atom_site_symmetry_multiplicity
 _atom_site_fract_x
 _atom_site_fract_y
 _atom_site_fract_z
 _atom_site_occupancy
  La  La0  1  0.250000  0.141265  0.182038  1
  La  La1  1  0.750000  0.645200  0.316484  1
  Tb  Tb2  1  0.750000  0.856292  0.815562  1
  Th  Th3  1  0.250000  0.356168  0.687220  1
  Pt  Pt4  1  0.250000  0.840425  0.559809  1
  Pt  Pt5  1  0.250000  0.658006  0.026211  1
  Pt  Pt6  1  0.750000  0.161511  0.471429  1
  Pt  Pt7  1  0.750000  0.341133  0.941249  1
