# generated using pymatgen
data_Ti3Be2Zn(B2Rh5)2
_symmetry_space_group_name_H-M   'P 1'
_cell_length_a   2.90723000
_cell_length_b   9.12597554
_cell_length_c   9.12597554
_cell_angle_alpha   89.19614264
_cell_angle_beta   90.00000000
_cell_angle_gamma   90.00000000
_symmetry_Int_Tables_number   1
_chemical_formula_structural   Ti3Be2Zn(B2Rh5)2
_chemical_formula_sum   'Ti3 Be2 Zn1 B4 Rh10'
_cell_volume   242.10025566
_cell_formula_units_Z   1
loop_
 _symmetry_equiv_pos_site_id
 _symmetry_equiv_pos_as_xyz
  1  'x, y, z'
loop_
 _atom_site_type_symbol
 _atom_site_label
 _atom_site_symmetry_multiplicity
 _atom_site_fract_x
 _atom_site_fract_y
 _atom_site_fract_z
 _atom_site_occupancy
  Ti  Ti0  1  0.000000  0.325512  0.322497  1
  Ti  Ti1  1  0.000000  0.677503  0.674488  1
  Ti  Ti2  1  0.000000  0.172809  0.827192  1
  Be  Be3  1  0.000000  0.498108  0.998341  1
  Be  Be4  1  0.000000  0.001659  0.501892  1
  Zn  Zn5  1  0.000000  0.820165  0.179836  1
  B  B6  1  0.000000  0.130174  0.129389  1
  B  B7  1  0.000000  0.632657  0.367344  1
  B  B8  1  0.000000  0.370946  0.629055  1
  B  B9  1  0.000000  0.870612  0.869827  1
  Rh  Rh10  1  0.499999  0.995737  0.004263  1
  Rh  Rh11  1  0.499999  0.291615  0.066218  1
  Rh  Rh12  1  0.499999  0.565178  0.206423  1
  Rh  Rh13  1  0.499999  0.074418  0.294761  1
  Rh  Rh14  1  0.499999  0.793579  0.434824  1
  Rh  Rh15  1  0.499999  0.500969  0.499031  1
  Rh  Rh16  1  0.499999  0.209059  0.569715  1
  Rh  Rh17  1  0.499999  0.933783  0.708387  1
  Rh  Rh18  1  0.499999  0.430287  0.790943  1
  Rh  Rh19  1  0.499999  0.705241  0.925583  1
