# generated using pymatgen
data_DyHf2Fe(Co4P3)2
_symmetry_space_group_name_H-M   'P 1'
_cell_length_a   11.93211081
_cell_length_b   11.96277863
_cell_length_c   3.63667800
_cell_angle_alpha   90.00000000
_cell_angle_beta   90.00000000
_cell_angle_gamma   120.08506937
_symmetry_Int_Tables_number   1
_chemical_formula_structural   DyHf2Fe(Co4P3)2
_chemical_formula_sum   'Dy2 Hf4 Fe2 Co16 P12'
_cell_volume   449.17119995
_cell_formula_units_Z   2
loop_
 _symmetry_equiv_pos_site_id
 _symmetry_equiv_pos_as_xyz
  1  'x, y, z'
loop_
 _atom_site_type_symbol
 _atom_site_label
 _atom_site_symmetry_multiplicity
 _atom_site_fract_x
 _atom_site_fract_y
 _atom_site_fract_z
 _atom_site_occupancy
  Dy  Dy0  1  0.334985  0.666401  0.000000  1
  Dy  Dy1  1  0.665015  0.331416  0.000000  1
  Hf  Hf2  1  0.817025  0.815646  0.500000  1
  Hf  Hf3  1  0.000000  0.176117  0.500000  1
  Hf  Hf4  1  0.000000  0.556294  0.000000  1
  Hf  Hf5  1  0.182975  0.998620  0.500000  1
  Fe  Fe6  1  0.448871  0.450024  0.000000  1
  Fe  Fe7  1  0.551129  0.001153  0.000000  1
  Co  Co8  1  0.627081  0.824483  0.000000  1
  Co  Co9  1  0.372919  0.197402  0.000000  1
  Co  Co10  1  0.000000  0.724174  0.500000  1
  Co  Co11  1  0.281820  0.280451  0.500000  1
  Co  Co12  1  0.873850  0.348553  0.500000  1
  Co  Co13  1  0.718180  0.998630  0.500000  1
  Co  Co14  1  0.819508  0.632442  0.000000  1
  Co  Co15  1  0.180492  0.812934  0.000000  1
  Co  Co16  1  0.358257  0.878156  0.500000  1
  Co  Co17  1  0.126150  0.474702  0.500000  1
  Co  Co18  1  0.641743  0.519899  0.500000  1
  Co  Co19  1  0.000000  0.001983  0.000000  1
  Co  Co20  1  0.519854  0.646704  0.500000  1
  Co  Co21  1  0.480146  0.126851  0.500000  1
  Co  Co22  1  0.197721  0.368860  0.000000  1
  Co  Co23  1  0.802279  0.171138  0.000000  1
  P  P24  1  0.000000  0.344772  0.000000  1
  P  P25  1  0.827343  0.520172  0.500000  1
  P  P26  1  0.681927  0.160238  0.500000  1
  P  P27  1  0.176894  0.174182  0.000000  1
  P  P28  1  0.635023  0.640283  0.000000  1
  P  P29  1  0.823106  0.997288  0.000000  1
  P  P30  1  0.520415  0.838003  0.500000  1
  P  P31  1  0.172657  0.692828  0.500000  1
  P  P32  1  0.364977  0.005261  0.000000  1
  P  P33  1  0.479585  0.317589  0.500000  1
  P  P34  1  0.000000  0.828043  0.000000  1
  P  P35  1  0.318073  0.478310  0.500000  1
