# generated using pymatgen
data_Dy9Y2HoOs4
_symmetry_space_group_name_H-M   'P 1'
_cell_length_a   6.32279306
_cell_length_b   7.40289301
_cell_length_c   9.07878107
_cell_angle_alpha   89.99925571
_cell_angle_beta   90.01414555
_cell_angle_gamma   90.00715517
_symmetry_Int_Tables_number   1
_chemical_formula_structural   Dy9Y2HoOs4
_chemical_formula_sum   'Dy9 Y2 Ho1 Os4'
_cell_volume   424.95013133
_cell_formula_units_Z   1
loop_
 _symmetry_equiv_pos_site_id
 _symmetry_equiv_pos_as_xyz
  1  'x, y, z'
loop_
 _atom_site_type_symbol
 _atom_site_label
 _atom_site_symmetry_multiplicity
 _atom_site_fract_x
 _atom_site_fract_y
 _atom_site_fract_z
 _atom_site_occupancy
  Dy  Dy0  1  0.331241  0.675765  0.062140  1
  Dy  Dy1  1  0.168700  0.175766  0.437787  1
  Dy  Dy2  1  0.668484  0.324184  0.563303  1
  Dy  Dy3  1  0.831566  0.824245  0.936736  1
  Dy  Dy4  1  0.668487  0.324162  0.936736  1
  Dy  Dy5  1  0.831535  0.824188  0.563293  1
  Dy  Dy6  1  0.331261  0.675753  0.437851  1
  Dy  Dy7  1  0.130732  0.461046  0.750032  1
  Dy  Dy8  1  0.369238  0.961108  0.750040  1
  Y  Y9  1  0.870541  0.537967  0.249976  1
  Y  Y10  1  0.629465  0.038032  0.249956  1
  Ho  Ho11  1  0.168687  0.175703  0.062178  1
  Os  Os12  1  0.043958  0.884689  0.249956  1
  Os  Os13  1  0.456026  0.384528  0.249947  1
  Os  Os14  1  0.960901  0.116457  0.750083  1
  Os  Os15  1  0.539178  0.616409  0.749986  1
