# generated using pymatgen
data_Dy2Y8IrPt5
_symmetry_space_group_name_H-M   'P 1'
_cell_length_a   11.07935300
_cell_length_b   11.07935300
_cell_length_c   6.43609900
_cell_angle_alpha   90.00000000
_cell_angle_beta   90.00000000
_cell_angle_gamma   90.00000000
_symmetry_Int_Tables_number   1
_chemical_formula_structural   Dy2Y8IrPt5
_chemical_formula_sum   'Dy4 Y16 Ir2 Pt10'
_cell_volume   790.04442927
_cell_formula_units_Z   2
loop_
 _symmetry_equiv_pos_site_id
 _symmetry_equiv_pos_as_xyz
  1  'x, y, z'
loop_
 _atom_site_type_symbol
 _atom_site_label
 _atom_site_symmetry_multiplicity
 _atom_site_fract_x
 _atom_site_fract_y
 _atom_site_fract_z
 _atom_site_occupancy
  Dy  Dy0  1  0.000000  0.000000  0.500474  1
  Dy  Dy1  1  0.000000  0.000000  0.000474  1
  Dy  Dy2  1  0.500000  0.500000  0.000474  1
  Dy  Dy3  1  0.500000  0.500000  0.500474  1
  Y  Y4  1  0.292589  0.088483  0.377169  1
  Y  Y5  1  0.292589  0.911517  0.877169  1
  Y  Y6  1  0.707411  0.088483  0.877169  1
  Y  Y7  1  0.707411  0.911517  0.377169  1
  Y  Y8  1  0.588483  0.792589  0.877169  1
  Y  Y9  1  0.588483  0.207411  0.377169  1
  Y  Y10  1  0.411517  0.792589  0.377169  1
  Y  Y11  1  0.411517  0.207411  0.877169  1
  Y  Y12  1  0.205123  0.412159  0.623397  1
  Y  Y13  1  0.205123  0.587841  0.123397  1
  Y  Y14  1  0.794877  0.412159  0.123397  1
  Y  Y15  1  0.794877  0.587841  0.623397  1
  Y  Y16  1  0.912159  0.705123  0.123397  1
  Y  Y17  1  0.912159  0.294877  0.623397  1
  Y  Y18  1  0.087841  0.705123  0.623397  1
  Y  Y19  1  0.087841  0.294877  0.123397  1
  Ir  Ir20  1  0.000000  0.500000  0.877733  1
  Ir  Ir21  1  0.000000  0.500000  0.377733  1
  Pt  Pt22  1  0.846302  0.152638  0.249892  1
  Pt  Pt23  1  0.846302  0.847362  0.749892  1
  Pt  Pt24  1  0.153698  0.152638  0.749892  1
  Pt  Pt25  1  0.153698  0.847362  0.249892  1
  Pt  Pt26  1  0.652638  0.346302  0.749892  1
  Pt  Pt27  1  0.652638  0.653698  0.249892  1
  Pt  Pt28  1  0.347362  0.346302  0.249892  1
  Pt  Pt29  1  0.347362  0.653698  0.749892  1
  Pt  Pt30  1  0.500000  0.000000  0.119489  1
  Pt  Pt31  1  0.500000  0.000000  0.619489  1
