# generated using pymatgen
data_Ce3PaH15
_symmetry_space_group_name_H-M   'P 1'
_cell_length_a   7.70253281
_cell_length_b   7.75299865
_cell_length_c   7.74182159
_cell_angle_alpha   109.53347676
_cell_angle_beta   109.26928225
_cell_angle_gamma   109.53761482
_symmetry_Int_Tables_number   1
_chemical_formula_structural   Ce3PaH15
_chemical_formula_sum   'Ce6 Pa2 H30'
_cell_volume   356.21678221
_cell_formula_units_Z   2
loop_
 _symmetry_equiv_pos_site_id
 _symmetry_equiv_pos_as_xyz
  1  'x, y, z'
loop_
 _atom_site_type_symbol
 _atom_site_label
 _atom_site_symmetry_multiplicity
 _atom_site_fract_x
 _atom_site_fract_y
 _atom_site_fract_z
 _atom_site_occupancy
  Ce  Ce0  1  0.001832  0.082373  0.499186  1
  Ce  Ce1  1  0.084401  0.500134  0.004852  1
  Ce  Ce2  1  0.002645  0.583186  0.500814  1
  Ce  Ce3  1  0.579549  0.495283  0.995148  1
  Ce  Ce4  1  0.500652  0.998251  0.579224  1
  Ce  Ce5  1  0.421428  0.419027  0.420776  1
  Pa  Pa6  1  0.915916  0.920104  0.917454  1
  Pa  Pa7  1  0.498461  0.002649  0.082546  1
  H  H8  1  0.643860  0.967139  0.352592  1
  H  H9  1  0.215968  0.313998  0.846779  1
  H  H10  1  0.184032  0.399622  0.529276  1
  H  H11  1  0.093444  0.269669  0.123418  1
  H  H12  1  0.274378  0.117834  0.092254  1
  H  H13  1  0.119284  0.089101  0.266051  1
  H  H14  1  0.470024  0.146251  0.876582  1
  H  H15  1  0.717717  0.343815  0.813510  1
  H  H16  1  0.616224  0.354978  0.239863  1
  H  H17  1  0.254754  0.624273  0.379744  1
  H  H18  1  0.742517  0.884608  0.109606  1
  H  H19  1  0.132911  0.775002  0.890394  1
  H  H20  1  0.375010  0.244529  0.620256  1
  H  H21  1  0.876361  0.115115  0.760137  1
  H  H22  1  0.791268  0.614547  0.647408  1
  H  H23  1  0.324214  0.855953  0.213056  1
  H  H24  1  0.374179  0.667157  0.970665  1
  H  H25  1  0.966280  0.368819  0.655961  1
  H  H26  1  0.529260  0.175039  0.387841  1
  H  H27  1  0.404208  0.530306  0.186490  1
  H  H28  1  0.835931  0.211975  0.308352  1
  H  H29  1  0.903514  0.696491  0.029335  1
  H  H30  1  0.810319  0.712857  0.344039  1
  H  H31  1  0.154757  0.870346  0.470724  1
  H  H32  1  0.682123  0.025579  0.907746  1
  H  H33  1  0.353233  0.823052  0.733949  1
  H  H34  1  0.869188  0.467218  0.153221  1
  H  H35  1  0.641418  0.787199  0.612159  1
  H  H36  1  0.611157  0.642897  0.786944  1
  H  H37  1  0.027581  0.903625  0.691648  1
