# generated using pymatgen
data_Er3LuZn2Ir3
_symmetry_space_group_name_H-M   'P 1'
_cell_length_a   7.27725300
_cell_length_b   7.26897428
_cell_length_c   3.97459700
_cell_angle_alpha   90.00000000
_cell_angle_beta   90.00000000
_cell_angle_gamma   120.03767750
_symmetry_Int_Tables_number   1
_chemical_formula_structural   Er3LuZn2Ir3
_chemical_formula_sum   'Er3 Lu1 Zn2 Ir3'
_cell_volume   182.01170886
_cell_formula_units_Z   1
loop_
 _symmetry_equiv_pos_site_id
 _symmetry_equiv_pos_as_xyz
  1  'x, y, z'
loop_
 _atom_site_type_symbol
 _atom_site_label
 _atom_site_symmetry_multiplicity
 _atom_site_fract_x
 _atom_site_fract_y
 _atom_site_fract_z
 _atom_site_occupancy
  Er  Er0  1  0.386445  0.000000  0.500001  1
  Er  Er1  1  0.015463  0.434333  0.500001  1
  Er  Er2  1  0.581130  0.565667  0.500001  1
  Lu  Lu3  1  0.759234  0.000000  0.000000  1
  Zn  Zn4  1  0.250504  0.254663  0.000000  1
  Zn  Zn5  1  0.995842  0.745338  0.000000  1
  Ir  Ir6  1  0.667617  0.331159  0.000000  1
  Ir  Ir7  1  0.336458  0.668841  0.000000  1
  Ir  Ir8  1  0.007306  0.000000  0.500001  1
