# generated using pymatgen
data_Sm2AlFe2Re14C3
_symmetry_space_group_name_H-M   'P 1'
_cell_length_a   6.93945798
_cell_length_b   6.93945827
_cell_length_c   6.98962287
_cell_angle_alpha   82.61246282
_cell_angle_beta   82.61245498
_cell_angle_gamma   82.74174579
_symmetry_Int_Tables_number   1
_chemical_formula_structural   Sm2AlFe2Re14C3
_chemical_formula_sum   'Sm2 Al1 Fe2 Re14 C3'
_cell_volume   328.95809852
_cell_formula_units_Z   1
loop_
 _symmetry_equiv_pos_site_id
 _symmetry_equiv_pos_as_xyz
  1  'x, y, z'
loop_
 _atom_site_type_symbol
 _atom_site_label
 _atom_site_symmetry_multiplicity
 _atom_site_fract_x
 _atom_site_fract_y
 _atom_site_fract_z
 _atom_site_occupancy
  Sm  Sm0  1  0.652063  0.652063  0.653037  1
  Sm  Sm1  1  0.347937  0.347937  0.346963  1
  Al  Al2  1  0.000000  0.000000  0.500000  1
  Fe  Fe3  1  0.500000  0.000000  0.000000  1
  Fe  Fe4  1  0.000000  0.500000  0.000000  1
  Re  Re5  1  0.723053  0.276947  0.000000  1
  Re  Re6  1  0.998588  0.719936  0.276365  1
  Re  Re7  1  0.280064  0.001412  0.723635  1
  Re  Re8  1  0.001412  0.280064  0.723635  1
  Re  Re9  1  0.719936  0.998588  0.276365  1
  Re  Re10  1  0.276947  0.723053  0.000000  1
  Re  Re11  1  0.349222  0.349222  0.858579  1
  Re  Re12  1  0.854350  0.349632  0.344338  1
  Re  Re13  1  0.349632  0.854350  0.344338  1
  Re  Re14  1  0.650778  0.650778  0.141421  1
  Re  Re15  1  0.145650  0.650368  0.655662  1
  Re  Re16  1  0.650368  0.145650  0.655662  1
  Re  Re17  1  0.898054  0.898054  0.905285  1
  Re  Re18  1  0.101946  0.101946  0.094715  1
  C  C19  1  0.500000  0.500000  0.000000  1
  C  C20  1  0.000000  0.500000  0.500000  1
  C  C21  1  0.500000  0.000000  0.500000  1
