# generated using pymatgen
data_Dy3Y7Si5P
_symmetry_space_group_name_H-M   'P 1'
_cell_length_a   8.43055600
_cell_length_b   8.43649075
_cell_length_c   6.32674700
_cell_angle_alpha   89.99856162
_cell_angle_beta   89.99766282
_cell_angle_gamma   119.97759172
_symmetry_Int_Tables_number   1
_chemical_formula_structural   Dy3Y7Si5P
_chemical_formula_sum   'Dy3 Y7 Si5 P1'
_cell_volume   389.78683884
_cell_formula_units_Z   1
loop_
 _symmetry_equiv_pos_site_id
 _symmetry_equiv_pos_as_xyz
  1  'x, y, z'
loop_
 _atom_site_type_symbol
 _atom_site_label
 _atom_site_symmetry_multiplicity
 _atom_site_fract_x
 _atom_site_fract_y
 _atom_site_fract_z
 _atom_site_occupancy
  Dy  Dy0  1  0.333770  0.667478  0.500476  1
  Dy  Dy1  1  0.333760  0.667473  0.999523  1
  Dy  Dy2  1  0.666295  0.332537  0.500466  1
  Y  Y3  1  0.001005  0.756692  0.749987  1
  Y  Y4  1  0.000907  0.244410  0.250015  1
  Y  Y5  1  0.756487  0.755593  0.250014  1
  Y  Y6  1  0.754845  0.999995  0.749994  1
  Y  Y7  1  0.244300  0.243313  0.749990  1
  Y  Y8  1  0.243940  0.999997  0.250011  1
  Y  Y9  1  0.666273  0.332532  0.999527  1
  Si  Si10  1  0.394145  0.393657  0.250040  1
  Si  Si11  1  0.000548  0.606369  0.250053  1
  Si  Si12  1  0.000152  0.393485  0.749954  1
  Si  Si13  1  0.606640  0.606526  0.749955  1
  Si  Si14  1  0.607195  0.999975  0.250040  1
  P  P15  1  0.389741  0.999968  0.749954  1
