# generated using pymatgen
data_Nb3AlZnN
_symmetry_space_group_name_H-M   'P 1'
_cell_length_a   7.05616400
_cell_length_b   7.05616400
_cell_length_c   7.05616400
_cell_angle_alpha   90.00000000
_cell_angle_beta   90.00000000
_cell_angle_gamma   90.00000000
_symmetry_Int_Tables_number   1
_chemical_formula_structural   Nb3AlZnN
_chemical_formula_sum   'Nb12 Al4 Zn4 N4'
_cell_volume   351.32252746
_cell_formula_units_Z   4
loop_
 _symmetry_equiv_pos_site_id
 _symmetry_equiv_pos_as_xyz
  1  'x, y, z'
loop_
 _atom_site_type_symbol
 _atom_site_label
 _atom_site_symmetry_multiplicity
 _atom_site_fract_x
 _atom_site_fract_y
 _atom_site_fract_z
 _atom_site_occupancy
  Nb  Nb0  1  0.793017  0.955968  0.374175  1
  Nb  Nb1  1  0.706983  0.044032  0.874175  1
  Nb  Nb2  1  0.206983  0.455968  0.125825  1
  Nb  Nb3  1  0.293017  0.544032  0.625825  1
  Nb  Nb4  1  0.955968  0.374175  0.793017  1
  Nb  Nb5  1  0.044032  0.874175  0.706983  1
  Nb  Nb6  1  0.455968  0.125825  0.206983  1
  Nb  Nb7  1  0.544032  0.625825  0.293017  1
  Nb  Nb8  1  0.374175  0.793017  0.955968  1
  Nb  Nb9  1  0.874175  0.706983  0.044032  1
  Nb  Nb10  1  0.125825  0.206983  0.455968  1
  Nb  Nb11  1  0.625825  0.293017  0.544032  1
  Al  Al12  1  0.572683  0.427317  0.927317  1
  Al  Al13  1  0.427317  0.927317  0.572683  1
  Al  Al14  1  0.927317  0.572683  0.427317  1
  Al  Al15  1  0.072683  0.072683  0.072683  1
  Zn  Zn16  1  0.179644  0.820356  0.320356  1
  Zn  Zn17  1  0.320356  0.179644  0.820356  1
  Zn  Zn18  1  0.820356  0.320356  0.179644  1
  Zn  Zn19  1  0.679644  0.679644  0.679644  1
  N  N20  1  0.876346  0.123654  0.623654  1
  N  N21  1  0.623654  0.876346  0.123654  1
  N  N22  1  0.123654  0.623654  0.876346  1
  N  N23  1  0.376346  0.376346  0.376346  1
