# generated using pymatgen
data_Er8ReOs3C8
_symmetry_space_group_name_H-M   'P 1'
_cell_length_a   5.06924500
_cell_length_b   6.46067015
_cell_length_c   9.72239965
_cell_angle_alpha   89.92908091
_cell_angle_beta   90.00000000
_cell_angle_gamma   90.00000000
_symmetry_Int_Tables_number   1
_chemical_formula_structural   Er8ReOs3C8
_chemical_formula_sum   'Er8 Re1 Os3 C8'
_cell_volume   318.41534361
_cell_formula_units_Z   1
loop_
 _symmetry_equiv_pos_site_id
 _symmetry_equiv_pos_as_xyz
  1  'x, y, z'
loop_
 _atom_site_type_symbol
 _atom_site_label
 _atom_site_symmetry_multiplicity
 _atom_site_fract_x
 _atom_site_fract_y
 _atom_site_fract_z
 _atom_site_occupancy
  Er  Er0  1  0.250000  0.678782  0.554742  1
  Er  Er1  1  0.750000  0.321976  0.445340  1
  Er  Er2  1  0.750000  0.822700  0.054559  1
  Er  Er3  1  0.250000  0.181296  0.944648  1
  Er  Er4  1  0.250000  0.529243  0.215032  1
  Er  Er5  1  0.750000  0.469715  0.781538  1
  Er  Er6  1  0.750000  0.971129  0.717045  1
  Er  Er7  1  0.250000  0.029685  0.285417  1
  Re  Re8  1  0.250000  0.721368  0.867494  1
  Os  Os9  1  0.750000  0.279364  0.133948  1
  Os  Os10  1  0.750000  0.778887  0.365741  1
  Os  Os11  1  0.250000  0.222063  0.632327  1
  C  C12  1  0.250000  0.455103  0.759949  1
  C  C13  1  0.750000  0.543903  0.241649  1
  C  C14  1  0.750000  0.044035  0.258157  1
  C  C15  1  0.250000  0.956149  0.741596  1
  C  C16  1  0.250000  0.824379  0.055621  1
  C  C17  1  0.750000  0.173043  0.946132  1
  C  C18  1  0.750000  0.671944  0.553977  1
  C  C19  1  0.250000  0.325233  0.445089  1
