# generated using pymatgen
data_Tm2Zr2Al17GaRh6
_symmetry_space_group_name_H-M   'P 1'
_cell_length_a   7.49832531
_cell_length_b   7.48676244
_cell_length_c   9.33172900
_cell_angle_alpha   90.00000000
_cell_angle_beta   90.00000000
_cell_angle_gamma   119.60802513
_symmetry_Int_Tables_number   1
_chemical_formula_structural   Tm2Zr2Al17GaRh6
_chemical_formula_sum   'Tm2 Zr2 Al17 Ga1 Rh6'
_cell_volume   455.46283124
_cell_formula_units_Z   1
loop_
 _symmetry_equiv_pos_site_id
 _symmetry_equiv_pos_as_xyz
  1  'x, y, z'
loop_
 _atom_site_type_symbol
 _atom_site_label
 _atom_site_symmetry_multiplicity
 _atom_site_fract_x
 _atom_site_fract_y
 _atom_site_fract_z
 _atom_site_occupancy
  Tm  Tm0  1  0.673192  0.993274  0.250000  1
  Tm  Tm1  1  0.329242  0.006361  0.750000  1
  Zr  Zr2  1  0.994182  0.672933  0.250000  1
  Zr  Zr3  1  0.005322  0.328789  0.750000  1
  Al  Al4  1  0.874616  0.876120  0.750000  1
  Al  Al5  1  0.999006  0.337091  0.074579  1
  Al  Al6  1  0.000929  0.662910  0.924397  1
  Al  Al7  1  0.000929  0.662910  0.575603  1
  Al  Al8  1  0.332846  0.998410  0.421549  1
  Al  Al9  1  0.999006  0.337091  0.425421  1
  Al  Al10  1  0.667121  0.001732  0.578521  1
  Al  Al11  1  0.667121  0.001732  0.921479  1
  Al  Al12  1  0.332846  0.998410  0.078451  1
  Al  Al13  1  0.331032  0.333253  0.557504  1
  Al  Al14  1  0.668346  0.666054  0.444406  1
  Al  Al15  1  0.668346  0.666054  0.055594  1
  Al  Al16  1  0.331032  0.333253  0.942496  1
  Al  Al17  1  0.333556  0.549861  0.250000  1
  Al  Al18  1  0.665614  0.450463  0.750000  1
  Al  Al19  1  0.556935  0.342559  0.250000  1
  Al  Al20  1  0.443847  0.657066  0.750000  1
  Ga  Ga21  1  0.127756  0.127191  0.250000  1
  Rh  Rh22  1  0.671415  0.326705  0.999569  1
  Rh  Rh23  1  0.327577  0.672197  0.001024  1
  Rh  Rh24  1  0.327577  0.672197  0.498976  1
  Rh  Rh25  1  0.671415  0.326705  0.500431  1
  Rh  Rh26  1  0.999598  0.999338  0.998261  1
  Rh  Rh27  1  0.999598  0.999338  0.501739  1
