# generated using pymatgen
data_Dy3Y5Re(B8Os)3
_symmetry_space_group_name_H-M   'P 1'
_cell_length_a   3.66748200
_cell_length_b   9.16725022
_cell_length_c   11.55309901
_cell_angle_alpha   90.08743915
_cell_angle_beta   90.00000000
_cell_angle_gamma   90.00000000
_symmetry_Int_Tables_number   1
_chemical_formula_structural   Dy3Y5Re(B8Os)3
_chemical_formula_sum   'Dy3 Y5 Re1 B24 Os3'
_cell_volume   388.42311440
_cell_formula_units_Z   1
loop_
 _symmetry_equiv_pos_site_id
 _symmetry_equiv_pos_as_xyz
  1  'x, y, z'
loop_
 _atom_site_type_symbol
 _atom_site_label
 _atom_site_symmetry_multiplicity
 _atom_site_fract_x
 _atom_site_fract_y
 _atom_site_fract_z
 _atom_site_occupancy
  Dy  Dy0  1  0.000000  0.055978  0.627714  1
  Dy  Dy1  1  0.000000  0.442959  0.127803  1
  Dy  Dy2  1  0.000000  0.556469  0.872799  1
  Y  Y3  1  0.000000  0.322665  0.414789  1
  Y  Y4  1  0.000000  0.679840  0.588257  1
  Y  Y5  1  0.000000  0.822828  0.083691  1
  Y  Y6  1  0.000000  0.176189  0.913136  1
  Y  Y7  1  0.000000  0.943456  0.372183  1
  Re  Re8  1  0.000000  0.862464  0.821399  1
  B  B9  1  0.500000  0.553863  0.432994  1
  B  B10  1  0.500000  0.446313  0.567379  1
  B  B11  1  0.500000  0.053643  0.067514  1
  B  B12  1  0.500000  0.947054  0.932858  1
  B  B13  1  0.500000  0.747841  0.419363  1
  B  B14  1  0.500000  0.252199  0.580584  1
  B  B15  1  0.500000  0.247675  0.080816  1
  B  B16  1  0.500000  0.751978  0.919146  1
  B  B17  1  0.500000  0.790140  0.266406  1
  B  B18  1  0.500000  0.209348  0.732739  1
  B  B19  1  0.500000  0.290637  0.233528  1
  B  B20  1  0.500000  0.708740  0.766492  1
  B  B21  1  0.500000  0.631270  0.185833  1
  B  B22  1  0.500000  0.368214  0.813789  1
  B  B23  1  0.500000  0.132057  0.314315  1
  B  B24  1  0.500000  0.868417  0.685983  1
  B  B25  1  0.500000  0.983779  0.212629  1
  B  B26  1  0.500000  0.017182  0.787105  1
  B  B27  1  0.500000  0.483514  0.287676  1
  B  B28  1  0.500000  0.516462  0.712884  1
  B  B29  1  0.500000  0.606749  0.030293  1
  B  B30  1  0.500000  0.391683  0.970342  1
  B  B31  1  0.500000  0.108267  0.469664  1
  B  B32  1  0.500000  0.892373  0.529356  1
  Os  Os33  1  0.000000  0.637209  0.321528  1
  Os  Os34  1  0.000000  0.362629  0.678009  1
  Os  Os35  1  0.000000  0.137914  0.179000  1
