# generated using pymatgen
data_Be12ZnNi5Rh6
_symmetry_space_group_name_H-M   'P 1'
_cell_length_a   3.84267200
_cell_length_b   5.44226500
_cell_length_c   11.50647900
_cell_angle_alpha   90.00000000
_cell_angle_beta   89.99918911
_cell_angle_gamma   90.00000000
_symmetry_Int_Tables_number   1
_chemical_formula_structural   Be12ZnNi5Rh6
_chemical_formula_sum   'Be12 Zn1 Ni5 Rh6'
_cell_volume   240.63314659
_cell_formula_units_Z   1
loop_
 _symmetry_equiv_pos_site_id
 _symmetry_equiv_pos_as_xyz
  1  'x, y, z'
loop_
 _atom_site_type_symbol
 _atom_site_label
 _atom_site_symmetry_multiplicity
 _atom_site_fract_x
 _atom_site_fract_y
 _atom_site_fract_z
 _atom_site_occupancy
  Be  Be0  1  0.500000  0.225225  0.000000  1
  Be  Be1  1  0.500000  0.774774  0.000000  1
  Be  Be2  1  0.000329  0.238412  0.175397  1
  Be  Be3  1  0.000329  0.761589  0.175397  1
  Be  Be4  1  0.500337  0.251183  0.333088  1
  Be  Be5  1  0.500337  0.748818  0.333088  1
  Be  Be6  1  0.000000  0.254645  0.500000  1
  Be  Be7  1  0.000000  0.745356  0.500000  1
  Be  Be8  1  0.499664  0.251183  0.666912  1
  Be  Be9  1  0.499664  0.748818  0.666912  1
  Be  Be10  1  0.999671  0.238412  0.824604  1
  Be  Be11  1  0.999671  0.761589  0.824604  1
  Zn  Zn12  1  0.000000  0.500000  0.000000  1
  Ni  Ni13  1  0.500260  0.000000  0.167842  1
  Ni  Ni14  1  0.000285  0.500000  0.332280  1
  Ni  Ni15  1  0.500000  0.000000  0.500000  1
  Ni  Ni16  1  0.999716  0.500000  0.667721  1
  Ni  Ni17  1  0.499741  0.000000  0.832158  1
  Rh  Rh18  1  0.000000  0.000000  0.000000  1
  Rh  Rh19  1  0.500251  0.500000  0.160598  1
  Rh  Rh20  1  0.000234  0.000000  0.337226  1
  Rh  Rh21  1  0.500000  0.500000  0.500000  1
  Rh  Rh22  1  0.999766  0.000000  0.662774  1
  Rh  Rh23  1  0.499749  0.500000  0.839402  1
