# generated using pymatgen
data_Er10In3Bi2Sb
_symmetry_space_group_name_H-M   'P 1'
_cell_length_a   8.95013974
_cell_length_b   8.93689005
_cell_length_c   6.54457300
_cell_angle_alpha   90.00000000
_cell_angle_beta   90.00000000
_cell_angle_gamma   120.09548106
_symmetry_Int_Tables_number   1
_chemical_formula_structural   Er10In3Bi2Sb
_chemical_formula_sum   'Er10 In3 Bi2 Sb1'
_cell_volume   452.90751451
_cell_formula_units_Z   1
loop_
 _symmetry_equiv_pos_site_id
 _symmetry_equiv_pos_as_xyz
  1  'x, y, z'
loop_
 _atom_site_type_symbol
 _atom_site_label
 _atom_site_symmetry_multiplicity
 _atom_site_fract_x
 _atom_site_fract_y
 _atom_site_fract_z
 _atom_site_occupancy
  Er  Er0  1  0.002675  0.767050  0.750000  1
  Er  Er1  1  0.007095  0.239414  0.250000  1
  Er  Er2  1  0.766087  0.758619  0.250000  1
  Er  Er3  1  0.761291  0.996293  0.750000  1
  Er  Er4  1  0.241339  0.233964  0.750000  1
  Er  Er5  1  0.234679  0.000402  0.250000  1
  Er  Er6  1  0.330648  0.665542  0.498911  1
  Er  Er7  1  0.662178  0.336202  0.000505  1
  Er  Er8  1  0.662178  0.336202  0.499495  1
  Er  Er9  1  0.330648  0.665542  0.001089  1
  In  In10  1  0.397942  0.999941  0.750000  1
  In  In11  1  0.395660  0.398299  0.250000  1
  In  In12  1  0.997918  0.601639  0.250000  1
  Bi  Bi13  1  0.996249  0.391126  0.750000  1
  Bi  Bi14  1  0.607620  0.000764  0.250000  1
  Sb  Sb15  1  0.605792  0.609002  0.750000  1
