# generated using pymatgen
data_Er2Pa2In2CoNi3
_symmetry_space_group_name_H-M   'P 1'
_cell_length_a   7.43064436
_cell_length_b   7.43064419
_cell_length_c   3.51220000
_cell_angle_alpha   90.00000000
_cell_angle_beta   90.00000000
_cell_angle_gamma   94.35037288
_symmetry_Int_Tables_number   1
_chemical_formula_structural   Er2Pa2In2CoNi3
_chemical_formula_sum   'Er2 Pa2 In2 Co1 Ni3'
_cell_volume   193.36554778
_cell_formula_units_Z   1
loop_
 _symmetry_equiv_pos_site_id
 _symmetry_equiv_pos_as_xyz
  1  'x, y, z'
loop_
 _atom_site_type_symbol
 _atom_site_label
 _atom_site_symmetry_multiplicity
 _atom_site_fract_x
 _atom_site_fract_y
 _atom_site_fract_z
 _atom_site_occupancy
  Er  Er0  1  0.170185  0.329815  0.500000  1
  Er  Er1  1  0.828351  0.671649  0.500000  1
  Pa  Pa2  1  0.674744  0.163420  0.500000  1
  Pa  Pa3  1  0.336580  0.825256  0.500000  1
  In  In4  1  0.502592  0.496679  0.000000  1
  In  In5  1  0.003321  0.997408  0.000000  1
  Co  Co6  1  0.609124  0.890876  0.000000  1
  Ni  Ni7  1  0.133707  0.634634  0.000000  1
  Ni  Ni8  1  0.865366  0.366293  0.000000  1
  Ni  Ni9  1  0.376030  0.123970  0.000000  1
