# generated using pymatgen
data_YbSm3(Ga8Pt3)3
_symmetry_space_group_name_H-M   'P 1'
_cell_length_a   7.55876807
_cell_length_b   7.62434262
_cell_length_c   13.42102440
_cell_angle_alpha   84.64762185
_cell_angle_beta   79.30187337
_cell_angle_gamma   60.11862374
_symmetry_Int_Tables_number   1
_chemical_formula_structural   YbSm3(Ga8Pt3)3
_chemical_formula_sum   'Yb1 Sm3 Ga24 Pt9'
_cell_volume   658.98042785
_cell_formula_units_Z   1
loop_
 _symmetry_equiv_pos_site_id
 _symmetry_equiv_pos_as_xyz
  1  'x, y, z'
loop_
 _atom_site_type_symbol
 _atom_site_label
 _atom_site_symmetry_multiplicity
 _atom_site_fract_x
 _atom_site_fract_y
 _atom_site_fract_z
 _atom_site_occupancy
  Yb  Yb0  1  0.395091  0.167996  0.807678  1
  Sm  Sm1  1  0.605143  0.833056  0.190007  1
  Sm  Sm2  1  0.731539  0.498919  0.810503  1
  Sm  Sm3  1  0.267882  0.501244  0.189336  1
  Ga  Ga4  1  0.685085  0.836666  0.939153  1
  Ga  Ga5  1  0.313317  0.166299  0.058170  1
  Ga  Ga6  1  0.146852  0.831997  0.559917  1
  Ga  Ga7  1  0.853006  0.167919  0.440215  1
  Ga  Ga8  1  0.479608  0.166575  0.557167  1
  Ga  Ga9  1  0.520455  0.833363  0.443268  1
  Ga  Ga10  1  0.219754  0.164830  0.326571  1
  Ga  Ga11  1  0.779385  0.836710  0.673388  1
  Ga  Ga12  1  0.437359  0.503405  0.672471  1
  Ga  Ga13  1  0.562725  0.495301  0.327483  1
  Ga  Ga14  1  0.109261  0.161993  0.671660  1
  Ga  Ga15  1  0.892081  0.837786  0.328245  1
  Ga  Ga16  1  0.356607  0.496125  0.939531  1
  Ga  Ga17  1  0.643036  0.501508  0.060171  1
  Ga  Ga18  1  0.020793  0.168027  0.946872  1
  Ga  Ga19  1  0.980760  0.831267  0.053531  1
  Ga  Ga20  1  0.185896  0.499184  0.442507  1
  Ga  Ga21  1  0.814156  0.500731  0.557832  1
  Ga  Ga22  1  0.736704  0.163655  0.182783  1
  Ga  Ga23  1  0.264659  0.835671  0.817718  1
  Ga  Ga24  1  0.060750  0.631616  0.816951  1
  Ga  Ga25  1  0.938756  0.367892  0.183720  1
  Ga  Ga26  1  0.856477  0.040052  0.816660  1
  Ga  Ga27  1  0.142930  0.960387  0.183839  1
  Pt  Pt28  1  0.118547  0.495261  0.638577  1
  Pt  Pt29  1  0.882226  0.504192  0.361868  1
  Pt  Pt30  1  0.660640  0.169848  0.000197  1
  Pt  Pt31  1  0.339592  0.829474  0.000944  1
  Pt  Pt32  1  0.540465  0.167362  0.361408  1
  Pt  Pt33  1  0.458901  0.833575  0.639010  1
  Pt  Pt34  1  0.780696  0.171863  0.636529  1
  Pt  Pt35  1  0.219934  0.827845  0.363532  1
  Pt  Pt36  1  0.998933  0.500410  0.000586  1
