# generated using pymatgen
data_Gd2CoB10
_symmetry_space_group_name_H-M   'P 1'
_cell_length_a   4.15633800
_cell_length_b   5.57349100
_cell_length_c   11.11260700
_cell_angle_alpha   90.00000000
_cell_angle_beta   90.00000000
_cell_angle_gamma   90.00000000
_symmetry_Int_Tables_number   1
_chemical_formula_structural   Gd2CoB10
_chemical_formula_sum   'Gd4 Co2 B20'
_cell_volume   257.42701313
_cell_formula_units_Z   2
loop_
 _symmetry_equiv_pos_site_id
 _symmetry_equiv_pos_as_xyz
  1  'x, y, z'
loop_
 _atom_site_type_symbol
 _atom_site_label
 _atom_site_symmetry_multiplicity
 _atom_site_fract_x
 _atom_site_fract_y
 _atom_site_fract_z
 _atom_site_occupancy
  Gd  Gd0  1  0.500000  0.199806  0.366043  1
  Gd  Gd1  1  0.500000  0.800194  0.633957  1
  Gd  Gd2  1  0.500000  0.300194  0.866043  1
  Gd  Gd3  1  0.500000  0.699806  0.133957  1
  Co  Co4  1  0.000000  0.000000  0.000000  1
  Co  Co5  1  0.000000  0.500000  0.500000  1
  B  B6  1  0.000000  0.372381  0.039962  1
  B  B7  1  0.000000  0.627619  0.960038  1
  B  B8  1  0.000000  0.127619  0.539962  1
  B  B9  1  0.000000  0.872381  0.460038  1
  B  B10  1  0.000000  0.343760  0.197624  1
  B  B11  1  0.000000  0.656240  0.802376  1
  B  B12  1  0.000000  0.156240  0.697624  1
  B  B13  1  0.000000  0.843760  0.302376  1
  B  B14  1  0.000000  0.032531  0.186729  1
  B  B15  1  0.000000  0.967469  0.813271  1
  B  B16  1  0.000000  0.467469  0.686729  1
  B  B17  1  0.000000  0.532531  0.313271  1
  B  B18  1  0.299684  0.201055  0.112881  1
  B  B19  1  0.700316  0.798945  0.887119  1
  B  B20  1  0.299684  0.798945  0.887119  1
  B  B21  1  0.700316  0.298945  0.612881  1
  B  B22  1  0.700316  0.201055  0.112881  1
  B  B23  1  0.299684  0.701055  0.387119  1
  B  B24  1  0.700316  0.701055  0.387119  1
  B  B25  1  0.299684  0.298945  0.612881  1
