# generated using pymatgen
data_Tb16Cd4CoRuPt2
_symmetry_space_group_name_H-M   'P 1'
_cell_length_a   9.67068112
_cell_length_b   9.68462301
_cell_length_c   9.65206053
_cell_angle_alpha   60.07029489
_cell_angle_beta   59.96946954
_cell_angle_gamma   60.11222230
_symmetry_Int_Tables_number   1
_chemical_formula_structural   Tb16Cd4CoRuPt2
_chemical_formula_sum   'Tb16 Cd4 Co1 Ru1 Pt2'
_cell_volume   639.94375148
_cell_formula_units_Z   1
loop_
 _symmetry_equiv_pos_site_id
 _symmetry_equiv_pos_as_xyz
  1  'x, y, z'
loop_
 _atom_site_type_symbol
 _atom_site_label
 _atom_site_symmetry_multiplicity
 _atom_site_fract_x
 _atom_site_fract_y
 _atom_site_fract_z
 _atom_site_occupancy
  Tb  Tb0  1  0.440254  0.439422  0.051511  1
  Tb  Tb1  1  0.591121  0.597272  0.603447  1
  Tb  Tb2  1  0.186694  0.816369  0.811813  1
  Tb  Tb3  1  0.064726  0.055628  0.437219  1
  Tb  Tb4  1  0.437121  0.064419  0.058360  1
  Tb  Tb5  1  0.813647  0.187657  0.813965  1
  Tb  Tb6  1  0.441379  0.055113  0.438858  1
  Tb  Tb7  1  0.596294  0.198963  0.610800  1
  Tb  Tb8  1  0.810085  0.814632  0.189077  1
  Tb  Tb9  1  0.205799  0.598346  0.604291  1
  Tb  Tb10  1  0.811421  0.187531  0.188404  1
  Tb  Tb11  1  0.058438  0.442129  0.440364  1
  Tb  Tb12  1  0.187385  0.814007  0.188728  1
  Tb  Tb13  1  0.598984  0.605722  0.197471  1
  Tb  Tb14  1  0.185717  0.187059  0.813302  1
  Tb  Tb15  1  0.068151  0.438357  0.052111  1
  Cd  Cd16  1  0.831232  0.830545  0.506667  1
  Cd  Cd17  1  0.831407  0.831248  0.830015  1
  Cd  Cd18  1  0.506015  0.831334  0.830290  1
  Cd  Cd19  1  0.831344  0.507012  0.829770  1
  Co  Co20  1  0.392540  0.390498  0.826338  1
  Ru  Ru21  1  0.392536  0.825215  0.391878  1
  Pt  Pt22  1  0.394682  0.390540  0.392820  1
  Pt  Pt23  1  0.823024  0.390978  0.392500  1
