# generated using pymatgen
data_Sm3ThCdRu
_symmetry_space_group_name_H-M   'P 1'
_cell_length_a   9.84399324
_cell_length_b   9.84399355
_cell_length_c   9.84399200
_cell_angle_alpha   59.99999850
_cell_angle_beta   59.99999744
_cell_angle_gamma   59.99999935
_symmetry_Int_Tables_number   1
_chemical_formula_structural   Sm3ThCdRu
_chemical_formula_sum   'Sm12 Th4 Cd4 Ru4'
_cell_volume   674.52626668
_cell_formula_units_Z   4
loop_
 _symmetry_equiv_pos_site_id
 _symmetry_equiv_pos_as_xyz
  1  'x, y, z'
loop_
 _atom_site_type_symbol
 _atom_site_label
 _atom_site_symmetry_multiplicity
 _atom_site_fract_x
 _atom_site_fract_y
 _atom_site_fract_z
 _atom_site_occupancy
  Sm  Sm0  1  0.810154  0.189846  0.189846  1
  Sm  Sm1  1  0.189846  0.810154  0.810154  1
  Sm  Sm2  1  0.189846  0.810154  0.189846  1
  Sm  Sm3  1  0.810154  0.189846  0.810154  1
  Sm  Sm4  1  0.189846  0.189846  0.810154  1
  Sm  Sm5  1  0.810154  0.810154  0.189846  1
  Sm  Sm6  1  0.937960  0.562040  0.562040  1
  Sm  Sm7  1  0.562040  0.937960  0.937960  1
  Sm  Sm8  1  0.562040  0.937960  0.562040  1
  Sm  Sm9  1  0.937960  0.562040  0.937960  1
  Sm  Sm10  1  0.562040  0.562040  0.937960  1
  Sm  Sm11  1  0.937960  0.937960  0.562040  1
  Th  Th12  1  0.346275  0.346275  0.346275  1
  Th  Th13  1  0.346275  0.346275  0.961177  1
  Th  Th14  1  0.346275  0.961177  0.346275  1
  Th  Th15  1  0.961177  0.346275  0.346275  1
  Cd  Cd16  1  0.580420  0.580420  0.580420  1
  Cd  Cd17  1  0.580420  0.580420  0.258738  1
  Cd  Cd18  1  0.580420  0.258738  0.580420  1
  Cd  Cd19  1  0.258738  0.580420  0.580420  1
  Ru  Ru20  1  0.144725  0.144725  0.144725  1
  Ru  Ru21  1  0.144725  0.144725  0.565823  1
  Ru  Ru22  1  0.144725  0.565823  0.144725  1
  Ru  Ru23  1  0.565823  0.144725  0.144725  1
