# generated using pymatgen
data_Tb3TlIn3IrRh
_symmetry_space_group_name_H-M   'P 1'
_cell_length_a   7.88707200
_cell_length_b   7.88707052
_cell_length_c   3.89269800
_cell_angle_alpha   90.00000000
_cell_angle_beta   90.00000000
_cell_angle_gamma   120.00000622
_symmetry_Int_Tables_number   1
_chemical_formula_structural   Tb3TlIn3IrRh
_chemical_formula_sum   'Tb3 Tl1 In3 Ir1 Rh1'
_cell_volume   209.70696051
_cell_formula_units_Z   1
loop_
 _symmetry_equiv_pos_site_id
 _symmetry_equiv_pos_as_xyz
  1  'x, y, z'
loop_
 _atom_site_type_symbol
 _atom_site_label
 _atom_site_symmetry_multiplicity
 _atom_site_fract_x
 _atom_site_fract_y
 _atom_site_fract_z
 _atom_site_occupancy
  Tb  Tb0  1  0.033069  0.611777  0.500000  1
  Tb  Tb1  1  0.388223  0.421292  0.500000  1
  Tb  Tb2  1  0.578708  0.966931  0.500000  1
  Tl  Tl3  1  0.666667  0.333333  0.000000  1
  In  In4  1  0.745121  0.753614  0.000000  1
  In  In5  1  0.008493  0.254879  0.000000  1
  In  In6  1  0.246386  0.991507  0.000000  1
  Ir  Ir7  1  0.333333  0.666667  0.000000  1
  Rh  Rh8  1  0.000000  0.000000  0.500000  1
