# generated using pymatgen
data_Hf7Zr(FeBi2)2
_symmetry_space_group_name_H-M   'P 1'
_cell_length_a   8.23720087
_cell_length_b   8.23720056
_cell_length_c   8.27303723
_cell_angle_alpha   95.95429073
_cell_angle_beta   95.96419993
_cell_angle_gamma   142.32164989
_symmetry_Int_Tables_number   1
_chemical_formula_structural   Hf7Zr(FeBi2)2
_chemical_formula_sum   'Hf7 Zr1 Fe2 Bi4'
_cell_volume   324.88813512
_cell_formula_units_Z   1
loop_
 _symmetry_equiv_pos_site_id
 _symmetry_equiv_pos_as_xyz
  1  'x, y, z'
loop_
 _atom_site_type_symbol
 _atom_site_label
 _atom_site_symmetry_multiplicity
 _atom_site_fract_x
 _atom_site_fract_y
 _atom_site_fract_z
 _atom_site_occupancy
  Hf  Hf0  1  0.581662  0.689919  0.271581  1
  Hf  Hf1  1  0.922179  0.191402  0.113582  1
  Hf  Hf2  1  0.308292  0.581094  0.889385  1
  Hf  Hf3  1  0.807019  0.918641  0.725660  1
  Hf  Hf4  1  0.691969  0.422958  0.114928  1
  Hf  Hf5  1  0.082196  0.810736  0.892932  1
  Hf  Hf6  1  0.420708  0.307547  0.728255  1
  Zr  Zr7  1  0.198144  0.082479  0.280623  1
  Fe  Fe8  1  0.741988  0.746653  0.988217  1
  Fe  Fe9  1  0.241563  0.246229  0.988217  1
  Bi  Bi10  1  0.363168  0.860965  0.224133  1
  Bi  Bi11  1  0.137267  0.362705  0.499973  1
  Bi  Bi12  1  0.640064  0.140460  0.780524  1
  Bi  Bi13  1  0.863781  0.638212  0.501993  1
