# generated using pymatgen
data_CeDyPaCo2
_symmetry_space_group_name_H-M   'P 1'
_cell_length_a   5.94971014
_cell_length_b   5.94970995
_cell_length_c   5.94971061
_cell_angle_alpha   145.06734753
_cell_angle_beta   118.03390770
_cell_angle_gamma   73.15283398
_symmetry_Int_Tables_number   1
_chemical_formula_structural   CeDyPaCo2
_chemical_formula_sum   'Ce1 Dy1 Pa1 Co2'
_cell_volume   104.53309041
_cell_formula_units_Z   1
loop_
 _symmetry_equiv_pos_site_id
 _symmetry_equiv_pos_as_xyz
  1  'x, y, z'
loop_
 _atom_site_type_symbol
 _atom_site_label
 _atom_site_symmetry_multiplicity
 _atom_site_fract_x
 _atom_site_fract_y
 _atom_site_fract_z
 _atom_site_occupancy
  Ce  Ce0  1  0.308815  0.808815  0.500000  1
  Dy  Dy1  1  0.695445  0.195445  0.500000  1
  Pa  Pa2  1  0.004972  0.004972  0.000000  1
  Co  Co3  1  0.279040  0.495384  0.783656  1
  Co  Co4  1  0.711728  0.495384  0.216344  1
