# generated using pymatgen
data_TbY18Lu(Cd3Ru)2
_symmetry_space_group_name_H-M   'P 1'
_cell_length_a   9.63884024
_cell_length_b   9.63883898
_cell_length_c   9.88507232
_cell_angle_alpha   90.02520164
_cell_angle_beta   89.97479756
_cell_angle_gamma   119.99501091
_symmetry_Int_Tables_number   1
_chemical_formula_structural   TbY18Lu(Cd3Ru)2
_chemical_formula_sum   'Tb1 Y18 Lu1 Cd6 Ru2'
_cell_volume   795.39300135
_cell_formula_units_Z   1
loop_
 _symmetry_equiv_pos_site_id
 _symmetry_equiv_pos_as_xyz
  1  'x, y, z'
loop_
 _atom_site_type_symbol
 _atom_site_label
 _atom_site_symmetry_multiplicity
 _atom_site_fract_x
 _atom_site_fract_y
 _atom_site_fract_z
 _atom_site_occupancy
  Tb  Tb0  1  0.209134  0.790866  0.439901  1
  Y  Y1  1  0.999994  0.000006  0.000057  1
  Y  Y2  1  0.208915  0.417786  0.440277  1
  Y  Y3  1  0.582214  0.791085  0.440277  1
  Y  Y4  1  0.791046  0.208954  0.559772  1
  Y  Y5  1  0.791027  0.582020  0.559791  1
  Y  Y6  1  0.417980  0.208973  0.559791  1
  Y  Y7  1  0.790099  0.209901  0.940182  1
  Y  Y8  1  0.790122  0.580199  0.940206  1
  Y  Y9  1  0.419801  0.209878  0.940206  1
  Y  Y10  1  0.209853  0.790147  0.059748  1
  Y  Y11  1  0.209957  0.419807  0.059786  1
  Y  Y12  1  0.580193  0.790043  0.059786  1
  Y  Y13  1  0.541273  0.458727  0.250162  1
  Y  Y14  1  0.541332  0.082603  0.250166  1
  Y  Y15  1  0.917397  0.458668  0.250166  1
  Y  Y16  1  0.458709  0.541291  0.749850  1
  Y  Y17  1  0.458743  0.917409  0.749828  1
  Y  Y18  1  0.082591  0.541257  0.749828  1
  Lu  Lu19  1  0.999975  0.000025  0.499954  1
  Cd  Cd20  1  0.885939  0.114061  0.251620  1
  Cd  Cd21  1  0.885882  0.771879  0.251548  1
  Cd  Cd22  1  0.228121  0.114118  0.251548  1
  Cd  Cd23  1  0.114036  0.885964  0.748496  1
  Cd  Cd24  1  0.114061  0.228150  0.748397  1
  Cd  Cd25  1  0.771850  0.885939  0.748397  1
  Ru  Ru26  1  0.333096  0.666904  0.250631  1
  Ru  Ru27  1  0.666659  0.333341  0.749629  1
