# generated using pymatgen
data_Tb15HoCd2(Co2Hg)2
_symmetry_space_group_name_H-M   'P 1'
_cell_length_a   9.54082730
_cell_length_b   9.54082824
_cell_length_c   9.53771100
_cell_angle_alpha   60.01081089
_cell_angle_beta   60.01080762
_cell_angle_gamma   60.10138025
_symmetry_Int_Tables_number   1
_chemical_formula_structural   Tb15HoCd2(Co2Hg)2
_chemical_formula_sum   'Tb15 Ho1 Cd2 Co4 Hg2'
_cell_volume   614.47463745
_cell_formula_units_Z   1
loop_
 _symmetry_equiv_pos_site_id
 _symmetry_equiv_pos_as_xyz
  1  'x, y, z'
loop_
 _atom_site_type_symbol
 _atom_site_label
 _atom_site_symmetry_multiplicity
 _atom_site_fract_x
 _atom_site_fract_y
 _atom_site_fract_z
 _atom_site_occupancy
  Tb  Tb0  1  0.596601  0.596601  0.595902  1
  Tb  Tb1  1  0.188169  0.811088  0.811742  1
  Tb  Tb2  1  0.060720  0.060720  0.439280  1
  Tb  Tb3  1  0.437667  0.061379  0.061871  1
  Tb  Tb4  1  0.811088  0.188169  0.811742  1
  Tb  Tb5  1  0.437667  0.061379  0.439082  1
  Tb  Tb6  1  0.597859  0.208542  0.596799  1
  Tb  Tb7  1  0.811558  0.811558  0.188442  1
  Tb  Tb8  1  0.208542  0.597859  0.596799  1
  Tb  Tb9  1  0.811088  0.188169  0.189001  1
  Tb  Tb10  1  0.061379  0.437667  0.439082  1
  Tb  Tb11  1  0.188169  0.811088  0.189001  1
  Tb  Tb12  1  0.596601  0.596601  0.210896  1
  Tb  Tb13  1  0.188429  0.188429  0.811571  1
  Tb  Tb14  1  0.061379  0.437667  0.061871  1
  Ho  Ho15  1  0.438122  0.438122  0.061878  1
  Cd  Cd16  1  0.507951  0.829786  0.831131  1
  Cd  Cd17  1  0.829786  0.507951  0.831131  1
  Co  Co18  1  0.391311  0.391311  0.389713  1
  Co  Co19  1  0.827870  0.391376  0.390377  1
  Co  Co20  1  0.391376  0.827870  0.390377  1
  Co  Co21  1  0.391311  0.391311  0.827666  1
  Hg  Hg22  1  0.832678  0.832678  0.500193  1
  Hg  Hg23  1  0.832678  0.832678  0.834450  1
