# generated using pymatgen
data_LiNd3Al7Zn
_symmetry_space_group_name_H-M   'P 1'
_cell_length_a   9.40533504
_cell_length_b   9.40533496
_cell_length_c   9.40533515
_cell_angle_alpha   34.90240623
_cell_angle_beta   34.90240616
_cell_angle_gamma   34.90240554
_symmetry_Int_Tables_number   1
_chemical_formula_structural   LiNd3Al7Zn
_chemical_formula_sum   'Li1 Nd3 Al7 Zn1'
_cell_volume   243.16985467
_cell_formula_units_Z   1
loop_
 _symmetry_equiv_pos_site_id
 _symmetry_equiv_pos_as_xyz
  1  'x, y, z'
loop_
 _atom_site_type_symbol
 _atom_site_label
 _atom_site_symmetry_multiplicity
 _atom_site_fract_x
 _atom_site_fract_y
 _atom_site_fract_z
 _atom_site_occupancy
  Li  Li0  1  0.664785  0.664785  0.664785  1
  Nd  Nd1  1  0.141297  0.141297  0.141297  1
  Nd  Nd2  1  0.860286  0.860286  0.860286  1
  Nd  Nd3  1  0.999922  0.999922  0.999922  1
  Al  Al4  1  0.584685  0.584685  0.074782  1
  Al  Al5  1  0.416005  0.923001  0.416005  1
  Al  Al6  1  0.584685  0.074782  0.584685  1
  Al  Al7  1  0.074782  0.584685  0.584685  1
  Al  Al8  1  0.416005  0.416005  0.923001  1
  Al  Al9  1  0.499206  0.499206  0.499206  1
  Al  Al10  1  0.923001  0.416005  0.416005  1
  Zn  Zn11  1  0.335342  0.335342  0.335342  1
