# generated using pymatgen
data_RbTb6(CI6)2
_symmetry_space_group_name_H-M   'P 1'
_cell_length_a   9.47427943
_cell_length_b   9.46368125
_cell_length_c   9.90532300
_cell_angle_alpha   72.42124652
_cell_angle_beta   71.39484823
_cell_angle_gamma   73.10274346
_symmetry_Int_Tables_number   1
_chemical_formula_structural   RbTb6(CI6)2
_chemical_formula_sum   'Rb1 Tb6 C2 I12'
_cell_volume   783.63226639
_cell_formula_units_Z   1
loop_
 _symmetry_equiv_pos_site_id
 _symmetry_equiv_pos_as_xyz
  1  'x, y, z'
loop_
 _atom_site_type_symbol
 _atom_site_label
 _atom_site_symmetry_multiplicity
 _atom_site_fract_x
 _atom_site_fract_y
 _atom_site_fract_z
 _atom_site_occupancy
  Rb  Rb0  1  0.999999  0.500001  0.999996  1
  Tb  Tb1  1  0.473756  0.107210  0.195513  1
  Tb  Tb2  1  0.763994  0.031648  0.412412  1
  Tb  Tb3  1  0.587013  0.738638  0.475754  1
  Tb  Tb4  1  0.412989  0.261362  0.524245  1
  Tb  Tb5  1  0.236007  0.968352  0.587587  1
  Tb  Tb6  1  0.526245  0.892788  0.804489  1
  C  C7  1  0.493255  0.024888  0.426548  1
  C  C8  1  0.506743  0.975114  0.573459  1
  I  I9  1  0.798076  0.158611  0.079632  1
  I  I10  1  0.584459  0.780557  0.141012  1
  I  I11  1  0.352199  0.432840  0.221597  1
  I  I12  1  0.135777  0.068151  0.293492  1
  I  I13  1  0.923765  0.720316  0.355295  1
  I  I14  1  0.715655  0.364363  0.432208  1
  I  I15  1  0.284347  0.635638  0.567794  1
  I  I16  1  0.076237  0.279683  0.644704  1
  I  I17  1  0.864224  0.931849  0.706507  1
  I  I18  1  0.647803  0.567158  0.778402  1
  I  I19  1  0.415537  0.219444  0.858988  1
  I  I20  1  0.201925  0.841388  0.920367  1
