# generated using pymatgen
data_TmLu3(Al3Ir)6
_symmetry_space_group_name_H-M   'P 1'
_cell_length_a   7.53016537
_cell_length_b   7.53164818
_cell_length_c   9.41294700
_cell_angle_alpha   90.00000000
_cell_angle_beta   90.00000000
_cell_angle_gamma   119.56645285
_symmetry_Int_Tables_number   1
_chemical_formula_structural   TmLu3(Al3Ir)6
_chemical_formula_sum   'Tm1 Lu3 Al18 Ir6'
_cell_volume   464.33514991
_cell_formula_units_Z   1
loop_
 _symmetry_equiv_pos_site_id
 _symmetry_equiv_pos_as_xyz
  1  'x, y, z'
loop_
 _atom_site_type_symbol
 _atom_site_label
 _atom_site_symmetry_multiplicity
 _atom_site_fract_x
 _atom_site_fract_y
 _atom_site_fract_z
 _atom_site_occupancy
  Tm  Tm0  1  0.994653  0.671271  0.250000  1
  Lu  Lu1  1  0.005332  0.328605  0.750000  1
  Lu  Lu2  1  0.671212  0.994754  0.250000  1
  Lu  Lu3  1  0.328675  0.005447  0.750000  1
  Al  Al4  1  0.129144  0.129438  0.250000  1
  Al  Al5  1  0.871007  0.871154  0.750000  1
  Al  Al6  1  0.000239  0.334568  0.074414  1
  Al  Al7  1  0.999827  0.665009  0.924472  1
  Al  Al8  1  0.999827  0.665009  0.575528  1
  Al  Al9  1  0.335397  0.000614  0.425531  1
  Al  Al10  1  0.000239  0.334568  0.425586  1
  Al  Al11  1  0.665010  0.999833  0.575026  1
  Al  Al12  1  0.665010  0.999833  0.924974  1
  Al  Al13  1  0.335397  0.000614  0.074469  1
  Al  Al14  1  0.332845  0.332865  0.553426  1
  Al  Al15  1  0.666800  0.667166  0.447307  1
  Al  Al16  1  0.666800  0.667166  0.052693  1
  Al  Al17  1  0.332845  0.332865  0.946574  1
  Al  Al18  1  0.340331  0.549317  0.250000  1
  Al  Al19  1  0.659907  0.450445  0.750000  1
  Al  Al20  1  0.548847  0.339470  0.250000  1
  Al  Al21  1  0.450598  0.660098  0.750000  1
  Ir  Ir22  1  0.672573  0.327461  0.999948  1
  Ir  Ir23  1  0.327540  0.672576  0.999987  1
  Ir  Ir24  1  0.327540  0.672576  0.500013  1
  Ir  Ir25  1  0.672573  0.327461  0.500052  1
  Ir  Ir26  1  0.999917  0.999909  0.999969  1
  Ir  Ir27  1  0.999917  0.999909  0.500031  1
