# generated using pymatgen
data_Ba3LiAg10Sn
_symmetry_space_group_name_H-M   'P 1'
_cell_length_a   9.96340700
_cell_length_b   9.96340626
_cell_length_c   8.60157300
_cell_angle_alpha   90.00000000
_cell_angle_beta   90.00000000
_cell_angle_gamma   119.99999915
_symmetry_Int_Tables_number   1
_chemical_formula_structural   Ba3LiAg10Sn
_chemical_formula_sum   'Ba6 Li2 Ag20 Sn2'
_cell_volume   739.47624158
_cell_formula_units_Z   2
loop_
 _symmetry_equiv_pos_site_id
 _symmetry_equiv_pos_as_xyz
  1  'x, y, z'
loop_
 _atom_site_type_symbol
 _atom_site_label
 _atom_site_symmetry_multiplicity
 _atom_site_fract_x
 _atom_site_fract_y
 _atom_site_fract_z
 _atom_site_occupancy
  Ba  Ba0  1  0.523749  0.047499  0.244404  1
  Ba  Ba1  1  0.476251  0.952501  0.755596  1
  Ba  Ba2  1  0.952501  0.476251  0.244404  1
  Ba  Ba3  1  0.047499  0.523749  0.755596  1
  Ba  Ba4  1  0.523749  0.476251  0.244404  1
  Ba  Ba5  1  0.476251  0.523749  0.755596  1
  Li  Li6  1  0.000000  0.000000  0.000000  1
  Li  Li7  1  0.000000  0.000000  0.500000  1
  Ag  Ag8  1  0.163664  0.327330  0.062462  1
  Ag  Ag9  1  0.836336  0.672670  0.937538  1
  Ag  Ag10  1  0.672670  0.836336  0.062462  1
  Ag  Ag11  1  0.834809  0.669616  0.563657  1
  Ag  Ag12  1  0.327330  0.163664  0.937538  1
  Ag  Ag13  1  0.165191  0.330384  0.436343  1
  Ag  Ag14  1  0.163664  0.836336  0.062462  1
  Ag  Ag15  1  0.330384  0.165191  0.563657  1
  Ag  Ag16  1  0.836336  0.163664  0.937538  1
  Ag  Ag17  1  0.669616  0.834809  0.436343  1
  Ag  Ag18  1  0.834809  0.165191  0.563657  1
  Ag  Ag19  1  0.165191  0.834809  0.436343  1
  Ag  Ag20  1  0.900390  0.800781  0.252756  1
  Ag  Ag21  1  0.099610  0.199219  0.747244  1
  Ag  Ag22  1  0.199219  0.099610  0.252756  1
  Ag  Ag23  1  0.800781  0.900390  0.747244  1
  Ag  Ag24  1  0.900390  0.099610  0.252756  1
  Ag  Ag25  1  0.099610  0.900390  0.747244  1
  Ag  Ag26  1  0.333333  0.666667  0.075203  1
  Ag  Ag27  1  0.666667  0.333333  0.924797  1
  Sn  Sn28  1  0.666667  0.333333  0.570651  1
  Sn  Sn29  1  0.333333  0.666667  0.429349  1
