# generated using pymatgen
data_Yb3Y(Ru2O7)2
_symmetry_space_group_name_H-M   'P 1'
_cell_length_a   7.21540289
_cell_length_b   7.21540221
_cell_length_c   7.21540269
_cell_angle_alpha   60.22505719
_cell_angle_beta   60.22506413
_cell_angle_gamma   60.22506343
_symmetry_Int_Tables_number   1
_chemical_formula_structural   Yb3Y(Ru2O7)2
_chemical_formula_sum   'Yb3 Y1 Ru4 O14'
_cell_volume   266.97709338
_cell_formula_units_Z   1
loop_
 _symmetry_equiv_pos_site_id
 _symmetry_equiv_pos_as_xyz
  1  'x, y, z'
loop_
 _atom_site_type_symbol
 _atom_site_label
 _atom_site_symmetry_multiplicity
 _atom_site_fract_x
 _atom_site_fract_y
 _atom_site_fract_z
 _atom_site_occupancy
  Yb  Yb0  1  0.500000  0.000000  0.500000  1
  Yb  Yb1  1  0.000000  0.500000  0.500000  1
  Yb  Yb2  1  0.500000  0.500000  0.000000  1
  Y  Y3  1  0.500000  0.500000  0.500000  1
  Ru  Ru4  1  0.000000  0.000000  0.000000  1
  Ru  Ru5  1  0.000000  0.500000  0.000000  1
  Ru  Ru6  1  0.500000  0.000000  0.000000  1
  Ru  Ru7  1  0.000000  0.000000  0.500000  1
  O  O8  1  0.622873  0.622873  0.622873  1
  O  O9  1  0.377127  0.377127  0.377127  1
  O  O10  1  0.928435  0.928435  0.322677  1
  O  O11  1  0.322677  0.928435  0.928435  1
  O  O12  1  0.928435  0.322677  0.928435  1
  O  O13  1  0.327286  0.327286  0.923360  1
  O  O14  1  0.923360  0.327286  0.327286  1
  O  O15  1  0.327286  0.923360  0.327286  1
  O  O16  1  0.071565  0.071565  0.677323  1
  O  O17  1  0.677323  0.071565  0.071565  1
  O  O18  1  0.071565  0.677323  0.071565  1
  O  O19  1  0.672714  0.672714  0.076640  1
  O  O20  1  0.076640  0.672714  0.672714  1
  O  O21  1  0.672714  0.076640  0.672714  1
