# generated using pymatgen
data_Dy8Y4Co5Sb
_symmetry_space_group_name_H-M   'P 1'
_cell_length_a   8.29730502
_cell_length_b   8.29727562
_cell_length_c   8.29730422
_cell_angle_alpha   110.77467244
_cell_angle_beta   110.69906708
_cell_angle_gamma   106.96868652
_symmetry_Int_Tables_number   1
_chemical_formula_structural   Dy8Y4Co5Sb
_chemical_formula_sum   'Dy8 Y4 Co5 Sb1'
_cell_volume   439.10491739
_cell_formula_units_Z   1
loop_
 _symmetry_equiv_pos_site_id
 _symmetry_equiv_pos_as_xyz
  1  'x, y, z'
loop_
 _atom_site_type_symbol
 _atom_site_label
 _atom_site_symmetry_multiplicity
 _atom_site_fract_x
 _atom_site_fract_y
 _atom_site_fract_z
 _atom_site_occupancy
  Dy  Dy0  1  0.687142  0.379080  0.691938  1
  Dy  Dy1  1  0.312858  0.620920  0.308062  1
  Dy  Dy2  1  0.687142  0.995206  0.308064  1
  Dy  Dy3  1  0.312858  0.004794  0.691936  1
  Dy  Dy4  1  0.599307  0.792733  0.806573  1
  Dy  Dy5  1  0.400693  0.207267  0.193427  1
  Dy  Dy6  1  0.986160  0.792733  0.193426  1
  Dy  Dy7  1  0.013840  0.207267  0.806574  1
  Y  Y8  1  0.813851  0.709310  0.523159  1
  Y  Y9  1  0.186149  0.290690  0.476841  1
  Y  Y10  1  0.186151  0.709310  0.895458  1
  Y  Y11  1  0.813849  0.290690  0.104542  1
  Co  Co12  1  0.625387  0.000000  0.625387  1
  Co  Co13  1  0.374613  0.000000  0.374613  1
  Co  Co14  1  0.111977  0.611977  0.499999  1
  Co  Co15  1  0.888023  0.388023  0.500001  1
  Co  Co16  1  0.000000  0.000000  0.000000  1
  Sb  Sb17  1  0.500000  0.500000  0.000000  1
