# generated using pymatgen
data_Ga2Cu5Se7
_symmetry_space_group_name_H-M   'P 1'
_cell_length_a   6.82030251
_cell_length_b   6.82030190
_cell_length_c   8.79143121
_cell_angle_alpha   82.85104391
_cell_angle_beta   82.85104462
_cell_angle_gamma   48.73024516
_symmetry_Int_Tables_number   1
_chemical_formula_structural   Ga2Cu5Se7
_chemical_formula_sum   'Ga2 Cu5 Se7'
_cell_volume   304.48758156
_cell_formula_units_Z   1
loop_
 _symmetry_equiv_pos_site_id
 _symmetry_equiv_pos_as_xyz
  1  'x, y, z'
loop_
 _atom_site_type_symbol
 _atom_site_label
 _atom_site_symmetry_multiplicity
 _atom_site_fract_x
 _atom_site_fract_y
 _atom_site_fract_z
 _atom_site_occupancy
  Ga  Ga0  1  0.154507  0.699125  0.218006  1
  Ga  Ga1  1  0.300875  0.845493  0.781994  1
  Cu  Cu2  1  0.733551  0.266449  0.500000  1
  Cu  Cu3  1  0.882113  0.404291  0.071713  1
  Cu  Cu4  1  0.595709  0.117887  0.928287  1
  Cu  Cu5  1  0.447502  0.979043  0.357284  1
  Cu  Cu6  1  0.020957  0.552498  0.642716  1
  Se  Se7  1  0.343957  0.366848  0.432750  1
  Se  Se8  1  0.633152  0.656043  0.567250  1
  Se  Se9  1  0.489353  0.510647  0.000000  1
  Se  Se10  1  0.052757  0.096034  0.287609  1
  Se  Se11  1  0.903966  0.947243  0.712391  1
  Se  Se12  1  0.761373  0.802171  0.141679  1
  Se  Se13  1  0.197829  0.238627  0.858321  1
