# generated using pymatgen
data_Sr(Bi3Rh)4
_symmetry_space_group_name_H-M   'P 1'
_cell_length_a   8.56316264
_cell_length_b   8.56316297
_cell_length_c   8.56316300
_cell_angle_alpha   109.47122306
_cell_angle_beta   109.47122385
_cell_angle_gamma   109.47121997
_symmetry_Int_Tables_number   1
_chemical_formula_structural   Sr(Bi3Rh)4
_chemical_formula_sum   'Sr1 Bi12 Rh4'
_cell_volume   483.37111626
_cell_formula_units_Z   1
loop_
 _symmetry_equiv_pos_site_id
 _symmetry_equiv_pos_as_xyz
  1  'x, y, z'
loop_
 _atom_site_type_symbol
 _atom_site_label
 _atom_site_symmetry_multiplicity
 _atom_site_fract_x
 _atom_site_fract_y
 _atom_site_fract_z
 _atom_site_occupancy
  Sr  Sr0  1  0.000000  0.000000  0.000000  1
  Bi  Bi1  1  0.839730  0.663668  0.503397  1
  Bi  Bi2  1  0.160270  0.336332  0.496603  1
  Bi  Bi3  1  0.160270  0.663668  0.823938  1
  Bi  Bi4  1  0.839730  0.336332  0.176062  1
  Bi  Bi5  1  0.663668  0.503397  0.839730  1
  Bi  Bi6  1  0.336332  0.496603  0.160270  1
  Bi  Bi7  1  0.663668  0.823938  0.160270  1
  Bi  Bi8  1  0.336332  0.176062  0.839730  1
  Bi  Bi9  1  0.503397  0.839730  0.663668  1
  Bi  Bi10  1  0.496603  0.160270  0.336332  1
  Bi  Bi11  1  0.176062  0.839730  0.336332  1
  Bi  Bi12  1  0.823938  0.160270  0.663668  1
  Rh  Rh13  1  0.500000  0.500000  0.500000  1
  Rh  Rh14  1  0.500000  0.000000  0.000000  1
  Rh  Rh15  1  0.000000  0.500000  0.000000  1
  Rh  Rh16  1  0.000000  0.000000  0.500000  1
