# generated using pymatgen
data_La4YbPr3(CdPt)2
_symmetry_space_group_name_H-M   'P 1'
_cell_length_a   10.12901511
_cell_length_b   10.12901357
_cell_length_c   10.17060900
_cell_angle_alpha   59.86405950
_cell_angle_beta   59.86406456
_cell_angle_gamma   60.27186749
_symmetry_Int_Tables_number   1
_chemical_formula_structural   La4YbPr3(CdPt)2
_chemical_formula_sum   'La8 Yb2 Pr6 Cd4 Pt4'
_cell_volume   737.82199404
_cell_formula_units_Z   2
loop_
 _symmetry_equiv_pos_site_id
 _symmetry_equiv_pos_as_xyz
  1  'x, y, z'
loop_
 _atom_site_type_symbol
 _atom_site_label
 _atom_site_symmetry_multiplicity
 _atom_site_fract_x
 _atom_site_fract_y
 _atom_site_fract_z
 _atom_site_occupancy
  La  La0  1  0.348250  0.348250  0.352619  1
  La  La1  1  0.348250  0.348250  0.950881  1
  La  La2  1  0.352619  0.950881  0.348250  1
  La  La3  1  0.950881  0.352619  0.348250  1
  La  La4  1  0.808602  0.191398  0.191398  1
  La  La5  1  0.191398  0.808602  0.808602  1
  La  La6  1  0.191398  0.808602  0.191398  1
  La  La7  1  0.808602  0.191398  0.808602  1
  Yb  Yb8  1  0.193002  0.193002  0.806998  1
  Yb  Yb9  1  0.806998  0.806998  0.193002  1
  Pr  Pr10  1  0.935056  0.564944  0.564944  1
  Pr  Pr11  1  0.564944  0.935056  0.935056  1
  Pr  Pr12  1  0.564944  0.935056  0.564944  1
  Pr  Pr13  1  0.935056  0.564944  0.935056  1
  Pr  Pr14  1  0.566111  0.566111  0.933889  1
  Pr  Pr15  1  0.933889  0.933889  0.566111  1
  Cd  Cd16  1  0.580636  0.580636  0.579910  1
  Cd  Cd17  1  0.580636  0.580636  0.258817  1
  Cd  Cd18  1  0.579910  0.258817  0.580636  1
  Cd  Cd19  1  0.258817  0.579910  0.580636  1
  Pt  Pt20  1  0.141851  0.141851  0.143508  1
  Pt  Pt21  1  0.141851  0.141851  0.572792  1
  Pt  Pt22  1  0.143508  0.572792  0.141851  1
  Pt  Pt23  1  0.572792  0.143508  0.141851  1
