# generated using pymatgen
data_Dy3Lu2ScFeTe2
_symmetry_space_group_name_H-M   'P 1'
_cell_length_a   8.12065177
_cell_length_b   8.20449157
_cell_length_c   3.96898400
_cell_angle_alpha   90.00000000
_cell_angle_beta   90.00000000
_cell_angle_gamma   120.34212102
_symmetry_Int_Tables_number   1
_chemical_formula_structural   Dy3Lu2ScFeTe2
_chemical_formula_sum   'Dy3 Lu2 Sc1 Fe1 Te2'
_cell_volume   228.21542241
_cell_formula_units_Z   1
loop_
 _symmetry_equiv_pos_site_id
 _symmetry_equiv_pos_as_xyz
  1  'x, y, z'
loop_
 _atom_site_type_symbol
 _atom_site_label
 _atom_site_symmetry_multiplicity
 _atom_site_fract_x
 _atom_site_fract_y
 _atom_site_fract_z
 _atom_site_occupancy
  Dy  Dy0  1  0.614657  0.002058  0.500000  1
  Dy  Dy1  1  0.385343  0.387401  0.500000  1
  Dy  Dy2  1  0.000000  0.599729  0.500000  1
  Lu  Lu3  1  0.771627  0.768965  0.000000  1
  Lu  Lu4  1  0.228373  0.997338  0.000000  1
  Sc  Sc5  1  0.000000  0.228501  0.000000  1
  Fe  Fe6  1  0.000000  0.019963  0.500000  1
  Te  Te7  1  0.330471  0.663259  0.000000  1
  Te  Te8  1  0.669529  0.332787  0.000000  1
