# generated using pymatgen
data_La2ZnGaPd2
_symmetry_space_group_name_H-M   'P 1'
_cell_length_a   7.21734600
_cell_length_b   4.56028400
_cell_length_c   8.01959800
_cell_angle_alpha   90.00000000
_cell_angle_beta   90.00000000
_cell_angle_gamma   90.00000000
_symmetry_Int_Tables_number   1
_chemical_formula_structural   La2ZnGaPd2
_chemical_formula_sum   'La4 Zn2 Ga2 Pd4'
_cell_volume   263.95021175
_cell_formula_units_Z   2
loop_
 _symmetry_equiv_pos_site_id
 _symmetry_equiv_pos_as_xyz
  1  'x, y, z'
loop_
 _atom_site_type_symbol
 _atom_site_label
 _atom_site_symmetry_multiplicity
 _atom_site_fract_x
 _atom_site_fract_y
 _atom_site_fract_z
 _atom_site_occupancy
  La  La0  1  0.031460  0.250000  0.308736  1
  La  La1  1  0.531460  0.250000  0.191264  1
  La  La2  1  0.966562  0.750000  0.692928  1
  La  La3  1  0.466562  0.750000  0.807072  1
  Zn  Zn4  1  0.342388  0.750000  0.427023  1
  Zn  Zn5  1  0.842388  0.750000  0.072977  1
  Ga  Ga6  1  0.655113  0.250000  0.568945  1
  Ga  Ga7  1  0.155113  0.250000  0.931055  1
  Pd  Pd8  1  0.277745  0.250000  0.609341  1
  Pd  Pd9  1  0.777745  0.250000  0.890659  1
  Pd  Pd10  1  0.726733  0.750000  0.396423  1
  Pd  Pd11  1  0.226733  0.750000  0.103577  1
