# generated using pymatgen
data_Rb6InHS4
_symmetry_space_group_name_H-M   'P 1'
_cell_length_a   10.64377200
_cell_length_b   10.64377255
_cell_length_c   7.86953700
_cell_angle_alpha   90.00000000
_cell_angle_beta   90.00000000
_cell_angle_gamma   120.00000451
_symmetry_Int_Tables_number   1
_chemical_formula_structural   Rb6InHS4
_chemical_formula_sum   'Rb12 In2 H2 S8'
_cell_volume   772.09535889
_cell_formula_units_Z   2
loop_
 _symmetry_equiv_pos_site_id
 _symmetry_equiv_pos_as_xyz
  1  'x, y, z'
loop_
 _atom_site_type_symbol
 _atom_site_label
 _atom_site_symmetry_multiplicity
 _atom_site_fract_x
 _atom_site_fract_y
 _atom_site_fract_z
 _atom_site_occupancy
  Rb  Rb0  1  0.123089  0.876911  0.509779  1
  Rb  Rb1  1  0.753819  0.876911  0.509779  1
  Rb  Rb2  1  0.942553  0.471276  0.320289  1
  Rb  Rb3  1  0.528724  0.471276  0.320289  1
  Rb  Rb4  1  0.876911  0.753819  0.009779  1
  Rb  Rb5  1  0.246181  0.123089  0.009779  1
  Rb  Rb6  1  0.528724  0.057447  0.320289  1
  Rb  Rb7  1  0.123089  0.246181  0.509779  1
  Rb  Rb8  1  0.876911  0.123089  0.009779  1
  Rb  Rb9  1  0.057447  0.528724  0.820289  1
  Rb  Rb10  1  0.471276  0.942553  0.820289  1
  Rb  Rb11  1  0.471276  0.528724  0.820289  1
  In  In12  1  0.666667  0.333333  0.712952  1
  In  In13  1  0.333333  0.666667  0.212952  1
  H  H14  1  0.000000  0.000000  0.275827  1
  H  H15  1  0.000000  0.000000  0.775827  1
  S  S16  1  0.408561  0.204281  0.610065  1
  S  S17  1  0.591439  0.795719  0.110065  1
  S  S18  1  0.666667  0.333333  0.031426  1
  S  S19  1  0.795719  0.591439  0.610065  1
  S  S20  1  0.204281  0.408561  0.110065  1
  S  S21  1  0.333333  0.666667  0.531426  1
  S  S22  1  0.204281  0.795719  0.110065  1
  S  S23  1  0.795719  0.204281  0.610065  1
