# generated using pymatgen
data_Ho2Ta3Si7Pt9
_symmetry_space_group_name_H-M   'P 1'
_cell_length_a   9.89103100
_cell_length_b   9.89103202
_cell_length_c   4.01660700
_cell_angle_alpha   90.00000000
_cell_angle_beta   90.00000000
_cell_angle_gamma   119.99999995
_symmetry_Int_Tables_number   1
_chemical_formula_structural   Ho2Ta3Si7Pt9
_chemical_formula_sum   'Ho2 Ta3 Si7 Pt9'
_cell_volume   340.30877159
_cell_formula_units_Z   1
loop_
 _symmetry_equiv_pos_site_id
 _symmetry_equiv_pos_as_xyz
  1  'x, y, z'
loop_
 _atom_site_type_symbol
 _atom_site_label
 _atom_site_symmetry_multiplicity
 _atom_site_fract_x
 _atom_site_fract_y
 _atom_site_fract_z
 _atom_site_occupancy
  Ho  Ho0  1  0.000000  0.000000  0.000000  1
  Ho  Ho1  1  0.333333  0.666667  0.500000  1
  Ta  Ta2  1  0.881820  0.454915  0.500000  1
  Ta  Ta3  1  0.573095  0.118180  0.500000  1
  Ta  Ta4  1  0.545085  0.426905  0.500000  1
  Si  Si5  1  0.256400  0.210078  0.500000  1
  Si  Si6  1  0.789922  0.046323  0.500000  1
  Si  Si7  1  0.953677  0.743600  0.500000  1
  Si  Si8  1  0.554972  0.638577  0.000000  1
  Si  Si9  1  0.361423  0.916395  0.000000  1
  Si  Si10  1  0.083605  0.445028  0.000000  1
  Si  Si11  1  0.666667  0.333333  0.000000  1
  Pt  Pt12  1  0.223289  0.941453  0.500000  1
  Pt  Pt13  1  0.058547  0.281837  0.500000  1
  Pt  Pt14  1  0.718163  0.776711  0.500000  1
  Pt  Pt15  1  0.308811  0.410501  0.000000  1
  Pt  Pt16  1  0.589499  0.898310  0.000000  1
  Pt  Pt17  1  0.101690  0.691189  0.000000  1
  Pt  Pt18  1  0.388055  0.174903  0.000000  1
  Pt  Pt19  1  0.825097  0.213153  0.000000  1
  Pt  Pt20  1  0.786847  0.611945  0.000000  1
