# generated using pymatgen
data_ErTmTcC2
_symmetry_space_group_name_H-M   'P 1'
_cell_length_a   5.03114800
_cell_length_b   6.52693600
_cell_length_c   9.77223700
_cell_angle_alpha   90.00000000
_cell_angle_beta   90.00000000
_cell_angle_gamma   90.00000000
_symmetry_Int_Tables_number   1
_chemical_formula_structural   ErTmTcC2
_chemical_formula_sum   'Er4 Tm4 Tc4 C8'
_cell_volume   320.90053296
_cell_formula_units_Z   4
loop_
 _symmetry_equiv_pos_site_id
 _symmetry_equiv_pos_as_xyz
  1  'x, y, z'
loop_
 _atom_site_type_symbol
 _atom_site_label
 _atom_site_symmetry_multiplicity
 _atom_site_fract_x
 _atom_site_fract_y
 _atom_site_fract_z
 _atom_site_occupancy
  Er  Er0  1  0.250000  0.533592  0.216538  1
  Er  Er1  1  0.750000  0.466408  0.783462  1
  Er  Er2  1  0.750000  0.966408  0.716538  1
  Er  Er3  1  0.250000  0.033592  0.283462  1
  Tm  Tm4  1  0.250000  0.675659  0.558594  1
  Tm  Tm5  1  0.750000  0.324341  0.441406  1
  Tm  Tm6  1  0.750000  0.824341  0.058594  1
  Tm  Tm7  1  0.250000  0.175659  0.941406  1
  Tc  Tc8  1  0.250000  0.718102  0.867894  1
  Tc  Tc9  1  0.750000  0.281898  0.132106  1
  Tc  Tc10  1  0.750000  0.781898  0.367894  1
  Tc  Tc11  1  0.250000  0.218102  0.632106  1
  C  C12  1  0.250000  0.450446  0.758997  1
  C  C13  1  0.750000  0.549554  0.241003  1
  C  C14  1  0.750000  0.049554  0.258997  1
  C  C15  1  0.250000  0.950446  0.741003  1
  C  C16  1  0.250000  0.824863  0.051722  1
  C  C17  1  0.750000  0.175137  0.948278  1
  C  C18  1  0.750000  0.675137  0.551722  1
  C  C19  1  0.250000  0.324863  0.448278  1
