# generated using pymatgen
data_Cd2FeNi2BiO8
_symmetry_space_group_name_H-M   'P 1'
_cell_length_a   6.31621491
_cell_length_b   6.28107601
_cell_length_c   6.40472197
_cell_angle_alpha   60.91149000
_cell_angle_beta   119.54390906
_cell_angle_gamma   120.18523465
_symmetry_Int_Tables_number   1
_chemical_formula_structural   Cd2FeNi2BiO8
_chemical_formula_sum   'Cd2 Fe1 Ni2 Bi1 O8'
_cell_volume   181.23862205
_cell_formula_units_Z   1
loop_
 _symmetry_equiv_pos_site_id
 _symmetry_equiv_pos_as_xyz
  1  'x, y, z'
loop_
 _atom_site_type_symbol
 _atom_site_label
 _atom_site_symmetry_multiplicity
 _atom_site_fract_x
 _atom_site_fract_y
 _atom_site_fract_z
 _atom_site_occupancy
  Cd  Cd0  1  0.863079  0.132706  0.593452  1
  Cd  Cd1  1  0.136921  0.867294  0.406548  1
  Fe  Fe2  1  0.500000  0.000000  0.000000  1
  Ni  Ni3  1  0.500000  0.500000  0.000000  1
  Ni  Ni4  1  0.000000  0.500000  0.000000  1
  Bi  Bi5  1  0.500000  0.500000  0.500000  1
  O  O6  1  0.736626  0.707051  0.766200  1
  O  O7  1  0.732861  0.255659  0.766294  1
  O  O8  1  0.276430  0.738689  0.814171  1
  O  O9  1  0.289092  0.255659  0.766294  1
  O  O10  1  0.710908  0.744341  0.233706  1
  O  O11  1  0.723570  0.261311  0.185829  1
  O  O12  1  0.267139  0.744341  0.233706  1
  O  O13  1  0.263374  0.292949  0.233800  1
