# generated using pymatgen
data_Sr4Gd2NbPtO12
_symmetry_space_group_name_H-M   'P 1'
_cell_length_a   5.96209106
_cell_length_b   5.86261156
_cell_length_c   10.16976960
_cell_angle_alpha   55.10930039
_cell_angle_beta   89.68461650
_cell_angle_gamma   90.04100035
_symmetry_Int_Tables_number   1
_chemical_formula_structural   Sr4Gd2NbPtO12
_chemical_formula_sum   'Sr4 Gd2 Nb1 Pt1 O12'
_cell_volume   291.56332394
_cell_formula_units_Z   1
loop_
 _symmetry_equiv_pos_site_id
 _symmetry_equiv_pos_as_xyz
  1  'x, y, z'
loop_
 _atom_site_type_symbol
 _atom_site_label
 _atom_site_symmetry_multiplicity
 _atom_site_fract_x
 _atom_site_fract_y
 _atom_site_fract_z
 _atom_site_occupancy
  Sr  Sr0  1  0.460429  0.258635  0.753014  1
  Sr  Sr1  1  0.956834  0.739010  0.752580  1
  Sr  Sr2  1  0.043166  0.260990  0.247420  1
  Sr  Sr3  1  0.539571  0.741365  0.246986  1
  Gd  Gd4  1  0.000000  0.000000  0.000000  1
  Gd  Gd5  1  0.500000  0.000000  0.500000  1
  Nb  Nb6  1  0.000000  0.500000  0.500000  1
  Pt  Pt7  1  0.500000  0.500000  0.000000  1
  O  O8  1  0.722612  0.640911  0.548556  1
  O  O9  1  0.226784  0.352568  0.953781  1
  O  O10  1  0.277388  0.359089  0.451444  1
  O  O11  1  0.773216  0.647432  0.046219  1
  O  O12  1  0.193076  0.732800  0.543967  1
  O  O13  1  0.698992  0.268782  0.957116  1
  O  O14  1  0.806924  0.267200  0.456033  1
  O  O15  1  0.301008  0.731218  0.042884  1
  O  O16  1  0.027250  0.179740  0.734283  1
  O  O17  1  0.527343  0.818635  0.765513  1
  O  O18  1  0.972750  0.820260  0.265717  1
  O  O19  1  0.472657  0.181365  0.234487  1
