# generated using pymatgen
data_Ta3Nb(SiIr)4
_symmetry_space_group_name_H-M   'P 1'
_cell_length_a   3.81367900
_cell_length_b   6.44885336
_cell_length_c   7.33453955
_cell_angle_alpha   89.92557335
_cell_angle_beta   90.00000000
_cell_angle_gamma   90.00000000
_symmetry_Int_Tables_number   1
_chemical_formula_structural   Ta3Nb(SiIr)4
_chemical_formula_sum   'Ta3 Nb1 Si4 Ir4'
_cell_volume   180.38446191
_cell_formula_units_Z   1
loop_
 _symmetry_equiv_pos_site_id
 _symmetry_equiv_pos_as_xyz
  1  'x, y, z'
loop_
 _atom_site_type_symbol
 _atom_site_label
 _atom_site_symmetry_multiplicity
 _atom_site_fract_x
 _atom_site_fract_y
 _atom_site_fract_z
 _atom_site_occupancy
  Ta  Ta0  1  0.750000  0.524259  0.828350  1
  Ta  Ta1  1  0.250000  0.976052  0.328071  1
  Ta  Ta2  1  0.750000  0.024326  0.671038  1
  Nb  Nb3  1  0.250000  0.475678  0.171363  1
  Si  Si4  1  0.250000  0.231954  0.875771  1
  Si  Si5  1  0.250000  0.731662  0.624489  1
  Si  Si6  1  0.750000  0.768114  0.125412  1
  Si  Si7  1  0.750000  0.268916  0.374302  1
  Ir  Ir8  1  0.250000  0.854606  0.934186  1
  Ir  Ir9  1  0.250000  0.353827  0.565484  1
  Ir  Ir10  1  0.750000  0.646778  0.437995  1
  Ir  Ir11  1  0.750000  0.143827  0.063539  1
