# generated using pymatgen
data_Y5Ho15(Cd3Fe)2
_symmetry_space_group_name_H-M   'P 1'
_cell_length_a   9.52446209
_cell_length_b   9.52446319
_cell_length_c   9.79908800
_cell_angle_alpha   90.00000000
_cell_angle_beta   90.00000000
_cell_angle_gamma   119.98434136
_symmetry_Int_Tables_number   1
_chemical_formula_structural   Y5Ho15(Cd3Fe)2
_chemical_formula_sum   'Y5 Ho15 Cd6 Fe2'
_cell_volume   769.95573690
_cell_formula_units_Z   1
loop_
 _symmetry_equiv_pos_site_id
 _symmetry_equiv_pos_as_xyz
  1  'x, y, z'
loop_
 _atom_site_type_symbol
 _atom_site_label
 _atom_site_symmetry_multiplicity
 _atom_site_fract_x
 _atom_site_fract_y
 _atom_site_fract_z
 _atom_site_occupancy
  Y  Y0  1  0.541343  0.082996  0.250000  1
  Y  Y1  1  0.917004  0.458657  0.250000  1
  Y  Y2  1  0.458651  0.541349  0.750000  1
  Y  Y3  1  0.458634  0.917356  0.750000  1
  Y  Y4  1  0.082644  0.541366  0.750000  1
  Ho  Ho5  1  0.000064  0.999936  0.500021  1
  Ho  Ho6  1  0.000064  0.999936  0.999979  1
  Ho  Ho7  1  0.541076  0.458924  0.250000  1
  Ho  Ho8  1  0.211893  0.788107  0.436275  1
  Ho  Ho9  1  0.212303  0.423772  0.436063  1
  Ho  Ho10  1  0.576228  0.787697  0.436063  1
  Ho  Ho11  1  0.788141  0.211859  0.563750  1
  Ho  Ho12  1  0.787832  0.576153  0.563445  1
  Ho  Ho13  1  0.423847  0.212168  0.563445  1
  Ho  Ho14  1  0.788141  0.211859  0.936250  1
  Ho  Ho15  1  0.787832  0.576153  0.936555  1
  Ho  Ho16  1  0.423847  0.212168  0.936555  1
  Ho  Ho17  1  0.211893  0.788107  0.063725  1
  Ho  Ho18  1  0.212303  0.423772  0.063937  1
  Ho  Ho19  1  0.576228  0.787697  0.063937  1
  Cd  Cd20  1  0.885788  0.114212  0.250000  1
  Cd  Cd21  1  0.885209  0.771091  0.250000  1
  Cd  Cd22  1  0.228909  0.114791  0.250000  1
  Cd  Cd23  1  0.114213  0.885787  0.750000  1
  Cd  Cd24  1  0.114230  0.228451  0.750000  1
  Cd  Cd25  1  0.771549  0.885770  0.750000  1
  Fe  Fe26  1  0.333432  0.666568  0.250000  1
  Fe  Fe27  1  0.666702  0.333298  0.750000  1
