# generated using pymatgen
data_Nd4SiOs3I2
_symmetry_space_group_name_H-M   'P 1'
_cell_length_a   4.26202900
_cell_length_b   4.26203028
_cell_length_c   17.65078300
_cell_angle_alpha   90.00000000
_cell_angle_beta   90.00000000
_cell_angle_gamma   120.00001333
_symmetry_Int_Tables_number   1
_chemical_formula_structural   Nd4SiOs3I2
_chemical_formula_sum   'Nd4 Si1 Os3 I2'
_cell_volume   277.66905396
_cell_formula_units_Z   1
loop_
 _symmetry_equiv_pos_site_id
 _symmetry_equiv_pos_as_xyz
  1  'x, y, z'
loop_
 _atom_site_type_symbol
 _atom_site_label
 _atom_site_symmetry_multiplicity
 _atom_site_fract_x
 _atom_site_fract_y
 _atom_site_fract_z
 _atom_site_occupancy
  Nd  Nd0  1  0.000000  0.000000  0.109816  1
  Nd  Nd1  1  0.000000  0.000000  0.888981  1
  Nd  Nd2  1  0.000000  0.000000  0.606008  1
  Nd  Nd3  1  0.000000  0.000000  0.396934  1
  Si  Si4  1  0.333333  0.666667  0.501650  1
  Os  Os5  1  0.666667  0.333333  0.499166  1
  Os  Os6  1  0.666667  0.333333  0.009286  1
  Os  Os7  1  0.333333  0.666667  0.989752  1
  I  I8  1  0.333333  0.666667  0.250820  1
  I  I9  1  0.666667  0.333333  0.747587  1
