# generated using pymatgen
data_Yb14Au51
_symmetry_space_group_name_H-M   'P 1'
_cell_length_a   12.72460900
_cell_length_b   12.72460856
_cell_length_c   9.24528200
_cell_angle_alpha   90.00000000
_cell_angle_beta   90.00000000
_cell_angle_gamma   119.99999336
_symmetry_Int_Tables_number   1
_chemical_formula_structural   Yb14Au51
_chemical_formula_sum   'Yb14 Au51'
_cell_volume   1296.40202493
_cell_formula_units_Z   1
loop_
 _symmetry_equiv_pos_site_id
 _symmetry_equiv_pos_as_xyz
  1  'x, y, z'
loop_
 _atom_site_type_symbol
 _atom_site_label
 _atom_site_symmetry_multiplicity
 _atom_site_fract_x
 _atom_site_fract_y
 _atom_site_fract_z
 _atom_site_occupancy
  Yb  Yb0  1  0.128097  0.466925  0.500000  1
  Yb  Yb1  1  0.533075  0.661172  0.500000  1
  Yb  Yb2  1  0.338828  0.871903  0.500000  1
  Yb  Yb3  1  0.202025  0.197862  0.500000  1
  Yb  Yb4  1  0.802138  0.004161  0.500000  1
  Yb  Yb5  1  0.995839  0.797975  0.500000  1
  Yb  Yb6  1  0.779856  0.715285  0.000000  1
  Yb  Yb7  1  0.284715  0.064571  0.000000  1
  Yb  Yb8  1  0.935429  0.220144  0.000000  1
  Yb  Yb9  1  0.549021  0.929884  0.000000  1
  Yb  Yb10  1  0.070116  0.619137  0.000000  1
  Yb  Yb11  1  0.380863  0.450979  0.000000  1
  Yb  Yb12  1  0.666667  0.333333  0.300255  1
  Yb  Yb13  1  0.666667  0.333333  0.699745  1
  Au  Au14  1  0.727787  0.570891  0.500000  1
  Au  Au15  1  0.429109  0.156896  0.500000  1
  Au  Au16  1  0.843104  0.272213  0.500000  1
  Au  Au17  1  0.603400  0.091850  0.500000  1
  Au  Au18  1  0.908150  0.511550  0.500000  1
  Au  Au19  1  0.488450  0.396600  0.500000  1
  Au  Au20  1  0.158683  0.447348  0.153424  1
  Au  Au21  1  0.552652  0.711335  0.153424  1
  Au  Au22  1  0.288665  0.841317  0.153424  1
  Au  Au23  1  0.170344  0.218978  0.151908  1
  Au  Au24  1  0.781022  0.951366  0.151908  1
  Au  Au25  1  0.048634  0.829656  0.151908  1
  Au  Au26  1  0.170344  0.218978  0.848092  1
  Au  Au27  1  0.781022  0.951366  0.848092  1
  Au  Au28  1  0.048634  0.829656  0.848092  1
  Au  Au29  1  0.158683  0.447348  0.846576  1
  Au  Au30  1  0.552652  0.711335  0.846576  1
  Au  Au31  1  0.288665  0.841317  0.846576  1
  Au  Au32  1  0.333333  0.666667  0.000000  1
  Au  Au33  1  0.000000  0.000000  0.000000  1
  Au  Au34  1  0.774265  0.774776  0.334039  1
  Au  Au35  1  0.225224  0.999489  0.334039  1
  Au  Au36  1  0.000511  0.225735  0.334039  1
  Au  Au37  1  0.559516  0.888662  0.336751  1
  Au  Au38  1  0.111338  0.670853  0.336751  1
  Au  Au39  1  0.329147  0.440484  0.336751  1
  Au  Au40  1  0.559516  0.888662  0.663249  1
  Au  Au41  1  0.111338  0.670853  0.663249  1
  Au  Au42  1  0.329147  0.440484  0.663249  1
  Au  Au43  1  0.774265  0.774776  0.665961  1
  Au  Au44  1  0.225224  0.999489  0.665961  1
  Au  Au45  1  0.000511  0.225735  0.665961  1
  Au  Au46  1  0.861043  0.602302  0.235876  1
  Au  Au47  1  0.397698  0.258741  0.235876  1
  Au  Au48  1  0.741259  0.138957  0.235876  1
  Au  Au49  1  0.474543  0.071392  0.228934  1
  Au  Au50  1  0.928608  0.403152  0.228934  1
  Au  Au51  1  0.596848  0.525457  0.228934  1
  Au  Au52  1  0.474543  0.071392  0.771066  1
  Au  Au53  1  0.928608  0.403152  0.771066  1
  Au  Au54  1  0.596848  0.525457  0.771066  1
  Au  Au55  1  0.861043  0.602302  0.764124  1
  Au  Au56  1  0.397698  0.258741  0.764124  1
  Au  Au57  1  0.741259  0.138957  0.764124  1
  Au  Au58  1  0.333333  0.666667  0.313007  1
  Au  Au59  1  0.000000  0.000000  0.313479  1
  Au  Au60  1  0.000000  0.000000  0.686521  1
  Au  Au61  1  0.333333  0.666667  0.686993  1
  Au  Au62  1  0.807588  0.445397  0.000000  1
  Au  Au63  1  0.554603  0.362190  0.000000  1
  Au  Au64  1  0.637810  0.192412  0.000000  1
