# generated using pymatgen
data_TbLu2Ga9Tc2
_symmetry_space_group_name_H-M   'P 1'
_cell_length_a   8.12140740
_cell_length_b   8.12140806
_cell_length_c   8.12140818
_cell_angle_alpha   149.68427768
_cell_angle_beta   109.17987182
_cell_angle_gamma   78.94262294
_symmetry_Int_Tables_number   1
_chemical_formula_structural   TbLu2Ga9Tc2
_chemical_formula_sum   'Tb1 Lu2 Ga9 Tc2'
_cell_volume   250.59554963
_cell_formula_units_Z   1
loop_
 _symmetry_equiv_pos_site_id
 _symmetry_equiv_pos_as_xyz
  1  'x, y, z'
loop_
 _atom_site_type_symbol
 _atom_site_label
 _atom_site_symmetry_multiplicity
 _atom_site_fract_x
 _atom_site_fract_y
 _atom_site_fract_z
 _atom_site_occupancy
  Tb  Tb0  1  0.500000  0.500000  0.000000  1
  Lu  Lu1  1  0.197924  0.197924  0.000000  1
  Lu  Lu2  1  0.802076  0.802076  0.000000  1
  Ga  Ga3  1  0.649822  0.365510  0.284312  1
  Ga  Ga4  1  0.350178  0.634490  0.715688  1
  Ga  Ga5  1  0.081200  0.365510  0.715688  1
  Ga  Ga6  1  0.918800  0.634490  0.284312  1
  Ga  Ga7  1  0.520210  0.153910  0.366299  1
  Ga  Ga8  1  0.479790  0.846090  0.633701  1
  Ga  Ga9  1  0.787609  0.153910  0.633701  1
  Ga  Ga10  1  0.212391  0.846090  0.366299  1
  Ga  Ga11  1  0.000000  0.500000  0.500000  1
  Tc  Tc12  1  0.174349  0.000000  0.174349  1
  Tc  Tc13  1  0.825651  0.000000  0.825651  1
