# generated using pymatgen
data_Tb4YW2C7
_symmetry_space_group_name_H-M   'P 1'
_cell_length_a   8.47863082
_cell_length_b   8.47863009
_cell_length_c   3.43847700
_cell_angle_alpha   90.00000000
_cell_angle_beta   90.00000000
_cell_angle_gamma   123.05659383
_symmetry_Int_Tables_number   1
_chemical_formula_structural   Tb4YW2C7
_chemical_formula_sum   'Tb4 Y1 W2 C7'
_cell_volume   207.17152326
_cell_formula_units_Z   1
loop_
 _symmetry_equiv_pos_site_id
 _symmetry_equiv_pos_as_xyz
  1  'x, y, z'
loop_
 _atom_site_type_symbol
 _atom_site_label
 _atom_site_symmetry_multiplicity
 _atom_site_fract_x
 _atom_site_fract_y
 _atom_site_fract_z
 _atom_site_occupancy
  Tb  Tb0  1  0.072778  0.330344  0.500000  1
  Tb  Tb1  1  0.927222  0.669656  0.500000  1
  Tb  Tb2  1  0.669656  0.927222  0.500000  1
  Tb  Tb3  1  0.330344  0.072778  0.500000  1
  Y  Y4  1  0.500000  0.500000  0.000000  1
  W  W5  1  0.712490  0.287510  0.000000  1
  W  W6  1  0.287510  0.712490  0.000000  1
  C  C7  1  0.625997  0.374003  0.500000  1
  C  C8  1  0.374003  0.625997  0.500000  1
  C  C9  1  0.000000  0.000000  0.000000  1
  C  C10  1  0.167641  0.167641  0.000000  1
  C  C11  1  0.832359  0.832359  0.000000  1
  C  C12  1  0.000000  0.500000  0.000000  1
  C  C13  1  0.500000  0.000000  0.000000  1
