# generated using pymatgen
data_Sc4U4Mn(CrB8)3
_symmetry_space_group_name_H-M   'P 1'
_cell_length_a   3.48325200
_cell_length_b   8.91224935
_cell_length_c   11.25150944
_cell_angle_alpha   89.96793589
_cell_angle_beta   90.00000000
_cell_angle_gamma   90.00000000
_symmetry_Int_Tables_number   1
_chemical_formula_structural   Sc4U4Mn(CrB8)3
_chemical_formula_sum   'Sc4 U4 Mn1 Cr3 B24'
_cell_volume   349.28742044
_cell_formula_units_Z   1
loop_
 _symmetry_equiv_pos_site_id
 _symmetry_equiv_pos_as_xyz
  1  'x, y, z'
loop_
 _atom_site_type_symbol
 _atom_site_label
 _atom_site_symmetry_multiplicity
 _atom_site_fract_x
 _atom_site_fract_y
 _atom_site_fract_z
 _atom_site_occupancy
  Sc  Sc0  1  0.000000  0.444367  0.127593  1
  Sc  Sc1  1  0.000000  0.555424  0.872765  1
  Sc  Sc2  1  0.000000  0.944471  0.372170  1
  Sc  Sc3  1  0.000000  0.055292  0.627303  1
  U  U4  1  0.000000  0.822260  0.085778  1
  U  U5  1  0.000000  0.177614  0.914218  1
  U  U6  1  0.000000  0.322503  0.414354  1
  U  U7  1  0.000000  0.678065  0.585959  1
  Mn  Mn8  1  0.000000  0.140280  0.180121  1
  Cr  Cr9  1  0.000000  0.859570  0.819737  1
  Cr  Cr10  1  0.000000  0.640638  0.319222  1
  Cr  Cr11  1  0.000000  0.359204  0.680648  1
  B  B12  1  0.500000  0.054589  0.067795  1
  B  B13  1  0.500000  0.946239  0.933539  1
  B  B14  1  0.500000  0.554036  0.432895  1
  B  B15  1  0.500000  0.446208  0.567036  1
  B  B16  1  0.500000  0.251381  0.081806  1
  B  B17  1  0.500000  0.747938  0.919194  1
  B  B18  1  0.500000  0.751953  0.418887  1
  B  B19  1  0.500000  0.248020  0.580802  1
  B  B20  1  0.500000  0.293191  0.234618  1
  B  B21  1  0.500000  0.705667  0.764787  1
  B  B22  1  0.500000  0.794951  0.264507  1
  B  B23  1  0.500000  0.205430  0.735289  1
  B  B24  1  0.500000  0.130722  0.316034  1
  B  B25  1  0.500000  0.869141  0.683247  1
  B  B26  1  0.500000  0.631342  0.183032  1
  B  B27  1  0.500000  0.368658  0.816999  1
  B  B28  1  0.500000  0.481933  0.286152  1
  B  B29  1  0.500000  0.517895  0.713666  1
  B  B30  1  0.500000  0.983633  0.213405  1
  B  B31  1  0.500000  0.017936  0.786614  1
  B  B32  1  0.500000  0.101648  0.471735  1
  B  B33  1  0.500000  0.898392  0.527525  1
  B  B34  1  0.500000  0.601665  0.027662  1
  B  B35  1  0.500000  0.397744  0.972905  1
