# generated using pymatgen
data_YbHoSiN3
_symmetry_space_group_name_H-M   'P 1'
_cell_length_a   5.80641307
_cell_length_b   5.80641153
_cell_length_c   11.23185800
_cell_angle_alpha   90.00000000
_cell_angle_beta   90.00000000
_cell_angle_gamma   125.46950127
_symmetry_Int_Tables_number   1
_chemical_formula_structural   YbHoSiN3
_chemical_formula_sum   'Yb4 Ho4 Si4 N12'
_cell_volume   308.40270812
_cell_formula_units_Z   4
loop_
 _symmetry_equiv_pos_site_id
 _symmetry_equiv_pos_as_xyz
  1  'x, y, z'
loop_
 _atom_site_type_symbol
 _atom_site_label
 _atom_site_symmetry_multiplicity
 _atom_site_fract_x
 _atom_site_fract_y
 _atom_site_fract_z
 _atom_site_occupancy
  Yb  Yb0  1  0.045550  0.954450  0.855334  1
  Yb  Yb1  1  0.954450  0.045550  0.144666  1
  Yb  Yb2  1  0.454450  0.545550  0.355334  1
  Yb  Yb3  1  0.545550  0.454450  0.644666  1
  Ho  Ho4  1  0.641276  0.358724  0.078307  1
  Ho  Ho5  1  0.358724  0.641276  0.921693  1
  Ho  Ho6  1  0.858724  0.141276  0.578307  1
  Ho  Ho7  1  0.141276  0.858724  0.421693  1
  Si  Si8  1  0.738365  0.261635  0.838679  1
  Si  Si9  1  0.261635  0.738365  0.161321  1
  Si  Si10  1  0.761635  0.238365  0.338679  1
  Si  Si11  1  0.238365  0.761635  0.661321  1
  N  N12  1  0.572498  0.427502  0.870925  1
  N  N13  1  0.427502  0.572498  0.129075  1
  N  N14  1  0.927502  0.072498  0.370925  1
  N  N15  1  0.072498  0.927502  0.629075  1
  N  N16  1  0.532957  0.967043  0.750000  1
  N  N17  1  0.967043  0.532957  0.250000  1
  N  N18  1  0.467043  0.032957  0.250000  1
  N  N19  1  0.032957  0.467043  0.750000  1
  N  N20  1  0.839364  0.160636  0.962615  1
  N  N21  1  0.160636  0.839364  0.037385  1
  N  N22  1  0.660636  0.339364  0.462615  1
  N  N23  1  0.339364  0.660636  0.537385  1
