# generated using pymatgen
data_Eu2HoTmTa2Tl2O14
_symmetry_space_group_name_H-M   'P 1'
_cell_length_a   6.47232970
_cell_length_b   6.46645629
_cell_length_c   7.78091885
_cell_angle_alpha   90.13185514
_cell_angle_beta   89.87044799
_cell_angle_gamma   111.14036025
_symmetry_Int_Tables_number   1
_chemical_formula_structural   Eu2HoTmTa2Tl2O14
_chemical_formula_sum   'Eu2 Ho1 Tm1 Ta2 Tl2 O14'
_cell_volume   303.73724368
_cell_formula_units_Z   1
loop_
 _symmetry_equiv_pos_site_id
 _symmetry_equiv_pos_as_xyz
  1  'x, y, z'
loop_
 _atom_site_type_symbol
 _atom_site_label
 _atom_site_symmetry_multiplicity
 _atom_site_fract_x
 _atom_site_fract_y
 _atom_site_fract_z
 _atom_site_occupancy
  Eu  Eu0  1  0.505416  0.504991  0.500583  1
  Eu  Eu1  1  0.506536  0.506082  0.999404  1
  Ho  Ho2  1  0.451977  0.997446  0.249738  1
  Tm  Tm3  1  0.998258  0.453477  0.750260  1
  Ta  Ta4  1  0.991217  0.991457  0.500708  1
  Ta  Ta5  1  0.991482  0.991736  0.999267  1
  Tl  Tl6  1  0.996963  0.487598  0.250462  1
  Tl  Tl7  1  0.490135  0.996226  0.749533  1
  O  O8  1  0.635470  0.348123  0.749540  1
  O  O9  1  0.348406  0.630819  0.250430  1
  O  O10  1  0.953521  0.062987  0.749938  1
  O  O11  1  0.060532  0.955612  0.250074  1
  O  O12  1  0.930905  0.684147  0.554515  1
  O  O13  1  0.081332  0.330891  0.009315  1
  O  O14  1  0.330112  0.083725  0.988572  1
  O  O15  1  0.682180  0.927080  0.448533  1
  O  O16  1  0.374524  0.644641  0.750332  1
  O  O17  1  0.646476  0.377075  0.249690  1
  O  O18  1  0.930713  0.684465  0.944862  1
  O  O19  1  0.081442  0.330591  0.491055  1
  O  O20  1  0.329833  0.083820  0.511068  1
  O  O21  1  0.682569  0.927009  0.052122  1
