# generated using pymatgen
data_Sr17CaIr3
_symmetry_space_group_name_H-M   'P 1'
_cell_length_a   12.85212200
_cell_length_b   12.80000367
_cell_length_c   7.04517420
_cell_angle_alpha   90.39874522
_cell_angle_beta   90.00000000
_cell_angle_gamma   120.13478384
_symmetry_Int_Tables_number   1
_chemical_formula_structural   Sr17CaIr3
_chemical_formula_sum   'Sr17 Ca1 Ir3'
_cell_volume   1002.30936891
_cell_formula_units_Z   1
loop_
 _symmetry_equiv_pos_site_id
 _symmetry_equiv_pos_as_xyz
  1  'x, y, z'
loop_
 _atom_site_type_symbol
 _atom_site_label
 _atom_site_symmetry_multiplicity
 _atom_site_fract_x
 _atom_site_fract_y
 _atom_site_fract_z
 _atom_site_occupancy
  Sr  Sr0  1  0.107614  0.215227  0.236673  1
  Sr  Sr1  1  0.106776  0.891814  0.237552  1
  Sr  Sr2  1  0.785038  0.891814  0.237552  1
  Sr  Sr3  1  0.117395  0.558680  0.247186  1
  Sr  Sr4  1  0.441285  0.558680  0.247186  1
  Sr  Sr5  1  0.441092  0.882183  0.248233  1
  Sr  Sr6  1  0.450425  0.225166  0.272315  1
  Sr  Sr7  1  0.774741  0.225166  0.272315  1
  Sr  Sr8  1  0.775242  0.550485  0.273720  1
  Sr  Sr9  1  0.225402  0.450803  0.726479  1
  Sr  Sr10  1  0.224140  0.774667  0.727971  1
  Sr  Sr11  1  0.550527  0.774667  0.727971  1
  Sr  Sr12  1  0.558674  0.117349  0.751994  1
  Sr  Sr13  1  0.559632  0.442221  0.752296  1
  Sr  Sr14  1  0.882589  0.442221  0.752296  1
  Sr  Sr15  1  0.214760  0.106748  0.761954  1
  Sr  Sr16  1  0.891988  0.106748  0.761954  1
  Ca  Ca17  1  0.894922  0.789846  0.768909  1
  Ir  Ir18  1  0.997961  0.995922  0.995761  1
  Ir  Ir19  1  0.333274  0.666548  0.486996  1
  Ir  Ir20  1  0.666523  0.333045  0.512685  1
