# generated using pymatgen
data_Ba4Ca2ReSbO12
_symmetry_space_group_name_H-M   'P 1'
_cell_length_a   6.02771876
_cell_length_b   6.02594064
_cell_length_c   10.45746296
_cell_angle_alpha   90.15867133
_cell_angle_beta   106.62270260
_cell_angle_gamma   119.72978816
_symmetry_Int_Tables_number   1
_chemical_formula_structural   Ba4Ca2ReSbO12
_chemical_formula_sum   'Ba4 Ca2 Re1 Sb1 O12'
_cell_volume   311.24995581
_cell_formula_units_Z   1
loop_
 _symmetry_equiv_pos_site_id
 _symmetry_equiv_pos_as_xyz
  1  'x, y, z'
loop_
 _atom_site_type_symbol
 _atom_site_label
 _atom_site_symmetry_multiplicity
 _atom_site_fract_x
 _atom_site_fract_y
 _atom_site_fract_z
 _atom_site_occupancy
  Ba  Ba0  1  0.257094  0.129693  0.887226  1
  Ba  Ba1  1  0.242637  0.621209  0.361184  1
  Ba  Ba2  1  0.757363  0.378791  0.638816  1
  Ba  Ba3  1  0.742906  0.870307  0.112774  1
  Ca  Ca4  1  0.501752  0.751092  0.753033  1
  Ca  Ca5  1  0.498248  0.248908  0.246967  1
  Re  Re6  1  0.000000  0.000000  0.500000  1
  Sb  Sb7  1  0.000000  0.500000  0.000000  1
  O  O8  1  0.813532  0.905520  0.628779  1
  O  O9  1  0.799444  0.394685  0.135569  1
  O  O10  1  0.200556  0.605315  0.864431  1
  O  O11  1  0.186468  0.094480  0.371221  1
  O  O12  1  0.767319  0.135889  0.893322  1
  O  O13  1  0.775729  0.648850  0.405977  1
  O  O14  1  0.224271  0.351150  0.594023  1
  O  O15  1  0.232681  0.864111  0.106678  1
  O  O16  1  0.256173  0.917277  0.605967  1
  O  O17  1  0.268915  0.415138  0.117215  1
  O  O18  1  0.731085  0.584862  0.882785  1
  O  O19  1  0.743827  0.082723  0.394033  1
