# generated using pymatgen
data_RbLi6SbO6
_symmetry_space_group_name_H-M   'P 1'
_cell_length_a   5.40726211
_cell_length_b   5.40726254
_cell_length_c   5.40726315
_cell_angle_alpha   101.36212126
_cell_angle_beta   101.36212496
_cell_angle_gamma   101.36213204
_symmetry_Int_Tables_number   1
_chemical_formula_structural   RbLi6SbO6
_chemical_formula_sum   'Rb1 Li6 Sb1 O6'
_cell_volume   147.31926749
_cell_formula_units_Z   1
loop_
 _symmetry_equiv_pos_site_id
 _symmetry_equiv_pos_as_xyz
  1  'x, y, z'
loop_
 _atom_site_type_symbol
 _atom_site_label
 _atom_site_symmetry_multiplicity
 _atom_site_fract_x
 _atom_site_fract_y
 _atom_site_fract_z
 _atom_site_occupancy
  Rb  Rb0  1  0.500000  0.500000  0.500000  1
  Li  Li1  1  0.000000  0.343042  0.656958  1
  Li  Li2  1  0.656958  0.000000  0.343042  1
  Li  Li3  1  0.656958  0.343042  0.000000  1
  Li  Li4  1  0.343042  0.000000  0.656958  1
  Li  Li5  1  0.000000  0.656958  0.343042  1
  Li  Li6  1  0.343042  0.656958  0.000000  1
  Sb  Sb7  1  0.000000  0.000000  0.000000  1
  O  O8  1  0.916121  0.271836  0.271836  1
  O  O9  1  0.271836  0.271836  0.916121  1
  O  O10  1  0.083879  0.728164  0.728164  1
  O  O11  1  0.728164  0.728164  0.083879  1
  O  O12  1  0.728164  0.083879  0.728164  1
  O  O13  1  0.271836  0.916121  0.271836  1
