# generated using pymatgen
data_Zr4PdRhN
_symmetry_space_group_name_H-M   'P 1'
_cell_length_a   8.84829503
_cell_length_b   8.84829535
_cell_length_c   8.84829600
_cell_angle_alpha   59.99999756
_cell_angle_beta   59.99999639
_cell_angle_gamma   60.00000308
_symmetry_Int_Tables_number   1
_chemical_formula_structural   Zr4PdRhN
_chemical_formula_sum   'Zr16 Pd4 Rh4 N4'
_cell_volume   489.85082144
_cell_formula_units_Z   4
loop_
 _symmetry_equiv_pos_site_id
 _symmetry_equiv_pos_as_xyz
  1  'x, y, z'
loop_
 _atom_site_type_symbol
 _atom_site_label
 _atom_site_symmetry_multiplicity
 _atom_site_fract_x
 _atom_site_fract_y
 _atom_site_fract_z
 _atom_site_occupancy
  Zr  Zr0  1  0.105973  0.631342  0.631342  1
  Zr  Zr1  1  0.631342  0.105973  0.631342  1
  Zr  Zr2  1  0.631342  0.631342  0.105973  1
  Zr  Zr3  1  0.631342  0.631342  0.631342  1
  Zr  Zr4  1  0.818106  0.818106  0.181894  1
  Zr  Zr5  1  0.181894  0.181894  0.818106  1
  Zr  Zr6  1  0.818106  0.181894  0.818106  1
  Zr  Zr7  1  0.181894  0.818106  0.181894  1
  Zr  Zr8  1  0.181894  0.818106  0.818106  1
  Zr  Zr9  1  0.818106  0.181894  0.181894  1
  Zr  Zr10  1  0.431999  0.431999  0.068001  1
  Zr  Zr11  1  0.068001  0.068001  0.431999  1
  Zr  Zr12  1  0.431999  0.068001  0.431999  1
  Zr  Zr13  1  0.068001  0.431999  0.068001  1
  Zr  Zr14  1  0.068001  0.431999  0.431999  1
  Zr  Zr15  1  0.431999  0.068001  0.068001  1
  Pd  Pd16  1  0.758996  0.413668  0.413668  1
  Pd  Pd17  1  0.413668  0.758996  0.413668  1
  Pd  Pd18  1  0.413668  0.413668  0.758996  1
  Pd  Pd19  1  0.413668  0.413668  0.413668  1
  Rh  Rh20  1  0.463159  0.845614  0.845614  1
  Rh  Rh21  1  0.845614  0.463159  0.845614  1
  Rh  Rh22  1  0.845614  0.845614  0.463159  1
  Rh  Rh23  1  0.845614  0.845614  0.845614  1
  N  N24  1  0.623390  0.125537  0.125537  1
  N  N25  1  0.125537  0.623390  0.125537  1
  N  N26  1  0.125537  0.125537  0.623390  1
  N  N27  1  0.125537  0.125537  0.125537  1
