# generated using pymatgen
data_SrLi4Ac3Si8
_symmetry_space_group_name_H-M   'P 1'
_cell_length_a   3.96832400
_cell_length_b   8.06953760
_cell_length_c   11.07342708
_cell_angle_alpha   89.98470528
_cell_angle_beta   90.00000000
_cell_angle_gamma   90.00000000
_symmetry_Int_Tables_number   1
_chemical_formula_structural   SrLi4Ac3Si8
_chemical_formula_sum   'Sr1 Li4 Ac3 Si8'
_cell_volume   354.59924562
_cell_formula_units_Z   1
loop_
 _symmetry_equiv_pos_site_id
 _symmetry_equiv_pos_as_xyz
  1  'x, y, z'
loop_
 _atom_site_type_symbol
 _atom_site_label
 _atom_site_symmetry_multiplicity
 _atom_site_fract_x
 _atom_site_fract_y
 _atom_site_fract_z
 _atom_site_occupancy
  Sr  Sr0  1  0.750000  0.364158  0.367806  1
  Li  Li1  1  0.250000  0.002226  0.390754  1
  Li  Li2  1  0.750000  0.002050  0.608146  1
  Li  Li3  1  0.250000  0.497431  0.112850  1
  Li  Li4  1  0.750000  0.500599  0.890669  1
  Ac  Ac5  1  0.250000  0.134211  0.865674  1
  Ac  Ac6  1  0.750000  0.864624  0.133715  1
  Ac  Ac7  1  0.250000  0.633415  0.632060  1
  Si  Si8  1  0.750000  0.278814  0.074098  1
  Si  Si9  1  0.250000  0.718987  0.925263  1
  Si  Si10  1  0.750000  0.778678  0.426422  1
  Si  Si11  1  0.250000  0.224605  0.573889  1
  Si  Si12  1  0.750000  0.826765  0.823940  1
  Si  Si13  1  0.250000  0.169909  0.172865  1
  Si  Si14  1  0.750000  0.326748  0.677259  1
  Si  Si15  1  0.250000  0.676776  0.324589  1
