# generated using pymatgen
data_Lu2Co8Re2SiP5
_symmetry_space_group_name_H-M   'P 1'
_cell_length_a   3.70202800
_cell_length_b   10.30137500
_cell_length_c   11.74667100
_cell_angle_alpha   90.00000000
_cell_angle_beta   90.00000000
_cell_angle_gamma   90.00000000
_symmetry_Int_Tables_number   1
_chemical_formula_structural   Lu2Co8Re2SiP5
_chemical_formula_sum   'Lu4 Co16 Re4 Si2 P10'
_cell_volume   447.97079492
_cell_formula_units_Z   2
loop_
 _symmetry_equiv_pos_site_id
 _symmetry_equiv_pos_as_xyz
  1  'x, y, z'
loop_
 _atom_site_type_symbol
 _atom_site_label
 _atom_site_symmetry_multiplicity
 _atom_site_fract_x
 _atom_site_fract_y
 _atom_site_fract_z
 _atom_site_occupancy
  Lu  Lu0  1  0.250000  0.584411  0.703914  1
  Lu  Lu1  1  0.250000  0.915589  0.203914  1
  Lu  Lu2  1  0.750000  0.416268  0.297353  1
  Lu  Lu3  1  0.750000  0.083732  0.797353  1
  Co  Co4  1  0.250000  0.407220  0.487526  1
  Co  Co5  1  0.250000  0.092780  0.987526  1
  Co  Co6  1  0.750000  0.593616  0.512633  1
  Co  Co7  1  0.750000  0.906384  0.012633  1
  Co  Co8  1  0.250000  0.214864  0.178111  1
  Co  Co9  1  0.250000  0.285136  0.678111  1
  Co  Co10  1  0.750000  0.778323  0.823282  1
  Co  Co11  1  0.750000  0.721677  0.323282  1
  Co  Co12  1  0.250000  0.884527  0.702819  1
  Co  Co13  1  0.250000  0.615473  0.202819  1
  Co  Co14  1  0.750000  0.110934  0.298202  1
  Co  Co15  1  0.750000  0.389066  0.798202  1
  Co  Co16  1  0.250000  0.466639  0.929012  1
  Co  Co17  1  0.250000  0.033361  0.429012  1
  Co  Co18  1  0.750000  0.537419  0.065886  1
  Co  Co19  1  0.750000  0.962581  0.565886  1
  Re  Re20  1  0.250000  0.712238  0.989735  1
  Re  Re21  1  0.250000  0.787762  0.489735  1
  Re  Re22  1  0.750000  0.289968  0.011873  1
  Re  Re23  1  0.750000  0.210032  0.511873  1
  Si  Si24  1  0.250000  0.417988  0.115021  1
  Si  Si25  1  0.250000  0.082012  0.615021  1
  P  P26  1  0.750000  0.581096  0.884461  1
  P  P27  1  0.750000  0.918904  0.384461  1
  P  P28  1  0.250000  0.268471  0.865445  1
  P  P29  1  0.250000  0.231529  0.365445  1
  P  P30  1  0.750000  0.731865  0.134992  1
  P  P31  1  0.750000  0.768135  0.634992  1
  P  P32  1  0.250000  0.594048  0.389683  1
  P  P33  1  0.250000  0.905952  0.889683  1
  P  P34  1  0.750000  0.405590  0.610053  1
  P  P35  1  0.750000  0.094410  0.110053  1
