# generated using pymatgen
data_Sm2(As2Pd7)3
_symmetry_space_group_name_H-M   'P 1'
_cell_length_a   8.85851832
_cell_length_b   8.85851831
_cell_length_c   8.85851700
_cell_angle_alpha   60.00000117
_cell_angle_beta   60.00000120
_cell_angle_gamma   60.00000077
_symmetry_Int_Tables_number   1
_chemical_formula_structural   Sm2(As2Pd7)3
_chemical_formula_sum   'Sm2 As6 Pd21'
_cell_volume   491.55057741
_cell_formula_units_Z   1
loop_
 _symmetry_equiv_pos_site_id
 _symmetry_equiv_pos_as_xyz
  1  'x, y, z'
loop_
 _atom_site_type_symbol
 _atom_site_label
 _atom_site_symmetry_multiplicity
 _atom_site_fract_x
 _atom_site_fract_y
 _atom_site_fract_z
 _atom_site_occupancy
  Sm  Sm0  1  0.750000  0.750000  0.750000  1
  Sm  Sm1  1  0.250000  0.250000  0.250000  1
  As  As2  1  0.738437  0.738437  0.261563  1
  As  As3  1  0.261563  0.738437  0.261563  1
  As  As4  1  0.738437  0.261563  0.261563  1
  As  As5  1  0.261563  0.261563  0.738437  1
  As  As6  1  0.738437  0.261563  0.738437  1
  As  As7  1  0.261563  0.738437  0.738437  1
  Pd  Pd8  1  0.000000  0.000000  0.000000  1
  Pd  Pd9  1  0.616096  0.616096  0.151714  1
  Pd  Pd10  1  0.616096  0.151714  0.616096  1
  Pd  Pd11  1  0.151714  0.616096  0.616096  1
  Pd  Pd12  1  0.616096  0.616096  0.616096  1
  Pd  Pd13  1  0.383904  0.383904  0.848286  1
  Pd  Pd14  1  0.383904  0.848286  0.383904  1
  Pd  Pd15  1  0.848286  0.383904  0.383904  1
  Pd  Pd16  1  0.383904  0.383904  0.383904  1
  Pd  Pd17  1  0.000000  0.000000  0.348252  1
  Pd  Pd18  1  0.651748  0.000000  0.348252  1
  Pd  Pd19  1  0.000000  0.651748  0.348252  1
  Pd  Pd20  1  0.651748  0.348252  0.000000  1
  Pd  Pd21  1  0.000000  0.348252  0.000000  1
  Pd  Pd22  1  0.000000  0.348252  0.651748  1
  Pd  Pd23  1  0.348252  0.651748  0.000000  1
  Pd  Pd24  1  0.348252  0.000000  0.651748  1
  Pd  Pd25  1  0.348252  0.000000  0.000000  1
  Pd  Pd26  1  0.000000  0.000000  0.651748  1
  Pd  Pd27  1  0.000000  0.651748  0.000000  1
  Pd  Pd28  1  0.651748  0.000000  0.000000  1
