# generated using pymatgen
data_Sm3Y(Ga5Ni3)2
_symmetry_space_group_name_H-M   'P 1'
_cell_length_a   8.37276519
_cell_length_b   8.37364845
_cell_length_c   8.37364908
_cell_angle_alpha   140.84403535
_cell_angle_beta   107.58492582
_cell_angle_gamma   85.55365315
_symmetry_Int_Tables_number   1
_chemical_formula_structural   Sm3Y(Ga5Ni3)2
_chemical_formula_sum   'Sm3 Y1 Ga10 Ni6'
_cell_volume   341.18795070
_cell_formula_units_Z   1
loop_
 _symmetry_equiv_pos_site_id
 _symmetry_equiv_pos_as_xyz
  1  'x, y, z'
loop_
 _atom_site_type_symbol
 _atom_site_label
 _atom_site_symmetry_multiplicity
 _atom_site_fract_x
 _atom_site_fract_y
 _atom_site_fract_z
 _atom_site_occupancy
  Sm  Sm0  1  0.135465  0.360823  0.774642  1
  Sm  Sm1  1  0.413174  0.138800  0.274374  1
  Sm  Sm2  1  0.586500  0.861098  0.725402  1
  Y  Y3  1  0.864668  0.639056  0.225611  1
  Ga  Ga4  1  0.501125  0.749952  0.250408  1
  Ga  Ga5  1  0.501125  0.250717  0.751173  1
  Ga  Ga6  1  0.213833  0.964132  0.748874  1
  Ga  Ga7  1  0.785395  0.534909  0.750635  1
  Ga  Ga8  1  0.785395  0.034760  0.250486  1
  Ga  Ga9  1  0.213833  0.464960  0.249702  1
  Ga  Ga10  1  0.072935  0.907457  0.165478  1
  Ga  Ga11  1  0.926043  0.092753  0.833290  1
  Ga  Ga12  1  0.742068  0.408131  0.333937  1
  Ga  Ga13  1  0.258185  0.592321  0.665864  1
  Ni  Ni14  1  0.999849  0.750052  0.749498  1
  Ni  Ni15  1  0.999849  0.250351  0.249797  1
  Ni  Ni16  1  0.260133  0.857979  0.402154  1
  Ni  Ni17  1  0.740332  0.141918  0.598414  1
  Ni  Ni18  1  0.455444  0.357761  0.097682  1
  Ni  Ni19  1  0.544648  0.642070  0.902579  1
