# generated using pymatgen
data_Dy3ErTm4(B6Rh)4
_symmetry_space_group_name_H-M   'P 1'
_cell_length_a   3.63442600
_cell_length_b   9.12774801
_cell_length_c   11.46507301
_cell_angle_alpha   90.00402891
_cell_angle_beta   90.00000000
_cell_angle_gamma   90.00000000
_symmetry_Int_Tables_number   1
_chemical_formula_structural   Dy3ErTm4(B6Rh)4
_chemical_formula_sum   'Dy3 Er1 Tm4 B24 Rh4'
_cell_volume   380.34376038
_cell_formula_units_Z   1
loop_
 _symmetry_equiv_pos_site_id
 _symmetry_equiv_pos_as_xyz
  1  'x, y, z'
loop_
 _atom_site_type_symbol
 _atom_site_label
 _atom_site_symmetry_multiplicity
 _atom_site_fract_x
 _atom_site_fract_y
 _atom_site_fract_z
 _atom_site_occupancy
  Dy  Dy0  1  0.500000  0.322013  0.413642  1
  Dy  Dy1  1  0.500000  0.678011  0.586369  1
  Dy  Dy2  1  0.500000  0.177961  0.913682  1
  Er  Er3  1  0.500000  0.821828  0.086203  1
  Tm  Tm4  1  0.500000  0.444328  0.126853  1
  Tm  Tm5  1  0.500000  0.555966  0.873268  1
  Tm  Tm6  1  0.500000  0.055810  0.626897  1
  Tm  Tm7  1  0.500000  0.944104  0.373021  1
  B  B8  1  0.000000  0.107542  0.470811  1
  B  B9  1  0.000000  0.892413  0.529143  1
  B  B10  1  0.000000  0.392335  0.970805  1
  B  B11  1  0.000000  0.608296  0.029389  1
  B  B12  1  0.000000  0.132309  0.316344  1
  B  B13  1  0.000000  0.867663  0.683625  1
  B  B14  1  0.000000  0.367695  0.816423  1
  B  B15  1  0.000000  0.632727  0.183375  1
  B  B16  1  0.000000  0.053432  0.065697  1
  B  B17  1  0.000000  0.945865  0.934670  1
  B  B18  1  0.000000  0.446118  0.565721  1
  B  B19  1  0.000000  0.553905  0.434226  1
  B  B20  1  0.000000  0.482689  0.286481  1
  B  B21  1  0.000000  0.517442  0.713540  1
  B  B22  1  0.000000  0.017304  0.786565  1
  B  B23  1  0.000000  0.982107  0.213174  1
  B  B24  1  0.000000  0.250128  0.079973  1
  B  B25  1  0.000000  0.750003  0.920545  1
  B  B26  1  0.000000  0.249803  0.579943  1
  B  B27  1  0.000000  0.750196  0.419977  1
  B  B28  1  0.000000  0.294456  0.235662  1
  B  B29  1  0.000000  0.705574  0.764403  1
  B  B30  1  0.000000  0.205521  0.735715  1
  B  B31  1  0.000000  0.794643  0.263867  1
  Rh  Rh32  1  0.500000  0.139400  0.179392  1
  Rh  Rh33  1  0.500000  0.860164  0.820794  1
  Rh  Rh34  1  0.500000  0.360172  0.679562  1
  Rh  Rh35  1  0.500000  0.640079  0.320244  1
