# generated using pymatgen
data_RbNaVF6
_symmetry_space_group_name_H-M   'P 1'
_cell_length_a   5.93693400
_cell_length_b   10.14568200
_cell_length_c   10.18092900
_cell_angle_alpha   90.00000000
_cell_angle_beta   90.00000000
_cell_angle_gamma   90.00000000
_symmetry_Int_Tables_number   1
_chemical_formula_structural   RbNaVF6
_chemical_formula_sum   'Rb4 Na4 V4 F24'
_cell_volume   613.24056580
_cell_formula_units_Z   4
loop_
 _symmetry_equiv_pos_site_id
 _symmetry_equiv_pos_as_xyz
  1  'x, y, z'
loop_
 _atom_site_type_symbol
 _atom_site_label
 _atom_site_symmetry_multiplicity
 _atom_site_fract_x
 _atom_site_fract_y
 _atom_site_fract_z
 _atom_site_occupancy
  Rb  Rb0  1  0.750000  0.984253  0.331876  1
  Rb  Rb1  1  0.250000  0.515747  0.831876  1
  Rb  Rb2  1  0.250000  0.015747  0.668124  1
  Rb  Rb3  1  0.750000  0.484253  0.168124  1
  Na  Na4  1  0.750000  0.134473  0.964244  1
  Na  Na5  1  0.750000  0.634473  0.535756  1
  Na  Na6  1  0.250000  0.365527  0.464244  1
  Na  Na7  1  0.250000  0.865527  0.035756  1
  V  V8  1  0.750000  0.276681  0.577545  1
  V  V9  1  0.250000  0.223319  0.077545  1
  V  V10  1  0.750000  0.776681  0.922455  1
  V  V11  1  0.250000  0.723319  0.422455  1
  F  F12  1  0.518358  0.174854  0.496761  1
  F  F13  1  0.980813  0.387519  0.643072  1
  F  F14  1  0.750000  0.171852  0.725527  1
  F  F15  1  0.981642  0.674854  0.003239  1
  F  F16  1  0.019187  0.612481  0.356928  1
  F  F17  1  0.981642  0.174854  0.496761  1
  F  F18  1  0.250000  0.617824  0.571449  1
  F  F19  1  0.018358  0.825146  0.503239  1
  F  F20  1  0.250000  0.828148  0.274473  1
  F  F21  1  0.250000  0.328148  0.225527  1
  F  F22  1  0.480813  0.112481  0.143072  1
  F  F23  1  0.518358  0.674854  0.003239  1
  F  F24  1  0.750000  0.671852  0.774473  1
  F  F25  1  0.019187  0.112481  0.143072  1
  F  F26  1  0.481642  0.825146  0.503239  1
  F  F27  1  0.750000  0.882176  0.071449  1
  F  F28  1  0.018358  0.325146  0.996761  1
  F  F29  1  0.480813  0.612481  0.356928  1
  F  F30  1  0.481642  0.325146  0.996761  1
  F  F31  1  0.980813  0.887519  0.856928  1
  F  F32  1  0.250000  0.117824  0.928551  1
  F  F33  1  0.750000  0.382176  0.428551  1
  F  F34  1  0.519187  0.887519  0.856928  1
  F  F35  1  0.519187  0.387519  0.643072  1
