# generated using pymatgen
data_Zr18BeRe8Rh
_symmetry_space_group_name_H-M   'P 1'
_cell_length_a   8.69433600
_cell_length_b   8.69433563
_cell_length_c   8.63374300
_cell_angle_alpha   90.00000000
_cell_angle_beta   90.00000000
_cell_angle_gamma   119.99999378
_symmetry_Int_Tables_number   1
_chemical_formula_structural   Zr18BeRe8Rh
_chemical_formula_sum   'Zr18 Be1 Re8 Rh1'
_cell_volume   565.20057793
_cell_formula_units_Z   1
loop_
 _symmetry_equiv_pos_site_id
 _symmetry_equiv_pos_as_xyz
  1  'x, y, z'
loop_
 _atom_site_type_symbol
 _atom_site_label
 _atom_site_symmetry_multiplicity
 _atom_site_fract_x
 _atom_site_fract_y
 _atom_site_fract_z
 _atom_site_occupancy
  Zr  Zr0  1  0.196300  0.803700  0.447667  1
  Zr  Zr1  1  0.196300  0.392599  0.447667  1
  Zr  Zr2  1  0.607401  0.803700  0.447667  1
  Zr  Zr3  1  0.803342  0.196658  0.552453  1
  Zr  Zr4  1  0.803342  0.606685  0.552453  1
  Zr  Zr5  1  0.393315  0.196658  0.552453  1
  Zr  Zr6  1  0.803342  0.196658  0.947547  1
  Zr  Zr7  1  0.803342  0.606685  0.947547  1
  Zr  Zr8  1  0.393315  0.196658  0.947547  1
  Zr  Zr9  1  0.196300  0.803700  0.052333  1
  Zr  Zr10  1  0.196300  0.392599  0.052333  1
  Zr  Zr11  1  0.607401  0.803700  0.052333  1
  Zr  Zr12  1  0.542060  0.457940  0.250000  1
  Zr  Zr13  1  0.542060  0.084121  0.250000  1
  Zr  Zr14  1  0.915879  0.457940  0.250000  1
  Zr  Zr15  1  0.460623  0.539377  0.750000  1
  Zr  Zr16  1  0.460623  0.921244  0.750000  1
  Zr  Zr17  1  0.078756  0.539377  0.750000  1
  Be  Be18  1  0.666667  0.333333  0.750000  1
  Re  Re19  1  0.891417  0.108583  0.250000  1
  Re  Re20  1  0.891417  0.782834  0.250000  1
  Re  Re21  1  0.217166  0.108583  0.250000  1
  Re  Re22  1  0.107820  0.892180  0.750000  1
  Re  Re23  1  0.107820  0.215641  0.750000  1
  Re  Re24  1  0.784359  0.892180  0.750000  1
  Re  Re25  1  0.000000  0.000000  0.499810  1
  Re  Re26  1  0.000000  0.000000  0.000190  1
  Rh  Rh27  1  0.333333  0.666667  0.250000  1
