# generated using pymatgen
data_Ti10Al2SnBi3
_symmetry_space_group_name_H-M   'P 1'
_cell_length_a   7.99830776
_cell_length_b   7.99830778
_cell_length_c   7.99729173
_cell_angle_alpha   96.22977051
_cell_angle_beta   96.22976672
_cell_angle_gamma   141.53568523
_symmetry_Int_Tables_number   1
_chemical_formula_structural   Ti10Al2SnBi3
_chemical_formula_sum   'Ti10 Al2 Sn1 Bi3'
_cell_volume   300.47056038
_cell_formula_units_Z   1
loop_
 _symmetry_equiv_pos_site_id
 _symmetry_equiv_pos_as_xyz
  1  'x, y, z'
loop_
 _atom_site_type_symbol
 _atom_site_label
 _atom_site_symmetry_multiplicity
 _atom_site_fract_x
 _atom_site_fract_y
 _atom_site_fract_z
 _atom_site_occupancy
  Ti  Ti0  1  0.212989  0.924594  0.137583  1
  Ti  Ti1  1  0.424594  0.712989  0.137583  1
  Ti  Ti2  1  0.072734  0.213765  0.286500  1
  Ti  Ti3  1  0.713765  0.572734  0.286500  1
  Ti  Ti4  1  0.755716  0.255716  0.506323  1
  Ti  Ti5  1  0.250605  0.750605  0.506323  1
  Ti  Ti6  1  0.282732  0.429243  0.711975  1
  Ti  Ti7  1  0.929243  0.782732  0.711975  1
  Ti  Ti8  1  0.783593  0.074711  0.858304  1
  Ti  Ti9  1  0.574710  0.283593  0.858303  1
  Al  Al10  1  0.249201  0.249201  0.998403  1
  Al  Al11  1  0.749201  0.749201  0.998403  1
  Sn  Sn12  1  0.165276  0.665276  0.830552  1
  Bi  Bi13  1  0.836257  0.336257  0.172513  1
  Bi  Bi14  1  0.334774  0.164605  0.499378  1
  Bi  Bi15  1  0.664605  0.834774  0.499378  1
