# generated using pymatgen
data_DyYU6(ReB6)4
_symmetry_space_group_name_H-M   'P 1'
_cell_length_a   3.63847100
_cell_length_b   9.30166177
_cell_length_c   11.40233500
_cell_angle_alpha   89.97776430
_cell_angle_beta   90.00000000
_cell_angle_gamma   90.00000000
_symmetry_Int_Tables_number   1
_chemical_formula_structural   DyYU6(ReB6)4
_chemical_formula_sum   'Dy1 Y1 U6 Re4 B24'
_cell_volume   385.89861940
_cell_formula_units_Z   1
loop_
 _symmetry_equiv_pos_site_id
 _symmetry_equiv_pos_as_xyz
  1  'x, y, z'
loop_
 _atom_site_type_symbol
 _atom_site_label
 _atom_site_symmetry_multiplicity
 _atom_site_fract_x
 _atom_site_fract_y
 _atom_site_fract_z
 _atom_site_occupancy
  Dy  Dy0  1  0.000000  0.336463  0.407822  1
  Y  Y1  1  0.000000  0.663457  0.592073  1
  U  U2  1  0.000000  0.836399  0.092753  1
  U  U3  1  0.000000  0.163712  0.907216  1
  U  U4  1  0.000000  0.956416  0.396246  1
  U  U5  1  0.000000  0.043478  0.603554  1
  U  U6  1  0.000000  0.457246  0.103465  1
  U  U7  1  0.000000  0.542895  0.896469  1
  Re  Re8  1  0.000000  0.647473  0.316524  1
  Re  Re9  1  0.000000  0.352282  0.683402  1
  Re  Re10  1  0.000000  0.143262  0.177857  1
  Re  Re11  1  0.000000  0.856841  0.822336  1
  B  B12  1  0.500000  0.551897  0.430645  1
  B  B13  1  0.500000  0.447832  0.569155  1
  B  B14  1  0.500000  0.049821  0.067560  1
  B  B15  1  0.500000  0.950149  0.932626  1
  B  B16  1  0.500000  0.742856  0.423129  1
  B  B17  1  0.500000  0.257142  0.576694  1
  B  B18  1  0.500000  0.243113  0.076357  1
  B  B19  1  0.500000  0.756963  0.923800  1
  B  B20  1  0.500000  0.803860  0.273507  1
  B  B21  1  0.500000  0.196178  0.726400  1
  B  B22  1  0.500000  0.302313  0.225165  1
  B  B23  1  0.500000  0.697743  0.775030  1
  B  B24  1  0.500000  0.645215  0.187890  1
  B  B25  1  0.500000  0.354832  0.812097  1
  B  B26  1  0.500000  0.144493  0.311422  1
  B  B27  1  0.500000  0.855650  0.688686  1
  B  B28  1  0.500000  0.987003  0.219093  1
  B  B29  1  0.500000  0.012959  0.780964  1
  B  B30  1  0.500000  0.488341  0.280720  1
  B  B31  1  0.500000  0.511509  0.719335  1
  B  B32  1  0.500000  0.643451  0.039463  1
  B  B33  1  0.500000  0.356711  0.960618  1
  B  B34  1  0.500000  0.140289  0.460855  1
  B  B35  1  0.500000  0.859756  0.539073  1
