# generated using pymatgen
data_Ho8Er2Sn5Sb
_symmetry_space_group_name_H-M   'P 1'
_cell_length_a   8.91741900
_cell_length_b   8.92528224
_cell_length_c   6.48221202
_cell_angle_alpha   90.00848401
_cell_angle_beta   90.00000000
_cell_angle_gamma   119.97085710
_symmetry_Int_Tables_number   1
_chemical_formula_structural   Ho8Er2Sn5Sb
_chemical_formula_sum   'Ho8 Er2 Sn5 Sb1'
_cell_volume   446.93302846
_cell_formula_units_Z   1
loop_
 _symmetry_equiv_pos_site_id
 _symmetry_equiv_pos_as_xyz
  1  'x, y, z'
loop_
 _atom_site_type_symbol
 _atom_site_label
 _atom_site_symmetry_multiplicity
 _atom_site_fract_x
 _atom_site_fract_y
 _atom_site_fract_z
 _atom_site_occupancy
  Ho  Ho0  1  0.997405  0.760145  0.750020  1
  Ho  Ho1  1  0.000996  0.238766  0.250021  1
  Ho  Ho2  1  0.762229  0.761234  0.249979  1
  Ho  Ho3  1  0.761984  0.000000  0.750000  1
  Ho  Ho4  1  0.237260  0.239855  0.749980  1
  Ho  Ho5  1  0.238876  0.000000  0.250000  1
  Ho  Ho6  1  0.333371  0.665869  0.499801  1
  Ho  Ho7  1  0.667503  0.334131  0.000199  1
  Er  Er8  1  0.667516  0.334161  0.499710  1
  Er  Er9  1  0.333354  0.665839  0.000290  1
  Sn  Sn10  1  0.395589  0.394433  0.250018  1
  Sn  Sn11  1  0.001156  0.605567  0.249982  1
  Sn  Sn12  1  0.999636  0.395465  0.750006  1
  Sn  Sn13  1  0.604171  0.604535  0.749994  1
  Sn  Sn14  1  0.605853  0.000000  0.250000  1
  Sb  Sb15  1  0.393102  0.000000  0.750000  1
