# generated using pymatgen
data_LaB2OsRu
_symmetry_space_group_name_H-M   'P 1'
_cell_length_a   6.87182471
_cell_length_b   6.07161359
_cell_length_c   5.66161949
_cell_angle_alpha   71.60397388
_cell_angle_beta   56.97160818
_cell_angle_gamma   51.42441648
_symmetry_Int_Tables_number   1
_chemical_formula_structural   LaB2OsRu
_chemical_formula_sum   'La2 B4 Os2 Ru2'
_cell_volume   154.72419019
_cell_formula_units_Z   2
loop_
 _symmetry_equiv_pos_site_id
 _symmetry_equiv_pos_as_xyz
  1  'x, y, z'
loop_
 _atom_site_type_symbol
 _atom_site_label
 _atom_site_symmetry_multiplicity
 _atom_site_fract_x
 _atom_site_fract_y
 _atom_site_fract_z
 _atom_site_occupancy
  La  La0  1  0.000000  0.000000  0.000000  1
  La  La1  1  0.250000  0.250000  0.250000  1
  B  B2  1  0.316832  0.683168  0.316832  1
  B  B3  1  0.683168  0.316832  0.683168  1
  B  B4  1  0.571677  0.928323  0.571677  1
  B  B5  1  0.928323  0.571677  0.928323  1
  Os  Os6  1  0.613084  0.613084  0.886916  1
  Os  Os7  1  0.886916  0.886916  0.613084  1
  Ru  Ru8  1  0.636355  0.636355  0.363645  1
  Ru  Ru9  1  0.363645  0.363645  0.636355  1
