# generated using pymatgen
data_Eu6RuRh
_symmetry_space_group_name_H-M   'P 1'
_cell_length_a   6.63627300
_cell_length_b   7.80360800
_cell_length_c   9.84140600
_cell_angle_alpha   90.00000000
_cell_angle_beta   90.00000000
_cell_angle_gamma   90.00000000
_symmetry_Int_Tables_number   1
_chemical_formula_structural   Eu6RuRh
_chemical_formula_sum   'Eu12 Ru2 Rh2'
_cell_volume   509.65564338
_cell_formula_units_Z   2
loop_
 _symmetry_equiv_pos_site_id
 _symmetry_equiv_pos_as_xyz
  1  'x, y, z'
loop_
 _atom_site_type_symbol
 _atom_site_label
 _atom_site_symmetry_multiplicity
 _atom_site_fract_x
 _atom_site_fract_y
 _atom_site_fract_z
 _atom_site_occupancy
  Eu  Eu0  1  0.334344  0.669220  0.070912  1
  Eu  Eu1  1  0.165656  0.169220  0.429088  1
  Eu  Eu2  1  0.660844  0.330827  0.565168  1
  Eu  Eu3  1  0.839156  0.830827  0.934832  1
  Eu  Eu4  1  0.660844  0.330827  0.934832  1
  Eu  Eu5  1  0.839156  0.830827  0.565168  1
  Eu  Eu6  1  0.334344  0.669220  0.429088  1
  Eu  Eu7  1  0.165656  0.169220  0.070912  1
  Eu  Eu8  1  0.856094  0.544364  0.250000  1
  Eu  Eu9  1  0.643906  0.044364  0.250000  1
  Eu  Eu10  1  0.144038  0.455613  0.750000  1
  Eu  Eu11  1  0.355962  0.955613  0.750000  1
  Ru  Ru12  1  0.043284  0.878944  0.250000  1
  Ru  Ru13  1  0.456716  0.378944  0.250000  1
  Rh  Rh14  1  0.953302  0.120985  0.750000  1
  Rh  Rh15  1  0.546698  0.620985  0.750000  1
