# generated using pymatgen
data_Sc2ReSi2W
_symmetry_space_group_name_H-M   'P 1'
_cell_length_a   7.03724100
_cell_length_b   3.47193000
_cell_length_c   8.13428600
_cell_angle_alpha   90.00000000
_cell_angle_beta   90.00000000
_cell_angle_gamma   90.00000000
_symmetry_Int_Tables_number   1
_chemical_formula_structural   Sc2ReSi2W
_chemical_formula_sum   'Sc4 Re2 Si4 W2'
_cell_volume   198.74344924
_cell_formula_units_Z   2
loop_
 _symmetry_equiv_pos_site_id
 _symmetry_equiv_pos_as_xyz
  1  'x, y, z'
loop_
 _atom_site_type_symbol
 _atom_site_label
 _atom_site_symmetry_multiplicity
 _atom_site_fract_x
 _atom_site_fract_y
 _atom_site_fract_z
 _atom_site_occupancy
  Sc  Sc0  1  0.039715  0.750001  0.163978  1
  Sc  Sc1  1  0.539714  0.750001  0.336022  1
  Sc  Sc2  1  0.460713  0.250000  0.666175  1
  Sc  Sc3  1  0.960713  0.250000  0.833825  1
  Re  Re4  1  0.367920  0.250000  0.062995  1
  Re  Re5  1  0.867919  0.250000  0.437005  1
  Si  Si6  1  0.736633  0.250000  0.141128  1
  Si  Si7  1  0.236633  0.250000  0.358872  1
  Si  Si8  1  0.762951  0.750001  0.636410  1
  Si  Si9  1  0.262952  0.750001  0.863590  1
  W  W10  1  0.132067  0.750001  0.561218  1
  W  W11  1  0.632067  0.750001  0.938783  1
