# generated using pymatgen
data_Zr6Ta4AlSi5N2
_symmetry_space_group_name_H-M   'P 1'
_cell_length_a   7.84451609
_cell_length_b   7.84451767
_cell_length_c   5.43864000
_cell_angle_alpha   90.00000000
_cell_angle_beta   90.00000000
_cell_angle_gamma   119.91641784
_symmetry_Int_Tables_number   1
_chemical_formula_structural   Zr6Ta4AlSi5N2
_chemical_formula_sum   'Zr6 Ta4 Al1 Si5 N2'
_cell_volume   290.08048130
_cell_formula_units_Z   1
loop_
 _symmetry_equiv_pos_site_id
 _symmetry_equiv_pos_as_xyz
  1  'x, y, z'
loop_
 _atom_site_type_symbol
 _atom_site_label
 _atom_site_symmetry_multiplicity
 _atom_site_fract_x
 _atom_site_fract_y
 _atom_site_fract_z
 _atom_site_occupancy
  Zr  Zr0  1  0.236963  0.000408  0.250000  1
  Zr  Zr1  1  0.764688  0.003309  0.750000  1
  Zr  Zr2  1  0.000408  0.236963  0.250000  1
  Zr  Zr3  1  0.003309  0.764688  0.750000  1
  Zr  Zr4  1  0.764899  0.764899  0.250000  1
  Zr  Zr5  1  0.233831  0.233831  0.750000  1
  Ta  Ta6  1  0.329448  0.668001  0.000223  1
  Ta  Ta7  1  0.668001  0.329448  0.000223  1
  Ta  Ta8  1  0.668001  0.329448  0.499777  1
  Ta  Ta9  1  0.329448  0.668001  0.499777  1
  Al  Al10  1  0.588998  0.588998  0.750000  1
  Si  Si11  1  0.589402  0.997843  0.250000  1
  Si  Si12  1  0.409802  0.000554  0.750000  1
  Si  Si13  1  0.997843  0.589402  0.250000  1
  Si  Si14  1  0.000554  0.409802  0.750000  1
  Si  Si15  1  0.413270  0.413270  0.250000  1
  N  N16  1  0.000566  0.000566  0.000347  1
  N  N17  1  0.000566  0.000566  0.499653  1
