# generated using pymatgen
data_NdGd5Er2(MoO6)4
_symmetry_space_group_name_H-M   'P 1'
_cell_length_a   10.04827016
_cell_length_b   10.04510400
_cell_length_c   5.45357227
_cell_angle_alpha   75.01972236
_cell_angle_beta   75.09083289
_cell_angle_gamma   68.30808565
_symmetry_Int_Tables_number   1
_chemical_formula_structural   NdGd5Er2(MoO6)4
_chemical_formula_sum   'Nd1 Gd5 Er2 Mo4 O24'
_cell_volume   486.00934935
_cell_formula_units_Z   1
loop_
 _symmetry_equiv_pos_site_id
 _symmetry_equiv_pos_as_xyz
  1  'x, y, z'
loop_
 _atom_site_type_symbol
 _atom_site_label
 _atom_site_symmetry_multiplicity
 _atom_site_fract_x
 _atom_site_fract_y
 _atom_site_fract_z
 _atom_site_occupancy
  Nd  Nd0  1  0.788193  0.551386  0.616609  1
  Gd  Gd1  1  0.389973  0.606999  0.748054  1
  Gd  Gd2  1  0.551167  0.784781  0.118753  1
  Gd  Gd3  1  0.135358  0.864840  0.250814  1
  Gd  Gd4  1  0.445941  0.215807  0.876593  1
  Gd  Gd5  1  0.862538  0.138056  0.750432  1
  Er  Er6  1  0.217942  0.444216  0.373938  1
  Er  Er7  1  0.600888  0.395702  0.248541  1
  Mo  Mo8  1  0.296094  0.012132  0.559474  1
  Mo  Mo9  1  0.702320  0.991913  0.435904  1
  Mo  Mo10  1  0.992083  0.702889  0.940974  1
  Mo  Mo11  1  0.012155  0.296616  0.064425  1
  O  O12  1  0.388117  0.425848  0.572180  1
  O  O13  1  0.569015  0.977055  0.739244  1
  O  O14  1  0.820202  0.711398  0.871008  1
  O  O15  1  0.672430  0.116049  0.125461  1
  O  O16  1  0.116200  0.672659  0.632976  1
  O  O17  1  0.326491  0.886020  0.868017  1
  O  O18  1  0.288101  0.183123  0.632023  1
  O  O19  1  0.982849  0.562590  0.236640  1
  O  O20  1  0.569685  0.606804  0.927009  1
  O  O21  1  0.431029  0.025327  0.257668  1
  O  O22  1  0.111912  0.047232  0.517213  1
  O  O23  1  0.192079  0.660128  0.089858  1
  O  O24  1  0.806777  0.336172  0.935908  1
  O  O25  1  0.336443  0.810241  0.417094  1
  O  O26  1  0.887982  0.325828  0.376833  1
  O  O27  1  0.955977  0.887366  0.984586  1
  O  O28  1  0.885635  0.954667  0.484580  1
  O  O29  1  0.661332  0.196440  0.572406  1
  O  O30  1  0.711270  0.820540  0.361899  1
  O  O31  1  0.049418  0.113453  0.017095  1
  O  O32  1  0.182110  0.289446  0.142581  1
  O  O33  1  0.604533  0.571308  0.418595  1
  O  O34  1  0.424218  0.390256  0.080461  1
  O  O35  1  0.031540  0.424715  0.754154  1
