# generated using pymatgen
data_Lu17Sc3(Bi2Sb)4
_symmetry_space_group_name_H-M   'P 1'
_cell_length_a   7.96806901
_cell_length_b   9.27310100
_cell_length_c   11.67053701
_cell_angle_alpha   90.00000000
_cell_angle_beta   90.00507068
_cell_angle_gamma   90.00000000
_symmetry_Int_Tables_number   1
_chemical_formula_structural   Lu17Sc3(Bi2Sb)4
_chemical_formula_sum   'Lu17 Sc3 Bi8 Sb4'
_cell_volume   862.32090605
_cell_formula_units_Z   1
loop_
 _symmetry_equiv_pos_site_id
 _symmetry_equiv_pos_as_xyz
  1  'x, y, z'
loop_
 _atom_site_type_symbol
 _atom_site_label
 _atom_site_symmetry_multiplicity
 _atom_site_fract_x
 _atom_site_fract_y
 _atom_site_fract_z
 _atom_site_occupancy
  Lu  Lu0  1  0.191094  0.566508  0.442288  1
  Lu  Lu1  1  0.691897  0.934153  0.057306  1
  Lu  Lu2  1  0.810448  0.064638  0.558265  1
  Lu  Lu3  1  0.308132  0.434328  0.942728  1
  Lu  Lu4  1  0.810448  0.435362  0.558265  1
  Lu  Lu5  1  0.308132  0.065672  0.942728  1
  Lu  Lu6  1  0.191094  0.933492  0.442288  1
  Lu  Lu7  1  0.691897  0.565847  0.057306  1
  Lu  Lu8  1  0.473604  0.250000  0.489128  1
  Lu  Lu9  1  0.182857  0.750000  0.717347  1
  Lu  Lu10  1  0.683376  0.750000  0.782848  1
  Lu  Lu11  1  0.816624  0.250000  0.282247  1
  Lu  Lu12  1  0.315847  0.250000  0.215933  1
  Lu  Lu13  1  0.854265  0.750000  0.284953  1
  Lu  Lu14  1  0.353374  0.750000  0.214509  1
  Lu  Lu15  1  0.145562  0.250000  0.715254  1
  Lu  Lu16  1  0.646360  0.250000  0.785201  1
  Sc  Sc17  1  0.026744  0.750000  0.988517  1
  Sc  Sc18  1  0.526593  0.750000  0.511513  1
  Sc  Sc19  1  0.973225  0.250000  0.011621  1
  Bi  Bi20  1  0.934983  0.496891  0.828166  1
  Bi  Bi21  1  0.434618  0.001095  0.673616  1
  Bi  Bi22  1  0.065069  0.996354  0.171902  1
  Bi  Bi23  1  0.566183  0.505365  0.326427  1
  Bi  Bi24  1  0.065069  0.503646  0.171902  1
  Bi  Bi25  1  0.566183  0.994635  0.326427  1
  Bi  Bi26  1  0.934983  0.003109  0.828166  1
  Bi  Bi27  1  0.434618  0.498905  0.673616  1
  Sb  Sb28  1  0.900240  0.750000  0.542134  1
  Sb  Sb29  1  0.400504  0.750000  0.958067  1
  Sb  Sb30  1  0.096344  0.250000  0.457287  1
  Sb  Sb31  1  0.599632  0.250000  0.042042  1
