# generated using pymatgen
data_Ho2UTc2Ir
_symmetry_space_group_name_H-M   'P 1'
_cell_length_a   5.78255289
_cell_length_b   5.81578427
_cell_length_c   8.17031000
_cell_angle_alpha   90.00000000
_cell_angle_beta   90.00000000
_cell_angle_gamma   120.19028941
_symmetry_Int_Tables_number   1
_chemical_formula_structural   Ho2UTc2Ir
_chemical_formula_sum   'Ho4 U2 Tc4 Ir2'
_cell_volume   237.49863585
_cell_formula_units_Z   2
loop_
 _symmetry_equiv_pos_site_id
 _symmetry_equiv_pos_as_xyz
  1  'x, y, z'
loop_
 _atom_site_type_symbol
 _atom_site_label
 _atom_site_symmetry_multiplicity
 _atom_site_fract_x
 _atom_site_fract_y
 _atom_site_fract_z
 _atom_site_occupancy
  Ho  Ho0  1  0.336728  0.668364  0.438036  1
  Ho  Ho1  1  0.670752  0.335375  0.557088  1
  Ho  Ho2  1  0.670752  0.335375  0.942912  1
  Ho  Ho3  1  0.336728  0.668364  0.061964  1
  U  U4  1  0.013814  0.006907  0.504498  1
  U  U5  1  0.013814  0.006907  0.995502  1
  Tc  Tc6  1  0.318887  0.159443  0.250000  1
  Tc  Tc7  1  0.165280  0.842454  0.750000  1
  Tc  Tc8  1  0.165280  0.322826  0.750000  1
  Tc  Tc9  1  0.669088  0.834544  0.750000  1
  Ir  Ir10  1  0.819439  0.164930  0.250000  1
  Ir  Ir11  1  0.819439  0.654509  0.250000  1
