# generated using pymatgen
data_Er3Zr(ZnRh2)4
_symmetry_space_group_name_H-M   'P 1'
_cell_length_a   6.08509500
_cell_length_b   6.08514300
_cell_length_c   7.03330200
_cell_angle_alpha   90.00064599
_cell_angle_beta   90.00050677
_cell_angle_gamma   89.99879479
_symmetry_Int_Tables_number   1
_chemical_formula_structural   Er3Zr(ZnRh2)4
_chemical_formula_sum   'Er3 Zr1 Zn4 Rh8'
_cell_volume   260.43384154
_cell_formula_units_Z   1
loop_
 _symmetry_equiv_pos_site_id
 _symmetry_equiv_pos_as_xyz
  1  'x, y, z'
loop_
 _atom_site_type_symbol
 _atom_site_label
 _atom_site_symmetry_multiplicity
 _atom_site_fract_x
 _atom_site_fract_y
 _atom_site_fract_z
 _atom_site_occupancy
  Er  Er0  1  0.749980  0.249998  0.999800  1
  Er  Er1  1  0.249954  0.749996  0.999848  1
  Er  Er2  1  0.250171  0.750001  0.500219  1
  Zr  Zr3  1  0.749996  0.249999  0.499873  1
  Zn  Zn4  1  0.249955  0.250000  0.000058  1
  Zn  Zn5  1  0.749975  0.750001  0.000073  1
  Zn  Zn6  1  0.750018  0.750000  0.499947  1
  Zn  Zn7  1  0.249984  0.250000  0.500015  1
  Rh  Rh8  1  0.502914  0.003050  0.253975  1
  Rh  Rh9  1  0.502915  0.496941  0.253974  1
  Rh  Rh10  1  0.996937  0.002986  0.254052  1
  Rh  Rh11  1  0.996936  0.497019  0.254048  1
  Rh  Rh12  1  0.997028  0.003001  0.746017  1
  Rh  Rh13  1  0.997024  0.497000  0.746020  1
  Rh  Rh14  1  0.503106  0.003037  0.746040  1
  Rh  Rh15  1  0.503108  0.496970  0.746039  1
