# generated using pymatgen
data_Tb2Ho2Sn10PdRh5
_symmetry_space_group_name_H-M   'P 1'
_cell_length_a   13.47588718
_cell_length_b   13.47588836
_cell_length_c   7.29324644
_cell_angle_alpha   89.89067155
_cell_angle_beta   90.10932939
_cell_angle_gamma   161.09513927
_symmetry_Int_Tables_number   1
_chemical_formula_structural   Tb2Ho2Sn10PdRh5
_chemical_formula_sum   'Tb2 Ho2 Sn10 Pd1 Rh5'
_cell_volume   429.11801411
_cell_formula_units_Z   1
loop_
 _symmetry_equiv_pos_site_id
 _symmetry_equiv_pos_as_xyz
  1  'x, y, z'
loop_
 _atom_site_type_symbol
 _atom_site_label
 _atom_site_symmetry_multiplicity
 _atom_site_fract_x
 _atom_site_fract_y
 _atom_site_fract_z
 _atom_site_occupancy
  Tb  Tb0  1  0.173084  0.826916  0.743475  1
  Tb  Tb1  1  0.827542  0.172458  0.244069  1
  Ho  Ho2  1  0.475013  0.524987  0.758985  1
  Ho  Ho3  1  0.523284  0.476716  0.266700  1
  Sn  Sn4  1  0.880515  0.119485  0.769743  1
  Sn  Sn5  1  0.120394  0.879606  0.273419  1
  Sn  Sn6  1  0.704663  0.295337  0.451387  1
  Sn  Sn7  1  0.295903  0.704097  0.950725  1
  Sn  Sn8  1  0.597530  0.402470  0.882785  1
  Sn  Sn9  1  0.403291  0.596709  0.386595  1
  Sn  Sn10  1  0.951645  0.048355  0.104399  1
  Sn  Sn11  1  0.047149  0.952851  0.597864  1
  Sn  Sn12  1  0.290767  0.709233  0.522494  1
  Sn  Sn13  1  0.709594  0.290406  0.022331  1
  Pd  Pd14  1  0.049847  0.950153  0.983977  1
  Rh  Rh15  1  0.949893  0.050107  0.483857  1
  Rh  Rh16  1  0.776410  0.223590  0.735008  1
  Rh  Rh17  1  0.223229  0.776771  0.234385  1
  Rh  Rh18  1  0.394629  0.605371  0.016734  1
  Rh  Rh19  1  0.605619  0.394381  0.515070  1
