# generated using pymatgen
data_Eu2Ho(MgIr)3
_symmetry_space_group_name_H-M   'P 1'
_cell_length_a   7.26123869
_cell_length_b   7.26123889
_cell_length_c   4.21004900
_cell_angle_alpha   90.00000000
_cell_angle_beta   90.00000000
_cell_angle_gamma   119.70730970
_symmetry_Int_Tables_number   1
_chemical_formula_structural   Eu2Ho(MgIr)3
_chemical_formula_sum   'Eu2 Ho1 Mg3 Ir3'
_cell_volume   192.80245613
_cell_formula_units_Z   1
loop_
 _symmetry_equiv_pos_site_id
 _symmetry_equiv_pos_as_xyz
  1  'x, y, z'
loop_
 _atom_site_type_symbol
 _atom_site_label
 _atom_site_symmetry_multiplicity
 _atom_site_fract_x
 _atom_site_fract_y
 _atom_site_fract_z
 _atom_site_occupancy
  Eu  Eu0  1  0.418110  0.001293  0.500001  1
  Eu  Eu1  1  0.001293  0.418110  0.500001  1
  Ho  Ho2  1  0.589439  0.589439  0.500001  1
  Mg  Mg3  1  0.756031  0.000071  0.000000  1
  Mg  Mg4  1  0.240252  0.240253  0.000000  1
  Mg  Mg5  1  0.000071  0.756031  0.000000  1
  Ir  Ir6  1  0.661221  0.344323  0.000000  1
  Ir  Ir7  1  0.344323  0.661221  0.000000  1
  Ir  Ir8  1  0.989260  0.989260  0.500001  1
