# generated using pymatgen
data_Tb4Pb3
_symmetry_space_group_name_H-M   'P 1'
_cell_length_a   8.18671635
_cell_length_b   8.18671656
_cell_length_c   8.18671600
_cell_angle_alpha   109.47122419
_cell_angle_beta   109.47122472
_cell_angle_gamma   109.47121602
_symmetry_Int_Tables_number   1
_chemical_formula_structural   Tb4Pb3
_chemical_formula_sum   'Tb8 Pb6'
_cell_volume   422.38386103
_cell_formula_units_Z   2
loop_
 _symmetry_equiv_pos_site_id
 _symmetry_equiv_pos_as_xyz
  1  'x, y, z'
loop_
 _atom_site_type_symbol
 _atom_site_label
 _atom_site_symmetry_multiplicity
 _atom_site_fract_x
 _atom_site_fract_y
 _atom_site_fract_z
 _atom_site_occupancy
  Tb  Tb0  1  0.358694  0.500000  0.000000  1
  Tb  Tb1  1  0.858694  0.499999  0.000000  1
  Tb  Tb2  1  0.141306  0.141306  0.141306  1
  Tb  Tb3  1  0.500000  0.000000  0.358694  1
  Tb  Tb4  1  0.000000  0.358694  0.500000  1
  Tb  Tb5  1  0.000000  0.858694  0.499999  1
  Tb  Tb6  1  0.641307  0.641307  0.641307  1
  Tb  Tb7  1  0.499999  0.000000  0.858694  1
  Pb  Pb8  1  0.750000  0.874999  0.125000  1
  Pb  Pb9  1  0.625000  0.375000  0.250000  1
  Pb  Pb10  1  0.250000  0.625000  0.375000  1
  Pb  Pb11  1  0.375000  0.250000  0.625000  1
  Pb  Pb12  1  0.874999  0.125000  0.750000  1
  Pb  Pb13  1  0.125000  0.750000  0.874999  1
