# generated using pymatgen
data_TbPrGd6(Si3Pd)4
_symmetry_space_group_name_H-M   'P 1'
_cell_length_a   8.17555800
_cell_length_b   8.17555807
_cell_length_c   8.21762900
_cell_angle_alpha   90.00000000
_cell_angle_beta   90.00000000
_cell_angle_gamma   119.99999971
_symmetry_Int_Tables_number   1
_chemical_formula_structural   TbPrGd6(Si3Pd)4
_chemical_formula_sum   'Tb1 Pr1 Gd6 Si12 Pd4'
_cell_volume   475.67680506
_cell_formula_units_Z   1
loop_
 _symmetry_equiv_pos_site_id
 _symmetry_equiv_pos_as_xyz
  1  'x, y, z'
loop_
 _atom_site_type_symbol
 _atom_site_label
 _atom_site_symmetry_multiplicity
 _atom_site_fract_x
 _atom_site_fract_y
 _atom_site_fract_z
 _atom_site_occupancy
  Tb  Tb0  1  0.000000  0.000000  0.750000  1
  Pr  Pr1  1  0.000000  0.000000  0.250000  1
  Gd  Gd2  1  0.499753  0.500247  0.750000  1
  Gd  Gd3  1  0.500175  0.499825  0.250000  1
  Gd  Gd4  1  0.000494  0.500247  0.750000  1
  Gd  Gd5  1  0.999652  0.499825  0.250000  1
  Gd  Gd6  1  0.499753  0.999506  0.750000  1
  Gd  Gd7  1  0.500175  0.000348  0.250000  1
  Si  Si8  1  0.834294  0.165706  0.996008  1
  Si  Si9  1  0.165729  0.834271  0.996389  1
  Si  Si10  1  0.331410  0.165706  0.996008  1
  Si  Si11  1  0.165729  0.834271  0.503611  1
  Si  Si12  1  0.668544  0.834271  0.996389  1
  Si  Si13  1  0.834294  0.165706  0.503992  1
  Si  Si14  1  0.834294  0.668590  0.996008  1
  Si  Si15  1  0.668544  0.834271  0.503611  1
  Si  Si16  1  0.165729  0.331456  0.996389  1
  Si  Si17  1  0.331410  0.165706  0.503992  1
  Si  Si18  1  0.165729  0.331456  0.503611  1
  Si  Si19  1  0.834294  0.668590  0.503992  1
  Pd  Pd20  1  0.666667  0.333333  0.000276  1
  Pd  Pd21  1  0.333333  0.666667  0.001334  1
  Pd  Pd22  1  0.333333  0.666667  0.498666  1
  Pd  Pd23  1  0.666667  0.333333  0.499724  1
