# generated using pymatgen
data_Zr18Ta7AuO6
_symmetry_space_group_name_H-M   'P 1'
_cell_length_a   8.80905000
_cell_length_b   8.75544544
_cell_length_c   8.70356000
_cell_angle_alpha   90.00000000
_cell_angle_beta   90.00000000
_cell_angle_gamma   120.20274327
_symmetry_Int_Tables_number   1
_chemical_formula_structural   Zr18Ta7AuO6
_chemical_formula_sum   'Zr18 Ta7 Au1 O6'
_cell_volume   580.15494351
_cell_formula_units_Z   1
loop_
 _symmetry_equiv_pos_site_id
 _symmetry_equiv_pos_as_xyz
  1  'x, y, z'
loop_
 _atom_site_type_symbol
 _atom_site_label
 _atom_site_symmetry_multiplicity
 _atom_site_fract_x
 _atom_site_fract_y
 _atom_site_fract_z
 _atom_site_occupancy
  Zr  Zr0  1  0.453791  0.907583  0.250000  1
  Zr  Zr1  1  0.546197  0.092392  0.750000  1
  Zr  Zr2  1  0.094227  0.554527  0.250000  1
  Zr  Zr3  1  0.907514  0.454000  0.750000  1
  Zr  Zr4  1  0.460298  0.554527  0.250000  1
  Zr  Zr5  1  0.546487  0.454000  0.750000  1
  Zr  Zr6  1  0.208196  0.416393  0.569324  1
  Zr  Zr7  1  0.792056  0.584110  0.438389  1
  Zr  Zr8  1  0.587254  0.791587  0.561750  1
  Zr  Zr9  1  0.792056  0.584110  0.061611  1
  Zr  Zr10  1  0.413165  0.206566  0.440002  1
  Zr  Zr11  1  0.208196  0.416393  0.930676  1
  Zr  Zr12  1  0.204332  0.791587  0.561750  1
  Zr  Zr13  1  0.413165  0.206566  0.059998  1
  Zr  Zr14  1  0.793402  0.206566  0.440002  1
  Zr  Zr15  1  0.587254  0.791587  0.938250  1
  Zr  Zr16  1  0.793402  0.206566  0.059998  1
  Zr  Zr17  1  0.204332  0.791587  0.938250  1
  Ta  Ta18  1  0.886101  0.772203  0.750000  1
  Ta  Ta19  1  0.777734  0.892612  0.250000  1
  Ta  Ta20  1  0.220496  0.108424  0.750000  1
  Ta  Ta21  1  0.114879  0.892612  0.250000  1
  Ta  Ta22  1  0.887927  0.108424  0.750000  1
  Ta  Ta23  1  0.999741  0.999482  0.001213  1
  Ta  Ta24  1  0.999741  0.999482  0.498787  1
  Au  Au25  1  0.117214  0.234426  0.250000  1
  O  O26  1  0.501030  0.002060  0.000567  1
  O  O27  1  0.000057  0.494392  0.002708  1
  O  O28  1  0.501030  0.002060  0.499433  1
  O  O29  1  0.494335  0.494392  0.002708  1
  O  O30  1  0.000057  0.494392  0.497292  1
  O  O31  1  0.494335  0.494392  0.497292  1
