# generated using pymatgen
data_Li2YbHo(Al3Pd)6
_symmetry_space_group_name_H-M   'P 1'
_cell_length_a   7.59757092
_cell_length_b   7.59612299
_cell_length_c   9.42587700
_cell_angle_alpha   90.00000000
_cell_angle_beta   90.00000000
_cell_angle_gamma   119.89045900
_symmetry_Int_Tables_number   1
_chemical_formula_structural   Li2YbHo(Al3Pd)6
_chemical_formula_sum   'Li2 Yb1 Ho1 Al18 Pd6'
_cell_volume   471.62570855
_cell_formula_units_Z   1
loop_
 _symmetry_equiv_pos_site_id
 _symmetry_equiv_pos_as_xyz
  1  'x, y, z'
loop_
 _atom_site_type_symbol
 _atom_site_label
 _atom_site_symmetry_multiplicity
 _atom_site_fract_x
 _atom_site_fract_y
 _atom_site_fract_z
 _atom_site_occupancy
  Li  Li0  1  0.006840  0.327936  0.750000  1
  Li  Li1  1  0.326381  0.003746  0.750000  1
  Yb  Yb2  1  0.997249  0.668122  0.250000  1
  Ho  Ho3  1  0.667991  0.999883  0.250000  1
  Al  Al4  1  0.127566  0.131178  0.250000  1
  Al  Al5  1  0.878016  0.876649  0.750000  1
  Al  Al6  1  0.002650  0.334691  0.063849  1
  Al  Al7  1  0.009561  0.665567  0.910870  1
  Al  Al8  1  0.009561  0.665567  0.589130  1
  Al  Al9  1  0.333464  0.002067  0.435853  1
  Al  Al10  1  0.002650  0.334691  0.436151  1
  Al  Al11  1  0.665783  0.010286  0.591045  1
  Al  Al12  1  0.665783  0.010286  0.908955  1
  Al  Al13  1  0.333464  0.002067  0.064147  1
  Al  Al14  1  0.325603  0.325305  0.571722  1
  Al  Al15  1  0.665487  0.665703  0.455217  1
  Al  Al16  1  0.665487  0.665703  0.044783  1
  Al  Al17  1  0.325603  0.325305  0.928278  1
  Al  Al18  1  0.340350  0.542835  0.250000  1
  Al  Al19  1  0.660108  0.443366  0.750000  1
  Al  Al20  1  0.538385  0.333205  0.250000  1
  Al  Al21  1  0.446040  0.658762  0.750000  1
  Pd  Pd22  1  0.673787  0.332249  0.001955  1
  Pd  Pd23  1  0.333696  0.674781  0.001423  1
  Pd  Pd24  1  0.333696  0.674781  0.498577  1
  Pd  Pd25  1  0.673787  0.332249  0.498045  1
  Pd  Pd26  1  0.995504  0.996512  0.001066  1
  Pd  Pd27  1  0.995504  0.996512  0.498934  1
