# generated using pymatgen
data_LaU(GeRu)2
_symmetry_space_group_name_H-M   'P 1'
_cell_length_a   4.54782800
_cell_length_b   7.59315623
_cell_length_c   7.21367112
_cell_angle_alpha   94.55483291
_cell_angle_beta   90.00000000
_cell_angle_gamma   90.00000000
_symmetry_Int_Tables_number   1
_chemical_formula_structural   LaU(GeRu)2
_chemical_formula_sum   'La2 U2 Ge4 Ru4'
_cell_volume   248.31842328
_cell_formula_units_Z   2
loop_
 _symmetry_equiv_pos_site_id
 _symmetry_equiv_pos_as_xyz
  1  'x, y, z'
loop_
 _atom_site_type_symbol
 _atom_site_label
 _atom_site_symmetry_multiplicity
 _atom_site_fract_x
 _atom_site_fract_y
 _atom_site_fract_z
 _atom_site_occupancy
  La  La0  1  0.250000  0.981763  0.766464  1
  La  La1  1  0.750000  0.018237  0.233536  1
  U  U2  1  0.250000  0.495285  0.700385  1
  U  U3  1  0.750000  0.504715  0.299615  1
  Ge  Ge4  1  0.250000  0.291709  0.090815  1
  Ge  Ge5  1  0.750000  0.708291  0.909185  1
  Ge  Ge6  1  0.250000  0.781338  0.383672  1
  Ge  Ge7  1  0.750000  0.218662  0.616328  1
  Ru  Ru8  1  0.750000  0.722263  0.546678  1
  Ru  Ru9  1  0.250000  0.277737  0.453322  1
  Ru  Ru10  1  0.750000  0.370657  0.963328  1
  Ru  Ru11  1  0.250000  0.629343  0.036672  1
