# generated using pymatgen
data_Er(AlFe5)2
_symmetry_space_group_name_H-M   'P 1'
_cell_length_a   4.76752441
_cell_length_b   6.41781058
_cell_length_c   6.41781052
_cell_angle_alpha   96.78881168
_cell_angle_beta   111.80377643
_cell_angle_gamma   68.19621594
_symmetry_Int_Tables_number   1
_chemical_formula_structural   Er(AlFe5)2
_chemical_formula_sum   'Er1 Al2 Fe10'
_cell_volume   169.23116299
_cell_formula_units_Z   1
loop_
 _symmetry_equiv_pos_site_id
 _symmetry_equiv_pos_as_xyz
  1  'x, y, z'
loop_
 _atom_site_type_symbol
 _atom_site_label
 _atom_site_symmetry_multiplicity
 _atom_site_fract_x
 _atom_site_fract_y
 _atom_site_fract_z
 _atom_site_occupancy
  Er  Er0  1  0.000000  0.000000  0.000000  1
  Al  Al1  1  0.726897  0.773103  0.226897  1
  Al  Al2  1  0.273103  0.226897  0.773103  1
  Fe  Fe3  1  0.639399  0.360601  0.639399  1
  Fe  Fe4  1  0.360601  0.639399  0.360601  1
  Fe  Fe5  1  0.000000  0.353052  0.353052  1
  Fe  Fe6  1  0.000000  0.646948  0.646948  1
  Fe  Fe7  1  0.500000  0.779136  0.779136  1
  Fe  Fe8  1  0.500000  0.220864  0.220864  1
  Fe  Fe9  1  0.500000  0.000000  0.500000  1
  Fe  Fe10  1  0.000000  0.000000  0.500000  1
  Fe  Fe11  1  0.500000  0.500000  0.000000  1
  Fe  Fe12  1  0.000000  0.500000  0.000000  1
