# generated using pymatgen
data_Tb5ErTcRh
_symmetry_space_group_name_H-M   'P 1'
_cell_length_a   6.34473300
_cell_length_b   7.33680005
_cell_length_c   9.23470153
_cell_angle_alpha   89.91484422
_cell_angle_beta   90.00000000
_cell_angle_gamma   90.00000000
_symmetry_Int_Tables_number   1
_chemical_formula_structural   Tb5ErTcRh
_chemical_formula_sum   'Tb10 Er2 Tc2 Rh2'
_cell_volume   429.87522625
_cell_formula_units_Z   2
loop_
 _symmetry_equiv_pos_site_id
 _symmetry_equiv_pos_as_xyz
  1  'x, y, z'
loop_
 _atom_site_type_symbol
 _atom_site_label
 _atom_site_symmetry_multiplicity
 _atom_site_fract_x
 _atom_site_fract_y
 _atom_site_fract_z
 _atom_site_occupancy
  Tb  Tb0  1  0.670313  0.176276  0.066311  1
  Tb  Tb1  1  0.170313  0.323724  0.933689  1
  Tb  Tb2  1  0.832158  0.678954  0.438511  1
  Tb  Tb3  1  0.332158  0.821046  0.561489  1
  Tb  Tb4  1  0.332015  0.820774  0.937890  1
  Tb  Tb5  1  0.832015  0.679226  0.062110  1
  Tb  Tb6  1  0.867268  0.960792  0.749076  1
  Tb  Tb7  1  0.367268  0.539208  0.250924  1
  Tb  Tb8  1  0.631485  0.460913  0.749074  1
  Tb  Tb9  1  0.131485  0.039087  0.250926  1
  Er  Er10  1  0.170803  0.323573  0.565341  1
  Er  Er11  1  0.670803  0.176427  0.434659  1
  Tc  Tc12  1  0.040125  0.611001  0.749801  1
  Tc  Tc13  1  0.540125  0.888999  0.250199  1
  Rh  Rh14  1  0.455832  0.116501  0.748370  1
  Rh  Rh15  1  0.955832  0.383499  0.251630  1
