# generated using pymatgen
data_Cs7RbSnBi4
_symmetry_space_group_name_H-M   'P 1'
_cell_length_a   12.74920800
_cell_length_b   12.74920790
_cell_length_c   12.70182500
_cell_angle_alpha   60.12286867
_cell_angle_beta   60.12286892
_cell_angle_gamma   60.24961576
_symmetry_Int_Tables_number   1
_chemical_formula_structural   Cs7RbSnBi4
_chemical_formula_sum   'Cs14 Rb2 Sn2 Bi8'
_cell_volume   1465.33605229
_cell_formula_units_Z   2
loop_
 _symmetry_equiv_pos_site_id
 _symmetry_equiv_pos_as_xyz
  1  'x, y, z'
loop_
 _atom_site_type_symbol
 _atom_site_label
 _atom_site_symmetry_multiplicity
 _atom_site_fract_x
 _atom_site_fract_y
 _atom_site_fract_z
 _atom_site_occupancy
  Cs  Cs0  1  0.625000  0.125000  0.625000  1
  Cs  Cs1  1  0.125000  0.625000  0.625000  1
  Cs  Cs2  1  0.023191  0.023191  0.476809  1
  Cs  Cs3  1  0.773175  0.226958  0.226563  1
  Cs  Cs4  1  0.226958  0.773175  0.773304  1
  Cs  Cs5  1  0.773274  0.773274  0.226726  1
  Cs  Cs6  1  0.773175  0.226958  0.773304  1
  Cs  Cs7  1  0.226958  0.773175  0.226563  1
  Cs  Cs8  1  0.476825  0.023042  0.476696  1
  Cs  Cs9  1  0.476825  0.023042  0.023437  1
  Cs  Cs10  1  0.023042  0.476825  0.476696  1
  Cs  Cs11  1  0.023042  0.476825  0.023437  1
  Cs  Cs12  1  0.226809  0.226809  0.773191  1
  Cs  Cs13  1  0.476726  0.476726  0.023274  1
  Rb  Rb14  1  0.625000  0.625000  0.125000  1
  Rb  Rb15  1  0.625000  0.625000  0.625000  1
  Sn  Sn16  1  0.748926  0.748926  0.751074  1
  Sn  Sn17  1  0.501074  0.501074  0.498926  1
  Bi  Bi18  1  0.403363  0.793982  0.401327  1
  Bi  Bi19  1  0.847593  0.847593  0.455166  1
  Bi  Bi20  1  0.456018  0.846637  0.848673  1
  Bi  Bi21  1  0.847593  0.847593  0.849648  1
  Bi  Bi22  1  0.793982  0.403363  0.401327  1
  Bi  Bi23  1  0.402407  0.402407  0.400352  1
  Bi  Bi24  1  0.402407  0.402407  0.794834  1
  Bi  Bi25  1  0.846637  0.456018  0.848673  1
