# generated using pymatgen
data_YbDy2PaPt4
_symmetry_space_group_name_H-M   'P 1'
_cell_length_a   4.46936200
_cell_length_b   5.68582580
_cell_length_c   7.08930448
_cell_angle_alpha   88.03596281
_cell_angle_beta   90.00000000
_cell_angle_gamma   90.00000000
_symmetry_Int_Tables_number   1
_chemical_formula_structural   YbDy2PaPt4
_chemical_formula_sum   'Yb1 Dy2 Pa1 Pt4'
_cell_volume   180.04766925
_cell_formula_units_Z   1
loop_
 _symmetry_equiv_pos_site_id
 _symmetry_equiv_pos_as_xyz
  1  'x, y, z'
loop_
 _atom_site_type_symbol
 _atom_site_label
 _atom_site_symmetry_multiplicity
 _atom_site_fract_x
 _atom_site_fract_y
 _atom_site_fract_z
 _atom_site_occupancy
  Yb  Yb0  1  0.250000  0.357189  0.683896  1
  Dy  Dy1  1  0.750000  0.642558  0.321527  1
  Dy  Dy2  1  0.750000  0.858727  0.817069  1
  Pa  Pa3  1  0.250000  0.141484  0.182326  1
  Pt  Pt4  1  0.750000  0.153814  0.436956  1
  Pt  Pt5  1  0.250000  0.850492  0.537338  1
  Pt  Pt6  1  0.250000  0.666334  0.050340  1
  Pt  Pt7  1  0.750000  0.329403  0.970549  1
