# generated using pymatgen
data_HfSc2(TcP)3
_symmetry_space_group_name_H-M   'P 1'
_cell_length_a   6.80326956
_cell_length_b   6.80326989
_cell_length_c   3.40302800
_cell_angle_alpha   90.00000000
_cell_angle_beta   90.00000000
_cell_angle_gamma   119.67976140
_symmetry_Int_Tables_number   1
_chemical_formula_structural   HfSc2(TcP)3
_chemical_formula_sum   'Hf1 Sc2 Tc3 P3'
_cell_volume   136.84342924
_cell_formula_units_Z   1
loop_
 _symmetry_equiv_pos_site_id
 _symmetry_equiv_pos_as_xyz
  1  'x, y, z'
loop_
 _atom_site_type_symbol
 _atom_site_label
 _atom_site_symmetry_multiplicity
 _atom_site_fract_x
 _atom_site_fract_y
 _atom_site_fract_z
 _atom_site_occupancy
  Hf  Hf0  1  0.403932  0.403932  0.500000  1
  Sc  Sc1  1  0.595883  0.999038  0.500000  1
  Sc  Sc2  1  0.999038  0.595883  0.500000  1
  Tc  Tc3  1  0.001920  0.250751  0.000000  1
  Tc  Tc4  1  0.250751  0.001920  0.000000  1
  Tc  Tc5  1  0.748839  0.748839  0.000000  1
  P  P6  1  0.667581  0.332827  0.000000  1
  P  P7  1  0.332827  0.667581  0.000000  1
  P  P8  1  0.999229  0.999229  0.500000  1
