# generated using pymatgen
data_Zr6Al16Cu3Rh4
_symmetry_space_group_name_H-M   'P 1'
_cell_length_a   8.72540327
_cell_length_b   8.72017991
_cell_length_c   8.68264416
_cell_angle_alpha   59.71141241
_cell_angle_beta   60.12224603
_cell_angle_gamma   59.69571864
_symmetry_Int_Tables_number   1
_chemical_formula_structural   Zr6Al16Cu3Rh4
_chemical_formula_sum   'Zr6 Al16 Cu3 Rh4'
_cell_volume   465.46112850
_cell_formula_units_Z   1
loop_
 _symmetry_equiv_pos_site_id
 _symmetry_equiv_pos_as_xyz
  1  'x, y, z'
loop_
 _atom_site_type_symbol
 _atom_site_label
 _atom_site_symmetry_multiplicity
 _atom_site_fract_x
 _atom_site_fract_y
 _atom_site_fract_z
 _atom_site_occupancy
  Zr  Zr0  1  0.693959  0.697051  0.302949  1
  Zr  Zr1  1  0.318127  0.683248  0.316752  1
  Zr  Zr2  1  0.691566  0.308434  0.308434  1
  Zr  Zr3  1  0.306041  0.302949  0.697051  1
  Zr  Zr4  1  0.681873  0.316752  0.683248  1
  Zr  Zr5  1  0.308434  0.691566  0.691566  1
  Al  Al6  1  0.887416  0.876116  0.359378  1
  Al  Al7  1  0.877089  0.359378  0.876116  1
  Al  Al8  1  0.356800  0.874375  0.883999  1
  Al  Al9  1  0.884825  0.883999  0.874375  1
  Al  Al10  1  0.112584  0.123884  0.640622  1
  Al  Al11  1  0.122911  0.640622  0.123884  1
  Al  Al12  1  0.643200  0.125625  0.116001  1
  Al  Al13  1  0.115175  0.116001  0.125625  1
  Al  Al14  1  0.668456  0.666351  0.999486  1
  Al  Al15  1  0.665706  0.999486  0.666351  1
  Al  Al16  1  0.004218  0.663413  0.667175  1
  Al  Al17  1  0.665193  0.667175  0.663413  1
  Al  Al18  1  0.331544  0.333649  0.000514  1
  Al  Al19  1  0.334294  0.000514  0.333649  1
  Al  Al20  1  0.995782  0.336587  0.332825  1
  Al  Al21  1  0.334807  0.332825  0.336587  1
  Cu  Cu22  1  0.500000  0.000000  0.500000  1
  Cu  Cu23  1  0.000000  0.500000  0.000000  1
  Cu  Cu24  1  0.500000  0.000000  0.000000  1
  Rh  Rh25  1  0.000000  0.000000  0.000000  1
  Rh  Rh26  1  0.000000  0.000000  0.500000  1
  Rh  Rh27  1  0.000000  0.500000  0.500000  1
  Rh  Rh28  1  0.500000  0.500000  0.000000  1
