# generated using pymatgen
data_La2Sm4FeBr10
_symmetry_space_group_name_H-M   'P 1'
_cell_length_a   7.59536341
_cell_length_b   9.51468937
_cell_length_c   9.23139467
_cell_angle_alpha   107.17800620
_cell_angle_beta   95.66527532
_cell_angle_gamma   106.50493231
_symmetry_Int_Tables_number   1
_chemical_formula_structural   La2Sm4FeBr10
_chemical_formula_sum   'La2 Sm4 Fe1 Br10'
_cell_volume   598.84019719
_cell_formula_units_Z   1
loop_
 _symmetry_equiv_pos_site_id
 _symmetry_equiv_pos_as_xyz
  1  'x, y, z'
loop_
 _atom_site_type_symbol
 _atom_site_label
 _atom_site_symmetry_multiplicity
 _atom_site_fract_x
 _atom_site_fract_y
 _atom_site_fract_z
 _atom_site_occupancy
  La  La0  1  0.384434  0.956836  0.729668  1
  La  La1  1  0.615566  0.043164  0.270332  1
  Sm  Sm2  1  0.471893  0.300929  0.593836  1
  Sm  Sm3  1  0.528107  0.699071  0.406164  1
  Sm  Sm4  1  0.866237  0.138070  0.679753  1
  Sm  Sm5  1  0.133763  0.861930  0.320247  1
  Fe  Fe6  1  0.500000  0.000000  0.500000  1
  Br  Br7  1  0.417256  0.628403  0.675676  1
  Br  Br8  1  0.582744  0.371597  0.324324  1
  Br  Br9  1  0.288348  0.261992  0.847050  1
  Br  Br10  1  0.711652  0.738008  0.152950  1
  Br  Br11  1  0.850191  0.448808  0.767844  1
  Br  Br12  1  0.149809  0.551192  0.232156  1
  Br  Br13  1  0.049460  0.177458  0.413983  1
  Br  Br14  1  0.236385  0.912525  0.043471  1
  Br  Br15  1  0.763615  0.087475  0.956529  1
  Br  Br16  1  0.950540  0.822542  0.586017  1
