# generated using pymatgen
data_Mn(Be6Co)4
_symmetry_space_group_name_H-M   'P 1'
_cell_length_a   6.72762447
_cell_length_b   6.72762453
_cell_length_c   6.72762400
_cell_angle_alpha   109.47122507
_cell_angle_beta   109.47122524
_cell_angle_gamma   109.47122013
_symmetry_Int_Tables_number   1
_chemical_formula_structural   Mn(Be6Co)4
_chemical_formula_sum   'Mn1 Be24 Co4'
_cell_volume   234.40305168
_cell_formula_units_Z   1
loop_
 _symmetry_equiv_pos_site_id
 _symmetry_equiv_pos_as_xyz
  1  'x, y, z'
loop_
 _atom_site_type_symbol
 _atom_site_label
 _atom_site_symmetry_multiplicity
 _atom_site_fract_x
 _atom_site_fract_y
 _atom_site_fract_z
 _atom_site_occupancy
  Mn  Mn0  1  0.000000  0.000000  0.000000  1
  Be  Be1  1  0.369564  0.186463  0.000000  1
  Be  Be2  1  0.186463  0.369564  0.000000  1
  Be  Be3  1  0.682136  0.391786  0.000000  1
  Be  Be4  1  0.391786  0.682136  0.000000  1
  Be  Be5  1  0.813537  0.813537  0.183101  1
  Be  Be6  1  0.369564  0.000000  0.186463  1
  Be  Be7  1  0.000000  0.369564  0.186463  1
  Be  Be8  1  0.608214  0.608214  0.290350  1
  Be  Be9  1  0.709650  0.317864  0.317864  1
  Be  Be10  1  0.317864  0.709650  0.317864  1
  Be  Be11  1  0.186463  0.000000  0.369564  1
  Be  Be12  1  0.000000  0.186463  0.369564  1
  Be  Be13  1  0.682136  0.000000  0.391786  1
  Be  Be14  1  0.000000  0.682136  0.391786  1
  Be  Be15  1  0.608214  0.290350  0.608214  1
  Be  Be16  1  0.290350  0.608214  0.608214  1
  Be  Be17  1  0.816899  0.630436  0.630436  1
  Be  Be18  1  0.630436  0.816899  0.630436  1
  Be  Be19  1  0.391786  0.000000  0.682136  1
  Be  Be20  1  0.000000  0.391786  0.682136  1
  Be  Be21  1  0.317864  0.317864  0.709650  1
  Be  Be22  1  0.813537  0.183101  0.813537  1
  Be  Be23  1  0.183101  0.813537  0.813537  1
  Be  Be24  1  0.630436  0.630436  0.816899  1
  Co  Co25  1  0.619849  0.000000  0.000000  1
  Co  Co26  1  0.000000  0.619849  0.000000  1
  Co  Co27  1  0.380150  0.380150  0.380150  1
  Co  Co28  1  0.000000  0.000000  0.619849  1
