# generated using pymatgen
data_CrRe5Sb14
_symmetry_space_group_name_H-M   'P 1'
_cell_length_a   8.26442391
_cell_length_b   8.26440514
_cell_length_c   8.26442306
_cell_angle_alpha   109.16468780
_cell_angle_beta   110.08632571
_cell_angle_gamma   109.16469914
_symmetry_Int_Tables_number   1
_chemical_formula_structural   CrRe5Sb14
_chemical_formula_sum   'Cr1 Re5 Sb14'
_cell_volume   434.48589094
_cell_formula_units_Z   1
loop_
 _symmetry_equiv_pos_site_id
 _symmetry_equiv_pos_as_xyz
  1  'x, y, z'
loop_
 _atom_site_type_symbol
 _atom_site_label
 _atom_site_symmetry_multiplicity
 _atom_site_fract_x
 _atom_site_fract_y
 _atom_site_fract_z
 _atom_site_occupancy
  Cr  Cr0  1  0.338262  0.999973  0.338262  1
  Re  Re1  1  0.000951  0.341482  0.342429  1
  Re  Re2  1  0.000939  0.658527  0.659459  1
  Re  Re3  1  0.342429  0.341482  0.000951  1
  Re  Re4  1  0.659459  0.658527  0.000939  1
  Re  Re5  1  0.660644  0.999988  0.660644  1
  Sb  Sb6  1  0.750034  0.500002  0.250032  1
  Sb  Sb7  1  0.496586  0.751375  0.247952  1
  Sb  Sb8  1  0.496573  0.248625  0.745207  1
  Sb  Sb9  1  0.745207  0.248625  0.496573  1
  Sb  Sb10  1  0.247952  0.751375  0.496586  1
  Sb  Sb11  1  0.250032  0.500002  0.750034  1
  Sb  Sb12  1  0.005174  0.000002  0.327311  1
  Sb  Sb13  1  0.672750  0.000003  0.000231  1
  Sb  Sb14  1  0.005167  0.677848  0.005167  1
  Sb  Sb15  1  0.327321  0.322149  0.327321  1
  Sb  Sb16  1  0.000233  0.327491  0.000233  1
  Sb  Sb17  1  0.672745  0.672521  0.672745  1
  Sb  Sb18  1  0.327311  0.000002  0.005174  1
  Sb  Sb19  1  0.000231  0.000003  0.672750  1
