# generated using pymatgen
data_Be10IrPd
_symmetry_space_group_name_H-M   'P 1'
_cell_length_a   4.22482900
_cell_length_b   4.22482818
_cell_length_c   6.89100800
_cell_angle_alpha   90.00000000
_cell_angle_beta   90.00000000
_cell_angle_gamma   120.00001428
_symmetry_Int_Tables_number   1
_chemical_formula_structural   Be10IrPd
_chemical_formula_sum   'Be10 Ir1 Pd1'
_cell_volume   106.52008631
_cell_formula_units_Z   1
loop_
 _symmetry_equiv_pos_site_id
 _symmetry_equiv_pos_as_xyz
  1  'x, y, z'
loop_
 _atom_site_type_symbol
 _atom_site_label
 _atom_site_symmetry_multiplicity
 _atom_site_fract_x
 _atom_site_fract_y
 _atom_site_fract_z
 _atom_site_occupancy
  Be  Be0  1  0.336547  0.168275  0.048247  1
  Be  Be1  1  0.831727  0.168275  0.048247  1
  Be  Be2  1  0.831726  0.663453  0.048247  1
  Be  Be3  1  0.000000  0.000000  0.297675  1
  Be  Be4  1  0.666667  0.333333  0.372251  1
  Be  Be5  1  0.166867  0.333733  0.554889  1
  Be  Be6  1  0.166866  0.833135  0.554889  1
  Be  Be7  1  0.666269  0.833135  0.554889  1
  Be  Be8  1  0.000000  0.000000  0.798828  1
  Be  Be9  1  0.333333  0.666666  0.856544  1
  Ir  Ir10  1  0.666667  0.333333  0.747617  1
  Pd  Pd11  1  0.333333  0.666666  0.245813  1
