# generated using pymatgen
data_Lu16MgZn3Ni4
_symmetry_space_group_name_H-M   'P 1'
_cell_length_a   9.27586233
_cell_length_b   9.23330996
_cell_length_c   9.23330900
_cell_angle_alpha   59.99999986
_cell_angle_beta   60.15163516
_cell_angle_gamma   60.15163484
_symmetry_Int_Tables_number   1
_chemical_formula_structural   Lu16MgZn3Ni4
_chemical_formula_sum   'Lu16 Mg1 Zn3 Ni4'
_cell_volume   560.46135758
_cell_formula_units_Z   1
loop_
 _symmetry_equiv_pos_site_id
 _symmetry_equiv_pos_as_xyz
  1  'x, y, z'
loop_
 _atom_site_type_symbol
 _atom_site_label
 _atom_site_symmetry_multiplicity
 _atom_site_fract_x
 _atom_site_fract_y
 _atom_site_fract_z
 _atom_site_occupancy
  Lu  Lu0  1  0.600724  0.597841  0.597841  1
  Lu  Lu1  1  0.600724  0.597841  0.203594  1
  Lu  Lu2  1  0.600724  0.203594  0.597841  1
  Lu  Lu3  1  0.192293  0.602569  0.602569  1
  Lu  Lu4  1  0.056665  0.442101  0.442101  1
  Lu  Lu5  1  0.437672  0.061667  0.061667  1
  Lu  Lu6  1  0.437672  0.061667  0.438994  1
  Lu  Lu7  1  0.056665  0.442101  0.059134  1
  Lu  Lu8  1  0.437672  0.438994  0.061667  1
  Lu  Lu9  1  0.056665  0.059134  0.442101  1
  Lu  Lu10  1  0.181156  0.814693  0.814693  1
  Lu  Lu11  1  0.813426  0.185708  0.185708  1
  Lu  Lu12  1  0.813426  0.185708  0.815157  1
  Lu  Lu13  1  0.181156  0.814693  0.189459  1
  Lu  Lu14  1  0.813426  0.815157  0.185708  1
  Lu  Lu15  1  0.181156  0.189459  0.814693  1
  Mg  Mg16  1  0.536656  0.821114  0.821114  1
  Zn  Zn17  1  0.836400  0.830009  0.830009  1
  Zn  Zn18  1  0.836400  0.830009  0.503581  1
  Zn  Zn19  1  0.836400  0.503581  0.830009  1
  Ni  Ni20  1  0.389966  0.394014  0.394014  1
  Ni  Ni21  1  0.389966  0.394014  0.822006  1
  Ni  Ni22  1  0.389966  0.822006  0.394014  1
  Ni  Ni23  1  0.823023  0.392326  0.392326  1
