# generated using pymatgen
data_Yb9Er(AlSb3)4
_symmetry_space_group_name_H-M   'P 1'
_cell_length_a   4.41699600
_cell_length_b   7.45505598
_cell_length_c   22.88431578
_cell_angle_alpha   90.81923678
_cell_angle_beta   90.00000000
_cell_angle_gamma   90.00000000
_symmetry_Int_Tables_number   1
_chemical_formula_structural   Yb9Er(AlSb3)4
_chemical_formula_sum   'Yb9 Er1 Al4 Sb12'
_cell_volume   753.47951722
_cell_formula_units_Z   1
loop_
 _symmetry_equiv_pos_site_id
 _symmetry_equiv_pos_as_xyz
  1  'x, y, z'
loop_
 _atom_site_type_symbol
 _atom_site_label
 _atom_site_symmetry_multiplicity
 _atom_site_fract_x
 _atom_site_fract_y
 _atom_site_fract_z
 _atom_site_occupancy
  Yb  Yb0  1  0.000000  0.459781  0.914796  1
  Yb  Yb1  1  0.000000  0.271598  0.748548  1
  Yb  Yb2  1  0.000000  0.768791  0.754716  1
  Yb  Yb3  1  0.000000  0.540219  0.085204  1
  Yb  Yb4  1  0.000000  0.949071  0.590293  1
  Yb  Yb5  1  0.000000  0.728402  0.251452  1
  Yb  Yb6  1  0.000000  0.050929  0.409707  1
  Yb  Yb7  1  0.000000  0.500000  0.500000  1
  Yb  Yb8  1  0.000000  0.231209  0.245284  1
  Er  Er9  1  0.000000  0.000000  0.000000  1
  Al  Al10  1  0.500000  0.824900  0.881386  1
  Al  Al11  1  0.500000  0.175100  0.118614  1
  Al  Al12  1  0.500000  0.687113  0.377613  1
  Al  Al13  1  0.500000  0.312887  0.622387  1
  Sb  Sb14  1  0.500000  0.803797  0.494700  1
  Sb  Sb15  1  0.000000  0.474367  0.363332  1
  Sb  Sb16  1  0.000000  0.964286  0.134652  1
  Sb  Sb17  1  0.500000  0.518963  0.814618  1
  Sb  Sb18  1  0.500000  0.481037  0.185382  1
  Sb  Sb19  1  0.000000  0.035714  0.865348  1
  Sb  Sb20  1  0.000000  0.525633  0.636668  1
  Sb  Sb21  1  0.500000  0.985921  0.310821  1
  Sb  Sb22  1  0.500000  0.196203  0.505300  1
  Sb  Sb23  1  0.500000  0.014079  0.689179  1
  Sb  Sb24  1  0.500000  0.280884  0.003823  1
  Sb  Sb25  1  0.500000  0.719116  0.996177  1
