# generated using pymatgen
data_Er15TmIn4OsRh3
_symmetry_space_group_name_H-M   'P 1'
_cell_length_a   9.57140992
_cell_length_b   9.57141047
_cell_length_c   9.61345771
_cell_angle_alpha   59.98081524
_cell_angle_beta   59.98080884
_cell_angle_gamma   59.83503617
_symmetry_Int_Tables_number   1
_chemical_formula_structural   Er15TmIn4OsRh3
_chemical_formula_sum   'Er15 Tm1 In4 Os1 Rh3'
_cell_volume   621.79383001
_cell_formula_units_Z   1
loop_
 _symmetry_equiv_pos_site_id
 _symmetry_equiv_pos_as_xyz
  1  'x, y, z'
loop_
 _atom_site_type_symbol
 _atom_site_label
 _atom_site_symmetry_multiplicity
 _atom_site_fract_x
 _atom_site_fract_y
 _atom_site_fract_z
 _atom_site_occupancy
  Er  Er0  1  0.058492  0.058492  0.436847  1
  Er  Er1  1  0.444368  0.059936  0.435843  1
  Er  Er2  1  0.061918  0.438941  0.061016  1
  Er  Er3  1  0.046467  0.650165  0.649743  1
  Er  Er4  1  0.438472  0.438472  0.060491  1
  Er  Er5  1  0.650165  0.046467  0.649743  1
  Er  Er6  1  0.189834  0.810402  0.192735  1
  Er  Er7  1  0.191658  0.191658  0.809325  1
  Er  Er8  1  0.809058  0.809058  0.193364  1
  Er  Er9  1  0.438941  0.061918  0.061016  1
  Er  Er10  1  0.810402  0.189834  0.192735  1
  Er  Er11  1  0.059936  0.444368  0.435843  1
  Er  Er12  1  0.809991  0.192097  0.808127  1
  Er  Er13  1  0.192097  0.809991  0.808127  1
  Er  Er14  1  0.649104  0.649104  0.049544  1
  Tm  Tm15  1  0.652413  0.652413  0.650595  1
  In  In16  1  0.417041  0.417041  0.417038  1
  In  In17  1  0.748679  0.417436  0.417158  1
  In  In18  1  0.417436  0.748679  0.417158  1
  In  In19  1  0.417326  0.417326  0.747943  1
  Os  Os20  1  0.858063  0.858063  0.424067  1
  Rh  Rh21  1  0.857568  0.857568  0.861729  1
  Rh  Rh22  1  0.423710  0.856864  0.859909  1
  Rh  Rh23  1  0.856864  0.423710  0.859909  1
