# generated using pymatgen
data_Nd3Tl2InPd2Rh
_symmetry_space_group_name_H-M   'P 1'
_cell_length_a   7.94112020
_cell_length_b   7.93723181
_cell_length_c   3.92903800
_cell_angle_alpha   90.00000000
_cell_angle_beta   90.00000000
_cell_angle_gamma   120.04019561
_symmetry_Int_Tables_number   1
_chemical_formula_structural   Nd3Tl2InPd2Rh
_chemical_formula_sum   'Nd3 Tl2 In1 Pd2 Rh1'
_cell_volume   214.38364307
_cell_formula_units_Z   1
loop_
 _symmetry_equiv_pos_site_id
 _symmetry_equiv_pos_as_xyz
  1  'x, y, z'
loop_
 _atom_site_type_symbol
 _atom_site_label
 _atom_site_symmetry_multiplicity
 _atom_site_fract_x
 _atom_site_fract_y
 _atom_site_fract_z
 _atom_site_occupancy
  Nd  Nd0  1  0.598975  0.014389  0.500000  1
  Nd  Nd1  1  0.414204  0.403415  0.500000  1
  Nd  Nd2  1  0.988065  0.585210  0.500000  1
  Tl  Tl3  1  0.260585  0.998414  0.000000  1
  Tl  Tl4  1  0.737450  0.740018  0.000000  1
  In  In5  1  0.001490  0.260890  0.000000  1
  Pd  Pd6  1  0.999932  0.009682  0.500000  1
  Pd  Pd7  1  0.325366  0.656801  0.000000  1
  Rh  Rh8  1  0.673932  0.331180  0.000000  1
