# generated using pymatgen
data_Tm3ThAl16(SiRh3)2
_symmetry_space_group_name_H-M   'P 1'
_cell_length_a   7.53196520
_cell_length_b   7.53997583
_cell_length_c   9.36481700
_cell_angle_alpha   90.00000000
_cell_angle_beta   90.00000000
_cell_angle_gamma   119.33135125
_symmetry_Int_Tables_number   1
_chemical_formula_structural   Tm3ThAl16(SiRh3)2
_chemical_formula_sum   'Tm3 Th1 Al16 Si2 Rh6'
_cell_volume   463.65515811
_cell_formula_units_Z   1
loop_
 _symmetry_equiv_pos_site_id
 _symmetry_equiv_pos_as_xyz
  1  'x, y, z'
loop_
 _atom_site_type_symbol
 _atom_site_label
 _atom_site_symmetry_multiplicity
 _atom_site_fract_x
 _atom_site_fract_y
 _atom_site_fract_z
 _atom_site_occupancy
  Tm  Tm0  1  0.004477  0.322658  0.750000  1
  Tm  Tm1  1  0.677107  0.993560  0.250000  1
  Tm  Tm2  1  0.323699  0.006104  0.750000  1
  Th  Th3  1  0.993773  0.675623  0.250000  1
  Al  Al4  1  0.001863  0.332646  0.073077  1
  Al  Al5  1  0.999407  0.662611  0.916356  1
  Al  Al6  1  0.999407  0.662611  0.583644  1
  Al  Al7  1  0.342377  0.005659  0.427986  1
  Al  Al8  1  0.001863  0.332646  0.426923  1
  Al  Al9  1  0.663254  0.000352  0.577579  1
  Al  Al10  1  0.663254  0.000352  0.922421  1
  Al  Al11  1  0.342377  0.005659  0.072014  1
  Al  Al12  1  0.333983  0.334225  0.560417  1
  Al  Al13  1  0.660332  0.664437  0.451399  1
  Al  Al14  1  0.660332  0.664437  0.048601  1
  Al  Al15  1  0.333983  0.334225  0.939583  1
  Al  Al16  1  0.339123  0.548661  0.250000  1
  Al  Al17  1  0.662401  0.446963  0.750000  1
  Al  Al18  1  0.543896  0.331204  0.250000  1
  Al  Al19  1  0.447942  0.665698  0.750000  1
  Si  Si20  1  0.131412  0.132873  0.250000  1
  Si  Si21  1  0.871758  0.874459  0.750000  1
  Rh  Rh22  1  0.673224  0.329019  0.999886  1
  Rh  Rh23  1  0.327032  0.672184  0.999707  1
  Rh  Rh24  1  0.327032  0.672184  0.500293  1
  Rh  Rh25  1  0.673224  0.329019  0.500114  1
  Rh  Rh26  1  0.000733  0.999966  0.998842  1
  Rh  Rh27  1  0.000733  0.999966  0.501158  1
