# generated using pymatgen
data_Pr3Nd5(Ho3Pt4)4
_symmetry_space_group_name_H-M   'P 1'
_cell_length_a   7.65090067
_cell_length_b   7.75939801
_cell_length_c   14.60967100
_cell_angle_alpha   90.00611399
_cell_angle_beta   90.02405391
_cell_angle_gamma   89.97143593
_symmetry_Int_Tables_number   1
_chemical_formula_structural   Pr3Nd5(Ho3Pt4)4
_chemical_formula_sum   'Pr3 Nd5 Ho12 Pt16'
_cell_volume   867.32314158
_cell_formula_units_Z   1
loop_
 _symmetry_equiv_pos_site_id
 _symmetry_equiv_pos_as_xyz
  1  'x, y, z'
loop_
 _atom_site_type_symbol
 _atom_site_label
 _atom_site_symmetry_multiplicity
 _atom_site_fract_x
 _atom_site_fract_y
 _atom_site_fract_z
 _atom_site_occupancy
  Pr  Pr0  1  0.997115  0.174590  0.096363  1
  Pr  Pr1  1  0.502802  0.674476  0.903717  1
  Pr  Pr2  1  0.002904  0.825488  0.596255  1
  Nd  Nd3  1  0.502806  0.673668  0.597237  1
  Nd  Nd4  1  0.002846  0.825716  0.902260  1
  Nd  Nd5  1  0.497346  0.325633  0.097933  1
  Nd  Nd6  1  0.997198  0.174815  0.402745  1
  Nd  Nd7  1  0.497499  0.325425  0.403017  1
  Ho  Ho8  1  0.660232  0.167070  0.622100  1
  Ho  Ho9  1  0.160714  0.333261  0.877509  1
  Ho  Ho10  1  0.339077  0.833389  0.122758  1
  Ho  Ho11  1  0.839052  0.666434  0.377726  1
  Ho  Ho12  1  0.339948  0.832378  0.378160  1
  Ho  Ho13  1  0.840169  0.667432  0.122103  1
  Ho  Ho14  1  0.659790  0.167573  0.878118  1
  Ho  Ho15  1  0.159984  0.332358  0.621827  1
  Ho  Ho16  1  0.823675  0.507175  0.749805  1
  Ho  Ho17  1  0.323900  0.992642  0.749839  1
  Ho  Ho18  1  0.176313  0.493050  0.250253  1
  Ho  Ho19  1  0.676182  0.007070  0.250326  1
  Pt  Pt20  1  0.675734  0.965473  0.455089  1
  Pt  Pt21  1  0.176628  0.535563  0.044615  1
  Pt  Pt22  1  0.323408  0.035475  0.955655  1
  Pt  Pt23  1  0.823605  0.464093  0.543960  1
  Pt  Pt24  1  0.326146  0.035144  0.544244  1
  Pt  Pt25  1  0.826289  0.465364  0.955379  1
  Pt  Pt26  1  0.673757  0.965258  0.044870  1
  Pt  Pt27  1  0.175755  0.533651  0.455111  1
  Pt  Pt28  1  0.455290  0.373455  0.749533  1
  Pt  Pt29  1  0.955157  0.126588  0.750247  1
  Pt  Pt30  1  0.544669  0.626232  0.249950  1
  Pt  Pt31  1  0.044850  0.873666  0.250592  1
  Pt  Pt32  1  0.691637  0.863545  0.749722  1
  Pt  Pt33  1  0.191657  0.636479  0.749879  1
  Pt  Pt34  1  0.308239  0.136884  0.250608  1
  Pt  Pt35  1  0.807627  0.363493  0.250496  1
