# generated using pymatgen
data_NdSmTm4(Co3P2)6
_symmetry_space_group_name_H-M   'P 1'
_cell_length_a   3.69698900
_cell_length_b   10.50912300
_cell_length_c   12.16173500
_cell_angle_alpha   90.00000000
_cell_angle_beta   90.00000000
_cell_angle_gamma   90.00000000
_symmetry_Int_Tables_number   1
_chemical_formula_structural   NdSmTm4(Co3P2)6
_chemical_formula_sum   'Nd1 Sm1 Tm4 Co18 P12'
_cell_volume   472.50909192
_cell_formula_units_Z   1
loop_
 _symmetry_equiv_pos_site_id
 _symmetry_equiv_pos_as_xyz
  1  'x, y, z'
loop_
 _atom_site_type_symbol
 _atom_site_label
 _atom_site_symmetry_multiplicity
 _atom_site_fract_x
 _atom_site_fract_y
 _atom_site_fract_z
 _atom_site_occupancy
  Nd  Nd0  1  0.500000  0.000000  0.477359  1
  Sm  Sm1  1  0.000000  0.500000  0.522388  1
  Tm  Tm2  1  0.500000  0.817831  0.204717  1
  Tm  Tm3  1  0.500000  0.182169  0.204717  1
  Tm  Tm4  1  0.000000  0.681913  0.795065  1
  Tm  Tm5  1  0.000000  0.318087  0.795065  1
  Co  Co6  1  0.500000  0.500000  0.156885  1
  Co  Co7  1  0.000000  0.000000  0.843431  1
  Co  Co8  1  0.500000  0.500000  0.706147  1
  Co  Co9  1  0.000000  0.000000  0.292896  1
  Co  Co10  1  0.000000  0.500000  0.986475  1
  Co  Co11  1  0.500000  0.000000  0.013495  1
  Co  Co12  1  0.500000  0.333174  0.994790  1
  Co  Co13  1  0.500000  0.666826  0.994790  1
  Co  Co14  1  0.000000  0.166886  0.005228  1
  Co  Co15  1  0.000000  0.833114  0.005228  1
  Co  Co16  1  0.500000  0.297558  0.429081  1
  Co  Co17  1  0.500000  0.702442  0.429081  1
  Co  Co18  1  0.000000  0.204039  0.571173  1
  Co  Co19  1  0.000000  0.795961  0.571173  1
  Co  Co20  1  0.500000  0.878728  0.712852  1
  Co  Co21  1  0.500000  0.121272  0.712852  1
  Co  Co22  1  0.000000  0.620875  0.287451  1
  Co  Co23  1  0.000000  0.379125  0.287451  1
  P  P24  1  0.500000  0.500000  0.883157  1
  P  P25  1  0.000000  0.000000  0.116511  1
  P  P26  1  0.500000  0.500000  0.341235  1
  P  P27  1  0.000000  0.000000  0.660260  1
  P  P28  1  0.500000  0.309404  0.617979  1
  P  P29  1  0.500000  0.690596  0.617979  1
  P  P30  1  0.000000  0.192125  0.381479  1
  P  P31  1  0.000000  0.807875  0.381479  1
  P  P32  1  0.500000  0.846084  0.893614  1
  P  P33  1  0.500000  0.153916  0.893614  1
  P  P34  1  0.000000  0.653782  0.106452  1
  P  P35  1  0.000000  0.346218  0.106452  1
