# generated using pymatgen
data_Yb2YLu5(B6Ru)4
_symmetry_space_group_name_H-M   'P 1'
_cell_length_a   3.60655000
_cell_length_b   9.06632682
_cell_length_c   11.45491701
_cell_angle_alpha   89.87199172
_cell_angle_beta   90.00000000
_cell_angle_gamma   90.00000000
_symmetry_Int_Tables_number   1
_chemical_formula_structural   Yb2YLu5(B6Ru)4
_chemical_formula_sum   'Yb2 Y1 Lu5 B24 Ru4'
_cell_volume   374.55378564
_cell_formula_units_Z   1
loop_
 _symmetry_equiv_pos_site_id
 _symmetry_equiv_pos_as_xyz
  1  'x, y, z'
loop_
 _atom_site_type_symbol
 _atom_site_label
 _atom_site_symmetry_multiplicity
 _atom_site_fract_x
 _atom_site_fract_y
 _atom_site_fract_z
 _atom_site_occupancy
  Yb  Yb0  1  0.000000  0.324445  0.414748  1
  Yb  Yb1  1  0.000000  0.675500  0.585382  1
  Y  Y2  1  0.000000  0.821838  0.086003  1
  Lu  Lu3  1  0.000000  0.178276  0.913861  1
  Lu  Lu4  1  0.000000  0.942316  0.370081  1
  Lu  Lu5  1  0.000000  0.057956  0.630061  1
  Lu  Lu6  1  0.000000  0.442597  0.130198  1
  Lu  Lu7  1  0.000000  0.556743  0.869522  1
  B  B8  1  0.500000  0.554278  0.432334  1
  B  B9  1  0.500000  0.445432  0.567958  1
  B  B10  1  0.500000  0.054660  0.066043  1
  B  B11  1  0.500000  0.946999  0.933010  1
  B  B12  1  0.500000  0.749301  0.418004  1
  B  B13  1  0.500000  0.250719  0.582391  1
  B  B14  1  0.500000  0.249536  0.080266  1
  B  B15  1  0.500000  0.750538  0.918351  1
  B  B16  1  0.500000  0.791915  0.264695  1
  B  B17  1  0.500000  0.207612  0.736328  1
  B  B18  1  0.500000  0.291064  0.234196  1
  B  B19  1  0.500000  0.709021  0.765477  1
  B  B20  1  0.500000  0.630350  0.184596  1
  B  B21  1  0.500000  0.368584  0.816132  1
  B  B22  1  0.500000  0.130457  0.314541  1
  B  B23  1  0.500000  0.869991  0.685496  1
  B  B24  1  0.500000  0.983138  0.212065  1
  B  B25  1  0.500000  0.018291  0.788297  1
  B  B26  1  0.500000  0.482999  0.287463  1
  B  B27  1  0.500000  0.516509  0.712665  1
  B  B28  1  0.500000  0.601129  0.027657  1
  B  B29  1  0.500000  0.397239  0.971840  1
  B  B30  1  0.500000  0.098419  0.473037  1
  B  B31  1  0.500000  0.901764  0.527119  1
  Ru  Ru32  1  0.000000  0.640230  0.318310  1
  Ru  Ru33  1  0.000000  0.359135  0.682359  1
  Ru  Ru34  1  0.000000  0.137997  0.178244  1
  Ru  Ru35  1  0.000000  0.863022  0.821269  1
