# generated using pymatgen
data_CeTm3(BRu)16
_symmetry_space_group_name_H-M   'P 1'
_cell_length_a   9.21037210
_cell_length_b   7.47529712
_cell_length_c   7.47529636
_cell_angle_alpha   90.16011782
_cell_angle_beta   113.88382498
_cell_angle_gamma   113.88648925
_symmetry_Int_Tables_number   1
_chemical_formula_structural   CeTm3(BRu)16
_chemical_formula_sum   'Ce1 Tm3 B16 Ru16'
_cell_volume   421.65146365
_cell_formula_units_Z   1
loop_
 _symmetry_equiv_pos_site_id
 _symmetry_equiv_pos_as_xyz
  1  'x, y, z'
loop_
 _atom_site_type_symbol
 _atom_site_label
 _atom_site_symmetry_multiplicity
 _atom_site_fract_x
 _atom_site_fract_y
 _atom_site_fract_z
 _atom_site_occupancy
  Ce  Ce0  1  0.749983  0.874998  0.124983  1
  Tm  Tm1  1  0.250003  0.625019  0.374991  1
  Tm  Tm2  1  0.749998  0.374987  0.625013  1
  Tm  Tm3  1  0.250000  0.124989  0.874988  1
  B  B4  1  0.915407  0.290460  0.068270  1
  B  B5  1  0.411647  0.566752  0.125055  1
  B  B6  1  0.088343  0.213428  0.155076  1
  B  B7  1  0.586303  0.152999  0.211800  1
  B  B8  1  0.413730  0.067028  0.288730  1
  B  B9  1  0.915399  0.624951  0.347161  1
  B  B10  1  0.584600  0.652838  0.375047  1
  B  B11  1  0.088351  0.874947  0.433251  1
  B  B12  1  0.913690  0.125472  0.566710  1
  B  B13  1  0.413734  0.346746  0.624987  1
  B  B14  1  0.086269  0.375015  0.653258  1
  B  B15  1  0.584594  0.931731  0.709538  1
  B  B16  1  0.411657  0.844926  0.786573  1
  B  B17  1  0.913699  0.788199  0.847000  1
  B  B18  1  0.586310  0.433289  0.874529  1
  B  B19  1  0.086269  0.711271  0.932974  1
  Ru  Ru20  1  0.872791  0.550884  0.036833  1
  Ru  Ru21  1  0.372881  0.835905  0.051238  1
  Ru  Ru22  1  0.127116  0.948756  0.164100  1
  Ru  Ru23  1  0.626730  0.463209  0.179011  1
  Ru  Ru24  1  0.373855  0.336079  0.321780  1
  Ru  Ru25  1  0.872784  0.321872  0.336001  1
  Ru  Ru26  1  0.627204  0.963163  0.449110  1
  Ru  Ru27  1  0.127096  0.178353  0.462985  1
  Ru  Ru28  1  0.873273  0.820989  0.536792  1
  Ru  Ru29  1  0.373847  0.037836  0.552060  1
  Ru  Ru30  1  0.126147  0.678221  0.663930  1
  Ru  Ru31  1  0.627218  0.663999  0.678126  1
  Ru  Ru32  1  0.372902  0.537019  0.821642  1
  Ru  Ru33  1  0.873248  0.052228  0.836502  1
  Ru  Ru34  1  0.626759  0.163503  0.947775  1
  Ru  Ru35  1  0.126163  0.447937  0.962181  1
