# generated using pymatgen
data_DyLu7Ga3Co
_symmetry_space_group_name_H-M   'P 1'
_cell_length_a   9.80034200
_cell_length_b   9.80034138
_cell_length_c   6.81994700
_cell_angle_alpha   90.00000000
_cell_angle_beta   90.00000000
_cell_angle_gamma   119.99999534
_symmetry_Int_Tables_number   1
_chemical_formula_structural   DyLu7Ga3Co
_chemical_formula_sum   'Dy2 Lu14 Ga6 Co2'
_cell_volume   567.27557816
_cell_formula_units_Z   2
loop_
 _symmetry_equiv_pos_site_id
 _symmetry_equiv_pos_as_xyz
  1  'x, y, z'
loop_
 _atom_site_type_symbol
 _atom_site_label
 _atom_site_symmetry_multiplicity
 _atom_site_fract_x
 _atom_site_fract_y
 _atom_site_fract_z
 _atom_site_occupancy
  Dy  Dy0  1  0.000000  0.000000  0.231128  1
  Dy  Dy1  1  0.000000  0.000000  0.731128  1
  Lu  Lu2  1  0.174339  0.825661  0.510717  1
  Lu  Lu3  1  0.651321  0.825661  0.510717  1
  Lu  Lu4  1  0.174339  0.348679  0.510717  1
  Lu  Lu5  1  0.825661  0.174339  0.010717  1
  Lu  Lu6  1  0.348679  0.174339  0.010717  1
  Lu  Lu7  1  0.825661  0.651321  0.010717  1
  Lu  Lu8  1  0.333333  0.666667  0.827588  1
  Lu  Lu9  1  0.666667  0.333333  0.327588  1
  Lu  Lu10  1  0.463557  0.536443  0.207368  1
  Lu  Lu11  1  0.072886  0.536443  0.207368  1
  Lu  Lu12  1  0.463557  0.927114  0.207368  1
  Lu  Lu13  1  0.536443  0.463557  0.707368  1
  Lu  Lu14  1  0.927114  0.463557  0.707368  1
  Lu  Lu15  1  0.536443  0.072886  0.707368  1
  Ga  Ga16  1  0.163815  0.836185  0.960283  1
  Ga  Ga17  1  0.672370  0.836185  0.960283  1
  Ga  Ga18  1  0.163815  0.327630  0.960283  1
  Ga  Ga19  1  0.836185  0.163815  0.460283  1
  Ga  Ga20  1  0.327630  0.163815  0.460283  1
  Ga  Ga21  1  0.836185  0.672370  0.460283  1
  Co  Co22  1  0.333333  0.666667  0.443599  1
  Co  Co23  1  0.666667  0.333333  0.943599  1
