# generated using pymatgen
data_ZrTa5(B2Os5)2
_symmetry_space_group_name_H-M   'P 1'
_cell_length_a   9.55871027
_cell_length_b   9.55871035
_cell_length_c   3.04491900
_cell_angle_alpha   90.00000000
_cell_angle_beta   90.00000000
_cell_angle_gamma   90.14034575
_symmetry_Int_Tables_number   1
_chemical_formula_structural   ZrTa5(B2Os5)2
_chemical_formula_sum   'Zr1 Ta5 B4 Os10'
_cell_volume   278.21019538
_cell_formula_units_Z   1
loop_
 _symmetry_equiv_pos_site_id
 _symmetry_equiv_pos_as_xyz
  1  'x, y, z'
loop_
 _atom_site_type_symbol
 _atom_site_label
 _atom_site_symmetry_multiplicity
 _atom_site_fract_x
 _atom_site_fract_y
 _atom_site_fract_z
 _atom_site_occupancy
  Zr  Zr0  1  0.823727  0.676273  0.000000  1
  Ta  Ta1  1  0.177434  0.322566  0.000000  1
  Ta  Ta2  1  0.323726  0.822593  0.000000  1
  Ta  Ta3  1  0.677407  0.176274  0.000000  1
  Ta  Ta4  1  0.500296  0.500279  0.000000  1
  Ta  Ta5  1  0.999721  0.999704  0.000000  1
  B  B6  1  0.620865  0.879135  0.000000  1
  B  B7  1  0.378416  0.121584  0.000000  1
  B  B8  1  0.120886  0.621105  0.000000  1
  B  B9  1  0.878895  0.379114  0.000000  1
  Os  Os10  1  0.565382  0.721117  0.500000  1
  Os  Os11  1  0.427736  0.281931  0.500000  1
  Os  Os12  1  0.076375  0.782344  0.500000  1
  Os  Os13  1  0.929353  0.217632  0.500000  1
  Os  Os14  1  0.282368  0.570647  0.500000  1
  Os  Os15  1  0.717656  0.423625  0.500000  1
  Os  Os16  1  0.218069  0.072264  0.500000  1
  Os  Os17  1  0.778883  0.934618  0.500000  1
  Os  Os18  1  0.498370  0.001630  0.500000  1
  Os  Os19  1  0.004434  0.495566  0.500000  1
