# generated using pymatgen
data_Nd2AlCuI
_symmetry_space_group_name_H-M   'P 1'
_cell_length_a   4.30820400
_cell_length_b   4.30820477
_cell_length_c   17.05787500
_cell_angle_alpha   90.00000000
_cell_angle_beta   90.00000000
_cell_angle_gamma   119.99999407
_symmetry_Int_Tables_number   1
_chemical_formula_structural   Nd2AlCuI
_chemical_formula_sum   'Nd4 Al2 Cu2 I2'
_cell_volume   274.18783493
_cell_formula_units_Z   2
loop_
 _symmetry_equiv_pos_site_id
 _symmetry_equiv_pos_as_xyz
  1  'x, y, z'
loop_
 _atom_site_type_symbol
 _atom_site_label
 _atom_site_symmetry_multiplicity
 _atom_site_fract_x
 _atom_site_fract_y
 _atom_site_fract_z
 _atom_site_occupancy
  Nd  Nd0  1  0.000000  0.000000  0.613768  1
  Nd  Nd1  1  0.000000  0.000000  0.388899  1
  Nd  Nd2  1  0.000000  0.000000  0.113768  1
  Nd  Nd3  1  0.000000  0.000000  0.888899  1
  Al  Al4  1  0.666667  0.333333  0.504573  1
  Al  Al5  1  0.333333  0.666667  0.004573  1
  Cu  Cu6  1  0.666667  0.333333  0.993586  1
  Cu  Cu7  1  0.333333  0.666667  0.493586  1
  I  I8  1  0.666667  0.333333  0.249174  1
  I  I9  1  0.333333  0.666667  0.749174  1
