# generated using pymatgen
data_Ho6Tm10Cd4Ir3Ru
_symmetry_space_group_name_H-M   'P 1'
_cell_length_a   9.57086563
_cell_length_b   9.57087400
_cell_length_c   9.57104548
_cell_angle_alpha   59.48313795
_cell_angle_beta   59.48423894
_cell_angle_gamma   59.48403055
_symmetry_Int_Tables_number   1
_chemical_formula_structural   Ho6Tm10Cd4Ir3Ru
_chemical_formula_sum   'Ho6 Tm10 Cd4 Ir3 Ru1'
_cell_volume   612.65789639
_cell_formula_units_Z   1
loop_
 _symmetry_equiv_pos_site_id
 _symmetry_equiv_pos_as_xyz
  1  'x, y, z'
loop_
 _atom_site_type_symbol
 _atom_site_label
 _atom_site_symmetry_multiplicity
 _atom_site_fract_x
 _atom_site_fract_y
 _atom_site_fract_z
 _atom_site_occupancy
  Ho  Ho0  1  0.189130  0.811334  0.811277  1
  Ho  Ho1  1  0.809262  0.188956  0.188952  1
  Ho  Ho2  1  0.811277  0.189130  0.811288  1
  Ho  Ho3  1  0.188934  0.809265  0.188959  1
  Ho  Ho4  1  0.811208  0.811284  0.189174  1
  Ho  Ho5  1  0.188977  0.189005  0.809268  1
  Tm  Tm6  1  0.598934  0.598909  0.598976  1
  Tm  Tm7  1  0.598761  0.598732  0.206228  1
  Tm  Tm8  1  0.598828  0.206109  0.598748  1
  Tm  Tm9  1  0.206164  0.598811  0.598771  1
  Tm  Tm10  1  0.062735  0.437978  0.437933  1
  Tm  Tm11  1  0.437317  0.060725  0.060733  1
  Tm  Tm12  1  0.437943  0.062769  0.437937  1
  Tm  Tm13  1  0.060737  0.437339  0.060724  1
  Tm  Tm14  1  0.437926  0.437964  0.062719  1
  Tm  Tm15  1  0.060775  0.060752  0.437240  1
  Cd  Cd16  1  0.829463  0.829493  0.829429  1
  Cd  Cd17  1  0.830382  0.830373  0.506741  1
  Cd  Cd18  1  0.830375  0.506730  0.830415  1
  Cd  Cd19  1  0.506723  0.830369  0.830407  1
  Ir  Ir20  1  0.393122  0.393027  0.826005  1
  Ir  Ir21  1  0.393140  0.826033  0.393121  1
  Ir  Ir22  1  0.826075  0.393069  0.393116  1
  Ru  Ru23  1  0.391812  0.391846  0.391840  1
