# generated using pymatgen
data_La11NdAl4(GeRh2)4
_symmetry_space_group_name_H-M   'P 1'
_cell_length_a   5.85131099
_cell_length_b   8.25959919
_cell_length_c   13.67680300
_cell_angle_alpha   90.00000000
_cell_angle_beta   90.00000000
_cell_angle_gamma   89.88437273
_symmetry_Int_Tables_number   1
_chemical_formula_structural   La11NdAl4(GeRh2)4
_chemical_formula_sum   'La11 Nd1 Al4 Ge4 Rh8'
_cell_volume   660.99147903
_cell_formula_units_Z   1
loop_
 _symmetry_equiv_pos_site_id
 _symmetry_equiv_pos_as_xyz
  1  'x, y, z'
loop_
 _atom_site_type_symbol
 _atom_site_label
 _atom_site_symmetry_multiplicity
 _atom_site_fract_x
 _atom_site_fract_y
 _atom_site_fract_z
 _atom_site_occupancy
  La  La0  1  0.636355  0.251799  0.250000  1
  La  La1  1  0.362702  0.747728  0.750000  1
  La  La2  1  0.362909  0.752080  0.250000  1
  La  La3  1  0.147260  0.396129  0.099343  1
  La  La4  1  0.852131  0.603116  0.900644  1
  La  La5  1  0.852131  0.603116  0.599356  1
  La  La6  1  0.852785  0.896521  0.400808  1
  La  La7  1  0.147260  0.396129  0.400657  1
  La  La8  1  0.147778  0.103734  0.599464  1
  La  La9  1  0.147778  0.103734  0.900536  1
  La  La10  1  0.852785  0.896521  0.099192  1
  Nd  Nd11  1  0.638328  0.248380  0.750000  1
  Al  Al12  1  0.624846  0.250070  0.998811  1
  Al  Al13  1  0.375741  0.749965  0.999817  1
  Al  Al14  1  0.375741  0.749965  0.500183  1
  Al  Al15  1  0.624846  0.250070  0.501189  1
  Ge  Ge16  1  0.141879  0.105969  0.250000  1
  Ge  Ge17  1  0.855715  0.896760  0.750000  1
  Ge  Ge18  1  0.857703  0.606082  0.250000  1
  Ge  Ge19  1  0.144146  0.391280  0.750000  1
  Rh  Rh20  1  0.376461  0.029932  0.091589  1
  Rh  Rh21  1  0.623208  0.970568  0.908378  1
  Rh  Rh22  1  0.623208  0.970568  0.591622  1
  Rh  Rh23  1  0.624363  0.529569  0.408643  1
  Rh  Rh24  1  0.376461  0.029932  0.408411  1
  Rh  Rh25  1  0.375557  0.470356  0.591751  1
  Rh  Rh26  1  0.375557  0.470356  0.908249  1
  Rh  Rh27  1  0.624363  0.529569  0.091357  1
