# generated using pymatgen
data_Ce3Gd13(MgCo)4
_symmetry_space_group_name_H-M   'P 1'
_cell_length_a   9.65252252
_cell_length_b   9.69632517
_cell_length_c   9.69632400
_cell_angle_alpha   60.00000400
_cell_angle_beta   59.84977599
_cell_angle_gamma   59.84977955
_symmetry_Int_Tables_number   1
_chemical_formula_structural   Ce3Gd13(MgCo)4
_chemical_formula_sum   'Ce3 Gd13 Mg4 Co4'
_cell_volume   640.25101471
_cell_formula_units_Z   1
loop_
 _symmetry_equiv_pos_site_id
 _symmetry_equiv_pos_as_xyz
  1  'x, y, z'
loop_
 _atom_site_type_symbol
 _atom_site_label
 _atom_site_symmetry_multiplicity
 _atom_site_fract_x
 _atom_site_fract_y
 _atom_site_fract_z
 _atom_site_occupancy
  Ce  Ce0  1  0.586576  0.592907  0.592907  1
  Ce  Ce1  1  0.586576  0.592907  0.227610  1
  Ce  Ce2  1  0.586576  0.227610  0.592907  1
  Gd  Gd3  1  0.211647  0.596118  0.596118  1
  Gd  Gd4  1  0.063123  0.436780  0.436780  1
  Gd  Gd5  1  0.438441  0.062628  0.062628  1
  Gd  Gd6  1  0.438441  0.062628  0.436304  1
  Gd  Gd7  1  0.063123  0.436780  0.063316  1
  Gd  Gd8  1  0.438441  0.436304  0.062628  1
  Gd  Gd9  1  0.063123  0.063316  0.436780  1
  Gd  Gd10  1  0.184991  0.815170  0.815170  1
  Gd  Gd11  1  0.808903  0.189205  0.189205  1
  Gd  Gd12  1  0.808903  0.189205  0.812689  1
  Gd  Gd13  1  0.184991  0.815170  0.184670  1
  Gd  Gd14  1  0.808903  0.812689  0.189205  1
  Gd  Gd15  1  0.184991  0.184670  0.815170  1
  Mg  Mg16  1  0.828575  0.829534  0.829534  1
  Mg  Mg17  1  0.828575  0.829534  0.512355  1
  Mg  Mg18  1  0.828575  0.512355  0.829534  1
  Mg  Mg19  1  0.510756  0.829748  0.829748  1
  Co  Co20  1  0.410993  0.386530  0.386530  1
  Co  Co21  1  0.410993  0.386530  0.815949  1
  Co  Co22  1  0.410993  0.815949  0.386530  1
  Co  Co23  1  0.812794  0.395735  0.395735  1
