# generated using pymatgen
data_Tb6Al24Cu3Tc5
_symmetry_space_group_name_H-M   'P 1'
_cell_length_a   8.87494419
_cell_length_b   8.83215600
_cell_length_c   9.57697226
_cell_angle_alpha   90.37033996
_cell_angle_beta   90.04909823
_cell_angle_gamma   119.22716302
_symmetry_Int_Tables_number   1
_chemical_formula_structural   Tb6Al24Cu3Tc5
_chemical_formula_sum   'Tb6 Al24 Cu3 Tc5'
_cell_volume   655.09950578
_cell_formula_units_Z   1
loop_
 _symmetry_equiv_pos_site_id
 _symmetry_equiv_pos_as_xyz
  1  'x, y, z'
loop_
 _atom_site_type_symbol
 _atom_site_label
 _atom_site_symmetry_multiplicity
 _atom_site_fract_x
 _atom_site_fract_y
 _atom_site_fract_z
 _atom_site_occupancy
  Tb  Tb0  1  0.381956  0.187870  0.251501  1
  Tb  Tb1  1  0.808829  0.197271  0.249224  1
  Tb  Tb2  1  0.812358  0.613794  0.248048  1
  Tb  Tb3  1  0.618044  0.812130  0.748499  1
  Tb  Tb4  1  0.191171  0.802729  0.750776  1
  Tb  Tb5  1  0.187642  0.386206  0.751952  1
  Al  Al6  1  0.437979  0.874713  0.248967  1
  Al  Al7  1  0.124929  0.560538  0.250941  1
  Al  Al8  1  0.437921  0.560798  0.251236  1
  Al  Al9  1  0.562021  0.125287  0.751033  1
  Al  Al10  1  0.875071  0.439462  0.749059  1
  Al  Al11  1  0.562079  0.439202  0.748764  1
  Al  Al12  1  0.155834  0.830283  0.421438  1
  Al  Al13  1  0.157029  0.322927  0.423534  1
  Al  Al14  1  0.677642  0.836307  0.420434  1
  Al  Al15  1  0.844166  0.169717  0.578562  1
  Al  Al16  1  0.842971  0.677073  0.576466  1
  Al  Al17  1  0.322358  0.163693  0.579566  1
  Al  Al18  1  0.835673  0.162751  0.923787  1
  Al  Al19  1  0.841391  0.675378  0.923816  1
  Al  Al20  1  0.323107  0.157917  0.924793  1
  Al  Al21  1  0.164327  0.837249  0.076213  1
  Al  Al22  1  0.158609  0.324622  0.076184  1
  Al  Al23  1  0.676893  0.842083  0.075207  1
  Al  Al24  1  0.330144  0.664190  0.518639  1
  Al  Al25  1  0.669856  0.335810  0.481361  1
  Al  Al26  1  0.667015  0.330508  0.020826  1
  Al  Al27  1  0.332985  0.669492  0.979174  1
  Al  Al28  1  0.003046  0.999351  0.249974  1
  Al  Al29  1  0.996954  0.000649  0.750026  1
  Cu  Cu30  1  0.500000  0.000000  0.500000  1
  Cu  Cu31  1  0.500000  0.500000  0.500000  1
  Cu  Cu32  1  0.500000  0.500000  0.000000  1
  Tc  Tc33  1  0.000000  0.000000  0.500000  1
  Tc  Tc34  1  0.000000  0.000000  0.000000  1
  Tc  Tc35  1  0.000000  0.500000  0.500000  1
  Tc  Tc36  1  0.500000  0.000000  0.000000  1
  Tc  Tc37  1  0.000000  0.500000  0.000000  1
