# generated using pymatgen
data_Er3CdIr8
_symmetry_space_group_name_H-M   'P 1'
_cell_length_a   5.32975500
_cell_length_b   5.32975455
_cell_length_c   8.64950900
_cell_angle_alpha   90.00000000
_cell_angle_beta   90.00000000
_cell_angle_gamma   119.99999656
_symmetry_Int_Tables_number   1
_chemical_formula_structural   Er3CdIr8
_chemical_formula_sum   'Er3 Cd1 Ir8'
_cell_volume   212.78281826
_cell_formula_units_Z   1
loop_
 _symmetry_equiv_pos_site_id
 _symmetry_equiv_pos_as_xyz
  1  'x, y, z'
loop_
 _atom_site_type_symbol
 _atom_site_label
 _atom_site_symmetry_multiplicity
 _atom_site_fract_x
 _atom_site_fract_y
 _atom_site_fract_z
 _atom_site_occupancy
  Er  Er0  1  0.333333  0.666667  0.081775  1
  Er  Er1  1  0.666667  0.333333  0.556840  1
  Er  Er2  1  0.666667  0.333333  0.929544  1
  Cd  Cd3  1  0.333333  0.666667  0.443421  1
  Ir  Ir4  1  0.000000  0.000000  0.996426  1
  Ir  Ir5  1  0.000000  0.000000  0.497358  1
  Ir  Ir6  1  0.830246  0.660493  0.248012  1
  Ir  Ir7  1  0.170783  0.829217  0.750201  1
  Ir  Ir8  1  0.658433  0.829217  0.750201  1
  Ir  Ir9  1  0.339507  0.169754  0.248012  1
  Ir  Ir10  1  0.830246  0.169754  0.248012  1
  Ir  Ir11  1  0.170783  0.341567  0.750201  1
