# generated using pymatgen
data_PaTa(Ni7B2)3
_symmetry_space_group_name_H-M   'P 1'
_cell_length_a   7.49156319
_cell_length_b   7.49121922
_cell_length_c   7.49116300
_cell_angle_alpha   59.99903117
_cell_angle_beta   59.99883701
_cell_angle_gamma   60.00008608
_symmetry_Int_Tables_number   1
_chemical_formula_structural   PaTa(Ni7B2)3
_chemical_formula_sum   'Pa1 Ta1 Ni21 B6'
_cell_volume   297.27096169
_cell_formula_units_Z   1
loop_
 _symmetry_equiv_pos_site_id
 _symmetry_equiv_pos_as_xyz
  1  'x, y, z'
loop_
 _atom_site_type_symbol
 _atom_site_label
 _atom_site_symmetry_multiplicity
 _atom_site_fract_x
 _atom_site_fract_y
 _atom_site_fract_z
 _atom_site_occupancy
  Pa  Pa0  1  0.749966  0.750019  0.749961  1
  Ta  Ta1  1  0.250002  0.249987  0.250019  1
  Ni  Ni2  1  0.999977  0.000006  0.999998  1
  Ni  Ni3  1  0.611899  0.611879  0.164316  1
  Ni  Ni4  1  0.611921  0.164328  0.611878  1
  Ni  Ni5  1  0.164281  0.611928  0.611892  1
  Ni  Ni6  1  0.611890  0.611868  0.611897  1
  Ni  Ni7  1  0.383079  0.383071  0.850783  1
  Ni  Ni8  1  0.383082  0.850781  0.383071  1
  Ni  Ni9  1  0.850824  0.383072  0.383056  1
  Ni  Ni10  1  0.383072  0.383070  0.383073  1
  Ni  Ni11  1  0.002098  0.002105  0.338106  1
  Ni  Ni12  1  0.657705  0.002049  0.338185  1
  Ni  Ni13  1  0.002066  0.657711  0.338145  1
  Ni  Ni14  1  0.657717  0.338149  0.002074  1
  Ni  Ni15  1  0.002095  0.338140  0.002073  1
  Ni  Ni16  1  0.002090  0.338138  0.657713  1
  Ni  Ni17  1  0.338101  0.657677  0.002114  1
  Ni  Ni18  1  0.338118  0.002101  0.657702  1
  Ni  Ni19  1  0.338121  0.002112  0.002093  1
  Ni  Ni20  1  0.002087  0.002075  0.657707  1
  Ni  Ni21  1  0.002065  0.657697  0.002089  1
  Ni  Ni22  1  0.657712  0.002043  0.002069  1
  B  B23  1  0.733514  0.733542  0.266479  1
  B  B24  1  0.266489  0.733504  0.266489  1
  B  B25  1  0.733503  0.266469  0.266485  1
  B  B26  1  0.266514  0.266504  0.733484  1
  B  B27  1  0.733524  0.266467  0.733535  1
  B  B28  1  0.266492  0.733510  0.733511  1
