# generated using pymatgen
data_LiMgTi3Pt11
_symmetry_space_group_name_H-M   'P 1'
_cell_length_a   5.58682700
_cell_length_b   5.56879189
_cell_length_c   9.10754700
_cell_angle_alpha   90.00000000
_cell_angle_beta   90.00000000
_cell_angle_gamma   120.10718412
_symmetry_Int_Tables_number   1
_chemical_formula_structural   LiMgTi3Pt11
_chemical_formula_sum   'Li1 Mg1 Ti3 Pt11'
_cell_volume   245.12532782
_cell_formula_units_Z   1
loop_
 _symmetry_equiv_pos_site_id
 _symmetry_equiv_pos_as_xyz
  1  'x, y, z'
loop_
 _atom_site_type_symbol
 _atom_site_label
 _atom_site_symmetry_multiplicity
 _atom_site_fract_x
 _atom_site_fract_y
 _atom_site_fract_z
 _atom_site_occupancy
  Li  Li0  1  0.822884  0.645768  0.250000  1
  Mg  Mg1  1  0.330019  0.660039  0.250000  1
  Ti  Ti2  1  0.005351  0.010702  0.503646  1
  Ti  Ti3  1  0.005351  0.010702  0.996354  1
  Ti  Ti4  1  0.667843  0.335684  0.750000  1
  Pt  Pt5  1  0.505855  0.503974  0.499008  1
  Pt  Pt6  1  0.502384  0.004767  0.500912  1
  Pt  Pt7  1  0.998119  0.503974  0.499008  1
  Pt  Pt8  1  0.505855  0.503974  0.000992  1
  Pt  Pt9  1  0.502384  0.004767  0.999088  1
  Pt  Pt10  1  0.998119  0.503974  0.000992  1
  Pt  Pt11  1  0.333505  0.162061  0.250000  1
  Pt  Pt12  1  0.828555  0.162061  0.250000  1
  Pt  Pt13  1  0.163376  0.326752  0.750000  1
  Pt  Pt14  1  0.663288  0.830402  0.750000  1
  Pt  Pt15  1  0.167114  0.830402  0.750000  1
