# generated using pymatgen
data_Yb3ErAl12(SiIr)6
_symmetry_space_group_name_H-M   'P 1'
_cell_length_a   7.47042605
_cell_length_b   7.44764588
_cell_length_c   9.37591763
_cell_angle_alpha   89.98863256
_cell_angle_beta   90.09088583
_cell_angle_gamma   119.91558382
_symmetry_Int_Tables_number   1
_chemical_formula_structural   Yb3ErAl12(SiIr)6
_chemical_formula_sum   'Yb3 Er1 Al12 Si6 Ir6'
_cell_volume   452.14418966
_cell_formula_units_Z   1
loop_
 _symmetry_equiv_pos_site_id
 _symmetry_equiv_pos_as_xyz
  1  'x, y, z'
loop_
 _atom_site_type_symbol
 _atom_site_label
 _atom_site_symmetry_multiplicity
 _atom_site_fract_x
 _atom_site_fract_y
 _atom_site_fract_z
 _atom_site_occupancy
  Yb  Yb0  1  0.000120  0.336981  0.746787  1
  Yb  Yb1  1  0.673927  0.007533  0.256598  1
  Yb  Yb2  1  0.326060  0.992278  0.743183  1
  Er  Er3  1  0.999028  0.662510  0.253640  1
  Al  Al4  1  0.127963  0.127568  0.249423  1
  Al  Al5  1  0.872318  0.872347  0.750418  1
  Al  Al6  1  0.661936  0.997539  0.928834  1
  Al  Al7  1  0.338823  0.003594  0.070685  1
  Al  Al8  1  0.335254  0.333810  0.561827  1
  Al  Al9  1  0.664230  0.666074  0.438825  1
  Al  Al10  1  0.664459  0.668887  0.061359  1
  Al  Al11  1  0.335005  0.331116  0.938196  1
  Al  Al12  1  0.338194  0.548124  0.249528  1
  Al  Al13  1  0.660624  0.451225  0.750396  1
  Al  Al14  1  0.547405  0.343468  0.250381  1
  Al  Al15  1  0.452491  0.656655  0.749550  1
  Si  Si16  1  0.001491  0.327680  0.066154  1
  Si  Si17  1  0.998915  0.671862  0.932182  1
  Si  Si18  1  0.991922  0.665716  0.573551  1
  Si  Si19  1  0.334325  0.006711  0.420933  1
  Si  Si20  1  0.008387  0.333907  0.427612  1
  Si  Si21  1  0.665310  0.993329  0.579661  1
  Ir  Ir22  1  0.689801  0.339158  0.003676  1
  Ir  Ir23  1  0.311348  0.662601  0.999103  1
  Ir  Ir24  1  0.319915  0.679087  0.498760  1
  Ir  Ir25  1  0.681261  0.322391  0.498562  1
  Ir  Ir26  1  0.999608  0.998696  0.001377  1
  Ir  Ir27  1  0.999880  0.999153  0.498798  1
