# generated using pymatgen
data_Gd4DyHo3(TcB6)4
_symmetry_space_group_name_H-M   'P 1'
_cell_length_a   3.69042800
_cell_length_b   9.14544809
_cell_length_c   11.55694400
_cell_angle_alpha   90.00894803
_cell_angle_beta   90.00000000
_cell_angle_gamma   90.00000000
_symmetry_Int_Tables_number   1
_chemical_formula_structural   Gd4DyHo3(TcB6)4
_chemical_formula_sum   'Gd4 Dy1 Ho3 Tc4 B24'
_cell_volume   390.05399399
_cell_formula_units_Z   1
loop_
 _symmetry_equiv_pos_site_id
 _symmetry_equiv_pos_as_xyz
  1  'x, y, z'
loop_
 _atom_site_type_symbol
 _atom_site_label
 _atom_site_symmetry_multiplicity
 _atom_site_fract_x
 _atom_site_fract_y
 _atom_site_fract_z
 _atom_site_occupancy
  Gd  Gd0  1  0.000000  0.324424  0.413980  1
  Gd  Gd1  1  0.000000  0.675602  0.586156  1
  Gd  Gd2  1  0.000000  0.824264  0.085985  1
  Gd  Gd3  1  0.000000  0.175705  0.913919  1
  Dy  Dy4  1  0.000000  0.943059  0.369272  1
  Ho  Ho5  1  0.000000  0.057193  0.631090  1
  Ho  Ho6  1  0.000000  0.442713  0.131032  1
  Ho  Ho7  1  0.000000  0.557171  0.868781  1
  Tc  Tc8  1  0.000000  0.638669  0.320105  1
  Tc  Tc9  1  0.000000  0.361063  0.679979  1
  Tc  Tc10  1  0.000000  0.139134  0.179524  1
  Tc  Tc11  1  0.000000  0.861059  0.820321  1
  B  B12  1  0.500000  0.553053  0.432115  1
  B  B13  1  0.500000  0.446598  0.567983  1
  B  B14  1  0.500000  0.053412  0.067745  1
  B  B15  1  0.500000  0.946691  0.932085  1
  B  B16  1  0.500000  0.748739  0.418335  1
  B  B17  1  0.500000  0.250868  0.581756  1
  B  B18  1  0.500000  0.249354  0.081614  1
  B  B19  1  0.500000  0.750751  0.918274  1
  B  B20  1  0.500000  0.792159  0.265577  1
  B  B21  1  0.500000  0.207570  0.734362  1
  B  B22  1  0.500000  0.292661  0.234261  1
  B  B23  1  0.500000  0.707477  0.765694  1
  B  B24  1  0.500000  0.631367  0.185762  1
  B  B25  1  0.500000  0.368535  0.814152  1
  B  B26  1  0.500000  0.131993  0.313898  1
  B  B27  1  0.500000  0.868348  0.685968  1
  B  B28  1  0.500000  0.983280  0.212190  1
  B  B29  1  0.500000  0.016937  0.787608  1
  B  B30  1  0.500000  0.482802  0.287527  1
  B  B31  1  0.500000  0.516990  0.712436  1
  B  B32  1  0.500000  0.598964  0.027569  1
  B  B33  1  0.500000  0.401069  0.972311  1
  B  B34  1  0.500000  0.100382  0.472425  1
  B  B35  1  0.500000  0.899946  0.528206  1
