# generated using pymatgen
data_Tb5Ce3(Si3Ir)4
_symmetry_space_group_name_H-M   'P 1'
_cell_length_a   8.19806600
_cell_length_b   8.20482193
_cell_length_c   8.22631400
_cell_angle_alpha   90.00000000
_cell_angle_beta   90.00000000
_cell_angle_gamma   119.97275750
_symmetry_Int_Tables_number   1
_chemical_formula_structural   Tb5Ce3(Si3Ir)4
_chemical_formula_sum   'Tb5 Ce3 Si12 Ir4'
_cell_volume   479.33113422
_cell_formula_units_Z   1
loop_
 _symmetry_equiv_pos_site_id
 _symmetry_equiv_pos_as_xyz
  1  'x, y, z'
loop_
 _atom_site_type_symbol
 _atom_site_label
 _atom_site_symmetry_multiplicity
 _atom_site_fract_x
 _atom_site_fract_y
 _atom_site_fract_z
 _atom_site_occupancy
  Tb  Tb0  1  0.499983  0.500126  0.750000  1
  Tb  Tb1  1  0.500056  0.499965  0.250000  1
  Tb  Tb2  1  0.000143  0.500126  0.750000  1
  Tb  Tb3  1  0.999909  0.499965  0.250000  1
  Tb  Tb4  1  0.499877  0.999753  0.750000  1
  Ce  Ce5  1  0.500186  0.000372  0.250000  1
  Ce  Ce6  1  0.999971  0.999942  0.750000  1
  Ce  Ce7  1  0.000014  0.000027  0.250000  1
  Si  Si8  1  0.834521  0.166696  0.998383  1
  Si  Si9  1  0.165522  0.833285  0.999274  1
  Si  Si10  1  0.332176  0.166696  0.998383  1
  Si  Si11  1  0.165522  0.833285  0.500726  1
  Si  Si12  1  0.667762  0.833285  0.999274  1
  Si  Si13  1  0.834521  0.166696  0.501617  1
  Si  Si14  1  0.832712  0.665424  0.000792  1
  Si  Si15  1  0.667762  0.833285  0.500726  1
  Si  Si16  1  0.167291  0.334583  0.001483  1
  Si  Si17  1  0.332176  0.166696  0.501617  1
  Si  Si18  1  0.167291  0.334583  0.498517  1
  Si  Si19  1  0.832712  0.665424  0.499208  1
  Ir  Ir20  1  0.666007  0.332012  0.999899  1
  Ir  Ir21  1  0.333940  0.667880  0.999382  1
  Ir  Ir22  1  0.333940  0.667880  0.500618  1
  Ir  Ir23  1  0.666007  0.332012  0.500101  1
