# generated using pymatgen
data_YbHo2(Ga2Co3)3
_symmetry_space_group_name_H-M   'P 1'
_cell_length_a   8.99187100
_cell_length_b   8.99187013
_cell_length_c   3.81129400
_cell_angle_alpha   90.00000000
_cell_angle_beta   90.00000000
_cell_angle_gamma   119.99999951
_symmetry_Int_Tables_number   1
_chemical_formula_structural   YbHo2(Ga2Co3)3
_chemical_formula_sum   'Yb1 Ho2 Ga6 Co9'
_cell_volume   266.87210338
_cell_formula_units_Z   1
loop_
 _symmetry_equiv_pos_site_id
 _symmetry_equiv_pos_as_xyz
  1  'x, y, z'
loop_
 _atom_site_type_symbol
 _atom_site_label
 _atom_site_symmetry_multiplicity
 _atom_site_fract_x
 _atom_site_fract_y
 _atom_site_fract_z
 _atom_site_occupancy
  Yb  Yb0  1  0.000000  0.000000  0.000000  1
  Ho  Ho1  1  0.666667  0.333333  0.500000  1
  Ho  Ho2  1  0.333333  0.666667  0.500000  1
  Ga  Ga3  1  0.682617  0.682617  0.500000  1
  Ga  Ga4  1  0.317383  0.000000  0.500000  1
  Ga  Ga5  1  0.000000  0.317383  0.500000  1
  Ga  Ga6  1  0.317383  0.317383  0.500000  1
  Ga  Ga7  1  0.682617  0.000000  0.500000  1
  Ga  Ga8  1  0.000000  0.682617  0.500000  1
  Co  Co9  1  0.500000  0.500000  0.000000  1
  Co  Co10  1  0.500000  0.000000  0.000000  1
  Co  Co11  1  0.000000  0.500000  0.000000  1
  Co  Co12  1  0.816165  0.183835  0.000000  1
  Co  Co13  1  0.816165  0.632332  0.000000  1
  Co  Co14  1  0.367668  0.183835  0.000000  1
  Co  Co15  1  0.183835  0.816165  0.000000  1
  Co  Co16  1  0.632332  0.816165  0.000000  1
  Co  Co17  1  0.183835  0.367668  0.000000  1
