# generated using pymatgen
data_DyY5(ErPt2)2
_symmetry_space_group_name_H-M   'P 1'
_cell_length_a   4.76806900
_cell_length_b   7.18866207
_cell_length_c   8.79451387
_cell_angle_alpha   89.82174696
_cell_angle_beta   90.00000000
_cell_angle_gamma   90.00000000
_symmetry_Int_Tables_number   1
_chemical_formula_structural   DyY5(ErPt2)2
_chemical_formula_sum   'Dy1 Y5 Er2 Pt4'
_cell_volume   301.43962182
_cell_formula_units_Z   1
loop_
 _symmetry_equiv_pos_site_id
 _symmetry_equiv_pos_as_xyz
  1  'x, y, z'
loop_
 _atom_site_type_symbol
 _atom_site_label
 _atom_site_symmetry_multiplicity
 _atom_site_fract_x
 _atom_site_fract_y
 _atom_site_fract_z
 _atom_site_occupancy
  Dy  Dy0  1  0.750000  0.144033  0.079544  1
  Y  Y1  1  0.750000  0.644768  0.420333  1
  Y  Y2  1  0.250000  0.990402  0.332404  1
  Y  Y3  1  0.250000  0.490070  0.167493  1
  Y  Y4  1  0.750000  0.010608  0.670210  1
  Y  Y5  1  0.750000  0.511195  0.830242  1
  Er  Er6  1  0.250000  0.856291  0.920614  1
  Er  Er7  1  0.250000  0.355612  0.579349  1
  Pt  Pt8  1  0.250000  0.255195  0.904808  1
  Pt  Pt9  1  0.250000  0.755351  0.596614  1
  Pt  Pt10  1  0.750000  0.744258  0.090608  1
  Pt  Pt11  1  0.750000  0.242217  0.407782  1
