# generated using pymatgen
data_Tb5Ce7(SiOs)8
_symmetry_space_group_name_H-M   'P 1'
_cell_length_a   5.51290302
_cell_length_b   7.85085835
_cell_length_c   13.49500400
_cell_angle_alpha   90.03269516
_cell_angle_beta   89.91530715
_cell_angle_gamma   89.97013375
_symmetry_Int_Tables_number   1
_chemical_formula_structural   Tb5Ce7(SiOs)8
_chemical_formula_sum   'Tb5 Ce7 Si8 Os8'
_cell_volume   584.07673493
_cell_formula_units_Z   1
loop_
 _symmetry_equiv_pos_site_id
 _symmetry_equiv_pos_as_xyz
  1  'x, y, z'
loop_
 _atom_site_type_symbol
 _atom_site_label
 _atom_site_symmetry_multiplicity
 _atom_site_fract_x
 _atom_site_fract_y
 _atom_site_fract_z
 _atom_site_occupancy
  Tb  Tb0  1  0.132721  0.253681  0.749286  1
  Tb  Tb1  1  0.866312  0.747398  0.250855  1
  Tb  Tb2  1  0.136565  0.248636  0.250702  1
  Tb  Tb3  1  0.867119  0.750627  0.748529  1
  Tb  Tb4  1  0.646758  0.394477  0.604941  1
  Ce  Ce5  1  0.347482  0.597518  0.101414  1
  Ce  Ce6  1  0.650930  0.100199  0.399715  1
  Ce  Ce7  1  0.349819  0.900800  0.898158  1
  Ce  Ce8  1  0.351859  0.594652  0.402120  1
  Ce  Ce9  1  0.651389  0.402765  0.899145  1
  Ce  Ce10  1  0.345984  0.903523  0.600262  1
  Ce  Ce11  1  0.651886  0.096683  0.101061  1
  Si  Si12  1  0.092572  0.252911  0.503187  1
  Si  Si13  1  0.902374  0.750267  0.998983  1
  Si  Si14  1  0.899917  0.749635  0.498840  1
  Si  Si15  1  0.099907  0.249630  0.000041  1
  Si  Si16  1  0.646376  0.102679  0.750164  1
  Si  Si17  1  0.352696  0.895243  0.250831  1
  Si  Si18  1  0.649431  0.396772  0.249340  1
  Si  Si19  1  0.355651  0.604294  0.748399  1
  Os  Os20  1  0.845261  0.021134  0.590283  1
  Os  Os21  1  0.152962  0.976042  0.090287  1
  Os  Os22  1  0.849841  0.477246  0.408259  1
  Os  Os23  1  0.154902  0.522174  0.908625  1
  Os  Os24  1  0.151237  0.980405  0.409566  1
  Os  Os25  1  0.848916  0.023111  0.909099  1
  Os  Os26  1  0.151460  0.529096  0.588613  1
  Os  Os27  1  0.847672  0.478399  0.089294  1
