# generated using pymatgen
data_VSb(NF10)2
_symmetry_space_group_name_H-M   'P 1'
_cell_length_a   5.67542725
_cell_length_b   7.65694648
_cell_length_c   9.07699011
_cell_angle_alpha   88.78016145
_cell_angle_beta   109.33118384
_cell_angle_gamma   96.68678909
_symmetry_Int_Tables_number   1
_chemical_formula_structural   VSb(NF10)2
_chemical_formula_sum   'V1 Sb1 N2 F20'
_cell_volume   369.62010921
_cell_formula_units_Z   1
loop_
 _symmetry_equiv_pos_site_id
 _symmetry_equiv_pos_as_xyz
  1  'x, y, z'
loop_
 _atom_site_type_symbol
 _atom_site_label
 _atom_site_symmetry_multiplicity
 _atom_site_fract_x
 _atom_site_fract_y
 _atom_site_fract_z
 _atom_site_occupancy
  V  V0  1  0.995412  0.754555  0.295419  1
  Sb  Sb1  1  0.004378  0.245155  0.703367  1
  N  N2  1  0.295782  0.274625  0.215593  1
  N  N3  1  0.704447  0.725714  0.785964  1
  F  F4  1  0.060242  0.233334  0.213995  1
  F  F5  1  0.939950  0.766779  0.786735  1
  F  F6  1  0.371148  0.139827  0.156997  1
  F  F7  1  0.630495  0.860226  0.845469  1
  F  F8  1  0.932819  0.194922  0.894931  1
  F  F9  1  0.062972  0.802023  0.113004  1
  F  F10  1  0.077094  0.299439  0.515818  1
  F  F11  1  0.926654  0.703765  0.472086  1
  F  F12  1  0.780960  0.041898  0.605887  1
  F  F13  1  0.206354  0.946508  0.387223  1
  F  F14  1  0.280211  0.107357  0.778845  1
  F  F15  1  0.735227  0.884812  0.225113  1
  F  F16  1  0.215631  0.453637  0.806002  1
  F  F17  1  0.794132  0.556925  0.198486  1
  F  F18  1  0.725136  0.382021  0.638378  1
  F  F19  1  0.260137  0.625171  0.357009  1
  F  F20  1  0.695458  0.584509  0.874386  1
  F  F21  1  0.306382  0.416014  0.127550  1
  F  F22  1  0.549793  0.692018  0.639687  1
  F  F23  1  0.449185  0.308767  0.362057  1
