# generated using pymatgen
data_Ho7CrO12
_symmetry_space_group_name_H-M   'P 1'
_cell_length_a   6.59276987
_cell_length_b   6.59277150
_cell_length_c   6.59277033
_cell_angle_alpha   93.21413914
_cell_angle_beta   93.21413620
_cell_angle_gamma   93.21414279
_symmetry_Int_Tables_number   1
_chemical_formula_structural   Ho7CrO12
_chemical_formula_sum   'Ho7 Cr1 O12'
_cell_volume   285.14712773
_cell_formula_units_Z   1
loop_
 _symmetry_equiv_pos_site_id
 _symmetry_equiv_pos_as_xyz
  1  'x, y, z'
loop_
 _atom_site_type_symbol
 _atom_site_label
 _atom_site_symmetry_multiplicity
 _atom_site_fract_x
 _atom_site_fract_y
 _atom_site_fract_z
 _atom_site_occupancy
  Ho  Ho0  1  0.739372  0.924764  0.436380  1
  Ho  Ho1  1  0.924764  0.436380  0.739372  1
  Ho  Ho2  1  0.436380  0.739372  0.924764  1
  Ho  Ho3  1  0.260628  0.075236  0.563620  1
  Ho  Ho4  1  0.075236  0.563620  0.260628  1
  Ho  Ho5  1  0.563620  0.260628  0.075236  1
  Ho  Ho6  1  0.000000  0.000000  0.000000  1
  Cr  Cr7  1  0.500000  0.500000  0.500000  1
  O  O8  1  0.588986  0.462641  0.798998  1
  O  O9  1  0.462641  0.798998  0.588986  1
  O  O10  1  0.798998  0.588986  0.462641  1
  O  O11  1  0.411014  0.537359  0.201002  1
  O  O12  1  0.537359  0.201002  0.411014  1
  O  O13  1  0.201002  0.411014  0.537359  1
  O  O14  1  0.068775  0.906882  0.318883  1
  O  O15  1  0.906882  0.318883  0.068775  1
  O  O16  1  0.681117  0.931225  0.093118  1
  O  O17  1  0.093118  0.681117  0.931225  1
  O  O18  1  0.931225  0.093118  0.681117  1
  O  O19  1  0.318883  0.068775  0.906882  1
