# generated using pymatgen
data_Ho11LuInCo4Ru
_symmetry_space_group_name_H-M   'P 1'
_cell_length_a   8.23676020
_cell_length_b   8.23906249
_cell_length_c   8.23906264
_cell_angle_alpha   111.14357622
_cell_angle_beta   110.87331456
_cell_angle_gamma   106.44945961
_symmetry_Int_Tables_number   1
_chemical_formula_structural   Ho11LuInCo4Ru
_chemical_formula_sum   'Ho11 Lu1 In1 Co4 Ru1'
_cell_volume   429.46351597
_cell_formula_units_Z   1
loop_
 _symmetry_equiv_pos_site_id
 _symmetry_equiv_pos_as_xyz
  1  'x, y, z'
loop_
 _atom_site_type_symbol
 _atom_site_label
 _atom_site_symmetry_multiplicity
 _atom_site_fract_x
 _atom_site_fract_y
 _atom_site_fract_z
 _atom_site_occupancy
  Ho  Ho0  1  0.589606  0.782044  0.807563  1
  Ho  Ho1  1  0.025532  0.217713  0.807819  1
  Ho  Ho2  1  0.976610  0.782820  0.193791  1
  Ho  Ho3  1  0.184265  0.283605  0.467413  1
  Ho  Ho4  1  0.814883  0.714528  0.529882  1
  Ho  Ho5  1  0.184265  0.716853  0.900661  1
  Ho  Ho6  1  0.814883  0.285001  0.100354  1
  Ho  Ho7  1  0.314798  0.618993  0.306614  1
  Ho  Ho8  1  0.684945  0.379368  0.692434  1
  Ho  Ho9  1  0.314798  0.008184  0.695804  1
  Ho  Ho10  1  0.684945  0.992510  0.305576  1
  Lu  Lu11  1  0.411409  0.217706  0.193702  1
  In  In12  1  0.498665  0.499511  0.999154  1
  Co  Co13  1  0.376819  0.000398  0.376421  1
  Co  Co14  1  0.623080  0.999814  0.623266  1
  Co  Co15  1  0.110697  0.610996  0.499701  1
  Co  Co16  1  0.885757  0.387772  0.497984  1
  Ru  Ru17  1  0.004042  0.002182  0.001859  1
