# generated using pymatgen
data_Ti24GaS7
_symmetry_space_group_name_H-M   'P 1'
_cell_length_a   9.87895580
_cell_length_b   9.89483119
_cell_length_c   4.99431536
_cell_angle_alpha   89.70262483
_cell_angle_beta   89.93368850
_cell_angle_gamma   89.97870928
_symmetry_Int_Tables_number   1
_chemical_formula_structural   Ti24GaS7
_chemical_formula_sum   'Ti24 Ga1 S7'
_cell_volume   488.19038780
_cell_formula_units_Z   1
loop_
 _symmetry_equiv_pos_site_id
 _symmetry_equiv_pos_as_xyz
  1  'x, y, z'
loop_
 _atom_site_type_symbol
 _atom_site_label
 _atom_site_symmetry_multiplicity
 _atom_site_fract_x
 _atom_site_fract_y
 _atom_site_fract_z
 _atom_site_occupancy
  Ti  Ti0  1  0.891237  0.580205  0.045818  1
  Ti  Ti1  1  0.106628  0.414607  0.041919  1
  Ti  Ti2  1  0.913585  0.391975  0.540723  1
  Ti  Ti3  1  0.088238  0.600008  0.536906  1
  Ti  Ti4  1  0.606229  0.914604  0.461607  1
  Ti  Ti5  1  0.394291  0.085277  0.459265  1
  Ti  Ti6  1  0.584984  0.106936  0.959203  1
  Ti  Ti7  1  0.415030  0.894249  0.957781  1
  Ti  Ti8  1  0.858455  0.038451  0.718069  1
  Ti  Ti9  1  0.145575  0.981224  0.719529  1
  Ti  Ti10  1  0.471864  0.359661  0.218438  1
  Ti  Ti11  1  0.528230  0.638298  0.218222  1
  Ti  Ti12  1  0.638343  0.470791  0.781277  1
  Ti  Ti13  1  0.361177  0.526007  0.780069  1
  Ti  Ti14  1  0.028011  0.139286  0.280572  1
  Ti  Ti15  1  0.971547  0.863249  0.280732  1
  Ti  Ti16  1  0.285388  0.182195  0.985779  1
  Ti  Ti17  1  0.710841  0.821287  0.984481  1
  Ti  Ti18  1  0.318694  0.784004  0.487380  1
  Ti  Ti19  1  0.678895  0.215269  0.484034  1
  Ti  Ti20  1  0.215938  0.318779  0.516454  1
  Ti  Ti21  1  0.779451  0.676644  0.508955  1
  Ti  Ti22  1  0.188006  0.714383  0.017659  1
  Ti  Ti23  1  0.818978  0.284055  0.017948  1
  Ga  Ga24  1  0.961444  0.795996  0.785950  1
  S  S25  1  0.791232  0.039086  0.212101  1
  S  S26  1  0.208395  0.959459  0.210884  1
  S  S27  1  0.460347  0.292155  0.712621  1
  S  S28  1  0.538484  0.707018  0.712723  1
  S  S29  1  0.705946  0.458393  0.287727  1
  S  S30  1  0.294604  0.537350  0.286532  1
  S  S31  1  0.039933  0.209101  0.788642  1
