# generated using pymatgen
data_Na4SmUSe6
_symmetry_space_group_name_H-M   'P 1'
_cell_length_a   7.31070261
_cell_length_b   7.31070294
_cell_length_c   7.38721881
_cell_angle_alpha   80.40464308
_cell_angle_beta   80.40465031
_cell_angle_gamma   120.01187732
_symmetry_Int_Tables_number   1
_chemical_formula_structural   Na4SmUSe6
_chemical_formula_sum   'Na4 Sm1 U1 Se6'
_cell_volume   322.31806117
_cell_formula_units_Z   1
loop_
 _symmetry_equiv_pos_site_id
 _symmetry_equiv_pos_as_xyz
  1  'x, y, z'
loop_
 _atom_site_type_symbol
 _atom_site_label
 _atom_site_symmetry_multiplicity
 _atom_site_fract_x
 _atom_site_fract_y
 _atom_site_fract_z
 _atom_site_occupancy
  Na  Na0  1  0.999977  0.000023  0.000000  1
  Na  Na1  1  0.499470  0.500530  0.500000  1
  Na  Na2  1  0.839568  0.160432  0.500000  1
  Na  Na3  1  0.160666  0.839334  0.500000  1
  Sm  Sm4  1  0.667157  0.332843  0.000000  1
  U  U5  1  0.332723  0.667277  0.000000  1
  Se  Se6  1  0.269867  0.284630  0.231180  1
  Se  Se7  1  0.424577  0.062014  0.769390  1
  Se  Se8  1  0.092782  0.440144  0.772063  1
  Se  Se9  1  0.715370  0.730133  0.768820  1
  Se  Se10  1  0.559856  0.907218  0.227937  1
  Se  Se11  1  0.937986  0.575423  0.230610  1
