# generated using pymatgen
data_CsBa6Sr(USe6)2
_symmetry_space_group_name_H-M   'P 1'
_cell_length_a   9.12695361
_cell_length_b   9.12695332
_cell_length_c   9.04103339
_cell_angle_alpha   90.88283973
_cell_angle_beta   90.88283868
_cell_angle_gamma   89.56145959
_symmetry_Int_Tables_number   1
_chemical_formula_structural   CsBa6Sr(USe6)2
_chemical_formula_sum   'Cs1 Ba6 Sr1 U2 Se12'
_cell_volume   752.93013704
_cell_formula_units_Z   1
loop_
 _symmetry_equiv_pos_site_id
 _symmetry_equiv_pos_as_xyz
  1  'x, y, z'
loop_
 _atom_site_type_symbol
 _atom_site_label
 _atom_site_symmetry_multiplicity
 _atom_site_fract_x
 _atom_site_fract_y
 _atom_site_fract_z
 _atom_site_occupancy
  Cs  Cs0  1  0.875950  0.624050  0.250000  1
  Ba  Ba1  1  0.249843  0.878429  0.620790  1
  Ba  Ba2  1  0.621571  0.250157  0.879210  1
  Ba  Ba3  1  0.747556  0.120735  0.374816  1
  Ba  Ba4  1  0.379265  0.752444  0.125184  1
  Ba  Ba5  1  0.125122  0.374878  0.750000  1
  Ba  Ba6  1  0.750701  0.749299  0.750000  1
  Sr  Sr7  1  0.246528  0.253472  0.250000  1
  U  U8  1  0.499656  0.496262  0.503146  1
  U  U9  1  0.003738  0.000344  0.996854  1
  Se  Se10  1  0.210195  0.552919  0.429355  1
  Se  Se11  1  0.417662  0.204907  0.556934  1
  Se  Se12  1  0.543086  0.407471  0.208719  1
  Se  Se13  1  0.922707  0.057219  0.700157  1
  Se  Se14  1  0.704945  0.934920  0.053743  1
  Se  Se15  1  0.070601  0.711691  0.908420  1
  Se  Se16  1  0.788309  0.429399  0.591580  1
  Se  Se17  1  0.565080  0.795055  0.446257  1
  Se  Se18  1  0.442781  0.577293  0.799843  1
  Se  Se19  1  0.092529  0.956914  0.291281  1
  Se  Se20  1  0.295093  0.082338  0.943066  1
  Se  Se21  1  0.947081  0.289805  0.070645  1
