# generated using pymatgen
data_TbDy3Ga17GeIr6
_symmetry_space_group_name_H-M   'P 1'
_cell_length_a   7.60605714
_cell_length_b   7.58763569
_cell_length_c   9.48437500
_cell_angle_alpha   90.07647660
_cell_angle_beta   89.81615279
_cell_angle_gamma   119.86874762
_symmetry_Int_Tables_number   1
_chemical_formula_structural   TbDy3Ga17GeIr6
_chemical_formula_sum   'Tb1 Dy3 Ga17 Ge1 Ir6'
_cell_volume   474.65277165
_cell_formula_units_Z   1
loop_
 _symmetry_equiv_pos_site_id
 _symmetry_equiv_pos_as_xyz
  1  'x, y, z'
loop_
 _atom_site_type_symbol
 _atom_site_label
 _atom_site_symmetry_multiplicity
 _atom_site_fract_x
 _atom_site_fract_y
 _atom_site_fract_z
 _atom_site_occupancy
  Tb  Tb0  1  0.997789  0.667624  0.249237  1
  Dy  Dy1  1  0.002459  0.330671  0.752806  1
  Dy  Dy2  1  0.672589  0.000339  0.249198  1
  Dy  Dy3  1  0.330310  0.002669  0.749420  1
  Ga  Ga4  1  0.131354  0.125835  0.251005  1
  Ga  Ga5  1  0.872390  0.874465  0.749826  1
  Ga  Ga6  1  0.999232  0.670144  0.916804  1
  Ga  Ga7  1  0.000553  0.665868  0.580931  1
  Ga  Ga8  1  0.334727  0.998488  0.419637  1
  Ga  Ga9  1  0.000231  0.334846  0.421819  1
  Ga  Ga10  1  0.665037  0.000393  0.580868  1
  Ga  Ga11  1  0.659032  0.995242  0.917025  1
  Ga  Ga12  1  0.333993  0.998006  0.081023  1
  Ga  Ga13  1  0.331887  0.331223  0.564844  1
  Ga  Ga14  1  0.668923  0.669037  0.435305  1
  Ga  Ga15  1  0.668264  0.669224  0.066475  1
  Ga  Ga16  1  0.336208  0.332060  0.933266  1
  Ga  Ga17  1  0.345784  0.549399  0.251614  1
  Ga  Ga18  1  0.661586  0.452963  0.749095  1
  Ga  Ga19  1  0.547530  0.339410  0.249807  1
  Ga  Ga20  1  0.451046  0.658269  0.749380  1
  Ge  Ge21  1  0.997419  0.334665  0.082005  1
  Ir  Ir22  1  0.674529  0.328586  0.999680  1
  Ir  Ir23  1  0.320292  0.663827  0.000317  1
  Ir  Ir24  1  0.327301  0.670923  0.499991  1
  Ir  Ir25  1  0.671891  0.328189  0.498983  1
  Ir  Ir26  1  0.998550  0.006997  0.000257  1
  Ir  Ir27  1  0.999094  0.000638  0.499381  1
