# generated using pymatgen
data_Pr2RhCl
_symmetry_space_group_name_H-M   'P 1'
_cell_length_a   7.97216757
_cell_length_b   7.97216747
_cell_length_c   7.97216853
_cell_angle_alpha   30.23289229
_cell_angle_beta   30.23288942
_cell_angle_gamma   30.23289406
_symmetry_Int_Tables_number   1
_chemical_formula_structural   Pr2RhCl
_chemical_formula_sum   'Pr2 Rh1 Cl1'
_cell_volume   113.82383264
_cell_formula_units_Z   1
loop_
 _symmetry_equiv_pos_site_id
 _symmetry_equiv_pos_as_xyz
  1  'x, y, z'
loop_
 _atom_site_type_symbol
 _atom_site_label
 _atom_site_symmetry_multiplicity
 _atom_site_fract_x
 _atom_site_fract_y
 _atom_site_fract_z
 _atom_site_occupancy
  Pr  Pr0  1  0.234172  0.234172  0.234172  1
  Pr  Pr1  1  0.765828  0.765828  0.765828  1
  Rh  Rh2  1  0.500000  0.500000  0.500000  1
  Cl  Cl3  1  0.000000  0.000000  0.000000  1
