# generated using pymatgen
data_Na2Y3Si12Ir19
_symmetry_space_group_name_H-M   'P 1'
_cell_length_a   12.83135600
_cell_length_b   12.83135627
_cell_length_c   3.98132500
_cell_angle_alpha   90.00000000
_cell_angle_beta   90.00000000
_cell_angle_gamma   120.00000445
_symmetry_Int_Tables_number   1
_chemical_formula_structural   Na2Y3Si12Ir19
_chemical_formula_sum   'Na2 Y3 Si12 Ir19'
_cell_volume   567.67969614
_cell_formula_units_Z   1
loop_
 _symmetry_equiv_pos_site_id
 _symmetry_equiv_pos_as_xyz
  1  'x, y, z'
loop_
 _atom_site_type_symbol
 _atom_site_label
 _atom_site_symmetry_multiplicity
 _atom_site_fract_x
 _atom_site_fract_y
 _atom_site_fract_z
 _atom_site_occupancy
  Na  Na0  1  0.666667  0.333333  0.000000  1
  Na  Na1  1  0.333333  0.666667  0.000000  1
  Y  Y2  1  0.817373  0.817373  0.500000  1
  Y  Y3  1  0.182627  0.000000  0.500000  1
  Y  Y4  1  0.000000  0.182627  0.500000  1
  Si  Si5  1  0.686614  0.169046  0.500000  1
  Si  Si6  1  0.830954  0.517567  0.500000  1
  Si  Si7  1  0.482433  0.313386  0.500000  1
  Si  Si8  1  0.169046  0.686614  0.500000  1
  Si  Si9  1  0.517567  0.830954  0.500000  1
  Si  Si10  1  0.313386  0.482433  0.500000  1
  Si  Si11  1  0.628780  0.628780  0.000000  1
  Si  Si12  1  0.371220  0.000000  0.000000  1
  Si  Si13  1  0.000000  0.371220  0.000000  1
  Si  Si14  1  0.182272  0.182272  0.000000  1
  Si  Si15  1  0.817728  0.000000  0.000000  1
  Si  Si16  1  0.000000  0.817728  0.000000  1
  Ir  Ir17  1  0.806469  0.183665  0.000000  1
  Ir  Ir18  1  0.816335  0.622804  0.000000  1
  Ir  Ir19  1  0.377196  0.193531  0.000000  1
  Ir  Ir20  1  0.183665  0.806469  0.000000  1
  Ir  Ir21  1  0.622804  0.816335  0.000000  1
  Ir  Ir22  1  0.193531  0.377196  0.000000  1
  Ir  Ir23  1  0.445244  0.445244  0.000000  1
  Ir  Ir24  1  0.554756  0.000000  0.000000  1
  Ir  Ir25  1  0.000000  0.554756  0.000000  1
  Ir  Ir26  1  0.283537  0.283537  0.500000  1
  Ir  Ir27  1  0.716463  0.000000  0.500000  1
  Ir  Ir28  1  0.000000  0.716463  0.500000  1
  Ir  Ir29  1  0.873998  0.360075  0.500000  1
  Ir  Ir30  1  0.639925  0.513924  0.500000  1
  Ir  Ir31  1  0.486076  0.126002  0.500000  1
  Ir  Ir32  1  0.360075  0.873998  0.500000  1
  Ir  Ir33  1  0.513924  0.639925  0.500000  1
  Ir  Ir34  1  0.126002  0.486076  0.500000  1
  Ir  Ir35  1  0.000000  0.000000  0.000000  1
