# generated using pymatgen
data_Th3AlIn2Ru2Pt
_symmetry_space_group_name_H-M   'P 1'
_cell_length_a   7.57968016
_cell_length_b   7.47603145
_cell_length_c   4.07909400
_cell_angle_alpha   90.00000000
_cell_angle_beta   90.00000000
_cell_angle_gamma   119.54867240
_symmetry_Int_Tables_number   1
_chemical_formula_structural   Th3AlIn2Ru2Pt
_chemical_formula_sum   'Th3 Al1 In2 Ru2 Pt1'
_cell_volume   201.08216453
_cell_formula_units_Z   1
loop_
 _symmetry_equiv_pos_site_id
 _symmetry_equiv_pos_as_xyz
  1  'x, y, z'
loop_
 _atom_site_type_symbol
 _atom_site_label
 _atom_site_symmetry_multiplicity
 _atom_site_fract_x
 _atom_site_fract_y
 _atom_site_fract_z
 _atom_site_occupancy
  Th  Th0  1  0.410901  0.418570  0.500000  1
  Th  Th1  1  0.589099  0.007669  0.500000  1
  Th  Th2  1  0.000000  0.570134  0.500000  1
  Al  Al3  1  0.000000  0.244577  0.000000  1
  In  In4  1  0.755625  0.753203  0.000000  1
  In  In5  1  0.244375  0.997579  0.000000  1
  Ru  Ru6  1  0.678545  0.328266  0.000000  1
  Ru  Ru7  1  0.321455  0.649722  0.000000  1
  Pt  Pt8  1  0.000000  0.030281  0.500000  1
