# generated using pymatgen
data_YTh2(InRu)3
_symmetry_space_group_name_H-M   'P 1'
_cell_length_a   7.69374454
_cell_length_b   7.69374474
_cell_length_c   4.05125500
_cell_angle_alpha   90.00000000
_cell_angle_beta   90.00000000
_cell_angle_gamma   122.96437616
_symmetry_Int_Tables_number   1
_chemical_formula_structural   YTh2(InRu)3
_chemical_formula_sum   'Y1 Th2 In3 Ru3'
_cell_volume   201.20175015
_cell_formula_units_Z   1
loop_
 _symmetry_equiv_pos_site_id
 _symmetry_equiv_pos_as_xyz
  1  'x, y, z'
loop_
 _atom_site_type_symbol
 _atom_site_label
 _atom_site_symmetry_multiplicity
 _atom_site_fract_x
 _atom_site_fract_y
 _atom_site_fract_z
 _atom_site_occupancy
  Y  Y0  1  0.592501  0.592501  0.500000  1
  Th  Th1  1  0.415703  0.001952  0.500000  1
  Th  Th2  1  0.001952  0.415703  0.500000  1
  In  In3  1  0.748622  0.983052  0.000000  1
  In  In4  1  0.269140  0.269140  0.000000  1
  In  In5  1  0.983052  0.748622  0.000000  1
  Ru  Ru6  1  0.013714  0.013714  0.500000  1
  Ru  Ru7  1  0.670427  0.304890  0.000000  1
  Ru  Ru8  1  0.304890  0.670427  0.000000  1
