# generated using pymatgen
data_La12Pr2PdAu5
_symmetry_space_group_name_H-M   'P 1'
_cell_length_a   10.62073800
_cell_length_b   10.57387615
_cell_length_c   6.60451126
_cell_angle_alpha   90.08740032
_cell_angle_beta   90.00000000
_cell_angle_gamma   120.14670681
_symmetry_Int_Tables_number   1
_chemical_formula_structural   La12Pr2PdAu5
_chemical_formula_sum   'La12 Pr2 Pd1 Au5'
_cell_volume   641.38032222
_cell_formula_units_Z   1
loop_
 _symmetry_equiv_pos_site_id
 _symmetry_equiv_pos_as_xyz
  1  'x, y, z'
loop_
 _atom_site_type_symbol
 _atom_site_label
 _atom_site_symmetry_multiplicity
 _atom_site_fract_x
 _atom_site_fract_y
 _atom_site_fract_z
 _atom_site_occupancy
  La  La0  1  0.128289  0.870907  0.250373  1
  La  La1  1  0.742618  0.870907  0.250373  1
  La  La2  1  0.129484  0.258969  0.257868  1
  La  La3  1  0.878972  0.131465  0.748644  1
  La  La4  1  0.252495  0.131465  0.748644  1
  La  La5  1  0.872187  0.744374  0.750199  1
  La  La6  1  0.536604  0.460653  0.449214  1
  La  La7  1  0.924049  0.460653  0.449214  1
  La  La8  1  0.537301  0.074603  0.451905  1
  La  La9  1  0.456385  0.536911  0.947468  1
  La  La10  1  0.080527  0.536911  0.947468  1
  La  La11  1  0.462976  0.925953  0.951366  1
  Pr  Pr12  1  0.331083  0.662168  0.441219  1
  Pr  Pr13  1  0.666545  0.333089  0.933458  1
  Pd  Pd14  1  0.188663  0.377323  0.688012  1
  Au  Au15  1  0.811153  0.188713  0.183122  1
  Au  Au16  1  0.377559  0.188713  0.183122  1
  Au  Au17  1  0.810546  0.621094  0.184674  1
  Au  Au18  1  0.190096  0.812564  0.684721  1
  Au  Au19  1  0.622468  0.812564  0.684721  1
