# generated using pymatgen
data_ErTm19(GaBi2)4
_symmetry_space_group_name_H-M   'P 1'
_cell_length_a   7.99783003
_cell_length_b   9.22113200
_cell_length_c   11.91369704
_cell_angle_alpha   90.00009155
_cell_angle_beta   90.00937431
_cell_angle_gamma   90.00083181
_symmetry_Int_Tables_number   1
_chemical_formula_structural   ErTm19(GaBi2)4
_chemical_formula_sum   'Er1 Tm19 Ga4 Bi8'
_cell_volume   878.62378387
_cell_formula_units_Z   1
loop_
 _symmetry_equiv_pos_site_id
 _symmetry_equiv_pos_as_xyz
  1  'x, y, z'
loop_
 _atom_site_type_symbol
 _atom_site_label
 _atom_site_symmetry_multiplicity
 _atom_site_fract_x
 _atom_site_fract_y
 _atom_site_fract_z
 _atom_site_occupancy
  Er  Er0  1  0.318774  0.946011  0.563133  1
  Tm  Tm1  1  0.669294  0.749844  0.715506  1
  Tm  Tm2  1  0.330776  0.249994  0.284593  1
  Tm  Tm3  1  0.169164  0.250013  0.784644  1
  Tm  Tm4  1  0.830765  0.750018  0.215453  1
  Tm  Tm5  1  0.143605  0.749882  0.794392  1
  Tm  Tm6  1  0.856265  0.249944  0.205818  1
  Tm  Tm7  1  0.643710  0.250000  0.705864  1
  Tm  Tm8  1  0.356482  0.749853  0.294014  1
  Tm  Tm9  1  0.539631  0.749871  0.002875  1
  Tm  Tm10  1  0.460470  0.250041  0.997145  1
  Tm  Tm11  1  0.039319  0.250088  0.497070  1
  Tm  Tm12  1  0.960235  0.749964  0.502859  1
  Tm  Tm13  1  0.819307  0.445419  0.936784  1
  Tm  Tm14  1  0.180766  0.554538  0.063219  1
  Tm  Tm15  1  0.319227  0.554398  0.563326  1
  Tm  Tm16  1  0.180770  0.945463  0.063210  1
  Tm  Tm17  1  0.680844  0.445474  0.436698  1
  Tm  Tm18  1  0.819262  0.054567  0.936801  1
  Tm  Tm19  1  0.680790  0.054572  0.436672  1
  Ga  Ga20  1  0.907689  0.750040  0.974804  1
  Ga  Ga21  1  0.092218  0.249956  0.025254  1
  Ga  Ga22  1  0.407987  0.250634  0.525030  1
  Ga  Ga23  1  0.592455  0.749736  0.474649  1
  Bi  Bi24  1  0.935158  0.009008  0.674714  1
  Bi  Bi25  1  0.064745  0.990956  0.325335  1
  Bi  Bi26  1  0.435562  0.990925  0.825579  1
  Bi  Bi27  1  0.064638  0.509026  0.325364  1
  Bi  Bi28  1  0.564629  0.009057  0.174566  1
  Bi  Bi29  1  0.935402  0.490860  0.674590  1
  Bi  Bi30  1  0.564675  0.490898  0.174573  1
  Bi  Bi31  1  0.435384  0.508952  0.825466  1
