# generated using pymatgen
data_Yb4SiGe3Pd8
_symmetry_space_group_name_H-M   'P 1'
_cell_length_a   5.57511498
_cell_length_b   7.08226200
_cell_length_c   7.41555220
_cell_angle_alpha   90.00000000
_cell_angle_beta   90.37417790
_cell_angle_gamma   90.00000000
_symmetry_Int_Tables_number   1
_chemical_formula_structural   Yb4SiGe3Pd8
_chemical_formula_sum   'Yb4 Si1 Ge3 Pd8'
_cell_volume   292.79257030
_cell_formula_units_Z   1
loop_
 _symmetry_equiv_pos_site_id
 _symmetry_equiv_pos_as_xyz
  1  'x, y, z'
loop_
 _atom_site_type_symbol
 _atom_site_label
 _atom_site_symmetry_multiplicity
 _atom_site_fract_x
 _atom_site_fract_y
 _atom_site_fract_z
 _atom_site_occupancy
  Yb  Yb0  1  0.368762  0.750000  0.021051  1
  Yb  Yb1  1  0.133923  0.750000  0.522685  1
  Yb  Yb2  1  0.631053  0.250000  0.976840  1
  Yb  Yb3  1  0.864781  0.250000  0.477659  1
  Si  Si4  1  0.128180  0.250000  0.122771  1
  Ge  Ge5  1  0.629362  0.750000  0.374506  1
  Ge  Ge6  1  0.871173  0.750000  0.878090  1
  Ge  Ge7  1  0.368474  0.250000  0.621510  1
  Pd  Pd8  1  0.903807  0.547720  0.175907  1
  Pd  Pd9  1  0.600014  0.947128  0.671751  1
  Pd  Pd10  1  0.106301  0.054609  0.835446  1
  Pd  Pd11  1  0.392023  0.446141  0.319339  1
  Pd  Pd12  1  0.106301  0.445391  0.835446  1
  Pd  Pd13  1  0.392023  0.053859  0.319339  1
  Pd  Pd14  1  0.903807  0.952280  0.175907  1
  Pd  Pd15  1  0.600014  0.552872  0.671751  1
