# generated using pymatgen
data_Sc8Mn2CrB24Ir
_symmetry_space_group_name_H-M   'P 1'
_cell_length_a   3.40003600
_cell_length_b   8.86034901
_cell_length_c   11.17150744
_cell_angle_alpha   89.98698475
_cell_angle_beta   90.00000000
_cell_angle_gamma   90.00000000
_symmetry_Int_Tables_number   1
_chemical_formula_structural   Sc8Mn2CrB24Ir
_chemical_formula_sum   'Sc8 Mn2 Cr1 B24 Ir1'
_cell_volume   336.54730132
_cell_formula_units_Z   1
loop_
 _symmetry_equiv_pos_site_id
 _symmetry_equiv_pos_as_xyz
  1  'x, y, z'
loop_
 _atom_site_type_symbol
 _atom_site_label
 _atom_site_symmetry_multiplicity
 _atom_site_fract_x
 _atom_site_fract_y
 _atom_site_fract_z
 _atom_site_occupancy
  Sc  Sc0  1  0.500000  0.314237  0.416072  1
  Sc  Sc1  1  0.500000  0.681568  0.592519  1
  Sc  Sc2  1  0.500000  0.176718  0.913545  1
  Sc  Sc3  1  0.500000  0.827511  0.078969  1
  Sc  Sc4  1  0.500000  0.438572  0.127234  1
  Sc  Sc5  1  0.500000  0.558467  0.870652  1
  Sc  Sc6  1  0.500000  0.055214  0.630691  1
  Sc  Sc7  1  0.500000  0.947027  0.369752  1
  Mn  Mn8  1  0.500000  0.138940  0.180533  1
  Mn  Mn9  1  0.500000  0.861156  0.820555  1
  Cr  Cr10  1  0.500000  0.361071  0.679811  1
  B  B11  1  0.000000  0.099991  0.472335  1
  B  B12  1  0.000000  0.899438  0.528184  1
  B  B13  1  0.000000  0.399469  0.972478  1
  B  B14  1  0.000000  0.600460  0.026963  1
  B  B15  1  0.000000  0.130071  0.315891  1
  B  B16  1  0.000000  0.870323  0.685105  1
  B  B17  1  0.000000  0.370195  0.816953  1
  B  B18  1  0.000000  0.630732  0.180468  1
  B  B19  1  0.000000  0.053925  0.065537  1
  B  B20  1  0.000000  0.946787  0.933181  1
  B  B21  1  0.000000  0.446689  0.566150  1
  B  B22  1  0.000000  0.552341  0.436493  1
  B  B23  1  0.000000  0.477375  0.287435  1
  B  B24  1  0.000000  0.521123  0.712774  1
  B  B25  1  0.000000  0.018348  0.788274  1
  B  B26  1  0.000000  0.982582  0.210820  1
  B  B27  1  0.000000  0.249275  0.079854  1
  B  B28  1  0.000000  0.750440  0.919097  1
  B  B29  1  0.000000  0.247919  0.580011  1
  B  B30  1  0.000000  0.752470  0.422655  1
  B  B31  1  0.000000  0.291397  0.235366  1
  B  B32  1  0.000000  0.708037  0.765196  1
  B  B33  1  0.000000  0.205510  0.736535  1
  B  B34  1  0.000000  0.795549  0.262045  1
  Ir  Ir35  1  0.500000  0.639075  0.319866  1
