# generated using pymatgen
data_La2Dy4FeI10
_symmetry_space_group_name_H-M   'P 1'
_cell_length_a   7.86863856
_cell_length_b   9.92204795
_cell_length_c   9.73911525
_cell_angle_alpha   106.80746571
_cell_angle_beta   95.50831733
_cell_angle_gamma   105.86408044
_symmetry_Int_Tables_number   1
_chemical_formula_structural   La2Dy4FeI10
_chemical_formula_sum   'La2 Dy4 Fe1 I10'
_cell_volume   687.39254186
_cell_formula_units_Z   1
loop_
 _symmetry_equiv_pos_site_id
 _symmetry_equiv_pos_as_xyz
  1  'x, y, z'
loop_
 _atom_site_type_symbol
 _atom_site_label
 _atom_site_symmetry_multiplicity
 _atom_site_fract_x
 _atom_site_fract_y
 _atom_site_fract_z
 _atom_site_occupancy
  La  La0  1  0.391466  0.960181  0.718142  1
  La  La1  1  0.608534  0.039819  0.281858  1
  Dy  Dy2  1  0.472791  0.285990  0.587091  1
  Dy  Dy3  1  0.527209  0.714010  0.412909  1
  Dy  Dy4  1  0.849381  0.127000  0.665472  1
  Dy  Dy5  1  0.150619  0.873000  0.334528  1
  Fe  Fe6  1  0.500000  0.000000  0.500000  1
  I  I7  1  0.418363  0.625259  0.676206  1
  I  I8  1  0.581637  0.374741  0.323794  1
  I  I9  1  0.278632  0.262992  0.842053  1
  I  I10  1  0.721368  0.737008  0.157947  1
  I  I11  1  0.850264  0.446583  0.767233  1
  I  I12  1  0.149736  0.553417  0.232767  1
  I  I13  1  0.052112  0.180362  0.409403  1
  I  I14  1  0.232306  0.911431  0.046319  1
  I  I15  1  0.767694  0.088569  0.953681  1
  I  I16  1  0.947888  0.819638  0.590597  1
