# generated using pymatgen
data_La2Nd2CdOs
_symmetry_space_group_name_H-M   'P 1'
_cell_length_a   10.01198589
_cell_length_b   10.01191193
_cell_length_c   10.06192633
_cell_angle_alpha   59.75065050
_cell_angle_beta   59.75176025
_cell_angle_gamma   60.29399127
_symmetry_Int_Tables_number   1
_chemical_formula_structural   La2Nd2CdOs
_chemical_formula_sum   'La8 Nd8 Cd4 Os4'
_cell_volume   712.04625350
_cell_formula_units_Z   4
loop_
 _symmetry_equiv_pos_site_id
 _symmetry_equiv_pos_as_xyz
  1  'x, y, z'
loop_
 _atom_site_type_symbol
 _atom_site_label
 _atom_site_symmetry_multiplicity
 _atom_site_fract_x
 _atom_site_fract_y
 _atom_site_fract_z
 _atom_site_occupancy
  La  La0  1  0.594684  0.594703  0.596129  1
  La  La1  1  0.594310  0.594285  0.212764  1
  La  La2  1  0.597055  0.212358  0.594163  1
  La  La3  1  0.212396  0.597041  0.594145  1
  La  La4  1  0.061054  0.439320  0.439200  1
  La  La5  1  0.439998  0.060831  0.061211  1
  La  La6  1  0.439348  0.061022  0.439234  1
  La  La7  1  0.060823  0.440030  0.061240  1
  Nd  Nd8  1  0.442195  0.442231  0.057572  1
  Nd  Nd9  1  0.057655  0.057659  0.443347  1
  Nd  Nd10  1  0.187259  0.812705  0.813452  1
  Nd  Nd11  1  0.812172  0.188204  0.188338  1
  Nd  Nd12  1  0.812706  0.187237  0.813451  1
  Nd  Nd13  1  0.188195  0.812187  0.188368  1
  Nd  Nd14  1  0.810851  0.810847  0.189613  1
  Nd  Nd15  1  0.190415  0.190415  0.810266  1
  Cd  Cd16  1  0.830901  0.830897  0.828243  1
  Cd  Cd17  1  0.830497  0.830496  0.510438  1
  Cd  Cd18  1  0.828118  0.510606  0.830506  1
  Cd  Cd19  1  0.510597  0.828122  0.830511  1
  Os  Os20  1  0.385051  0.385033  0.392707  1
  Os  Os21  1  0.384000  0.384014  0.837371  1
  Os  Os22  1  0.392279  0.837435  0.383874  1
  Os  Os23  1  0.837442  0.392323  0.383857  1
