# generated using pymatgen
data_LuHf(NbC2)2
_symmetry_space_group_name_H-M   'P 1'
_cell_length_a   10.96011115
_cell_length_b   10.96011139
_cell_length_c   10.96011102
_cell_angle_alpha   17.04972628
_cell_angle_beta   17.04972268
_cell_angle_gamma   17.04972546
_symmetry_Int_Tables_number   1
_chemical_formula_structural   LuHf(NbC2)2
_chemical_formula_sum   'Lu1 Hf1 Nb2 C4'
_cell_volume   98.74167741
_cell_formula_units_Z   1
loop_
 _symmetry_equiv_pos_site_id
 _symmetry_equiv_pos_as_xyz
  1  'x, y, z'
loop_
 _atom_site_type_symbol
 _atom_site_label
 _atom_site_symmetry_multiplicity
 _atom_site_fract_x
 _atom_site_fract_y
 _atom_site_fract_z
 _atom_site_occupancy
  Lu  Lu0  1  0.500000  0.500000  0.500000  1
  Hf  Hf1  1  0.000000  0.000000  0.000000  1
  Nb  Nb2  1  0.250935  0.250935  0.250935  1
  Nb  Nb3  1  0.749065  0.749065  0.749065  1
  C  C4  1  0.374855  0.374855  0.374855  1
  C  C5  1  0.120222  0.120222  0.120222  1
  C  C6  1  0.625145  0.625145  0.625145  1
  C  C7  1  0.879778  0.879778  0.879778  1
