# generated using pymatgen
data_Zr10Si2HgSb5
_symmetry_space_group_name_H-M   'P 1'
_cell_length_a   8.62075400
_cell_length_b   8.66429213
_cell_length_c   5.84733900
_cell_angle_alpha   90.00000000
_cell_angle_beta   90.00000000
_cell_angle_gamma   119.83390525
_symmetry_Int_Tables_number   1
_chemical_formula_structural   Zr10Si2HgSb5
_chemical_formula_sum   'Zr10 Si2 Hg1 Sb5'
_cell_volume   378.87127839
_cell_formula_units_Z   1
loop_
 _symmetry_equiv_pos_site_id
 _symmetry_equiv_pos_as_xyz
  1  'x, y, z'
loop_
 _atom_site_type_symbol
 _atom_site_label
 _atom_site_symmetry_multiplicity
 _atom_site_fract_x
 _atom_site_fract_y
 _atom_site_fract_z
 _atom_site_occupancy
  Zr  Zr0  1  0.265561  0.000000  0.250000  1
  Zr  Zr1  1  0.256322  0.255444  0.750000  1
  Zr  Zr2  1  0.000877  0.744556  0.750000  1
  Zr  Zr3  1  0.000199  0.265329  0.250000  1
  Zr  Zr4  1  0.734871  0.734671  0.250000  1
  Zr  Zr5  1  0.744902  0.000000  0.750000  1
  Zr  Zr6  1  0.331241  0.664400  0.001298  1
  Zr  Zr7  1  0.666841  0.335600  0.498702  1
  Zr  Zr8  1  0.666841  0.335600  0.001298  1
  Zr  Zr9  1  0.331241  0.664400  0.498702  1
  Si  Si10  1  0.998621  0.000000  0.010668  1
  Si  Si11  1  0.998621  0.000000  0.489332  1
  Hg  Hg12  1  0.611547  0.000000  0.250000  1
  Sb  Sb13  1  0.603242  0.605774  0.750000  1
  Sb  Sb14  1  0.997467  0.394226  0.750000  1
  Sb  Sb15  1  0.999432  0.608309  0.250000  1
  Sb  Sb16  1  0.391123  0.391691  0.250000  1
  Sb  Sb17  1  0.401053  0.000000  0.750000  1
