# generated using pymatgen
data_Tb3Ho2Er5Bi6
_symmetry_space_group_name_H-M   'P 1'
_cell_length_a   8.24970100
_cell_length_b   9.49182687
_cell_length_c   12.02424701
_cell_angle_alpha   89.97319736
_cell_angle_beta   90.00000000
_cell_angle_gamma   90.00000000
_symmetry_Int_Tables_number   1
_chemical_formula_structural   Tb3Ho2Er5Bi6
_chemical_formula_sum   'Tb6 Ho4 Er10 Bi12'
_cell_volume   941.55535571
_cell_formula_units_Z   2
loop_
 _symmetry_equiv_pos_site_id
 _symmetry_equiv_pos_as_xyz
  1  'x, y, z'
loop_
 _atom_site_type_symbol
 _atom_site_label
 _atom_site_symmetry_multiplicity
 _atom_site_fract_x
 _atom_site_fract_y
 _atom_site_fract_z
 _atom_site_occupancy
  Tb  Tb0  1  0.693265  0.936226  0.058886  1
  Tb  Tb1  1  0.193265  0.563774  0.441114  1
  Tb  Tb2  1  0.312655  0.250051  0.218929  1
  Tb  Tb3  1  0.812655  0.249949  0.281071  1
  Tb  Tb4  1  0.687499  0.749807  0.780988  1
  Tb  Tb5  1  0.187499  0.750193  0.719012  1
  Ho  Ho6  1  0.353031  0.750019  0.215995  1
  Ho  Ho7  1  0.853031  0.749981  0.284005  1
  Ho  Ho8  1  0.647418  0.249752  0.784071  1
  Ho  Ho9  1  0.147418  0.250248  0.715929  1
  Er  Er10  1  0.693100  0.564820  0.058993  1
  Er  Er11  1  0.193100  0.935180  0.441007  1
  Er  Er12  1  0.307097  0.065018  0.941236  1
  Er  Er13  1  0.807097  0.434982  0.558764  1
  Er  Er14  1  0.306544  0.435084  0.940955  1
  Er  Er15  1  0.806544  0.064916  0.559045  1
  Er  Er16  1  0.475587  0.249836  0.488430  1
  Er  Er17  1  0.975587  0.250164  0.011570  1
  Er  Er18  1  0.525091  0.750224  0.511848  1
  Er  Er19  1  0.025091  0.749776  0.988152  1
  Bi  Bi20  1  0.406182  0.749361  0.957719  1
  Bi  Bi21  1  0.906182  0.750639  0.542281  1
  Bi  Bi22  1  0.592628  0.251969  0.041621  1
  Bi  Bi23  1  0.092628  0.248031  0.458379  1
  Bi  Bi24  1  0.564927  0.994899  0.326166  1
  Bi  Bi25  1  0.064927  0.505101  0.173834  1
  Bi  Bi26  1  0.434691  0.494675  0.674243  1
  Bi  Bi27  1  0.934691  0.005325  0.825757  1
  Bi  Bi28  1  0.434645  0.005371  0.673965  1
  Bi  Bi29  1  0.934645  0.494629  0.826035  1
  Bi  Bi30  1  0.565643  0.505230  0.325880  1
  Bi  Bi31  1  0.065643  0.994770  0.174120  1
