# generated using pymatgen
data_Dy4Al2Ga2IrPt3
_symmetry_space_group_name_H-M   'P 1'
_cell_length_a   4.42520200
_cell_length_b   6.82542177
_cell_length_c   7.80454925
_cell_angle_alpha   89.86591947
_cell_angle_beta   90.00000000
_cell_angle_gamma   90.00000000
_symmetry_Int_Tables_number   1
_chemical_formula_structural   Dy4Al2Ga2IrPt3
_chemical_formula_sum   'Dy4 Al2 Ga2 Ir1 Pt3'
_cell_volume   235.72694583
_cell_formula_units_Z   1
loop_
 _symmetry_equiv_pos_site_id
 _symmetry_equiv_pos_as_xyz
  1  'x, y, z'
loop_
 _atom_site_type_symbol
 _atom_site_label
 _atom_site_symmetry_multiplicity
 _atom_site_fract_x
 _atom_site_fract_y
 _atom_site_fract_z
 _atom_site_occupancy
  Dy  Dy0  1  0.250000  0.470325  0.180248  1
  Dy  Dy1  1  0.750000  0.530823  0.817954  1
  Dy  Dy2  1  0.750000  0.025145  0.685094  1
  Dy  Dy3  1  0.250000  0.967216  0.316428  1
  Al  Al4  1  0.750000  0.645376  0.440486  1
  Al  Al5  1  0.250000  0.360376  0.561507  1
  Ga  Ga6  1  0.250000  0.845174  0.933811  1
  Ga  Ga7  1  0.750000  0.153078  0.063176  1
  Ir  Ir8  1  0.250000  0.731272  0.614379  1
  Pt  Pt9  1  0.750000  0.272082  0.386280  1
  Pt  Pt10  1  0.750000  0.769214  0.122737  1
  Pt  Pt11  1  0.250000  0.229918  0.877898  1
