# generated using pymatgen
data_Ho4NbOs7
_symmetry_space_group_name_H-M   'P 1'
_cell_length_a   5.29259765
_cell_length_b   5.29259683
_cell_length_c   8.94828700
_cell_angle_alpha   90.00000000
_cell_angle_beta   90.00000000
_cell_angle_gamma   117.47123400
_symmetry_Int_Tables_number   1
_chemical_formula_structural   Ho4NbOs7
_chemical_formula_sum   'Ho4 Nb1 Os7'
_cell_volume   222.39240799
_cell_formula_units_Z   1
loop_
 _symmetry_equiv_pos_site_id
 _symmetry_equiv_pos_as_xyz
  1  'x, y, z'
loop_
 _atom_site_type_symbol
 _atom_site_label
 _atom_site_symmetry_multiplicity
 _atom_site_fract_x
 _atom_site_fract_y
 _atom_site_fract_z
 _atom_site_occupancy
  Ho  Ho0  1  0.329948  0.670052  0.440018  1
  Ho  Ho1  1  0.667526  0.332474  0.568998  1
  Ho  Ho2  1  0.667526  0.332474  0.931002  1
  Ho  Ho3  1  0.329948  0.670052  0.059982  1
  Nb  Nb4  1  0.835545  0.164455  0.250000  1
  Os  Os5  1  0.998705  0.001295  0.506254  1
  Os  Os6  1  0.998705  0.001295  0.993746  1
  Os  Os7  1  0.822821  0.654628  0.250000  1
  Os  Os8  1  0.345372  0.177179  0.250000  1
  Os  Os9  1  0.173957  0.826043  0.750000  1
  Os  Os10  1  0.174189  0.344240  0.750000  1
  Os  Os11  1  0.655760  0.825811  0.750000  1
