# generated using pymatgen
data_Rb2Zn(SO4)2
_symmetry_space_group_name_H-M   'P 1'
_cell_length_a   8.11386645
_cell_length_b   8.11362288
_cell_length_c   8.98002103
_cell_angle_alpha   66.16475667
_cell_angle_beta   113.85603424
_cell_angle_gamma   111.23903920
_symmetry_Int_Tables_number   1
_chemical_formula_structural   Rb2Zn(SO4)2
_chemical_formula_sum   'Rb4 Zn2 S4 O16'
_cell_volume   480.38874518
_cell_formula_units_Z   2
loop_
 _symmetry_equiv_pos_site_id
 _symmetry_equiv_pos_as_xyz
  1  'x, y, z'
loop_
 _atom_site_type_symbol
 _atom_site_label
 _atom_site_symmetry_multiplicity
 _atom_site_fract_x
 _atom_site_fract_y
 _atom_site_fract_z
 _atom_site_occupancy
  Rb  Rb0  1  0.291648  0.608106  0.550549  1
  Rb  Rb1  1  0.608177  0.291613  0.949512  1
  Rb  Rb2  1  0.391780  0.708348  0.050477  1
  Rb  Rb3  1  0.708308  0.391752  0.449475  1
  Zn  Zn4  1  0.016061  0.016023  0.250020  1
  Zn  Zn5  1  0.983954  0.983971  0.749984  1
  S  S6  1  0.050068  0.332667  0.870801  1
  S  S7  1  0.667269  0.950024  0.370704  1
  S  S8  1  0.332725  0.050011  0.629328  1
  S  S9  1  0.949911  0.667294  0.129163  1
  O  O10  1  0.235780  0.991870  0.763074  1
  O  O11  1  0.008167  0.764254  0.262934  1
  O  O12  1  0.991827  0.235727  0.737027  1
  O  O13  1  0.764218  0.008137  0.236959  1
  O  O14  1  0.192041  0.992250  0.477350  1
  O  O15  1  0.007768  0.807960  0.977174  1
  O  O16  1  0.992229  0.192033  0.022747  1
  O  O17  1  0.808020  0.007832  0.522717  1
  O  O18  1  0.253496  0.406304  0.916462  1
  O  O19  1  0.593502  0.746689  0.416315  1
  O  O20  1  0.406482  0.253387  0.583724  1
  O  O21  1  0.746515  0.593693  0.083509  1
  O  O22  1  0.477513  0.946368  0.704754  1
  O  O23  1  0.053418  0.522495  0.204594  1
  O  O24  1  0.946551  0.477499  0.795377  1
  O  O25  1  0.522570  0.053693  0.295269  1
