# generated using pymatgen
data_Hf7Sb4
_symmetry_space_group_name_H-M   'P 1'
_cell_length_a   8.81741335
_cell_length_b   8.81741350
_cell_length_c   15.61309704
_cell_angle_alpha   76.31262638
_cell_angle_beta   76.31262590
_cell_angle_gamma   24.76991168
_symmetry_Int_Tables_number   1
_chemical_formula_structural   Hf7Sb4
_chemical_formula_sum   'Hf14 Sb8'
_cell_volume   493.43057688
_cell_formula_units_Z   2
loop_
 _symmetry_equiv_pos_site_id
 _symmetry_equiv_pos_as_xyz
  1  'x, y, z'
loop_
 _atom_site_type_symbol
 _atom_site_label
 _atom_site_symmetry_multiplicity
 _atom_site_fract_x
 _atom_site_fract_y
 _atom_site_fract_z
 _atom_site_occupancy
  Hf  Hf0  1  0.667927  0.667927  0.034529  1
  Hf  Hf1  1  0.332073  0.332073  0.965471  1
  Hf  Hf2  1  0.000212  0.000212  0.659101  1
  Hf  Hf3  1  0.999788  0.999788  0.340899  1
  Hf  Hf4  1  0.813827  0.813827  0.545354  1
  Hf  Hf5  1  0.186173  0.186173  0.454646  1
  Hf  Hf6  1  0.210383  0.210383  0.203367  1
  Hf  Hf7  1  0.789617  0.789617  0.796633  1
  Hf  Hf8  1  0.199647  0.199647  0.694809  1
  Hf  Hf9  1  0.800353  0.800353  0.305191  1
  Hf  Hf10  1  0.427277  0.427277  0.175391  1
  Hf  Hf11  1  0.572723  0.572723  0.824609  1
  Hf  Hf12  1  0.500000  0.500000  0.500000  1
  Hf  Hf13  1  0.000000  0.000000  0.000000  1
  Sb  Sb14  1  0.062625  0.062625  0.154039  1
  Sb  Sb15  1  0.937375  0.937375  0.845961  1
  Sb  Sb16  1  0.372033  0.372033  0.661204  1
  Sb  Sb17  1  0.627967  0.627967  0.338796  1
  Sb  Sb18  1  0.371355  0.371355  0.399513  1
  Sb  Sb19  1  0.628645  0.628645  0.600487  1
  Sb  Sb20  1  0.174757  0.174757  0.893731  1
  Sb  Sb21  1  0.825243  0.825243  0.106269  1
