# generated using pymatgen
data_Tm4MgSc3Pt4
_symmetry_space_group_name_H-M   'P 1'
_cell_length_a   4.50415500
_cell_length_b   6.94404982
_cell_length_c   8.42508376
_cell_angle_alpha   92.93132530
_cell_angle_beta   90.00000000
_cell_angle_gamma   90.00000000
_symmetry_Int_Tables_number   1
_chemical_formula_structural   Tm4MgSc3Pt4
_chemical_formula_sum   'Tm4 Mg1 Sc3 Pt4'
_cell_volume   263.16719820
_cell_formula_units_Z   1
loop_
 _symmetry_equiv_pos_site_id
 _symmetry_equiv_pos_as_xyz
  1  'x, y, z'
loop_
 _atom_site_type_symbol
 _atom_site_label
 _atom_site_symmetry_multiplicity
 _atom_site_fract_x
 _atom_site_fract_y
 _atom_site_fract_z
 _atom_site_occupancy
  Tm  Tm0  1  0.250000  0.979434  0.320493  1
  Tm  Tm1  1  0.250000  0.470808  0.168794  1
  Tm  Tm2  1  0.750000  0.031846  0.680682  1
  Tm  Tm3  1  0.750000  0.508798  0.837281  1
  Mg  Mg4  1  0.750000  0.139715  0.068955  1
  Sc  Sc5  1  0.250000  0.369913  0.569533  1
  Sc  Sc6  1  0.250000  0.852579  0.932976  1
  Sc  Sc7  1  0.750000  0.642153  0.431236  1
  Pt  Pt8  1  0.250000  0.238596  0.876352  1
  Pt  Pt9  1  0.250000  0.760123  0.599729  1
  Pt  Pt10  1  0.750000  0.750950  0.116619  1
  Pt  Pt11  1  0.750000  0.255085  0.397350  1
