# generated using pymatgen
data_Cs6HoSe4Br
_symmetry_space_group_name_H-M   'P 1'
_cell_length_a   11.78209000
_cell_length_b   11.78209078
_cell_length_c   8.79167000
_cell_angle_alpha   90.00000000
_cell_angle_beta   90.00000000
_cell_angle_gamma   120.00000903
_symmetry_Int_Tables_number   1
_chemical_formula_structural   Cs6HoSe4Br
_chemical_formula_sum   'Cs12 Ho2 Se8 Br2'
_cell_volume   1056.93108520
_cell_formula_units_Z   2
loop_
 _symmetry_equiv_pos_site_id
 _symmetry_equiv_pos_as_xyz
  1  'x, y, z'
loop_
 _atom_site_type_symbol
 _atom_site_label
 _atom_site_symmetry_multiplicity
 _atom_site_fract_x
 _atom_site_fract_y
 _atom_site_fract_z
 _atom_site_occupancy
  Cs  Cs0  1  0.135145  0.864855  0.511455  1
  Cs  Cs1  1  0.729709  0.864855  0.511455  1
  Cs  Cs2  1  0.937403  0.468701  0.318114  1
  Cs  Cs3  1  0.531299  0.468701  0.318114  1
  Cs  Cs4  1  0.864855  0.729709  0.011455  1
  Cs  Cs5  1  0.270291  0.135145  0.011455  1
  Cs  Cs6  1  0.531299  0.062597  0.318114  1
  Cs  Cs7  1  0.135145  0.270291  0.511455  1
  Cs  Cs8  1  0.864855  0.135145  0.011455  1
  Cs  Cs9  1  0.062597  0.531299  0.818114  1
  Cs  Cs10  1  0.468701  0.937403  0.818114  1
  Cs  Cs11  1  0.468701  0.531299  0.818114  1
  Ho  Ho12  1  0.666667  0.333333  0.717256  1
  Ho  Ho13  1  0.333333  0.666667  0.217256  1
  Se  Se14  1  0.415596  0.207799  0.611455  1
  Se  Se15  1  0.584404  0.792201  0.111455  1
  Se  Se16  1  0.666667  0.333333  0.029597  1
  Se  Se17  1  0.792201  0.584404  0.611455  1
  Se  Se18  1  0.207799  0.415596  0.111455  1
  Se  Se19  1  0.333333  0.666667  0.529597  1
  Se  Se20  1  0.207799  0.792201  0.111455  1
  Se  Se21  1  0.792201  0.207799  0.611455  1
  Br  Br22  1  0.000000  0.000000  0.270675  1
  Br  Br23  1  0.000000  0.000000  0.770675  1
