# generated using pymatgen
data_Tm2Ta2NbSi4
_symmetry_space_group_name_H-M   'P 1'
_cell_length_a   7.01623387
_cell_length_b   7.01830430
_cell_length_c   12.94839913
_cell_angle_alpha   89.97331657
_cell_angle_beta   89.97739591
_cell_angle_gamma   90.01417297
_symmetry_Int_Tables_number   1
_chemical_formula_structural   Tm2Ta2NbSi4
_chemical_formula_sum   'Tm8 Ta8 Nb4 Si16'
_cell_volume   637.60576460
_cell_formula_units_Z   4
loop_
 _symmetry_equiv_pos_site_id
 _symmetry_equiv_pos_as_xyz
  1  'x, y, z'
loop_
 _atom_site_type_symbol
 _atom_site_label
 _atom_site_symmetry_multiplicity
 _atom_site_fract_x
 _atom_site_fract_y
 _atom_site_fract_z
 _atom_site_occupancy
  Tm  Tm0  1  0.998879  0.340464  0.218498  1
  Tm  Tm1  1  0.001395  0.659317  0.718496  1
  Tm  Tm2  1  0.159540  0.498670  0.468532  1
  Tm  Tm3  1  0.500675  0.840459  0.031609  1
  Tm  Tm4  1  0.840689  0.501497  0.968573  1
  Tm  Tm5  1  0.499090  0.159351  0.531563  1
  Tm  Tm6  1  0.340598  0.998955  0.781341  1
  Tm  Tm7  1  0.659574  0.000864  0.281365  1
  Ta  Ta8  1  0.170100  0.170522  0.999421  1
  Ta  Ta9  1  0.829766  0.829680  0.500189  1
  Ta  Ta10  1  0.329516  0.670155  0.250164  1
  Ta  Ta11  1  0.670402  0.329924  0.750195  1
  Ta  Ta12  1  0.153240  0.992494  0.376150  1
  Ta  Ta13  1  0.846319  0.007539  0.875858  1
  Ta  Ta14  1  0.507004  0.653987  0.626729  1
  Ta  Ta15  1  0.346357  0.493384  0.873532  1
  Nb  Nb16  1  0.493002  0.346519  0.126197  1
  Nb  Nb17  1  0.653136  0.506542  0.374048  1
  Nb  Nb18  1  0.993539  0.153842  0.624044  1
  Nb  Nb19  1  0.006416  0.846590  0.123771  1
  Si  Si20  1  0.295523  0.043849  0.186170  1
  Si  Si21  1  0.704114  0.956131  0.686140  1
  Si  Si22  1  0.455971  0.795821  0.436304  1
  Si  Si23  1  0.203922  0.543516  0.063788  1
  Si  Si24  1  0.544002  0.203782  0.936077  1
  Si  Si25  1  0.796472  0.456553  0.564070  1
  Si  Si26  1  0.044083  0.296640  0.814015  1
  Si  Si27  1  0.955960  0.703634  0.313930  1
  Si  Si28  1  0.365734  0.294610  0.319155  1
  Si  Si29  1  0.633935  0.705067  0.819472  1
  Si  Si30  1  0.205089  0.866253  0.568985  1
  Si  Si31  1  0.133565  0.795138  0.930437  1
  Si  Si32  1  0.795818  0.133960  0.068755  1
  Si  Si33  1  0.866208  0.203979  0.430634  1
  Si  Si34  1  0.295938  0.366630  0.680782  1
  Si  Si35  1  0.704429  0.633685  0.181013  1
