# generated using pymatgen
data_Y6Ho2Cd2CoPd
_symmetry_space_group_name_H-M   'P 1'
_cell_length_a   9.64346204
_cell_length_b   9.64346124
_cell_length_c   9.65648200
_cell_angle_alpha   59.95532515
_cell_angle_beta   59.95532789
_cell_angle_gamma   60.04092901
_symmetry_Int_Tables_number   1
_chemical_formula_structural   Y6Ho2Cd2CoPd
_chemical_formula_sum   'Y12 Ho4 Cd4 Co2 Pd2'
_cell_volume   634.76101159
_cell_formula_units_Z   2
loop_
 _symmetry_equiv_pos_site_id
 _symmetry_equiv_pos_as_xyz
  1  'x, y, z'
loop_
 _atom_site_type_symbol
 _atom_site_label
 _atom_site_symmetry_multiplicity
 _atom_site_fract_x
 _atom_site_fract_y
 _atom_site_fract_z
 _atom_site_occupancy
  Y  Y0  1  0.819602  0.188871  0.190273  1
  Y  Y1  1  0.188871  0.819602  0.801253  1
  Y  Y2  1  0.188871  0.819602  0.190273  1
  Y  Y3  1  0.819602  0.188871  0.801253  1
  Y  Y4  1  0.188816  0.188816  0.811184  1
  Y  Y5  1  0.809366  0.809366  0.190634  1
  Y  Y6  1  0.935604  0.561757  0.565423  1
  Y  Y7  1  0.561757  0.935604  0.937218  1
  Y  Y8  1  0.561757  0.935604  0.565423  1
  Y  Y9  1  0.935604  0.561757  0.937218  1
  Y  Y10  1  0.562589  0.562589  0.937411  1
  Y  Y11  1  0.935650  0.935650  0.564350  1
  Ho  Ho12  1  0.346068  0.346068  0.359962  1
  Ho  Ho13  1  0.346068  0.346068  0.947901  1
  Ho  Ho14  1  0.339588  0.957600  0.351406  1
  Ho  Ho15  1  0.957600  0.339588  0.351406  1
  Cd  Cd16  1  0.580585  0.580585  0.579917  1
  Cd  Cd17  1  0.580585  0.580585  0.258913  1
  Cd  Cd18  1  0.582570  0.255133  0.581148  1
  Cd  Cd19  1  0.255133  0.582570  0.581148  1
  Co  Co20  1  0.144062  0.144062  0.141802  1
  Co  Co21  1  0.144062  0.144062  0.570072  1
  Pd  Pd22  1  0.146771  0.568818  0.142205  1
  Pd  Pd23  1  0.568818  0.146771  0.142205  1
