# generated using pymatgen
data_SrAs12IrOs3
_symmetry_space_group_name_H-M   'P 1'
_cell_length_a   7.48900697
_cell_length_b   7.50945721
_cell_length_c   7.48900668
_cell_angle_alpha   109.52654205
_cell_angle_beta   109.41584182
_cell_angle_gamma   109.52655328
_symmetry_Int_Tables_number   1
_chemical_formula_structural   SrAs12IrOs3
_chemical_formula_sum   'Sr1 As12 Ir1 Os3'
_cell_volume   323.99483500
_cell_formula_units_Z   1
loop_
 _symmetry_equiv_pos_site_id
 _symmetry_equiv_pos_as_xyz
  1  'x, y, z'
loop_
 _atom_site_type_symbol
 _atom_site_label
 _atom_site_symmetry_multiplicity
 _atom_site_fract_x
 _atom_site_fract_y
 _atom_site_fract_z
 _atom_site_occupancy
  Sr  Sr0  1  0.000000  0.000000  0.000000  1
  As  As1  1  0.349559  0.200075  0.850442  1
  As  As2  1  0.650441  0.799925  0.149558  1
  As  As3  1  0.647274  0.500911  0.850256  1
  As  As4  1  0.352726  0.499089  0.149744  1
  As  As5  1  0.202981  0.853636  0.352726  1
  As  As6  1  0.797019  0.146364  0.647274  1
  As  As7  1  0.500884  0.850517  0.650441  1
  As  As8  1  0.499116  0.149483  0.349559  1
  As  As9  1  0.850256  0.349344  0.202981  1
  As  As10  1  0.149744  0.650656  0.797019  1
  As  As11  1  0.850442  0.650367  0.500884  1
  As  As12  1  0.149558  0.349633  0.499116  1
  Ir  Ir13  1  0.000000  0.500000  0.000000  1
  Os  Os14  1  0.000000  0.000000  0.500000  1
  Os  Os15  1  0.500000  0.000000  0.000000  1
  Os  Os16  1  0.500000  0.500000  0.500000  1
