# generated using pymatgen
data_Yb10ZnCd2CuIrPd
_symmetry_space_group_name_H-M   'P 1'
_cell_length_a   9.07864227
_cell_length_b   9.07864333
_cell_length_c   9.06067300
_cell_angle_alpha   129.30234038
_cell_angle_beta   129.30234586
_cell_angle_gamma   74.67359027
_symmetry_Int_Tables_number   1
_chemical_formula_structural   Yb10ZnCd2CuIrPd
_chemical_formula_sum   'Yb10 Zn1 Cd2 Cu1 Ir1 Pd1'
_cell_volume   435.33042539
_cell_formula_units_Z   1
loop_
 _symmetry_equiv_pos_site_id
 _symmetry_equiv_pos_as_xyz
  1  'x, y, z'
loop_
 _atom_site_type_symbol
 _atom_site_label
 _atom_site_symmetry_multiplicity
 _atom_site_fract_x
 _atom_site_fract_y
 _atom_site_fract_z
 _atom_site_occupancy
  Yb  Yb0  1  0.491588  0.505087  0.996674  1
  Yb  Yb1  1  0.001880  0.991043  0.992922  1
  Yb  Yb2  1  0.525518  0.023770  0.821502  1
  Yb  Yb3  1  0.193012  0.691208  0.148942  1
  Yb  Yb4  1  0.038776  0.204748  0.514384  1
  Yb  Yb5  1  0.703340  0.540866  0.514256  1
  Yb  Yb6  1  0.457736  0.955932  0.148942  1
  Yb  Yb7  1  0.797731  0.295983  0.821502  1
  Yb  Yb8  1  0.973390  0.810915  0.514256  1
  Yb  Yb9  1  0.309636  0.475608  0.514384  1
  Zn  Zn10  1  0.880866  0.381424  0.262288  1
  Cd  Cd11  1  0.254677  0.253858  0.008718  1
  Cd  Cd12  1  0.754862  0.754042  0.008718  1
  Cu  Cu13  1  0.376814  0.120563  0.497377  1
  Ir  Ir14  1  0.118620  0.617980  0.736600  1
  Pd  Pd15  1  0.621553  0.876974  0.498527  1
