# generated using pymatgen
data_Dy8HgTe3
_symmetry_space_group_name_H-M   'P 1'
_cell_length_a   4.05797400
_cell_length_b   11.61613136
_cell_length_c   22.10981932
_cell_angle_alpha   89.87956282
_cell_angle_beta   90.00000000
_cell_angle_gamma   90.00000000
_symmetry_Int_Tables_number   1
_chemical_formula_structural   Dy8HgTe3
_chemical_formula_sum   'Dy24 Hg3 Te9'
_cell_volume   1042.20945488
_cell_formula_units_Z   3
loop_
 _symmetry_equiv_pos_site_id
 _symmetry_equiv_pos_as_xyz
  1  'x, y, z'
loop_
 _atom_site_type_symbol
 _atom_site_label
 _atom_site_symmetry_multiplicity
 _atom_site_fract_x
 _atom_site_fract_y
 _atom_site_fract_z
 _atom_site_occupancy
  Dy  Dy0  1  0.250000  0.149285  0.391127  1
  Dy  Dy1  1  0.750000  0.851129  0.609193  1
  Dy  Dy2  1  0.750000  0.653225  0.109652  1
  Dy  Dy3  1  0.250000  0.346654  0.890864  1
  Dy  Dy4  1  0.250000  0.456185  0.342600  1
  Dy  Dy5  1  0.750000  0.541851  0.657924  1
  Dy  Dy6  1  0.750000  0.954991  0.158594  1
  Dy  Dy7  1  0.250000  0.045051  0.841292  1
  Dy  Dy8  1  0.250000  0.736454  0.231977  1
  Dy  Dy9  1  0.750000  0.264901  0.767919  1
  Dy  Dy10  1  0.750000  0.235580  0.268764  1
  Dy  Dy11  1  0.250000  0.762631  0.732522  1
  Dy  Dy12  1  0.250000  0.117759  0.031965  1
  Dy  Dy13  1  0.750000  0.882249  0.967495  1
  Dy  Dy14  1  0.750000  0.615766  0.465352  1
  Dy  Dy15  1  0.250000  0.385283  0.532825  1
  Dy  Dy16  1  0.250000  0.412901  0.149203  1
  Dy  Dy17  1  0.750000  0.586435  0.850900  1
  Dy  Dy18  1  0.750000  0.913205  0.351923  1
  Dy  Dy19  1  0.250000  0.087505  0.649537  1
  Dy  Dy20  1  0.250000  0.611902  0.982635  1
  Dy  Dy21  1  0.750000  0.387449  0.017543  1
  Dy  Dy22  1  0.750000  0.112481  0.517393  1
  Dy  Dy23  1  0.250000  0.887719  0.482850  1
  Hg  Hg24  1  0.250000  0.847722  0.072685  1
  Hg  Hg25  1  0.750000  0.151646  0.926912  1
  Hg  Hg26  1  0.750000  0.348434  0.428764  1
  Te  Te27  1  0.250000  0.653233  0.569452  1
  Te  Te28  1  0.250000  0.714262  0.371857  1
  Te  Te29  1  0.750000  0.287505  0.627403  1
  Te  Te30  1  0.750000  0.212954  0.128510  1
  Te  Te31  1  0.250000  0.786406  0.871742  1
  Te  Te32  1  0.250000  0.022155  0.260803  1
  Te  Te33  1  0.750000  0.976752  0.739811  1
  Te  Te34  1  0.750000  0.522978  0.239845  1
  Te  Te35  1  0.250000  0.477361  0.760169  1
