# generated using pymatgen
data_Rb2LiScBi2
_symmetry_space_group_name_H-M   'P 1'
_cell_length_a   11.15789073
_cell_length_b   11.15788993
_cell_length_c   7.21512600
_cell_angle_alpha   90.00000000
_cell_angle_beta   90.00000000
_cell_angle_gamma   99.68099530
_symmetry_Int_Tables_number   1
_chemical_formula_structural   Rb2LiScBi2
_chemical_formula_sum   'Rb8 Li4 Sc4 Bi8'
_cell_volume   885.48045694
_cell_formula_units_Z   4
loop_
 _symmetry_equiv_pos_site_id
 _symmetry_equiv_pos_as_xyz
  1  'x, y, z'
loop_
 _atom_site_type_symbol
 _atom_site_label
 _atom_site_symmetry_multiplicity
 _atom_site_fract_x
 _atom_site_fract_y
 _atom_site_fract_z
 _atom_site_occupancy
  Rb  Rb0  1  0.073956  0.426044  0.750000  1
  Rb  Rb1  1  0.673273  0.326727  0.782858  1
  Rb  Rb2  1  0.326727  0.673273  0.217142  1
  Rb  Rb3  1  0.573956  0.926044  0.750000  1
  Rb  Rb4  1  0.426044  0.073956  0.250000  1
  Rb  Rb5  1  0.926044  0.573956  0.250000  1
  Rb  Rb6  1  0.826727  0.173273  0.282858  1
  Rb  Rb7  1  0.173273  0.826727  0.717142  1
  Li  Li8  1  0.122587  0.122587  0.500000  1
  Li  Li9  1  0.877413  0.877413  0.500000  1
  Li  Li10  1  0.377413  0.377413  0.000000  1
  Li  Li11  1  0.622587  0.622587  0.000000  1
  Sc  Sc12  1  0.871233  0.871233  0.000000  1
  Sc  Sc13  1  0.371233  0.371233  0.500000  1
  Sc  Sc14  1  0.628767  0.628767  0.500000  1
  Sc  Sc15  1  0.128767  0.128767  0.000000  1
  Bi  Bi16  1  0.841320  0.658680  0.750000  1
  Bi  Bi17  1  0.093128  0.906872  0.229726  1
  Bi  Bi18  1  0.406872  0.593128  0.729726  1
  Bi  Bi19  1  0.593128  0.406872  0.270274  1
  Bi  Bi20  1  0.658680  0.841320  0.250000  1
  Bi  Bi21  1  0.158680  0.341320  0.250000  1
  Bi  Bi22  1  0.341320  0.158680  0.750000  1
  Bi  Bi23  1  0.906872  0.093128  0.770274  1
