# generated using pymatgen
data_Yb4Pr2Ir3
_symmetry_space_group_name_H-M   'P 1'
_cell_length_a   7.58487400
_cell_length_b   7.70747181
_cell_length_c   4.32224400
_cell_angle_alpha   90.00000000
_cell_angle_beta   90.00000000
_cell_angle_gamma   119.47520217
_symmetry_Int_Tables_number   1
_chemical_formula_structural   Yb4Pr2Ir3
_chemical_formula_sum   'Yb4 Pr2 Ir3'
_cell_volume   219.97466397
_cell_formula_units_Z   1
loop_
 _symmetry_equiv_pos_site_id
 _symmetry_equiv_pos_as_xyz
  1  'x, y, z'
loop_
 _atom_site_type_symbol
 _atom_site_label
 _atom_site_symmetry_multiplicity
 _atom_site_fract_x
 _atom_site_fract_y
 _atom_site_fract_z
 _atom_site_occupancy
  Yb  Yb0  1  0.412269  0.000000  0.500000  1
  Yb  Yb1  1  0.008498  0.755874  0.000000  1
  Yb  Yb2  1  0.252625  0.244126  0.000000  1
  Yb  Yb3  1  0.739643  0.000000  0.000000  1
  Pr  Pr4  1  0.999651  0.410443  0.500000  1
  Pr  Pr5  1  0.589208  0.589557  0.500000  1
  Ir  Ir6  1  0.330923  0.653276  0.000000  1
  Ir  Ir7  1  0.677647  0.346724  0.000000  1
  Ir  Ir8  1  0.989534  0.000000  0.500000  1
