# generated using pymatgen
data_Y2HPt6
_symmetry_space_group_name_H-M   'P 1'
_cell_length_a   5.87519623
_cell_length_b   5.87560398
_cell_length_c   5.87519501
_cell_angle_alpha   59.99770680
_cell_angle_beta   60.00458975
_cell_angle_gamma   59.99769356
_symmetry_Int_Tables_number   1
_chemical_formula_structural   Y2HPt6
_chemical_formula_sum   'Y2 H1 Pt6'
_cell_volume   143.41089459
_cell_formula_units_Z   1
loop_
 _symmetry_equiv_pos_site_id
 _symmetry_equiv_pos_as_xyz
  1  'x, y, z'
loop_
 _atom_site_type_symbol
 _atom_site_label
 _atom_site_symmetry_multiplicity
 _atom_site_fract_x
 _atom_site_fract_y
 _atom_site_fract_z
 _atom_site_occupancy
  Y  Y0  1  0.250000  0.250000  0.250000  1
  Y  Y1  1  0.750000  0.750000  0.750000  1
  H  H2  1  0.000000  0.000000  0.000000  1
  Pt  Pt3  1  0.747465  0.252536  0.252536  1
  Pt  Pt4  1  0.252542  0.747459  0.252542  1
  Pt  Pt5  1  0.747464  0.747464  0.252537  1
  Pt  Pt6  1  0.747458  0.252543  0.747458  1
  Pt  Pt7  1  0.252536  0.252536  0.747465  1
  Pt  Pt8  1  0.252537  0.747464  0.747464  1
