# generated using pymatgen
data_Hf4Ta6Ga6C
_symmetry_space_group_name_H-M   'P 1'
_cell_length_a   7.88935780
_cell_length_b   7.87632606
_cell_length_c   5.47419800
_cell_angle_alpha   89.59626582
_cell_angle_beta   90.20153239
_cell_angle_gamma   119.94535648
_symmetry_Int_Tables_number   1
_chemical_formula_structural   Hf4Ta6Ga6C
_chemical_formula_sum   'Hf4 Ta6 Ga6 C1'
_cell_volume   294.74372013
_cell_formula_units_Z   1
loop_
 _symmetry_equiv_pos_site_id
 _symmetry_equiv_pos_as_xyz
  1  'x, y, z'
loop_
 _atom_site_type_symbol
 _atom_site_label
 _atom_site_symmetry_multiplicity
 _atom_site_fract_x
 _atom_site_fract_y
 _atom_site_fract_z
 _atom_site_occupancy
  Hf  Hf0  1  0.000000  0.760500  0.249669  1
  Hf  Hf1  1  0.239391  0.238243  0.259508  1
  Hf  Hf2  1  0.760609  0.998853  0.259508  1
  Hf  Hf3  1  0.000000  0.240089  0.748150  1
  Ta  Ta4  1  0.759775  0.759757  0.738785  1
  Ta  Ta5  1  0.240225  0.999982  0.738785  1
  Ta  Ta6  1  0.332500  0.666606  0.000763  1
  Ta  Ta7  1  0.667500  0.334105  0.000763  1
  Ta  Ta8  1  0.665321  0.334550  0.499883  1
  Ta  Ta9  1  0.334679  0.669231  0.499883  1
  Ga  Ga10  1  0.000000  0.402334  0.249055  1
  Ga  Ga11  1  0.597249  0.597718  0.243355  1
  Ga  Ga12  1  0.402751  0.000469  0.243355  1
  Ga  Ga13  1  0.000000  0.603604  0.751009  1
  Ga  Ga14  1  0.402133  0.401100  0.754087  1
  Ga  Ga15  1  0.597867  0.998966  0.754087  1
  C  C16  1  0.000000  0.993894  0.509353  1
