# generated using pymatgen
data_Ca6La11Dy3Pb16
_symmetry_space_group_name_H-M   'P 1'
_cell_length_a   8.22942406
_cell_length_b   8.65463736
_cell_length_c   16.29552800
_cell_angle_alpha   90.05066471
_cell_angle_beta   89.73494401
_cell_angle_gamma   90.04774734
_symmetry_Int_Tables_number   1
_chemical_formula_structural   Ca6La11Dy3Pb16
_chemical_formula_sum   'Ca6 La11 Dy3 Pb16'
_cell_volume   1160.59791903
_cell_formula_units_Z   1
loop_
 _symmetry_equiv_pos_site_id
 _symmetry_equiv_pos_as_xyz
  1  'x, y, z'
loop_
 _atom_site_type_symbol
 _atom_site_label
 _atom_site_symmetry_multiplicity
 _atom_site_fract_x
 _atom_site_fract_y
 _atom_site_fract_z
 _atom_site_occupancy
  Ca  Ca0  1  0.831080  0.663283  0.377109  1
  Ca  Ca1  1  0.332679  0.835549  0.376310  1
  Ca  Ca2  1  0.833543  0.501689  0.749763  1
  Ca  Ca3  1  0.333415  0.998140  0.750638  1
  Ca  Ca4  1  0.165878  0.500997  0.251248  1
  Ca  Ca5  1  0.665997  0.997987  0.252685  1
  La  La6  1  0.837884  0.669310  0.123977  1
  La  La7  1  0.662173  0.167245  0.876692  1
  La  La8  1  0.165242  0.331673  0.623130  1
  La  La9  1  0.502461  0.682738  0.594383  1
  La  La10  1  0.004388  0.818041  0.904788  1
  La  La11  1  0.495702  0.315646  0.094726  1
  La  La12  1  0.993742  0.186724  0.404110  1
  La  La13  1  0.496460  0.316649  0.405790  1
  La  La14  1  0.997652  0.183153  0.094197  1
  La  La15  1  0.503958  0.681695  0.904544  1
  La  La16  1  0.003913  0.816133  0.594682  1
  Dy  Dy17  1  0.668716  0.165013  0.624603  1
  Dy  Dy18  1  0.166036  0.334105  0.875935  1
  Dy  Dy19  1  0.337214  0.832726  0.123239  1
  Pb  Pb20  1  0.681388  0.963167  0.461973  1
  Pb  Pb21  1  0.189376  0.540950  0.037443  1
  Pb  Pb22  1  0.310014  0.041355  0.962919  1
  Pb  Pb23  1  0.815282  0.459231  0.540704  1
  Pb  Pb24  1  0.330764  0.036861  0.540525  1
  Pb  Pb25  1  0.827494  0.460491  0.959182  1
  Pb  Pb26  1  0.675703  0.960505  0.041446  1
  Pb  Pb27  1  0.177782  0.540125  0.458588  1
  Pb  Pb28  1  0.470118  0.386003  0.750294  1
  Pb  Pb29  1  0.969903  0.112517  0.749095  1
  Pb  Pb30  1  0.527411  0.613571  0.249549  1
  Pb  Pb31  1  0.034947  0.890775  0.247843  1
  Pb  Pb32  1  0.699869  0.853943  0.749231  1
  Pb  Pb33  1  0.199882  0.646152  0.750783  1
  Pb  Pb34  1  0.297672  0.143042  0.248660  1
  Pb  Pb35  1  0.794267  0.352817  0.249213  1
