# generated using pymatgen
data_Ho5TmTh2(MgIr)2
_symmetry_space_group_name_H-M   'P 1'
_cell_length_a   9.74992721
_cell_length_b   9.75582459
_cell_length_c   9.75582478
_cell_angle_alpha   59.96001101
_cell_angle_beta   60.01999977
_cell_angle_gamma   60.01999509
_symmetry_Int_Tables_number   1
_chemical_formula_structural   Ho5TmTh2(MgIr)2
_chemical_formula_sum   'Ho10 Tm2 Th4 Mg4 Ir4'
_cell_volume   656.16649768
_cell_formula_units_Z   2
loop_
 _symmetry_equiv_pos_site_id
 _symmetry_equiv_pos_as_xyz
  1  'x, y, z'
loop_
 _atom_site_type_symbol
 _atom_site_label
 _atom_site_symmetry_multiplicity
 _atom_site_fract_x
 _atom_site_fract_y
 _atom_site_fract_z
 _atom_site_occupancy
  Ho  Ho0  1  0.186674  0.813326  0.186674  1
  Ho  Ho1  1  0.813326  0.186674  0.813326  1
  Ho  Ho2  1  0.186674  0.186674  0.813326  1
  Ho  Ho3  1  0.813326  0.813326  0.186674  1
  Ho  Ho4  1  0.934343  0.565657  0.565657  1
  Ho  Ho5  1  0.565657  0.934343  0.934343  1
  Ho  Ho6  1  0.565639  0.934361  0.565639  1
  Ho  Ho7  1  0.934361  0.565639  0.934361  1
  Ho  Ho8  1  0.565639  0.565639  0.934361  1
  Ho  Ho9  1  0.934361  0.934361  0.565639  1
  Tm  Tm10  1  0.812969  0.187031  0.187031  1
  Tm  Tm11  1  0.187031  0.812969  0.812969  1
  Th  Th12  1  0.349069  0.348325  0.348325  1
  Th  Th13  1  0.348325  0.349069  0.954279  1
  Th  Th14  1  0.348325  0.954279  0.349069  1
  Th  Th15  1  0.954279  0.348325  0.348325  1
  Mg  Mg16  1  0.580683  0.580841  0.580841  1
  Mg  Mg17  1  0.580841  0.580683  0.257634  1
  Mg  Mg18  1  0.580841  0.257634  0.580683  1
  Mg  Mg19  1  0.257634  0.580841  0.580841  1
  Ir  Ir20  1  0.141933  0.142941  0.142941  1
  Ir  Ir21  1  0.142941  0.141933  0.572188  1
  Ir  Ir22  1  0.142941  0.572188  0.141933  1
  Ir  Ir23  1  0.572188  0.142941  0.142941  1
