# generated using pymatgen
data_YEr3(Co3Si5)2
_symmetry_space_group_name_H-M   'P 1'
_cell_length_a   7.84351592
_cell_length_b   7.84332745
_cell_length_c   5.51666615
_cell_angle_alpha   70.76148789
_cell_angle_beta   70.77813811
_cell_angle_gamma   93.41390572
_symmetry_Int_Tables_number   1
_chemical_formula_structural   YEr3(Co3Si5)2
_chemical_formula_sum   'Y1 Er3 Co6 Si10'
_cell_volume   297.14231108
_cell_formula_units_Z   1
loop_
 _symmetry_equiv_pos_site_id
 _symmetry_equiv_pos_as_xyz
  1  'x, y, z'
loop_
 _atom_site_type_symbol
 _atom_site_label
 _atom_site_symmetry_multiplicity
 _atom_site_fract_x
 _atom_site_fract_y
 _atom_site_fract_z
 _atom_site_occupancy
  Y  Y0  1  0.598234  0.869924  0.262204  1
  Er  Er1  1  0.869772  0.597716  0.763259  1
  Er  Er2  1  0.402277  0.129790  0.737044  1
  Er  Er3  1  0.129724  0.402466  0.236987  1
  Co  Co4  1  0.538977  0.262809  0.124878  1
  Co  Co5  1  0.996986  0.003981  0.249611  1
  Co  Co6  1  0.261841  0.538563  0.625645  1
  Co  Co7  1  0.460505  0.736969  0.875790  1
  Co  Co8  1  0.737602  0.461150  0.375061  1
  Co  Co9  1  0.004254  0.996421  0.749676  1
  Si  Si10  1  0.771366  0.229452  0.749342  1
  Si  Si11  1  0.227977  0.771162  0.250394  1
  Si  Si12  1  0.510446  0.488598  0.750553  1
  Si  Si13  1  0.488441  0.509792  0.250884  1
  Si  Si14  1  0.214456  0.785311  0.749837  1
  Si  Si15  1  0.785765  0.215330  0.249848  1
  Si  Si16  1  0.064555  0.262004  0.834569  1
  Si  Si17  1  0.261944  0.065145  0.334350  1
  Si  Si18  1  0.936385  0.737590  0.165370  1
  Si  Si19  1  0.738493  0.935826  0.664696  1
