# generated using pymatgen
data_Yb10ZnCd2Cu2Ir
_symmetry_space_group_name_H-M   'P 1'
_cell_length_a   9.07864225
_cell_length_b   9.07864306
_cell_length_c   9.06067311
_cell_angle_alpha   129.30234229
_cell_angle_beta   129.30234368
_cell_angle_gamma   74.67359087
_symmetry_Int_Tables_number   1
_chemical_formula_structural   Yb10ZnCd2Cu2Ir
_chemical_formula_sum   'Yb10 Zn1 Cd2 Cu2 Ir1'
_cell_volume   435.33041691
_cell_formula_units_Z   1
loop_
 _symmetry_equiv_pos_site_id
 _symmetry_equiv_pos_as_xyz
  1  'x, y, z'
loop_
 _atom_site_type_symbol
 _atom_site_label
 _atom_site_symmetry_multiplicity
 _atom_site_fract_x
 _atom_site_fract_y
 _atom_site_fract_z
 _atom_site_occupancy
  Yb  Yb0  1  0.490456  0.503408  0.993863  1
  Yb  Yb1  1  0.003408  0.990456  0.993863  1
  Yb  Yb2  1  0.525189  0.025189  0.824518  1
  Yb  Yb3  1  0.191001  0.691001  0.148667  1
  Yb  Yb4  1  0.037183  0.204022  0.513756  1
  Yb  Yb5  1  0.704022  0.537183  0.513756  1
  Yb  Yb6  1  0.457668  0.957668  0.148667  1
  Yb  Yb7  1  0.799328  0.299328  0.824518  1
  Yb  Yb8  1  0.976573  0.809734  0.513756  1
  Yb  Yb9  1  0.309734  0.476573  0.513756  1
  Zn  Zn10  1  0.880966  0.380966  0.261929  1
  Cd  Cd11  1  0.253560  0.253560  0.007119  1
  Cd  Cd12  1  0.753560  0.753560  0.007119  1
  Cu  Cu13  1  0.616086  0.882540  0.498626  1
  Cu  Cu14  1  0.382540  0.116086  0.498626  1
  Ir  Ir15  1  0.118726  0.618726  0.737452  1
