# generated using pymatgen
data_Y4ReTc5Ir2
_symmetry_space_group_name_H-M   'P 1'
_cell_length_a   5.24441563
_cell_length_b   5.24441538
_cell_length_c   9.30067300
_cell_angle_alpha   90.00000000
_cell_angle_beta   90.00000000
_cell_angle_gamma   119.28986936
_symmetry_Int_Tables_number   1
_chemical_formula_structural   Y4ReTc5Ir2
_chemical_formula_sum   'Y4 Re1 Tc5 Ir2'
_cell_volume   223.10157088
_cell_formula_units_Z   1
loop_
 _symmetry_equiv_pos_site_id
 _symmetry_equiv_pos_as_xyz
  1  'x, y, z'
loop_
 _atom_site_type_symbol
 _atom_site_label
 _atom_site_symmetry_multiplicity
 _atom_site_fract_x
 _atom_site_fract_y
 _atom_site_fract_z
 _atom_site_occupancy
  Y  Y0  1  0.332543  0.667457  0.435448  1
  Y  Y1  1  0.666809  0.333191  0.564572  1
  Y  Y2  1  0.666809  0.333191  0.935428  1
  Y  Y3  1  0.332543  0.667457  0.064552  1
  Re  Re4  1  0.832935  0.167065  0.250000  1
  Tc  Tc5  1  0.830767  0.656394  0.250000  1
  Tc  Tc6  1  0.343606  0.169233  0.250000  1
  Tc  Tc7  1  0.170061  0.829939  0.750000  1
  Tc  Tc8  1  0.169948  0.340744  0.750000  1
  Tc  Tc9  1  0.659256  0.830052  0.750000  1
  Ir  Ir10  1  0.997363  0.002637  0.500001  1
  Ir  Ir11  1  0.997363  0.002637  0.999999  1
