# generated using pymatgen
data_Tb7YHf7Si16Mo5
_symmetry_space_group_name_H-M   'P 1'
_cell_length_a   7.14604315
_cell_length_b   7.13927363
_cell_length_c   13.09498428
_cell_angle_alpha   89.79097526
_cell_angle_beta   89.98310379
_cell_angle_gamma   90.08780057
_symmetry_Int_Tables_number   1
_chemical_formula_structural   Tb7YHf7Si16Mo5
_chemical_formula_sum   'Tb7 Y1 Hf7 Si16 Mo5'
_cell_volume   668.06885188
_cell_formula_units_Z   1
loop_
 _symmetry_equiv_pos_site_id
 _symmetry_equiv_pos_as_xyz
  1  'x, y, z'
loop_
 _atom_site_type_symbol
 _atom_site_label
 _atom_site_symmetry_multiplicity
 _atom_site_fract_x
 _atom_site_fract_y
 _atom_site_fract_z
 _atom_site_occupancy
  Tb  Tb0  1  0.001481  0.657029  0.713969  1
  Tb  Tb1  1  0.154962  0.500247  0.465606  1
  Tb  Tb2  1  0.499395  0.845136  0.036074  1
  Tb  Tb3  1  0.844323  0.501674  0.965673  1
  Tb  Tb4  1  0.499485  0.154807  0.532142  1
  Tb  Tb5  1  0.345097  0.999566  0.784156  1
  Tb  Tb6  1  0.655738  0.000947  0.284262  1
  Y  Y7  1  0.999094  0.344755  0.218686  1
  Hf  Hf8  1  0.852851  0.006619  0.874497  1
  Hf  Hf9  1  0.504872  0.648457  0.621041  1
  Hf  Hf10  1  0.353101  0.492650  0.876030  1
  Hf  Hf11  1  0.491437  0.349300  0.125843  1
  Hf  Hf12  1  0.647470  0.510551  0.377022  1
  Hf  Hf13  1  0.993792  0.147472  0.625896  1
  Hf  Hf14  1  0.004261  0.852059  0.124444  1
  Si  Si15  1  0.361321  0.289147  0.320544  1
  Si  Si16  1  0.638728  0.702098  0.815274  1
  Si  Si17  1  0.199598  0.864024  0.560868  1
  Si  Si18  1  0.139251  0.796566  0.932895  1
  Si  Si19  1  0.797784  0.140252  0.067000  1
  Si  Si20  1  0.870695  0.196944  0.430429  1
  Si  Si21  1  0.299572  0.360440  0.682791  1
  Si  Si22  1  0.702761  0.638191  0.183706  1
  Si  Si23  1  0.293491  0.046170  0.189433  1
  Si  Si24  1  0.705351  0.949054  0.683580  1
  Si  Si25  1  0.438949  0.797511  0.430649  1
  Si  Si26  1  0.204366  0.550125  0.066555  1
  Si  Si27  1  0.550580  0.204100  0.934512  1
  Si  Si28  1  0.794535  0.446394  0.566509  1
  Si  Si29  1  0.050579  0.296147  0.816447  1
  Si  Si30  1  0.956495  0.714840  0.317780  1
  Mo  Mo31  1  0.173842  0.174041  0.002045  1
  Mo  Mo32  1  0.827301  0.827189  0.499090  1
  Mo  Mo33  1  0.323133  0.674621  0.250183  1
  Mo  Mo34  1  0.676526  0.325216  0.750025  1
  Mo  Mo35  1  0.147782  0.995659  0.374343  1
