# generated using pymatgen
data_La9Nd3(IrI3)4
_symmetry_space_group_name_H-M   'P 1'
_cell_length_a   10.99347153
_cell_length_b   11.00636163
_cell_length_c   11.00869672
_cell_angle_alpha   108.59320420
_cell_angle_beta   108.54611711
_cell_angle_gamma   111.25871344
_symmetry_Int_Tables_number   1
_chemical_formula_structural   La9Nd3(IrI3)4
_chemical_formula_sum   'La9 Nd3 Ir4 I12'
_cell_volume   1025.02703152
_cell_formula_units_Z   1
loop_
 _symmetry_equiv_pos_site_id
 _symmetry_equiv_pos_as_xyz
  1  'x, y, z'
loop_
 _atom_site_type_symbol
 _atom_site_label
 _atom_site_symmetry_multiplicity
 _atom_site_fract_x
 _atom_site_fract_y
 _atom_site_fract_z
 _atom_site_occupancy
  La  La0  1  0.456421  0.473531  0.235231  1
  La  La1  1  0.737891  0.220128  0.262946  1
  La  La2  1  0.765521  0.027656  0.484788  1
  La  La3  1  0.219280  0.457129  0.484789  1
  La  La4  1  0.278811  0.761711  0.235241  1
  La  La5  1  0.046218  0.279867  0.020201  1
  La  La6  1  0.025054  0.042819  0.262938  1
  La  La7  1  0.473988  0.740344  0.020218  1
  La  La8  1  0.475478  0.225484  0.450956  1
  Nd  Nd9  1  0.024631  0.476231  0.751004  1
  Nd  Nd10  1  0.271179  0.021169  0.042338  1
  Nd  Nd11  1  0.226365  0.274763  0.751011  1
  Ir  Ir12  1  0.248921  0.250808  0.249480  1
  Ir  Ir13  1  0.500562  0.998676  0.249486  1
  Ir  Ir14  1  0.998407  0.248406  0.496812  1
  Ir  Ir15  1  0.252373  0.502372  0.004746  1
  I  I16  1  0.249641  0.762343  0.746893  1
  I  I17  1  0.515189  0.505130  0.756018  1
  I  I18  1  0.983861  0.737240  0.986539  1
  I  I19  1  0.740805  0.250868  0.756004  1
  I  I20  1  0.997242  0.984555  0.746902  1
  I  I21  1  0.245412  0.993425  0.510550  1
  I  I22  1  0.765145  0.517126  0.510550  1
  I  I23  1  0.502687  0.249317  0.986546  1
  I  I24  1  0.758299  0.741314  0.249725  1
  I  I25  1  0.741142  0.991142  0.982293  1
  I  I26  1  0.991435  0.508401  0.249714  1
  I  I27  1  0.508041  0.758043  0.516083  1
