# generated using pymatgen
data_Na6Sr6AlGaAs8
_symmetry_space_group_name_H-M   'P 1'
_cell_length_a   9.69462200
_cell_length_b   9.69462206
_cell_length_c   7.59205200
_cell_angle_alpha   90.00000000
_cell_angle_beta   90.00000000
_cell_angle_gamma   119.99999980
_symmetry_Int_Tables_number   1
_chemical_formula_structural   Na6Sr6AlGaAs8
_chemical_formula_sum   'Na6 Sr6 Al1 Ga1 As8'
_cell_volume   617.94748616
_cell_formula_units_Z   1
loop_
 _symmetry_equiv_pos_site_id
 _symmetry_equiv_pos_as_xyz
  1  'x, y, z'
loop_
 _atom_site_type_symbol
 _atom_site_label
 _atom_site_symmetry_multiplicity
 _atom_site_fract_x
 _atom_site_fract_y
 _atom_site_fract_z
 _atom_site_occupancy
  Na  Na0  1  0.136049  0.863951  0.169959  1
  Na  Na1  1  0.273097  0.136548  0.669473  1
  Na  Na2  1  0.863452  0.726903  0.669473  1
  Na  Na3  1  0.727902  0.863951  0.169959  1
  Na  Na4  1  0.863452  0.136548  0.669473  1
  Na  Na5  1  0.136049  0.272098  0.169959  1
  Sr  Sr6  1  0.955530  0.477764  0.998865  1
  Sr  Sr7  1  0.522236  0.044470  0.998865  1
  Sr  Sr8  1  0.477210  0.954421  0.499429  1
  Sr  Sr9  1  0.045579  0.522790  0.499429  1
  Sr  Sr10  1  0.522236  0.477764  0.998865  1
  Sr  Sr11  1  0.477210  0.522790  0.499429  1
  Al  Al12  1  0.666667  0.333333  0.373432  1
  Ga  Ga13  1  0.333333  0.666667  0.872672  1
  As  As14  1  0.810276  0.189724  0.278709  1
  As  As15  1  0.188596  0.377192  0.778246  1
  As  As16  1  0.810276  0.620552  0.278709  1
  As  As17  1  0.666667  0.333333  0.714757  1
  As  As18  1  0.622808  0.811404  0.778246  1
  As  As19  1  0.333333  0.666667  0.217301  1
  As  As20  1  0.188596  0.811404  0.778246  1
  As  As21  1  0.379448  0.189724  0.278709  1
