# generated using pymatgen
data_Dy3ErGa7Ag5
_symmetry_space_group_name_H-M   'P 1'
_cell_length_a   4.35630600
_cell_length_b   7.01959442
_cell_length_c   10.32583700
_cell_angle_alpha   89.97860456
_cell_angle_beta   90.00000000
_cell_angle_gamma   90.00000000
_symmetry_Int_Tables_number   1
_chemical_formula_structural   Dy3ErGa7Ag5
_chemical_formula_sum   'Dy3 Er1 Ga7 Ag5'
_cell_volume   315.75892381
_cell_formula_units_Z   1
loop_
 _symmetry_equiv_pos_site_id
 _symmetry_equiv_pos_as_xyz
  1  'x, y, z'
loop_
 _atom_site_type_symbol
 _atom_site_label
 _atom_site_symmetry_multiplicity
 _atom_site_fract_x
 _atom_site_fract_y
 _atom_site_fract_z
 _atom_site_occupancy
  Dy  Dy0  1  0.500000  0.780869  0.172947  1
  Dy  Dy1  1  0.500000  0.277294  0.327978  1
  Dy  Dy2  1  0.000000  0.216274  0.829013  1
  Er  Er3  1  0.000000  0.723290  0.670404  1
  Ga  Ga4  1  0.500000  0.923475  0.846185  1
  Ga  Ga5  1  0.500000  0.426929  0.655224  1
  Ga  Ga6  1  0.000000  0.077472  0.153386  1
  Ga  Ga7  1  0.000000  0.574245  0.344347  1
  Ga  Ga8  1  0.500000  0.202206  0.035754  1
  Ga  Ga9  1  0.000000  0.300334  0.535593  1
  Ga  Ga10  1  0.000000  0.796432  0.964074  1
  Ag  Ag11  1  0.500000  0.541508  0.903671  1
  Ag  Ag12  1  0.500000  0.046335  0.600679  1
  Ag  Ag13  1  0.000000  0.457101  0.096604  1
  Ag  Ag14  1  0.000000  0.960103  0.401464  1
  Ag  Ag15  1  0.500000  0.696133  0.462677  1
