# generated using pymatgen
data_Er12Si12Ir3W
_symmetry_space_group_name_H-M   'P 1'
_cell_length_a   4.17718100
_cell_length_b   10.68935682
_cell_length_c   12.23878051
_cell_angle_alpha   90.18086900
_cell_angle_beta   90.00000000
_cell_angle_gamma   90.00000000
_symmetry_Int_Tables_number   1
_chemical_formula_structural   Er12Si12Ir3W
_chemical_formula_sum   'Er12 Si12 Ir3 W1'
_cell_volume   546.47569499
_cell_formula_units_Z   1
loop_
 _symmetry_equiv_pos_site_id
 _symmetry_equiv_pos_as_xyz
  1  'x, y, z'
loop_
 _atom_site_type_symbol
 _atom_site_label
 _atom_site_symmetry_multiplicity
 _atom_site_fract_x
 _atom_site_fract_y
 _atom_site_fract_z
 _atom_site_occupancy
  Er  Er0  1  0.250000  0.878184  0.020617  1
  Er  Er1  1  0.250000  0.622401  0.519430  1
  Er  Er2  1  0.750000  0.118172  0.981633  1
  Er  Er3  1  0.750000  0.378801  0.479602  1
  Er  Er4  1  0.250000  0.920795  0.602295  1
  Er  Er5  1  0.250000  0.580514  0.105169  1
  Er  Er6  1  0.750000  0.078585  0.393387  1
  Er  Er7  1  0.750000  0.421107  0.894960  1
  Er  Er8  1  0.250000  0.665970  0.800346  1
  Er  Er9  1  0.250000  0.840429  0.299789  1
  Er  Er10  1  0.750000  0.340784  0.199334  1
  Er  Er11  1  0.750000  0.155539  0.700484  1
  Si  Si12  1  0.250000  0.009372  0.821720  1
  Si  Si13  1  0.250000  0.488037  0.321919  1
  Si  Si14  1  0.750000  0.987772  0.178546  1
  Si  Si15  1  0.750000  0.522656  0.678722  1
  Si  Si16  1  0.250000  0.244863  0.845379  1
  Si  Si17  1  0.250000  0.251041  0.340123  1
  Si  Si18  1  0.750000  0.752373  0.159265  1
  Si  Si19  1  0.750000  0.753297  0.658275  1
  Si  Si20  1  0.250000  0.195977  0.540661  1
  Si  Si21  1  0.250000  0.297560  0.044270  1
  Si  Si22  1  0.750000  0.801113  0.455570  1
  Si  Si23  1  0.750000  0.698337  0.957778  1
  Ir  Ir24  1  0.250000  0.109307  0.179271  1
  Ir  Ir25  1  0.750000  0.610890  0.319404  1
  Ir  Ir26  1  0.750000  0.888783  0.821983  1
  W  W27  1  0.250000  0.387337  0.680068  1
