# generated using pymatgen
data_Er5Tm3Re3RuC8
_symmetry_space_group_name_H-M   'P 1'
_cell_length_a   5.04218200
_cell_length_b   6.51343098
_cell_length_c   9.75317760
_cell_angle_alpha   89.84914224
_cell_angle_beta   90.00000000
_cell_angle_gamma   90.00000000
_symmetry_Int_Tables_number   1
_chemical_formula_structural   Er5Tm3Re3RuC8
_chemical_formula_sum   'Er5 Tm3 Re3 Ru1 C8'
_cell_volume   320.31181640
_cell_formula_units_Z   1
loop_
 _symmetry_equiv_pos_site_id
 _symmetry_equiv_pos_as_xyz
  1  'x, y, z'
loop_
 _atom_site_type_symbol
 _atom_site_label
 _atom_site_symmetry_multiplicity
 _atom_site_fract_x
 _atom_site_fract_y
 _atom_site_fract_z
 _atom_site_occupancy
  Er  Er0  1  0.750000  0.532235  0.785209  1
  Er  Er1  1  0.750000  0.677455  0.442925  1
  Er  Er2  1  0.750000  0.177947  0.057381  1
  Er  Er3  1  0.250000  0.466197  0.216362  1
  Er  Er4  1  0.750000  0.034050  0.716311  1
  Tm  Tm5  1  0.250000  0.966803  0.282003  1
  Tm  Tm6  1  0.250000  0.827598  0.944017  1
  Tm  Tm7  1  0.250000  0.322458  0.557830  1
  Re  Re8  1  0.250000  0.782411  0.632937  1
  Re  Re9  1  0.750000  0.217744  0.368911  1
  Re  Re10  1  0.750000  0.718745  0.131787  1
  Ru  Ru11  1  0.250000  0.281585  0.866883  1
  C  C12  1  0.250000  0.674526  0.447501  1
  C  C13  1  0.250000  0.549348  0.757134  1
  C  C14  1  0.750000  0.451443  0.240944  1
  C  C15  1  0.750000  0.824730  0.945860  1
  C  C16  1  0.250000  0.047587  0.740033  1
  C  C17  1  0.250000  0.171323  0.051791  1
  C  C18  1  0.750000  0.324576  0.554329  1
  C  C19  1  0.750000  0.951237  0.259851  1
