# generated using pymatgen
data_Ti10Ga3Si2Au
_symmetry_space_group_name_H-M   'P 1'
_cell_length_a   4.93870069
_cell_length_b   7.61884772
_cell_length_c   7.66222878
_cell_angle_alpha   84.00434843
_cell_angle_beta   71.19940013
_cell_angle_gamma   71.08829583
_symmetry_Int_Tables_number   1
_chemical_formula_structural   Ti10Ga3Si2Au
_chemical_formula_sum   'Ti10 Ga3 Si2 Au1'
_cell_volume   258.19308316
_cell_formula_units_Z   1
loop_
 _symmetry_equiv_pos_site_id
 _symmetry_equiv_pos_as_xyz
  1  'x, y, z'
loop_
 _atom_site_type_symbol
 _atom_site_label
 _atom_site_symmetry_multiplicity
 _atom_site_fract_x
 _atom_site_fract_y
 _atom_site_fract_z
 _atom_site_occupancy
  Ti  Ti0  1  0.246712  0.503374  0.500000  1
  Ti  Ti1  1  0.749912  0.503374  0.500000  1
  Ti  Ti2  1  0.074203  0.140567  0.711028  1
  Ti  Ti3  1  0.924995  0.860160  0.289848  1
  Ti  Ti4  1  0.788662  0.291004  0.131672  1
  Ti  Ti5  1  0.420333  0.291004  0.868328  1
  Ti  Ti6  1  0.217178  0.705613  0.860031  1
  Ti  Ti7  1  0.577209  0.705613  0.139969  1
  Ti  Ti8  1  0.714844  0.860160  0.710152  1
  Ti  Ti9  1  0.285231  0.140567  0.288972  1
  Ga  Ga10  1  0.163681  0.500091  0.172547  1
  Ga  Ga11  1  0.836229  0.500091  0.827453  1
  Ga  Ga12  1  0.333314  0.833372  0.500000  1
  Si  Si13  1  0.251193  0.997615  0.000000  1
  Si  Si14  1  0.751193  0.997615  0.000000  1
  Au  Au15  1  0.665111  0.169777  0.500000  1
