# generated using pymatgen
data_YTm3V(ReN4)3
_symmetry_space_group_name_H-M   'P 1'
_cell_length_a   7.28823309
_cell_length_b   7.34172849
_cell_length_c   6.21138134
_cell_angle_alpha   72.65692332
_cell_angle_beta   73.19669627
_cell_angle_gamma   81.92411545
_symmetry_Int_Tables_number   1
_chemical_formula_structural   YTm3V(ReN4)3
_chemical_formula_sum   'Y1 Tm3 V1 Re3 N12'
_cell_volume   303.16735968
_cell_formula_units_Z   1
loop_
 _symmetry_equiv_pos_site_id
 _symmetry_equiv_pos_as_xyz
  1  'x, y, z'
loop_
 _atom_site_type_symbol
 _atom_site_label
 _atom_site_symmetry_multiplicity
 _atom_site_fract_x
 _atom_site_fract_y
 _atom_site_fract_z
 _atom_site_occupancy
  Y  Y0  1  0.296400  0.712386  0.747222  1
  Tm  Tm1  1  0.904740  0.085902  0.759361  1
  Tm  Tm2  1  0.089795  0.907148  0.252375  1
  Tm  Tm3  1  0.705681  0.277140  0.252118  1
  V  V4  1  0.621233  0.800240  0.279599  1
  Re  Re5  1  0.198953  0.378461  0.221300  1
  Re  Re6  1  0.378748  0.204247  0.722071  1
  Re  Re7  1  0.794027  0.621221  0.784603  1
  N  N8  1  0.664310  0.627121  0.083321  1
  N  N9  1  0.382751  0.873809  0.332958  1
  N  N10  1  0.363138  0.333081  0.418426  1
  N  N11  1  0.125818  0.629185  0.161656  1
  N  N12  1  0.000801  0.217789  0.337211  1
  N  N13  1  0.781884  0.994329  0.155191  1
  N  N14  1  0.218461  0.006655  0.843020  1
  N  N15  1  0.632480  0.132522  0.655503  1
  N  N16  1  0.338414  0.365134  0.919526  1
  N  N17  1  0.877691  0.376512  0.830122  1
  N  N18  1  0.632454  0.672606  0.585581  1
  N  N19  1  0.992220  0.784514  0.658837  1
