# generated using pymatgen
data_LiTa3Nb2Re5Si6W
_symmetry_space_group_name_H-M   'P 1'
_cell_length_a   7.63822809
_cell_length_b   7.58893520
_cell_length_c   7.63670500
_cell_angle_alpha   126.06544415
_cell_angle_beta   128.97656165
_cell_angle_gamma   77.56511383
_symmetry_Int_Tables_number   1
_chemical_formula_structural   LiTa3Nb2Re5Si6W
_chemical_formula_sum   'Li1 Ta3 Nb2 Re5 Si6 W1'
_cell_volume   269.58668013
_cell_formula_units_Z   1
loop_
 _symmetry_equiv_pos_site_id
 _symmetry_equiv_pos_as_xyz
  1  'x, y, z'
loop_
 _atom_site_type_symbol
 _atom_site_label
 _atom_site_symmetry_multiplicity
 _atom_site_fract_x
 _atom_site_fract_y
 _atom_site_fract_z
 _atom_site_occupancy
  Li  Li0  1  0.555706  0.106623  0.051934  1
  Ta  Ta1  1  0.051536  0.094278  0.545674  1
  Ta  Ta2  1  0.752180  0.907974  0.654117  1
  Ta  Ta3  1  0.242829  0.891055  0.149442  1
  Nb  Nb4  1  0.448969  0.489289  0.540910  1
  Nb  Nb5  1  0.948762  0.488396  0.037887  1
  Re  Re6  1  0.002972  0.237294  0.237935  1
  Re  Re7  1  0.121896  0.754384  0.620161  1
  Re  Re8  1  0.875850  0.500415  0.634504  1
  Re  Re9  1  0.633770  0.756030  0.132597  1
  Re  Re10  1  0.366024  0.500614  0.124983  1
  Si  Si11  1  0.746784  0.492531  0.246918  1
  Si  Si12  1  0.251398  0.500606  0.747860  1
  Si  Si13  1  0.341292  0.832518  0.513873  1
  Si  Si14  1  0.659015  0.158772  0.475560  1
  Si  Si15  1  0.818867  0.835311  0.992950  1
  Si  Si16  1  0.182422  0.159558  0.001304  1
  W  W17  1  0.499729  0.236550  0.733589  1
