# generated using pymatgen
data_Lu10Tl5SnS2
_symmetry_space_group_name_H-M   'P 1'
_cell_length_a   8.70842000
_cell_length_b   8.77950436
_cell_length_c   6.49060700
_cell_angle_alpha   90.00000000
_cell_angle_beta   90.00000000
_cell_angle_gamma   120.27037863
_symmetry_Int_Tables_number   1
_chemical_formula_structural   Lu10Tl5SnS2
_chemical_formula_sum   'Lu10 Tl5 Sn1 S2'
_cell_volume   428.58366086
_cell_formula_units_Z   1
loop_
 _symmetry_equiv_pos_site_id
 _symmetry_equiv_pos_as_xyz
  1  'x, y, z'
loop_
 _atom_site_type_symbol
 _atom_site_label
 _atom_site_symmetry_multiplicity
 _atom_site_fract_x
 _atom_site_fract_y
 _atom_site_fract_z
 _atom_site_occupancy
  Lu  Lu0  1  0.668961  0.334719  0.999335  1
  Lu  Lu1  1  0.331039  0.665760  0.999335  1
  Lu  Lu2  1  0.331039  0.665760  0.500665  1
  Lu  Lu3  1  0.668961  0.334719  0.500665  1
  Lu  Lu4  1  0.757642  0.756228  0.750000  1
  Lu  Lu5  1  0.242358  0.998586  0.750000  1
  Lu  Lu6  1  0.000000  0.247459  0.750000  1
  Lu  Lu7  1  0.242977  0.243367  0.250000  1
  Lu  Lu8  1  0.757023  0.000390  0.250000  1
  Lu  Lu9  1  0.000000  0.753078  0.250000  1
  Tl  Tl10  1  0.399709  0.399735  0.750000  1
  Tl  Tl11  1  0.600291  0.000027  0.750000  1
  Tl  Tl12  1  0.000000  0.602628  0.750000  1
  Tl  Tl13  1  0.599692  0.600091  0.250000  1
  Tl  Tl14  1  0.400308  0.000399  0.250000  1
  Sn  Sn15  1  0.000000  0.396723  0.250000  1
  S  S16  1  0.000000  0.000167  0.000366  1
  S  S17  1  0.000000  0.000167  0.499634  1
