# generated using pymatgen
data_Ce4TlIn(RhAu)2
_symmetry_space_group_name_H-M   'P 1'
_cell_length_a   7.96858551
_cell_length_b   7.99269052
_cell_length_c   3.73434000
_cell_angle_alpha   90.00000000
_cell_angle_beta   90.00000000
_cell_angle_gamma   88.91179738
_symmetry_Int_Tables_number   1
_chemical_formula_structural   Ce4TlIn(RhAu)2
_chemical_formula_sum   'Ce4 Tl1 In1 Rh2 Au2'
_cell_volume   237.79885345
_cell_formula_units_Z   1
loop_
 _symmetry_equiv_pos_site_id
 _symmetry_equiv_pos_as_xyz
  1  'x, y, z'
loop_
 _atom_site_type_symbol
 _atom_site_label
 _atom_site_symmetry_multiplicity
 _atom_site_fract_x
 _atom_site_fract_y
 _atom_site_fract_z
 _atom_site_occupancy
  Ce  Ce0  1  0.659384  0.162955  0.500000  1
  Ce  Ce1  1  0.340616  0.837045  0.500000  1
  Ce  Ce2  1  0.186955  0.314188  0.500000  1
  Ce  Ce3  1  0.813045  0.685812  0.500000  1
  Tl  Tl4  1  0.000000  0.000000  0.000000  1
  In  In5  1  0.500000  0.500000  0.000000  1
  Rh  Rh6  1  0.628504  0.861466  0.000000  1
  Rh  Rh7  1  0.371496  0.138534  0.000000  1
  Au  Au8  1  0.130018  0.624276  0.000000  1
  Au  Au9  1  0.869982  0.375724  0.000000  1
