# generated using pymatgen
data_Dy8Ti7Si16W5
_symmetry_space_group_name_H-M   'P 1'
_cell_length_a   6.96662502
_cell_length_b   6.96135631
_cell_length_c   12.85262077
_cell_angle_alpha   90.11891897
_cell_angle_beta   90.04223103
_cell_angle_gamma   90.04547569
_symmetry_Int_Tables_number   1
_chemical_formula_structural   Dy8Ti7Si16W5
_chemical_formula_sum   'Dy8 Ti7 Si16 W5'
_cell_volume   623.31388502
_cell_formula_units_Z   1
loop_
 _symmetry_equiv_pos_site_id
 _symmetry_equiv_pos_as_xyz
  1  'x, y, z'
loop_
 _atom_site_type_symbol
 _atom_site_label
 _atom_site_symmetry_multiplicity
 _atom_site_fract_x
 _atom_site_fract_y
 _atom_site_fract_z
 _atom_site_occupancy
  Dy  Dy0  1  0.999462  0.659589  0.032440  1
  Dy  Dy1  1  0.001116  0.340566  0.530644  1
  Dy  Dy2  1  0.659265  0.998903  0.968169  1
  Dy  Dy3  1  0.158689  0.500670  0.782149  1
  Dy  Dy4  1  0.840970  0.499087  0.281644  1
  Dy  Dy5  1  0.501312  0.159988  0.219374  1
  Dy  Dy6  1  0.499275  0.840208  0.717314  1
  Dy  Dy7  1  0.340483  0.000431  0.468290  1
  Ti  Ti8  1  0.846604  0.990103  0.376554  1
  Ti  Ti9  1  0.008910  0.154941  0.124980  1
  Ti  Ti10  1  0.992554  0.846435  0.622720  1
  Ti  Ti11  1  0.507826  0.346108  0.624908  1
  Ti  Ti12  1  0.153492  0.008516  0.875887  1
  Ti  Ti13  1  0.493472  0.653101  0.125095  1
  Ti  Ti14  1  0.653880  0.492253  0.874651  1
  Si  Si15  1  0.047408  0.708575  0.434724  1
  Si  Si16  1  0.953975  0.291976  0.934947  1
  Si  Si17  1  0.708357  0.046875  0.565972  1
  Si  Si18  1  0.207580  0.454903  0.185219  1
  Si  Si19  1  0.791157  0.545869  0.684595  1
  Si  Si20  1  0.454046  0.208011  0.815240  1
  Si  Si21  1  0.545208  0.790909  0.315160  1
  Si  Si22  1  0.292004  0.953954  0.065570  1
  Si  Si23  1  0.800113  0.869690  0.183994  1
  Si  Si24  1  0.298572  0.629840  0.565511  1
  Si  Si25  1  0.700743  0.369308  0.065975  1
  Si  Si26  1  0.629625  0.299742  0.432482  1
  Si  Si27  1  0.369291  0.701088  0.934250  1
  Si  Si28  1  0.129493  0.202579  0.317164  1
  Si  Si29  1  0.199229  0.130697  0.683941  1
  Si  Si30  1  0.869691  0.799903  0.815045  1
  W  W31  1  0.346433  0.507009  0.374302  1
  W  W32  1  0.671173  0.671196  0.499638  1
  W  W33  1  0.826224  0.172695  0.750113  1
  W  W34  1  0.174254  0.826579  0.250555  1
  W  W35  1  0.328112  0.327703  0.000784  1
