# generated using pymatgen
data_PaAs3(Se2F3)2
_symmetry_space_group_name_H-M   'P 1'
_cell_length_a   10.26224700
_cell_length_b   6.68817585
_cell_length_c   10.91002918
_cell_angle_alpha   88.53804319
_cell_angle_beta   90.00000000
_cell_angle_gamma   90.00000000
_symmetry_Int_Tables_number   1
_chemical_formula_structural   PaAs3(Se2F3)2
_chemical_formula_sum   'Pa2 As6 Se8 F12'
_cell_volume   748.57387524
_cell_formula_units_Z   2
loop_
 _symmetry_equiv_pos_site_id
 _symmetry_equiv_pos_as_xyz
  1  'x, y, z'
loop_
 _atom_site_type_symbol
 _atom_site_label
 _atom_site_symmetry_multiplicity
 _atom_site_fract_x
 _atom_site_fract_y
 _atom_site_fract_z
 _atom_site_occupancy
  Pa  Pa0  1  0.750000  0.499434  0.832934  1
  Pa  Pa1  1  0.250000  0.500566  0.167066  1
  As  As2  1  0.250000  0.055156  0.519423  1
  As  As3  1  0.127795  0.976732  0.842127  1
  As  As4  1  0.627795  0.023268  0.157873  1
  As  As5  1  0.750000  0.944844  0.480577  1
  As  As6  1  0.872205  0.023268  0.157873  1
  As  As7  1  0.372205  0.976732  0.842127  1
  Se  Se8  1  0.070688  0.129863  0.653203  1
  Se  Se9  1  0.429312  0.129863  0.653203  1
  Se  Se10  1  0.750000  0.327636  0.230160  1
  Se  Se11  1  0.250000  0.672364  0.769840  1
  Se  Se12  1  0.570688  0.870137  0.346797  1
  Se  Se13  1  0.750000  0.304458  0.444350  1
  Se  Se14  1  0.929312  0.870137  0.346797  1
  Se  Se15  1  0.250000  0.695542  0.555650  1
  F  F16  1  0.750000  0.268647  0.700808  1
  F  F17  1  0.609192  0.336545  0.936350  1
  F  F18  1  0.395340  0.352903  0.271367  1
  F  F19  1  0.750000  0.731167  0.961789  1
  F  F20  1  0.104660  0.352903  0.271367  1
  F  F21  1  0.250000  0.268833  0.038211  1
  F  F22  1  0.109192  0.663455  0.063650  1
  F  F23  1  0.604660  0.647097  0.728633  1
  F  F24  1  0.895340  0.647097  0.728633  1
  F  F25  1  0.890808  0.336545  0.936350  1
  F  F26  1  0.390808  0.663455  0.063650  1
  F  F27  1  0.250000  0.731353  0.299192  1
