# generated using pymatgen
data_Ho12TlFe4Pt
_symmetry_space_group_name_H-M   'P 1'
_cell_length_a   8.30388927
_cell_length_b   8.30388872
_cell_length_c   8.30388800
_cell_angle_alpha   110.79001616
_cell_angle_beta   110.70815102
_cell_angle_gamma   106.94466577
_symmetry_Int_Tables_number   1
_chemical_formula_structural   Ho12TlFe4Pt
_chemical_formula_sum   'Ho12 Tl1 Fe4 Pt1'
_cell_volume   440.14129402
_cell_formula_units_Z   1
loop_
 _symmetry_equiv_pos_site_id
 _symmetry_equiv_pos_as_xyz
  1  'x, y, z'
loop_
 _atom_site_type_symbol
 _atom_site_label
 _atom_site_symmetry_multiplicity
 _atom_site_fract_x
 _atom_site_fract_y
 _atom_site_fract_z
 _atom_site_occupancy
  Ho  Ho0  1  0.313593  0.614833  0.301239  1
  Ho  Ho1  1  0.686407  0.385167  0.698761  1
  Ho  Ho2  1  0.313593  0.012351  0.698761  1
  Ho  Ho3  1  0.686407  0.987649  0.301239  1
  Ho  Ho4  1  0.185785  0.289227  0.475012  1
  Ho  Ho5  1  0.814215  0.710773  0.524988  1
  Ho  Ho6  1  0.185785  0.710773  0.896560  1
  Ho  Ho7  1  0.814215  0.289227  0.103440  1
  Ho  Ho8  1  0.415057  0.216343  0.198713  1
  Ho  Ho9  1  0.584943  0.783657  0.801287  1
  Ho  Ho10  1  0.017630  0.216343  0.801287  1
  Ho  Ho11  1  0.982370  0.783657  0.198713  1
  Tl  Tl12  1  0.500000  0.500000  0.000000  1
  Fe  Fe13  1  0.108543  0.608543  0.500000  1
  Fe  Fe14  1  0.891457  0.391457  0.500000  1
  Fe  Fe15  1  0.384942  0.000000  0.384942  1
  Fe  Fe16  1  0.615058  0.000000  0.615058  1
  Pt  Pt17  1  0.000000  0.000000  0.000000  1
