# generated using pymatgen
data_SrMnSb12OsRu2
_symmetry_space_group_name_H-M   'P 1'
_cell_length_a   8.17817889
_cell_length_b   8.18215951
_cell_length_c   8.18477959
_cell_angle_alpha   109.50625552
_cell_angle_beta   109.49016792
_cell_angle_gamma   109.49732725
_symmetry_Int_Tables_number   1
_chemical_formula_structural   SrMnSb12OsRu2
_chemical_formula_sum   'Sr1 Mn1 Sb12 Os1 Ru2'
_cell_volume   421.19153829
_cell_formula_units_Z   1
loop_
 _symmetry_equiv_pos_site_id
 _symmetry_equiv_pos_as_xyz
  1  'x, y, z'
loop_
 _atom_site_type_symbol
 _atom_site_label
 _atom_site_symmetry_multiplicity
 _atom_site_fract_x
 _atom_site_fract_y
 _atom_site_fract_z
 _atom_site_occupancy
  Sr  Sr0  1  0.000000  0.000000  0.000000  1
  Mn  Mn1  1  0.500000  0.500000  0.500000  1
  Sb  Sb2  1  0.846542  0.661084  0.501778  1
  Sb  Sb3  1  0.153458  0.338916  0.498222  1
  Sb  Sb4  1  0.157904  0.659796  0.818689  1
  Sb  Sb5  1  0.842096  0.340204  0.181311  1
  Sb  Sb6  1  0.660923  0.501535  0.846384  1
  Sb  Sb7  1  0.339077  0.498465  0.153616  1
  Sb  Sb8  1  0.661099  0.818616  0.158981  1
  Sb  Sb9  1  0.338901  0.181384  0.841019  1
  Sb  Sb10  1  0.501584  0.846046  0.660008  1
  Sb  Sb11  1  0.498416  0.153954  0.339992  1
  Sb  Sb12  1  0.180755  0.841215  0.339239  1
  Sb  Sb13  1  0.819245  0.158785  0.660761  1
  Os  Os14  1  0.500000  0.000000  0.000000  1
  Ru  Ru15  1  0.000000  0.500000  0.000000  1
  Ru  Ru16  1  0.000000  0.000000  0.500000  1
