# generated using pymatgen
data_Tm3Lu9Tc3Pt
_symmetry_space_group_name_H-M   'P 1'
_cell_length_a   6.17722300
_cell_length_b   7.31159617
_cell_length_c   8.95825700
_cell_angle_alpha   90.00000000
_cell_angle_beta   90.00000000
_cell_angle_gamma   90.01303285
_symmetry_Int_Tables_number   1
_chemical_formula_structural   Tm3Lu9Tc3Pt
_chemical_formula_sum   'Tm3 Lu9 Tc3 Pt1'
_cell_volume   404.60289214
_cell_formula_units_Z   1
loop_
 _symmetry_equiv_pos_site_id
 _symmetry_equiv_pos_as_xyz
  1  'x, y, z'
loop_
 _atom_site_type_symbol
 _atom_site_label
 _atom_site_symmetry_multiplicity
 _atom_site_fract_x
 _atom_site_fract_y
 _atom_site_fract_z
 _atom_site_occupancy
  Tm  Tm0  1  0.620760  0.037401  0.250000  1
  Tm  Tm1  1  0.127206  0.455751  0.750000  1
  Tm  Tm2  1  0.373945  0.965106  0.750000  1
  Lu  Lu3  1  0.330998  0.675652  0.066320  1
  Lu  Lu4  1  0.162871  0.177267  0.436755  1
  Lu  Lu5  1  0.665366  0.319030  0.558137  1
  Lu  Lu6  1  0.839065  0.827920  0.941153  1
  Lu  Lu7  1  0.665366  0.319030  0.941863  1
  Lu  Lu8  1  0.839065  0.827920  0.558847  1
  Lu  Lu9  1  0.330998  0.675652  0.433680  1
  Lu  Lu10  1  0.162871  0.177267  0.063245  1
  Lu  Lu11  1  0.874750  0.542088  0.250000  1
  Tc  Tc12  1  0.038358  0.884769  0.250000  1
  Tc  Tc13  1  0.464417  0.385995  0.250000  1
  Tc  Tc14  1  0.958111  0.115249  0.750000  1
  Pt  Pt15  1  0.545851  0.613903  0.750000  1
