# generated using pymatgen
data_Hf16ZnCo4Ru3
_symmetry_space_group_name_H-M   'P 1'
_cell_length_a   8.58003917
_cell_length_b   8.61092744
_cell_length_c   8.61054702
_cell_angle_alpha   59.99670077
_cell_angle_beta   59.88012513
_cell_angle_gamma   59.87718601
_symmetry_Int_Tables_number   1
_chemical_formula_structural   Hf16ZnCo4Ru3
_chemical_formula_sum   'Hf16 Zn1 Co4 Ru3'
_cell_volume   448.99878595
_cell_formula_units_Z   1
loop_
 _symmetry_equiv_pos_site_id
 _symmetry_equiv_pos_as_xyz
  1  'x, y, z'
loop_
 _atom_site_type_symbol
 _atom_site_label
 _atom_site_symmetry_multiplicity
 _atom_site_fract_x
 _atom_site_fract_y
 _atom_site_fract_z
 _atom_site_occupancy
  Hf  Hf0  1  0.058183  0.647244  0.647267  1
  Hf  Hf1  1  0.644049  0.064302  0.645802  1
  Hf  Hf2  1  0.644048  0.645787  0.064310  1
  Hf  Hf3  1  0.644065  0.645803  0.645822  1
  Hf  Hf4  1  0.805007  0.808338  0.193350  1
  Hf  Hf5  1  0.196084  0.196157  0.803886  1
  Hf  Hf6  1  0.805001  0.193366  0.808334  1
  Hf  Hf7  1  0.196092  0.803890  0.196140  1
  Hf  Hf8  1  0.196109  0.803886  0.803885  1
  Hf  Hf9  1  0.805002  0.193338  0.193323  1
  Hf  Hf10  1  0.439231  0.436469  0.062157  1
  Hf  Hf11  1  0.075557  0.053365  0.435538  1
  Hf  Hf12  1  0.439207  0.062168  0.436465  1
  Hf  Hf13  1  0.075553  0.435544  0.053347  1
  Hf  Hf14  1  0.075551  0.435556  0.435563  1
  Hf  Hf15  1  0.439199  0.062169  0.062174  1
  Zn  Zn16  1  0.731719  0.422755  0.422758  1
  Co  Co17  1  0.431159  0.856278  0.856268  1
  Co  Co18  1  0.854138  0.427802  0.859017  1
  Co  Co19  1  0.854124  0.859014  0.427831  1
  Co  Co20  1  0.854160  0.859028  0.859018  1
  Ru  Ru21  1  0.412260  0.755346  0.416193  1
  Ru  Ru22  1  0.412248  0.416194  0.755360  1
  Ru  Ru23  1  0.412251  0.416201  0.416194  1
