# generated using pymatgen
data_Y4UPt4Rh11
_symmetry_space_group_name_H-M   'P 1'
_cell_length_a   4.09409500
_cell_length_b   4.09409500
_cell_length_c   20.21309300
_cell_angle_alpha   90.00000000
_cell_angle_beta   90.00000000
_cell_angle_gamma   90.00000000
_symmetry_Int_Tables_number   1
_chemical_formula_structural   Y4UPt4Rh11
_chemical_formula_sum   'Y4 U1 Pt4 Rh11'
_cell_volume   338.80405996
_cell_formula_units_Z   1
loop_
 _symmetry_equiv_pos_site_id
 _symmetry_equiv_pos_as_xyz
  1  'x, y, z'
loop_
 _atom_site_type_symbol
 _atom_site_label
 _atom_site_symmetry_multiplicity
 _atom_site_fract_x
 _atom_site_fract_y
 _atom_site_fract_z
 _atom_site_occupancy
  Y  Y0  1  0.000000  0.000000  0.198384  1
  Y  Y1  1  0.000000  0.000000  0.399346  1
  Y  Y2  1  0.000000  0.000000  0.600654  1
  Y  Y3  1  0.000000  0.000000  0.801616  1
  U  U4  1  0.000000  0.000000  0.000000  1
  Pt  Pt5  1  0.500000  0.500000  0.198474  1
  Pt  Pt6  1  0.500000  0.500000  0.399436  1
  Pt  Pt7  1  0.500000  0.500000  0.600564  1
  Pt  Pt8  1  0.500000  0.500000  0.801526  1
  Rh  Rh9  1  0.500000  0.500000  0.000000  1
  Rh  Rh10  1  0.500000  0.000000  0.093147  1
  Rh  Rh11  1  0.500000  0.000000  0.299114  1
  Rh  Rh12  1  0.500000  0.000000  0.500000  1
  Rh  Rh13  1  0.500000  0.000000  0.700886  1
  Rh  Rh14  1  0.500000  0.000000  0.906853  1
  Rh  Rh15  1  0.000000  0.500000  0.093147  1
  Rh  Rh16  1  0.000000  0.500000  0.299114  1
  Rh  Rh17  1  0.000000  0.500000  0.500000  1
  Rh  Rh18  1  0.000000  0.500000  0.700886  1
  Rh  Rh19  1  0.000000  0.500000  0.906853  1
