# generated using pymatgen
data_Tb6P13PtRh19
_symmetry_space_group_name_H-M   'P 1'
_cell_length_a   13.37208400
_cell_length_b   13.37208275
_cell_length_c   3.94156700
_cell_angle_alpha   90.00000000
_cell_angle_beta   90.00000000
_cell_angle_gamma   120.00000310
_symmetry_Int_Tables_number   1
_chemical_formula_structural   Tb6P13PtRh19
_chemical_formula_sum   'Tb6 P13 Pt1 Rh19'
_cell_volume   610.37632890
_cell_formula_units_Z   1
loop_
 _symmetry_equiv_pos_site_id
 _symmetry_equiv_pos_as_xyz
  1  'x, y, z'
loop_
 _atom_site_type_symbol
 _atom_site_label
 _atom_site_symmetry_multiplicity
 _atom_site_fract_x
 _atom_site_fract_y
 _atom_site_fract_z
 _atom_site_occupancy
  Tb  Tb0  1  0.529982  0.717619  0.247540  1
  Tb  Tb1  1  0.282381  0.812363  0.247540  1
  Tb  Tb2  1  0.187637  0.470018  0.247540  1
  Tb  Tb3  1  0.470782  0.282279  0.752622  1
  Tb  Tb4  1  0.717721  0.188505  0.752622  1
  Tb  Tb5  1  0.811495  0.529218  0.752622  1
  P  P6  1  0.525523  0.139025  0.250974  1
  P  P7  1  0.860975  0.386499  0.250974  1
  P  P8  1  0.613501  0.474477  0.250974  1
  P  P9  1  0.945504  0.715473  0.255244  1
  P  P10  1  0.284527  0.230031  0.255244  1
  P  P11  1  0.769969  0.054496  0.255244  1
  P  P12  1  0.387645  0.524022  0.749609  1
  P  P13  1  0.475978  0.863621  0.749609  1
  P  P14  1  0.136379  0.612355  0.749609  1
  P  P15  1  0.715883  0.769896  0.745500  1
  P  P16  1  0.230104  0.945988  0.745500  1
  P  P17  1  0.054012  0.284117  0.745500  1
  P  P18  1  0.000000  0.000000  0.994323  1
  Pt  Pt19  1  0.333333  0.666667  0.749669  1
  Rh  Rh20  1  0.921295  0.249688  0.255376  1
  Rh  Rh21  1  0.750312  0.671607  0.255376  1
  Rh  Rh22  1  0.328393  0.078705  0.255376  1
  Rh  Rh23  1  0.437420  0.022026  0.752320  1
  Rh  Rh24  1  0.977974  0.415394  0.752320  1
  Rh  Rh25  1  0.584606  0.562580  0.752320  1
  Rh  Rh26  1  0.666667  0.333333  0.248538  1
  Rh  Rh27  1  0.093550  0.186146  0.246369  1
  Rh  Rh28  1  0.813854  0.907404  0.246369  1
  Rh  Rh29  1  0.092596  0.906450  0.246369  1
  Rh  Rh30  1  0.021276  0.584093  0.248331  1
  Rh  Rh31  1  0.415907  0.437182  0.248331  1
  Rh  Rh32  1  0.562818  0.978724  0.248331  1
  Rh  Rh33  1  0.671317  0.920343  0.744722  1
  Rh  Rh34  1  0.079657  0.750975  0.744722  1
  Rh  Rh35  1  0.249025  0.328683  0.744722  1
  Rh  Rh36  1  0.905943  0.812352  0.753883  1
  Rh  Rh37  1  0.187648  0.093592  0.753883  1
  Rh  Rh38  1  0.906408  0.094057  0.753883  1
