# generated using pymatgen
data_Tm8Nb12Si15P
_symmetry_space_group_name_H-M   'P 1'
_cell_length_a   7.03115967
_cell_length_b   7.02612081
_cell_length_c   12.96658038
_cell_angle_alpha   89.94327460
_cell_angle_beta   89.99528585
_cell_angle_gamma   89.99592084
_symmetry_Int_Tables_number   1
_chemical_formula_structural   Tm8Nb12Si15P
_chemical_formula_sum   'Tm8 Nb12 Si15 P1'
_cell_volume   640.57179881
_cell_formula_units_Z   1
loop_
 _symmetry_equiv_pos_site_id
 _symmetry_equiv_pos_as_xyz
  1  'x, y, z'
loop_
 _atom_site_type_symbol
 _atom_site_label
 _atom_site_symmetry_multiplicity
 _atom_site_fract_x
 _atom_site_fract_y
 _atom_site_fract_z
 _atom_site_occupancy
  Tm  Tm0  1  0.001931  0.339540  0.218794  1
  Tm  Tm1  1  0.001676  0.658179  0.717959  1
  Tm  Tm2  1  0.157680  0.499766  0.468015  1
  Tm  Tm3  1  0.499194  0.842883  0.033087  1
  Tm  Tm4  1  0.840928  0.501512  0.968652  1
  Tm  Tm5  1  0.498569  0.158698  0.531327  1
  Tm  Tm6  1  0.341713  0.999094  0.782043  1
  Tm  Tm7  1  0.654496  0.001183  0.280794  1
  Nb  Nb8  1  0.172571  0.169594  0.001730  1
  Nb  Nb9  1  0.828410  0.829019  0.499901  1
  Nb  Nb10  1  0.328820  0.671603  0.249197  1
  Nb  Nb11  1  0.671519  0.328364  0.750236  1
  Nb  Nb12  1  0.153879  0.995949  0.373196  1
  Nb  Nb13  1  0.846851  0.006558  0.876325  1
  Nb  Nb14  1  0.506370  0.653168  0.625828  1
  Nb  Nb15  1  0.347709  0.493929  0.873676  1
  Nb  Nb16  1  0.490725  0.343906  0.127216  1
  Nb  Nb17  1  0.653963  0.507410  0.373335  1
  Nb  Nb18  1  0.993378  0.152926  0.623554  1
  Nb  Nb19  1  0.008211  0.849386  0.124554  1
  Si  Si20  1  0.704822  0.954682  0.686572  1
  Si  Si21  1  0.454559  0.794948  0.436391  1
  Si  Si22  1  0.204774  0.545299  0.063153  1
  Si  Si23  1  0.545197  0.204729  0.936563  1
  Si  Si24  1  0.794815  0.454715  0.563531  1
  Si  Si25  1  0.046099  0.294526  0.814162  1
  Si  Si26  1  0.954737  0.704821  0.313348  1
  Si  Si27  1  0.367231  0.298831  0.321292  1
  Si  Si28  1  0.634731  0.705133  0.818810  1
  Si  Si29  1  0.204123  0.866319  0.567716  1
  Si  Si30  1  0.134148  0.794663  0.931289  1
  Si  Si31  1  0.795051  0.134626  0.068634  1
  Si  Si32  1  0.865308  0.203617  0.430790  1
  Si  Si33  1  0.295472  0.365337  0.681409  1
  Si  Si34  1  0.705865  0.632614  0.180549  1
  P  P35  1  0.294472  0.042468  0.186370  1
