# generated using pymatgen
data_Nb3Ga(PO4)6
_symmetry_space_group_name_H-M   'P 1'
_cell_length_a   8.72194589
_cell_length_b   8.72074936
_cell_length_c   9.03079974
_cell_angle_alpha   90.12498034
_cell_angle_beta   118.71376668
_cell_angle_gamma   120.00037712
_symmetry_Int_Tables_number   1
_chemical_formula_structural   Nb3Ga(PO4)6
_chemical_formula_sum   'Nb3 Ga1 P6 O24'
_cell_volume   494.43643420
_cell_formula_units_Z   1
loop_
 _symmetry_equiv_pos_site_id
 _symmetry_equiv_pos_as_xyz
  1  'x, y, z'
loop_
 _atom_site_type_symbol
 _atom_site_label
 _atom_site_symmetry_multiplicity
 _atom_site_fract_x
 _atom_site_fract_y
 _atom_site_fract_z
 _atom_site_occupancy
  Nb  Nb0  1  0.782627  0.639987  0.423521  1
  Nb  Nb1  1  0.212810  0.357578  0.569686  1
  Nb  Nb2  1  0.783323  0.140288  0.924177  1
  Ga  Ga3  1  0.213049  0.858540  0.070732  1
  P  P4  1  0.005565  0.965129  0.245027  1
  P  P5  1  0.279525  0.540970  0.247669  1
  P  P6  1  0.279812  0.751558  0.753034  1
  P  P7  1  0.705637  0.237930  0.249401  1
  P  P8  1  0.726950  0.476118  0.754642  1
  P  P9  1  0.007496  0.030909  0.757869  1
  O  O10  1  0.293141  0.715184  0.219645  1
  O  O11  1  0.859204  0.989613  0.075747  1
  O  O12  1  0.857415  0.854394  0.593514  1
  O  O13  1  0.852591  0.800482  0.281812  1
  O  O14  1  0.147126  0.926787  0.228623  1
  O  O15  1  0.483040  0.555746  0.286509  1
  O  O16  1  0.091737  0.731964  0.581377  1
  O  O17  1  0.910357  0.642714  0.918744  1
  O  O18  1  0.279713  0.778730  0.916985  1
  O  O19  1  0.486628  0.917806  0.774672  1
  O  O20  1  0.734303  0.491885  0.587135  1
  O  O21  1  0.722307  0.424778  0.277227  1
  O  O22  1  0.275297  0.573199  0.719216  1
  O  O23  1  0.266513  0.508290  0.411525  1
  O  O24  1  0.507912  0.076996  0.228332  1
  O  O25  1  0.719114  0.215054  0.086277  1
  O  O26  1  0.087041  0.362271  0.084656  1
  O  O27  1  0.906553  0.268410  0.416890  1
  O  O28  1  0.513945  0.442608  0.709976  1
  O  O29  1  0.860777  0.072162  0.774767  1
  O  O30  1  0.145816  0.198712  0.714682  1
  O  O31  1  0.140568  0.143348  0.404957  1
  O  O32  1  0.151031  0.016384  0.928208  1
  O  O33  1  0.711077  0.293476  0.782768  1
