# generated using pymatgen
data_Dy8Cd2CoRu
_symmetry_space_group_name_H-M   'P 1'
_cell_length_a   9.53568073
_cell_length_b   9.55592945
_cell_length_c   9.55504084
_cell_angle_alpha   60.13875960
_cell_angle_beta   60.06575848
_cell_angle_gamma   60.06880424
_symmetry_Int_Tables_number   1
_chemical_formula_structural   Dy8Cd2CoRu
_chemical_formula_sum   'Dy16 Cd4 Co2 Ru2'
_cell_volume   616.93212899
_cell_formula_units_Z   2
loop_
 _symmetry_equiv_pos_site_id
 _symmetry_equiv_pos_as_xyz
  1  'x, y, z'
loop_
 _atom_site_type_symbol
 _atom_site_label
 _atom_site_symmetry_multiplicity
 _atom_site_fract_x
 _atom_site_fract_y
 _atom_site_fract_z
 _atom_site_occupancy
  Dy  Dy0  1  0.151981  0.538013  0.158037  1
  Dy  Dy1  1  0.691376  0.311432  0.685966  1
  Dy  Dy2  1  0.688347  0.311648  0.311653  1
  Dy  Dy3  1  0.936576  0.563416  0.563430  1
  Dy  Dy4  1  0.540700  0.155270  0.155115  1
  Dy  Dy5  1  0.151900  0.158127  0.538083  1
  Dy  Dy6  1  0.941083  0.936062  0.561368  1
  Dy  Dy7  1  0.311229  0.685889  0.311418  1
  Dy  Dy8  1  0.560152  0.939835  0.939847  1
  Dy  Dy9  1  0.561473  0.936072  0.561368  1
  Dy  Dy10  1  0.691457  0.685892  0.311430  1
  Dy  Dy11  1  0.561484  0.561359  0.936074  1
  Dy  Dy12  1  0.941078  0.561360  0.936064  1
  Dy  Dy13  1  0.311181  0.688741  0.688911  1
  Dy  Dy14  1  0.148924  0.155265  0.155111  1
  Dy  Dy15  1  0.311231  0.311422  0.685965  1
  Cd  Cd16  1  0.919458  0.241838  0.919241  1
  Cd  Cd17  1  0.919871  0.919410  0.919418  1
  Cd  Cd18  1  0.919464  0.919240  0.241828  1
  Cd  Cd19  1  0.241303  0.919408  0.919415  1
  Co  Co20  1  0.920333  0.360012  0.359988  1
  Co  Co21  1  0.359675  0.360012  0.359987  1
  Ru  Ru22  1  0.359858  0.360285  0.920007  1
  Ru  Ru23  1  0.359865  0.919993  0.360278  1
