# generated using pymatgen
data_Pr2ErCd(Ir2O7)2
_symmetry_space_group_name_H-M   'P 1'
_cell_length_a   7.25117524
_cell_length_b   7.38854622
_cell_length_c   7.38854622
_cell_angle_alpha   60.46046440
_cell_angle_beta   59.65999582
_cell_angle_gamma   59.65999080
_symmetry_Int_Tables_number   1
_chemical_formula_structural   Pr2ErCd(Ir2O7)2
_chemical_formula_sum   'Pr2 Er1 Cd1 Ir4 O14'
_cell_volume   279.40418965
_cell_formula_units_Z   1
loop_
 _symmetry_equiv_pos_site_id
 _symmetry_equiv_pos_as_xyz
  1  'x, y, z'
loop_
 _atom_site_type_symbol
 _atom_site_label
 _atom_site_symmetry_multiplicity
 _atom_site_fract_x
 _atom_site_fract_y
 _atom_site_fract_z
 _atom_site_occupancy
  Pr  Pr0  1  0.125000  0.125000  0.625000  1
  Pr  Pr1  1  0.125000  0.625000  0.125000  1
  Er  Er2  1  0.125000  0.125000  0.125000  1
  Cd  Cd3  1  0.625000  0.125000  0.125000  1
  Ir  Ir4  1  0.625000  0.625000  0.625000  1
  Ir  Ir5  1  0.125000  0.625000  0.625000  1
  Ir  Ir6  1  0.625000  0.125000  0.625000  1
  Ir  Ir7  1  0.625000  0.625000  0.125000  1
  O  O8  1  0.961509  0.540551  0.540551  1
  O  O9  1  0.289422  0.292737  0.719485  1
  O  O10  1  0.960578  0.530515  0.957263  1
  O  O11  1  0.716214  0.299715  0.299715  1
  O  O12  1  0.551360  0.545852  0.952379  1
  O  O13  1  0.551360  0.952379  0.545852  1
  O  O14  1  0.533786  0.950285  0.950285  1
  O  O15  1  0.255641  0.241049  0.241049  1
  O  O16  1  0.288491  0.709449  0.709449  1
  O  O17  1  0.698640  0.297621  0.704148  1
  O  O18  1  0.994359  0.008951  0.008951  1
  O  O19  1  0.960578  0.957263  0.530515  1
  O  O20  1  0.289422  0.719485  0.292737  1
  O  O21  1  0.698640  0.704148  0.297621  1
