# generated using pymatgen
data_Ho2Lu2Al17GaIr6
_symmetry_space_group_name_H-M   'P 1'
_cell_length_a   7.52667910
_cell_length_b   7.52668005
_cell_length_c   9.45276800
_cell_angle_alpha   90.00000000
_cell_angle_beta   90.00000000
_cell_angle_gamma   119.41475956
_symmetry_Int_Tables_number   1
_chemical_formula_structural   Ho2Lu2Al17GaIr6
_chemical_formula_sum   'Ho2 Lu2 Al17 Ga1 Ir6'
_cell_volume   466.47411418
_cell_formula_units_Z   1
loop_
 _symmetry_equiv_pos_site_id
 _symmetry_equiv_pos_as_xyz
  1  'x, y, z'
loop_
 _atom_site_type_symbol
 _atom_site_label
 _atom_site_symmetry_multiplicity
 _atom_site_fract_x
 _atom_site_fract_y
 _atom_site_fract_z
 _atom_site_occupancy
  Ho  Ho0  1  0.993912  0.674985  0.250000  1
  Ho  Ho1  1  0.674985  0.993912  0.250000  1
  Lu  Lu2  1  0.004820  0.326882  0.750000  1
  Lu  Lu3  1  0.326882  0.004820  0.750000  1
  Al  Al4  1  0.870354  0.870354  0.750000  1
  Al  Al5  1  0.001406  0.335762  0.072649  1
  Al  Al6  1  0.999355  0.664036  0.923938  1
  Al  Al7  1  0.999355  0.664036  0.576062  1
  Al  Al8  1  0.335762  0.001406  0.427351  1
  Al  Al9  1  0.001406  0.335762  0.427351  1
  Al  Al10  1  0.664036  0.999355  0.576062  1
  Al  Al11  1  0.664036  0.999355  0.923938  1
  Al  Al12  1  0.335762  0.001406  0.072649  1
  Al  Al13  1  0.332602  0.332602  0.556461  1
  Al  Al14  1  0.665711  0.665711  0.450183  1
  Al  Al15  1  0.665711  0.665711  0.049817  1
  Al  Al16  1  0.332602  0.332602  0.943539  1
  Al  Al17  1  0.338944  0.550064  0.250000  1
  Al  Al18  1  0.660594  0.449799  0.750000  1
  Al  Al19  1  0.550064  0.338944  0.250000  1
  Al  Al20  1  0.449799  0.660594  0.750000  1
  Ga  Ga21  1  0.135156  0.135156  0.250000  1
  Ir  Ir22  1  0.671337  0.327089  0.999478  1
  Ir  Ir23  1  0.327089  0.671337  0.999478  1
  Ir  Ir24  1  0.327089  0.671337  0.500522  1
  Ir  Ir25  1  0.671337  0.327089  0.500522  1
  Ir  Ir26  1  0.999945  0.999945  0.996669  1
  Ir  Ir27  1  0.999945  0.999945  0.503331  1
