# generated using pymatgen
data_Gd4(PbO4)3
_symmetry_space_group_name_H-M   'P 1'
_cell_length_a   6.53550922
_cell_length_b   6.62568367
_cell_length_c   6.82829079
_cell_angle_alpha   100.47585466
_cell_angle_beta   97.97535231
_cell_angle_gamma   99.79682871
_symmetry_Int_Tables_number   1
_chemical_formula_structural   Gd4(PbO4)3
_chemical_formula_sum   'Gd4 Pb3 O12'
_cell_volume   282.08450613
_cell_formula_units_Z   1
loop_
 _symmetry_equiv_pos_site_id
 _symmetry_equiv_pos_as_xyz
  1  'x, y, z'
loop_
 _atom_site_type_symbol
 _atom_site_label
 _atom_site_symmetry_multiplicity
 _atom_site_fract_x
 _atom_site_fract_y
 _atom_site_fract_z
 _atom_site_occupancy
  Gd  Gd0  1  0.393312  0.699428  0.863145  1
  Gd  Gd1  1  0.697494  0.869373  0.390267  1
  Gd  Gd2  1  0.606688  0.300572  0.136855  1
  Gd  Gd3  1  0.302506  0.130627  0.609733  1
  Pb  Pb4  1  0.000000  0.000000  0.000000  1
  Pb  Pb5  1  0.850454  0.400004  0.674247  1
  Pb  Pb6  1  0.149546  0.599996  0.325753  1
  O  O7  1  0.039285  0.676482  0.888880  1
  O  O8  1  0.682594  0.936740  0.062071  1
  O  O9  1  0.922392  0.080889  0.690292  1
  O  O10  1  0.960715  0.323518  0.111120  1
  O  O11  1  0.317406  0.063260  0.937929  1
  O  O12  1  0.077608  0.919111  0.309708  1
  O  O13  1  0.581195  0.185468  0.430218  1
  O  O14  1  0.174084  0.424404  0.577819  1
  O  O15  1  0.421643  0.586429  0.176437  1
  O  O16  1  0.418805  0.814532  0.569782  1
  O  O17  1  0.825916  0.575596  0.422181  1
  O  O18  1  0.578357  0.413571  0.823563  1
