# generated using pymatgen
data_Ac8InNi6
_symmetry_space_group_name_H-M   'P 1'
_cell_length_a   7.81431552
_cell_length_b   7.81431471
_cell_length_c   7.81431613
_cell_angle_alpha   73.63365174
_cell_angle_beta   73.63364954
_cell_angle_gamma   73.63365484
_symmetry_Int_Tables_number   1
_chemical_formula_structural   Ac8InNi6
_chemical_formula_sum   'Ac8 In1 Ni6'
_cell_volume   428.53692869
_cell_formula_units_Z   1
loop_
 _symmetry_equiv_pos_site_id
 _symmetry_equiv_pos_as_xyz
  1  'x, y, z'
loop_
 _atom_site_type_symbol
 _atom_site_label
 _atom_site_symmetry_multiplicity
 _atom_site_fract_x
 _atom_site_fract_y
 _atom_site_fract_z
 _atom_site_occupancy
  Ac  Ac0  1  0.297745  0.297745  0.297745  1
  Ac  Ac1  1  0.702255  0.702255  0.702255  1
  Ac  Ac2  1  0.810638  0.335109  0.139105  1
  Ac  Ac3  1  0.335109  0.139105  0.810638  1
  Ac  Ac4  1  0.139105  0.810638  0.335109  1
  Ac  Ac5  1  0.189362  0.664891  0.860895  1
  Ac  Ac6  1  0.664891  0.860895  0.189362  1
  Ac  Ac7  1  0.860895  0.189362  0.664891  1
  In  In8  1  0.500000  0.500000  0.500000  1
  Ni  Ni9  1  0.467523  0.628777  0.093419  1
  Ni  Ni10  1  0.628777  0.093419  0.467523  1
  Ni  Ni11  1  0.093419  0.467523  0.628777  1
  Ni  Ni12  1  0.532477  0.371223  0.906581  1
  Ni  Ni13  1  0.371223  0.906581  0.532477  1
  Ni  Ni14  1  0.906581  0.532477  0.371223  1
