# generated using pymatgen
data_Y20Ni2(HgPd)3
_symmetry_space_group_name_H-M   'P 1'
_cell_length_a   9.55585000
_cell_length_b   9.55577788
_cell_length_c   9.54868500
_cell_angle_alpha   90.00000000
_cell_angle_beta   90.00000000
_cell_angle_gamma   120.00092816
_symmetry_Int_Tables_number   1
_chemical_formula_structural   Y20Ni2(HgPd)3
_chemical_formula_sum   'Y20 Ni2 Hg3 Pd3'
_cell_volume   755.10180217
_cell_formula_units_Z   1
loop_
 _symmetry_equiv_pos_site_id
 _symmetry_equiv_pos_as_xyz
  1  'x, y, z'
loop_
 _atom_site_type_symbol
 _atom_site_label
 _atom_site_symmetry_multiplicity
 _atom_site_fract_x
 _atom_site_fract_y
 _atom_site_fract_z
 _atom_site_occupancy
  Y  Y0  1  0.000013  0.999994  0.455388  1
  Y  Y1  1  0.000013  0.999994  0.044612  1
  Y  Y2  1  0.543247  0.456708  0.250000  1
  Y  Y3  1  0.543272  0.086558  0.250000  1
  Y  Y4  1  0.913435  0.456759  0.250000  1
  Y  Y5  1  0.456739  0.543232  0.750000  1
  Y  Y6  1  0.456764  0.913535  0.750000  1
  Y  Y7  1  0.086462  0.543254  0.750000  1
  Y  Y8  1  0.209301  0.790723  0.438122  1
  Y  Y9  1  0.209280  0.418582  0.438115  1
  Y  Y10  1  0.581424  0.790699  0.438118  1
  Y  Y11  1  0.792286  0.207713  0.560996  1
  Y  Y12  1  0.792264  0.584554  0.561023  1
  Y  Y13  1  0.415451  0.207731  0.561025  1
  Y  Y14  1  0.792286  0.207713  0.939004  1
  Y  Y15  1  0.792264  0.584554  0.938977  1
  Y  Y16  1  0.415451  0.207731  0.938975  1
  Y  Y17  1  0.209301  0.790723  0.061878  1
  Y  Y18  1  0.209280  0.418582  0.061885  1
  Y  Y19  1  0.581424  0.790699  0.061882  1
  Ni  Ni20  1  0.333322  0.666681  0.250000  1
  Ni  Ni21  1  0.666715  0.333305  0.750000  1
  Hg  Hg22  1  0.113115  0.886907  0.750000  1
  Hg  Hg23  1  0.113118  0.226189  0.750000  1
  Hg  Hg24  1  0.773812  0.886873  0.750000  1
  Pd  Pd25  1  0.869843  0.130183  0.250000  1
  Pd  Pd26  1  0.869782  0.739660  0.250000  1
  Pd  Pd27  1  0.260338  0.130170  0.250000  1
