# generated using pymatgen
data_GdEr3(MoN3)4
_symmetry_space_group_name_H-M   'P 1'
_cell_length_a   7.31892167
_cell_length_b   7.31892185
_cell_length_c   6.25917061
_cell_angle_alpha   73.52110145
_cell_angle_beta   73.52109935
_cell_angle_gamma   81.30634076
_symmetry_Int_Tables_number   1
_chemical_formula_structural   GdEr3(MoN3)4
_chemical_formula_sum   'Gd1 Er3 Mo4 N12'
_cell_volume   307.39202529
_cell_formula_units_Z   1
loop_
 _symmetry_equiv_pos_site_id
 _symmetry_equiv_pos_as_xyz
  1  'x, y, z'
loop_
 _atom_site_type_symbol
 _atom_site_label
 _atom_site_symmetry_multiplicity
 _atom_site_fract_x
 _atom_site_fract_y
 _atom_site_fract_z
 _atom_site_occupancy
  Gd  Gd0  1  0.293377  0.706623  0.750000  1
  Er  Er1  1  0.911791  0.088209  0.750000  1
  Er  Er2  1  0.708304  0.291696  0.250000  1
  Er  Er3  1  0.086279  0.913721  0.250000  1
  Mo  Mo4  1  0.800865  0.618759  0.772373  1
  Mo  Mo5  1  0.198668  0.379664  0.229955  1
  Mo  Mo6  1  0.620336  0.801332  0.270045  1
  Mo  Mo7  1  0.381241  0.199135  0.727627  1
  N  N8  1  0.215935  0.002440  0.848746  1
  N  N9  1  0.368688  0.346362  0.430922  1
  N  N10  1  0.635831  0.653608  0.565379  1
  N  N11  1  0.625921  0.110209  0.661062  1
  N  N12  1  0.997560  0.784065  0.651254  1
  N  N13  1  0.781533  0.002025  0.152081  1
  N  N14  1  0.110401  0.624526  0.165160  1
  N  N15  1  0.889791  0.374079  0.838938  1
  N  N16  1  0.997975  0.218467  0.347919  1
  N  N17  1  0.346392  0.364169  0.934621  1
  N  N18  1  0.653638  0.631312  0.069078  1
  N  N19  1  0.375474  0.889599  0.334840  1
