# generated using pymatgen
data_Hf3Mg(SbRh5)2
_symmetry_space_group_name_H-M   'P 1'
_cell_length_a   4.14942800
_cell_length_b   5.59964250
_cell_length_c   11.02410603
_cell_angle_alpha   90.35059653
_cell_angle_beta   90.00000000
_cell_angle_gamma   90.00000000
_symmetry_Int_Tables_number   1
_chemical_formula_structural   Hf3Mg(SbRh5)2
_chemical_formula_sum   'Hf3 Mg1 Sb2 Rh10'
_cell_volume   256.14376277
_cell_formula_units_Z   1
loop_
 _symmetry_equiv_pos_site_id
 _symmetry_equiv_pos_as_xyz
  1  'x, y, z'
loop_
 _atom_site_type_symbol
 _atom_site_label
 _atom_site_symmetry_multiplicity
 _atom_site_fract_x
 _atom_site_fract_y
 _atom_site_fract_z
 _atom_site_occupancy
  Hf  Hf0  1  0.500000  0.826973  0.360885  1
  Hf  Hf1  1  0.500000  0.676327  0.852714  1
  Hf  Hf2  1  0.500000  0.324891  0.142526  1
  Mg  Mg3  1  0.500000  0.174213  0.642897  1
  Sb  Sb4  1  0.000000  0.493767  0.503101  1
  Sb  Sb5  1  0.000000  0.999338  0.998791  1
  Rh  Rh6  1  0.500000  0.198703  0.889602  1
  Rh  Rh7  1  0.500000  0.801451  0.112210  1
  Rh  Rh8  1  0.500000  0.695924  0.610852  1
  Rh  Rh9  1  0.500000  0.305458  0.386690  1
  Rh  Rh10  1  0.000000  0.436792  0.746337  1
  Rh  Rh11  1  0.000000  0.566137  0.254778  1
  Rh  Rh12  1  0.000000  0.000627  0.498747  1
  Rh  Rh13  1  0.000000  0.499829  0.000200  1
  Rh  Rh14  1  0.000000  0.065760  0.245331  1
  Rh  Rh15  1  0.000000  0.933809  0.754340  1
