# generated using pymatgen
data_Pd2IF18
_symmetry_space_group_name_H-M   'P 1'
_cell_length_a   5.36397935
_cell_length_b   8.44858273
_cell_length_c   8.52885162
_cell_angle_alpha   61.95880839
_cell_angle_beta   84.18894110
_cell_angle_gamma   84.37766149
_symmetry_Int_Tables_number   1
_chemical_formula_structural   Pd2IF18
_chemical_formula_sum   'Pd2 I1 F18'
_cell_volume   338.82616573
_cell_formula_units_Z   1
loop_
 _symmetry_equiv_pos_site_id
 _symmetry_equiv_pos_as_xyz
  1  'x, y, z'
loop_
 _atom_site_type_symbol
 _atom_site_label
 _atom_site_symmetry_multiplicity
 _atom_site_fract_x
 _atom_site_fract_y
 _atom_site_fract_z
 _atom_site_occupancy
  Pd  Pd0  1  0.560521  0.335322  0.335641  1
  Pd  Pd1  1  0.439646  0.663773  0.664746  1
  I  I2  1  0.999839  0.000965  0.999552  1
  F  F3  1  0.879648  0.778100  0.072190  1
  F  F4  1  0.695166  0.074148  0.074392  1
  F  F5  1  0.738683  0.415794  0.109648  1
  F  F6  1  0.118378  0.922179  0.221512  1
  F  F7  1  0.383984  0.564486  0.253800  1
  F  F8  1  0.307988  0.251941  0.255537  1
  F  F9  1  0.814810  0.417921  0.414698  1
  F  F10  1  0.740289  0.107919  0.415759  1
  F  F11  1  0.615309  0.746332  0.436843  1
  F  F12  1  0.385088  0.253638  0.563128  1
  F  F13  1  0.260015  0.890632  0.585295  1
  F  F14  1  0.185569  0.581335  0.585376  1
  F  F15  1  0.691980  0.746859  0.745190  1
  F  F16  1  0.616096  0.435154  0.745783  1
  F  F17  1  0.881473  0.079647  0.777781  1
  F  F18  1  0.260981  0.582528  0.891075  1
  F  F19  1  0.304498  0.927597  0.924929  1
  F  F20  1  0.120038  0.223730  0.927134  1
