# generated using pymatgen
data_NaY3Se4
_symmetry_space_group_name_H-M   'P 1'
_cell_length_a   7.11260894
_cell_length_b   7.11260928
_cell_length_c   4.10300200
_cell_angle_alpha   90.00000000
_cell_angle_beta   90.00000000
_cell_angle_gamma   109.20031598
_symmetry_Int_Tables_number   1
_chemical_formula_structural   NaY3Se4
_chemical_formula_sum   'Na1 Y3 Se4'
_cell_volume   196.02158199
_cell_formula_units_Z   1
loop_
 _symmetry_equiv_pos_site_id
 _symmetry_equiv_pos_as_xyz
  1  'x, y, z'
loop_
 _atom_site_type_symbol
 _atom_site_label
 _atom_site_symmetry_multiplicity
 _atom_site_fract_x
 _atom_site_fract_y
 _atom_site_fract_z
 _atom_site_occupancy
  Na  Na0  1  0.500000  0.500000  0.000000  1
  Y  Y1  1  0.500000  0.000000  0.500000  1
  Y  Y2  1  0.000000  0.500000  0.500000  1
  Y  Y3  1  0.000000  0.000000  0.000000  1
  Se  Se4  1  0.249450  0.750550  0.000000  1
  Se  Se5  1  0.750550  0.249450  0.000000  1
  Se  Se6  1  0.752676  0.752676  0.500000  1
  Se  Se7  1  0.247324  0.247324  0.500000  1
