# generated using pymatgen
data_Y2AlB2Rh5
_symmetry_space_group_name_H-M   'P 1'
_cell_length_a   9.53190900
_cell_length_b   9.53190900
_cell_length_c   3.18182100
_cell_angle_alpha   90.00000000
_cell_angle_beta   90.00000000
_cell_angle_gamma   90.00000000
_symmetry_Int_Tables_number   1
_chemical_formula_structural   Y2AlB2Rh5
_chemical_formula_sum   'Y4 Al2 B4 Rh10'
_cell_volume   289.09163073
_cell_formula_units_Z   2
loop_
 _symmetry_equiv_pos_site_id
 _symmetry_equiv_pos_as_xyz
  1  'x, y, z'
loop_
 _atom_site_type_symbol
 _atom_site_label
 _atom_site_symmetry_multiplicity
 _atom_site_fract_x
 _atom_site_fract_y
 _atom_site_fract_z
 _atom_site_occupancy
  Y  Y0  1  0.825205  0.325205  0.000000  1
  Y  Y1  1  0.325205  0.174795  0.000000  1
  Y  Y2  1  0.674795  0.825205  0.000000  1
  Y  Y3  1  0.174795  0.674795  0.000000  1
  Al  Al4  1  0.000000  0.000000  0.000000  1
  Al  Al5  1  0.500000  0.500000  0.000000  1
  B  B6  1  0.622254  0.122254  0.000000  1
  B  B7  1  0.122254  0.377746  0.000000  1
  B  B8  1  0.877746  0.622254  0.000000  1
  B  B9  1  0.377746  0.877746  0.000000  1
  Rh  Rh10  1  0.070342  0.218943  0.500000  1
  Rh  Rh11  1  0.218943  0.929658  0.500000  1
  Rh  Rh12  1  0.781057  0.070342  0.500000  1
  Rh  Rh13  1  0.929658  0.781057  0.500000  1
  Rh  Rh14  1  0.429658  0.718943  0.500000  1
  Rh  Rh15  1  0.570342  0.281057  0.500000  1
  Rh  Rh16  1  0.718943  0.570342  0.500000  1
  Rh  Rh17  1  0.281057  0.429658  0.500000  1
  Rh  Rh18  1  0.500000  0.000000  0.500000  1
  Rh  Rh19  1  0.000000  0.500000  0.500000  1
