# generated using pymatgen
data_Sc10(TlSb)3
_symmetry_space_group_name_H-M   'P 1'
_cell_length_a   8.46684000
_cell_length_b   8.44770018
_cell_length_c   6.12331200
_cell_angle_alpha   90.00000000
_cell_angle_beta   90.00000000
_cell_angle_gamma   120.07496872
_symmetry_Int_Tables_number   1
_chemical_formula_structural   Sc10(TlSb)3
_chemical_formula_sum   'Sc10 Tl3 Sb3'
_cell_volume   379.00792233
_cell_formula_units_Z   1
loop_
 _symmetry_equiv_pos_site_id
 _symmetry_equiv_pos_as_xyz
  1  'x, y, z'
loop_
 _atom_site_type_symbol
 _atom_site_label
 _atom_site_symmetry_multiplicity
 _atom_site_fract_x
 _atom_site_fract_y
 _atom_site_fract_z
 _atom_site_occupancy
  Sc  Sc0  1  0.331774  0.666278  0.000512  1
  Sc  Sc1  1  0.665496  0.333722  0.499488  1
  Sc  Sc2  1  0.665496  0.333722  0.000512  1
  Sc  Sc3  1  0.331774  0.666278  0.499488  1
  Sc  Sc4  1  0.234429  0.000000  0.250000  1
  Sc  Sc5  1  0.236167  0.233958  0.750000  1
  Sc  Sc6  1  0.002209  0.766042  0.750000  1
  Sc  Sc7  1  0.003318  0.238687  0.250000  1
  Sc  Sc8  1  0.764630  0.761313  0.250000  1
  Sc  Sc9  1  0.761864  0.000000  0.750000  1
  Tl  Tl10  1  0.998244  0.603973  0.250000  1
  Tl  Tl11  1  0.394270  0.396027  0.250000  1
  Tl  Tl12  1  0.396141  0.000000  0.750000  1
  Sb  Sb13  1  0.609332  0.000000  0.250000  1
  Sb  Sb14  1  0.606576  0.608296  0.750000  1
  Sb  Sb15  1  0.998280  0.391704  0.750000  1
