# generated using pymatgen
data_Lu3Sc7(In2Co)4
_symmetry_space_group_name_H-M   'P 1'
_cell_length_a   3.40711700
_cell_length_b   7.64721545
_cell_length_c   17.42580301
_cell_angle_alpha   90.06410763
_cell_angle_beta   90.00000000
_cell_angle_gamma   90.00000000
_symmetry_Int_Tables_number   1
_chemical_formula_structural   Lu3Sc7(In2Co)4
_chemical_formula_sum   'Lu3 Sc7 In8 Co4'
_cell_volume   454.02827713
_cell_formula_units_Z   1
loop_
 _symmetry_equiv_pos_site_id
 _symmetry_equiv_pos_as_xyz
  1  'x, y, z'
loop_
 _atom_site_type_symbol
 _atom_site_label
 _atom_site_symmetry_multiplicity
 _atom_site_fract_x
 _atom_site_fract_y
 _atom_site_fract_z
 _atom_site_occupancy
  Lu  Lu0  1  0.000000  0.745672  0.780295  1
  Lu  Lu1  1  0.000000  0.256603  0.220144  1
  Lu  Lu2  1  0.000000  0.244114  0.719523  1
  Sc  Sc3  1  0.000000  0.000431  0.001161  1
  Sc  Sc4  1  0.000000  0.498948  0.499751  1
  Sc  Sc5  1  0.000000  0.755971  0.279691  1
  Sc  Sc6  1  0.000000  0.878069  0.590165  1
  Sc  Sc7  1  0.000000  0.119177  0.407496  1
  Sc  Sc8  1  0.000000  0.379356  0.909248  1
  Sc  Sc9  1  0.000000  0.622050  0.091969  1
  In  In10  1  0.500000  0.800279  0.434263  1
  In  In11  1  0.500000  0.196385  0.561804  1
  In  In12  1  0.500000  0.303741  0.063392  1
  In  In13  1  0.500000  0.697874  0.937993  1
  In  In14  1  0.500000  0.926700  0.151328  1
  In  In15  1  0.500000  0.070077  0.851619  1
  In  In16  1  0.500000  0.435773  0.350374  1
  In  In17  1  0.500000  0.569777  0.648950  1
  Co  Co18  1  0.500000  0.962332  0.693302  1
  Co  Co19  1  0.500000  0.029033  0.305310  1
  Co  Co20  1  0.500000  0.462902  0.806251  1
  Co  Co21  1  0.500000  0.544737  0.195971  1
