# generated using pymatgen
data_Li8Dy5Er3(SnSb3)2
_symmetry_space_group_name_H-M   'P 1'
_cell_length_a   9.47967500
_cell_length_b   9.47967443
_cell_length_c   6.97265900
_cell_angle_alpha   90.00000000
_cell_angle_beta   90.00000000
_cell_angle_gamma   119.99999850
_symmetry_Int_Tables_number   1
_chemical_formula_structural   Li8Dy5Er3(SnSb3)2
_chemical_formula_sum   'Li8 Dy5 Er3 Sn2 Sb6'
_cell_volume   542.64516173
_cell_formula_units_Z   1
loop_
 _symmetry_equiv_pos_site_id
 _symmetry_equiv_pos_as_xyz
  1  'x, y, z'
loop_
 _atom_site_type_symbol
 _atom_site_label
 _atom_site_symmetry_multiplicity
 _atom_site_fract_x
 _atom_site_fract_y
 _atom_site_fract_z
 _atom_site_occupancy
  Li  Li0  1  0.167255  0.334510  0.274695  1
  Li  Li1  1  0.167255  0.832745  0.274695  1
  Li  Li2  1  0.665490  0.832745  0.274695  1
  Li  Li3  1  0.832778  0.665557  0.773781  1
  Li  Li4  1  0.832778  0.167222  0.773781  1
  Li  Li5  1  0.334443  0.167222  0.773781  1
  Li  Li6  1  0.333333  0.666667  0.692770  1
  Li  Li7  1  0.666667  0.333333  0.193773  1
  Dy  Dy8  1  0.491894  0.983789  0.994070  1
  Dy  Dy9  1  0.491894  0.508106  0.994070  1
  Dy  Dy10  1  0.016211  0.508106  0.994070  1
  Dy  Dy11  1  0.000000  0.000000  0.501348  1
  Dy  Dy12  1  0.000000  0.000000  0.001332  1
  Er  Er13  1  0.508104  0.016207  0.494135  1
  Er  Er14  1  0.508104  0.491896  0.494135  1
  Er  Er15  1  0.983793  0.491896  0.494135  1
  Sn  Sn16  1  0.333333  0.666667  0.260123  1
  Sn  Sn17  1  0.666667  0.333333  0.756473  1
  Sb  Sb18  1  0.166622  0.333244  0.736607  1
  Sb  Sb19  1  0.166622  0.833378  0.736607  1
  Sb  Sb20  1  0.666756  0.833378  0.736607  1
  Sb  Sb21  1  0.833356  0.666714  0.238769  1
  Sb  Sb22  1  0.833356  0.166644  0.238769  1
  Sb  Sb23  1  0.333286  0.166644  0.238769  1
