# generated using pymatgen
data_Y12InGaSi4
_symmetry_space_group_name_H-M   'P 1'
_cell_length_a   8.51286468
_cell_length_b   8.51286503
_cell_length_c   8.51286496
_cell_angle_alpha   112.09403966
_cell_angle_beta   111.25536886
_cell_angle_gamma   105.14998828
_symmetry_Int_Tables_number   1
_chemical_formula_structural   Y12InGaSi4
_chemical_formula_sum   'Y12 In1 Ga1 Si4'
_cell_volume   472.87000959
_cell_formula_units_Z   1
loop_
 _symmetry_equiv_pos_site_id
 _symmetry_equiv_pos_as_xyz
  1  'x, y, z'
loop_
 _atom_site_type_symbol
 _atom_site_label
 _atom_site_symmetry_multiplicity
 _atom_site_fract_x
 _atom_site_fract_y
 _atom_site_fract_z
 _atom_site_occupancy
  Y  Y0  1  0.434388  0.235463  0.198925  1
  Y  Y1  1  0.565612  0.764537  0.801075  1
  Y  Y2  1  0.036537  0.235463  0.801075  1
  Y  Y3  1  0.963463  0.764537  0.198925  1
  Y  Y4  1  0.181275  0.272212  0.453487  1
  Y  Y5  1  0.818725  0.727788  0.546513  1
  Y  Y6  1  0.181275  0.727788  0.909065  1
  Y  Y7  1  0.818725  0.272212  0.090935  1
  Y  Y8  1  0.320273  0.618481  0.298209  1
  Y  Y9  1  0.679727  0.381519  0.701791  1
  Y  Y10  1  0.320273  0.022063  0.701791  1
  Y  Y11  1  0.679727  0.977937  0.298209  1
  In  In12  1  0.500000  0.500000  0.000000  1
  Ga  Ga13  1  0.000000  0.000000  0.000000  1
  Si  Si14  1  0.368840  0.000000  0.368840  1
  Si  Si15  1  0.631160  0.000000  0.631160  1
  Si  Si16  1  0.115775  0.615775  0.500000  1
  Si  Si17  1  0.884225  0.384225  0.500000  1
