# generated using pymatgen
data_SrTcO4
_symmetry_space_group_name_H-M   'P 1'
_cell_length_a   7.24245996
_cell_length_b   7.24245918
_cell_length_c   7.24245947
_cell_angle_alpha   135.53478261
_cell_angle_beta   135.53478508
_cell_angle_gamma   64.70038843
_symmetry_Int_Tables_number   1
_chemical_formula_structural   SrTcO4
_chemical_formula_sum   'Sr2 Tc2 O8'
_cell_volume   183.77936085
_cell_formula_units_Z   2
loop_
 _symmetry_equiv_pos_site_id
 _symmetry_equiv_pos_as_xyz
  1  'x, y, z'
loop_
 _atom_site_type_symbol
 _atom_site_label
 _atom_site_symmetry_multiplicity
 _atom_site_fract_x
 _atom_site_fract_y
 _atom_site_fract_z
 _atom_site_occupancy
  Sr  Sr0  1  0.500000  0.500000  0.000000  1
  Sr  Sr1  1  0.250000  0.750000  0.500000  1
  Tc  Tc2  1  0.000000  0.000000  0.000000  1
  Tc  Tc3  1  0.750000  0.250000  0.500000  1
  O  O4  1  0.536251  0.929719  0.119739  1
  O  O5  1  0.940019  0.833488  0.619739  1
  O  O6  1  0.583488  0.463749  0.393469  1
  O  O7  1  0.070281  0.190019  0.606531  1
  O  O8  1  0.679719  0.059981  0.893469  1
  O  O9  1  0.213749  0.320281  0.380261  1
  O  O10  1  0.809981  0.416512  0.880261  1
  O  O11  1  0.166512  0.786251  0.106531  1
