# generated using pymatgen
data_Tm4Ga3Co4Ge
_symmetry_space_group_name_H-M   'P 1'
_cell_length_a   4.33947200
_cell_length_b   6.87954595
_cell_length_c   6.92169632
_cell_angle_alpha   89.81357784
_cell_angle_beta   90.00000000
_cell_angle_gamma   90.00000000
_symmetry_Int_Tables_number   1
_chemical_formula_structural   Tm4Ga3Co4Ge
_chemical_formula_sum   'Tm4 Ga3 Co4 Ge1'
_cell_volume   206.63643874
_cell_formula_units_Z   1
loop_
 _symmetry_equiv_pos_site_id
 _symmetry_equiv_pos_as_xyz
  1  'x, y, z'
loop_
 _atom_site_type_symbol
 _atom_site_label
 _atom_site_symmetry_multiplicity
 _atom_site_fract_x
 _atom_site_fract_y
 _atom_site_fract_z
 _atom_site_occupancy
  Tm  Tm0  1  0.250000  0.019541  0.804519  1
  Tm  Tm1  1  0.250000  0.519185  0.694200  1
  Tm  Tm2  1  0.750000  0.982433  0.197244  1
  Tm  Tm3  1  0.750000  0.480312  0.303942  1
  Ga  Ga4  1  0.250000  0.199228  0.396094  1
  Ga  Ga5  1  0.250000  0.697140  0.104940  1
  Ga  Ga6  1  0.750000  0.804480  0.604013  1
  Co  Co7  1  0.250000  0.843144  0.436323  1
  Co  Co8  1  0.250000  0.342118  0.060439  1
  Co  Co9  1  0.750000  0.162507  0.567630  1
  Co  Co10  1  0.750000  0.649666  0.935503  1
  Ge  Ge11  1  0.750000  0.300244  0.895152  1
