# generated using pymatgen
data_HoSc6Sn23Rh6
_symmetry_space_group_name_H-M   'P 1'
_cell_length_a   9.72916300
_cell_length_b   9.72916198
_cell_length_c   9.95403200
_cell_angle_alpha   90.00000000
_cell_angle_beta   90.00000000
_cell_angle_gamma   119.99999328
_symmetry_Int_Tables_number   1
_chemical_formula_structural   HoSc6Sn23Rh6
_chemical_formula_sum   'Ho1 Sc6 Sn23 Rh6'
_cell_volume   815.98205338
_cell_formula_units_Z   1
loop_
 _symmetry_equiv_pos_site_id
 _symmetry_equiv_pos_as_xyz
  1  'x, y, z'
loop_
 _atom_site_type_symbol
 _atom_site_label
 _atom_site_symmetry_multiplicity
 _atom_site_fract_x
 _atom_site_fract_y
 _atom_site_fract_z
 _atom_site_occupancy
  Ho  Ho0  1  0.000000  0.000000  0.000000  1
  Sc  Sc1  1  0.517320  0.482680  0.690144  1
  Sc  Sc2  1  0.517320  0.034639  0.690144  1
  Sc  Sc3  1  0.965361  0.482680  0.690144  1
  Sc  Sc4  1  0.034639  0.517320  0.309856  1
  Sc  Sc5  1  0.482680  0.965361  0.309856  1
  Sc  Sc6  1  0.482680  0.517320  0.309856  1
  Sn  Sn7  1  0.666667  0.333333  0.175256  1
  Sn  Sn8  1  0.666667  0.333333  0.860665  1
  Sn  Sn9  1  0.333333  0.666667  0.139335  1
  Sn  Sn10  1  0.352246  0.352246  0.000000  1
  Sn  Sn11  1  0.000000  0.647754  0.000000  1
  Sn  Sn12  1  0.647754  0.000000  0.000000  1
  Sn  Sn13  1  0.647754  0.647754  0.000000  1
  Sn  Sn14  1  0.333333  0.666667  0.824744  1
  Sn  Sn15  1  0.448264  0.224133  0.458382  1
  Sn  Sn16  1  0.224133  0.775867  0.541618  1
  Sn  Sn17  1  0.224133  0.448264  0.541618  1
  Sn  Sn18  1  0.551736  0.775867  0.541618  1
  Sn  Sn19  1  0.123227  0.876773  0.283642  1
  Sn  Sn20  1  0.775867  0.551736  0.458382  1
  Sn  Sn21  1  0.775867  0.224133  0.458382  1
  Sn  Sn22  1  0.352246  0.000000  0.000000  1
  Sn  Sn23  1  0.123227  0.246453  0.283642  1
  Sn  Sn24  1  0.753547  0.876773  0.283642  1
  Sn  Sn25  1  0.246453  0.123227  0.716358  1
  Sn  Sn26  1  0.876773  0.753547  0.716358  1
  Sn  Sn27  1  0.876773  0.123227  0.716358  1
  Sn  Sn28  1  0.000000  0.000000  0.500000  1
  Sn  Sn29  1  0.000000  0.352246  0.000000  1
  Rh  Rh30  1  0.169558  0.830442  0.799623  1
  Rh  Rh31  1  0.169558  0.339114  0.799623  1
  Rh  Rh32  1  0.660886  0.830442  0.799623  1
  Rh  Rh33  1  0.339114  0.169558  0.200377  1
  Rh  Rh34  1  0.830442  0.660886  0.200377  1
  Rh  Rh35  1  0.830442  0.169558  0.200377  1
