# generated using pymatgen
data_Pa4TaAl18Rh5
_symmetry_space_group_name_H-M   'P 1'
_cell_length_a   7.63567782
_cell_length_b   7.63567815
_cell_length_c   9.38114686
_cell_angle_alpha   89.39371593
_cell_angle_beta   89.39371692
_cell_angle_gamma   117.86519142
_symmetry_Int_Tables_number   1
_chemical_formula_structural   Pa4TaAl18Rh5
_chemical_formula_sum   'Pa4 Ta1 Al18 Rh5'
_cell_volume   483.43326369
_cell_formula_units_Z   1
loop_
 _symmetry_equiv_pos_site_id
 _symmetry_equiv_pos_as_xyz
  1  'x, y, z'
loop_
 _atom_site_type_symbol
 _atom_site_label
 _atom_site_symmetry_multiplicity
 _atom_site_fract_x
 _atom_site_fract_y
 _atom_site_fract_z
 _atom_site_occupancy
  Pa  Pa0  1  0.995796  0.696652  0.744058  1
  Pa  Pa1  1  0.004204  0.303348  0.255942  1
  Pa  Pa2  1  0.696652  0.995796  0.744058  1
  Pa  Pa3  1  0.303348  0.004204  0.255942  1
  Ta  Ta4  1  0.000000  0.000000  0.500000  1
  Al  Al5  1  0.151224  0.151224  0.755622  1
  Al  Al6  1  0.848776  0.848776  0.244378  1
  Al  Al7  1  0.011996  0.352906  0.585004  1
  Al  Al8  1  0.988004  0.647094  0.414996  1
  Al  Al9  1  0.997862  0.653755  0.078558  1
  Al  Al10  1  0.346245  0.002138  0.921442  1
  Al  Al11  1  0.002138  0.346245  0.921442  1
  Al  Al12  1  0.653755  0.997862  0.078558  1
  Al  Al13  1  0.647094  0.988004  0.414996  1
  Al  Al14  1  0.352906  0.011996  0.585004  1
  Al  Al15  1  0.334855  0.334855  0.043768  1
  Al  Al16  1  0.665145  0.665145  0.956232  1
  Al  Al17  1  0.657964  0.657964  0.546019  1
  Al  Al18  1  0.342036  0.342036  0.453981  1
  Al  Al19  1  0.348056  0.564276  0.752086  1
  Al  Al20  1  0.651944  0.435724  0.247914  1
  Al  Al21  1  0.564276  0.348056  0.752086  1
  Al  Al22  1  0.435724  0.651944  0.247914  1
  Rh  Rh23  1  0.675259  0.324741  0.500000  1
  Rh  Rh24  1  0.324741  0.675259  0.500000  1
  Rh  Rh25  1  0.327270  0.672730  0.000000  1
  Rh  Rh26  1  0.672730  0.327270  0.000000  1
  Rh  Rh27  1  0.000000  0.000000  0.000000  1
