# generated using pymatgen
data_VIrSeCl12
_symmetry_space_group_name_H-M   'P 1'
_cell_length_a   8.90231430
_cell_length_b   8.90231443
_cell_length_c   6.59354400
_cell_angle_alpha   70.60881458
_cell_angle_beta   70.60880745
_cell_angle_gamma   80.95474426
_symmetry_Int_Tables_number   1
_chemical_formula_structural   VIrSeCl12
_chemical_formula_sum   'V1 Ir1 Se1 Cl12'
_cell_volume   464.29500707
_cell_formula_units_Z   1
loop_
 _symmetry_equiv_pos_site_id
 _symmetry_equiv_pos_as_xyz
  1  'x, y, z'
loop_
 _atom_site_type_symbol
 _atom_site_label
 _atom_site_symmetry_multiplicity
 _atom_site_fract_x
 _atom_site_fract_y
 _atom_site_fract_z
 _atom_site_occupancy
  V  V0  1  0.259621  0.259621  0.743410  1
  Ir  Ir1  1  0.007241  0.007241  0.992055  1
  Se  Se2  1  0.725853  0.725853  0.271821  1
  Cl  Cl3  1  0.985154  0.260507  0.737660  1
  Cl  Cl4  1  0.260507  0.985154  0.737660  1
  Cl  Cl5  1  0.037143  0.756019  0.244285  1
  Cl  Cl6  1  0.756019  0.037143  0.244285  1
  Cl  Cl7  1  0.211086  0.493684  0.793063  1
  Cl  Cl8  1  0.493684  0.211086  0.793063  1
  Cl  Cl9  1  0.774612  0.485289  0.221571  1
  Cl  Cl10  1  0.485289  0.774612  0.221571  1
  Cl  Cl11  1  0.134547  0.134547  0.144498  1
  Cl  Cl12  1  0.883942  0.883942  0.830736  1
  Cl  Cl13  1  0.643877  0.643877  0.648227  1
  Cl  Cl14  1  0.341428  0.341428  0.376098  1
