# generated using pymatgen
data_La4LuTl3
_symmetry_space_group_name_H-M   'P 1'
_cell_length_a   9.42257411
_cell_length_b   9.42261997
_cell_length_c   9.42257427
_cell_angle_alpha   96.98882366
_cell_angle_beta   96.98842603
_cell_angle_gamma   139.17159294
_symmetry_Int_Tables_number   1
_chemical_formula_structural   La4LuTl3
_chemical_formula_sum   'La8 Lu2 Tl6'
_cell_volume   512.60085576
_cell_formula_units_Z   2
loop_
 _symmetry_equiv_pos_site_id
 _symmetry_equiv_pos_as_xyz
  1  'x, y, z'
loop_
 _atom_site_type_symbol
 _atom_site_label
 _atom_site_symmetry_multiplicity
 _atom_site_fract_x
 _atom_site_fract_y
 _atom_site_fract_z
 _atom_site_occupancy
  La  La0  1  0.909708  0.221901  0.131593  1
  La  La1  1  0.221894  0.090316  0.312194  1
  La  La2  1  0.778106  0.909684  0.687806  1
  La  La3  1  0.090292  0.778099  0.868407  1
  La  La4  1  0.721886  0.409690  0.131581  1
  La  La5  1  0.278114  0.590310  0.868419  1
  La  La6  1  0.590311  0.721898  0.312190  1
  La  La7  1  0.409689  0.278102  0.687810  1
  Lu  Lu8  1  0.750004  0.250023  0.499993  1
  Lu  Lu9  1  0.249996  0.749977  0.500007  1
  Tl  Tl10  1  0.749998  0.750001  0.000000  1
  Tl  Tl11  1  0.250002  0.249999  0.000000  1
  Tl  Tl12  1  0.847784  0.652211  0.499985  1
  Tl  Tl13  1  0.652211  0.152202  0.804403  1
  Tl  Tl14  1  0.347789  0.847798  0.195597  1
  Tl  Tl15  1  0.152216  0.347789  0.500015  1
