# generated using pymatgen
data_LiHo6Lu13(Cd3Ru)2
_symmetry_space_group_name_H-M   'P 1'
_cell_length_a   9.42706200
_cell_length_b   9.42706135
_cell_length_c   9.59742500
_cell_angle_alpha   90.00000000
_cell_angle_beta   90.00000000
_cell_angle_gamma   119.99999527
_symmetry_Int_Tables_number   1
_chemical_formula_structural   LiHo6Lu13(Cd3Ru)2
_chemical_formula_sum   'Li1 Ho6 Lu13 Cd6 Ru2'
_cell_volume   738.64893515
_cell_formula_units_Z   1
loop_
 _symmetry_equiv_pos_site_id
 _symmetry_equiv_pos_as_xyz
  1  'x, y, z'
loop_
 _atom_site_type_symbol
 _atom_site_label
 _atom_site_symmetry_multiplicity
 _atom_site_fract_x
 _atom_site_fract_y
 _atom_site_fract_z
 _atom_site_occupancy
  Li  Li0  1  0.000000  0.000000  0.500000  1
  Ho  Ho1  1  0.540634  0.459366  0.251390  1
  Ho  Ho2  1  0.540634  0.081267  0.251390  1
  Ho  Ho3  1  0.918733  0.459366  0.251390  1
  Ho  Ho4  1  0.459366  0.540634  0.748610  1
  Ho  Ho5  1  0.459366  0.918733  0.748610  1
  Ho  Ho6  1  0.081267  0.540634  0.748610  1
  Lu  Lu7  1  0.000000  0.000000  0.000000  1
  Lu  Lu8  1  0.209227  0.790773  0.440816  1
  Lu  Lu9  1  0.209227  0.418453  0.440816  1
  Lu  Lu10  1  0.581547  0.790773  0.440816  1
  Lu  Lu11  1  0.790773  0.209227  0.559184  1
  Lu  Lu12  1  0.790773  0.581547  0.559184  1
  Lu  Lu13  1  0.418453  0.209227  0.559184  1
  Lu  Lu14  1  0.789191  0.210809  0.941894  1
  Lu  Lu15  1  0.789191  0.578381  0.941894  1
  Lu  Lu16  1  0.421619  0.210809  0.941894  1
  Lu  Lu17  1  0.210809  0.789191  0.058106  1
  Lu  Lu18  1  0.210809  0.421619  0.058106  1
  Lu  Lu19  1  0.578381  0.789191  0.058106  1
  Cd  Cd20  1  0.888852  0.111148  0.258596  1
  Cd  Cd21  1  0.888852  0.777706  0.258596  1
  Cd  Cd22  1  0.222294  0.111148  0.258596  1
  Cd  Cd23  1  0.111148  0.888852  0.741404  1
  Cd  Cd24  1  0.111148  0.222294  0.741404  1
  Cd  Cd25  1  0.777706  0.888852  0.741404  1
  Ru  Ru26  1  0.333333  0.666667  0.249460  1
  Ru  Ru27  1  0.666667  0.333333  0.750540  1
