# generated using pymatgen
data_Th4CoSi6Ag
_symmetry_space_group_name_H-M   'P 1'
_cell_length_a   8.26500712
_cell_length_b   8.18780994
_cell_length_c   5.91279691
_cell_angle_alpha   69.63767232
_cell_angle_beta   68.24147112
_cell_angle_gamma   42.12085601
_symmetry_Int_Tables_number   1
_chemical_formula_structural   Th4CoSi6Ag
_chemical_formula_sum   'Th4 Co1 Si6 Ag1'
_cell_volume   247.53015977
_cell_formula_units_Z   1
loop_
 _symmetry_equiv_pos_site_id
 _symmetry_equiv_pos_as_xyz
  1  'x, y, z'
loop_
 _atom_site_type_symbol
 _atom_site_label
 _atom_site_symmetry_multiplicity
 _atom_site_fract_x
 _atom_site_fract_y
 _atom_site_fract_z
 _atom_site_occupancy
  Th  Th0  1  0.745924  0.745924  0.754076  1
  Th  Th1  1  0.758477  0.249622  0.750378  1
  Th  Th2  1  0.245924  0.245924  0.254076  1
  Th  Th3  1  0.249622  0.758477  0.241523  1
  Co  Co4  1  0.665809  0.665809  0.334191  1
  Si  Si5  1  0.824566  0.349327  0.175434  1
  Si  Si6  1  0.679305  0.159463  0.320695  1
  Si  Si7  1  0.159463  0.679305  0.840537  1
  Si  Si8  1  0.349327  0.824566  0.650673  1
  Si  Si9  1  0.162175  0.162175  0.837825  1
  Si  Si10  1  0.824371  0.824371  0.175629  1
  Ag  Ag11  1  0.335036  0.335036  0.664964  1
