# generated using pymatgen
data_Yb2SiTc8Ge3
_symmetry_space_group_name_H-M   'P 1'
_cell_length_a   7.33007420
_cell_length_b   7.33007420
_cell_length_c   4.26718600
_cell_angle_alpha   90.00000000
_cell_angle_beta   90.00000000
_cell_angle_gamma   89.53557150
_symmetry_Int_Tables_number   1
_chemical_formula_structural   Yb2SiTc8Ge3
_chemical_formula_sum   'Yb2 Si1 Tc8 Ge3'
_cell_volume   229.26831960
_cell_formula_units_Z   1
loop_
 _symmetry_equiv_pos_site_id
 _symmetry_equiv_pos_as_xyz
  1  'x, y, z'
loop_
 _atom_site_type_symbol
 _atom_site_label
 _atom_site_symmetry_multiplicity
 _atom_site_fract_x
 _atom_site_fract_y
 _atom_site_fract_z
 _atom_site_occupancy
  Yb  Yb0  1  0.998892  0.998892  0.500000  1
  Yb  Yb1  1  0.500153  0.500153  0.000000  1
  Si  Si2  1  0.294707  0.294707  0.500000  1
  Tc  Tc3  1  0.398025  0.850496  0.500000  1
  Tc  Tc4  1  0.850496  0.398025  0.500000  1
  Tc  Tc5  1  0.650084  0.899521  0.000000  1
  Tc  Tc6  1  0.105082  0.346978  0.000000  1
  Tc  Tc7  1  0.346978  0.105082  0.000000  1
  Tc  Tc8  1  0.597428  0.155130  0.500000  1
  Tc  Tc9  1  0.155130  0.597428  0.500000  1
  Tc  Tc10  1  0.899521  0.650084  0.000000  1
  Ge  Ge11  1  0.797451  0.203267  0.000000  1
  Ge  Ge12  1  0.203267  0.797451  0.000000  1
  Ge  Ge13  1  0.702785  0.702785  0.500000  1
