# generated using pymatgen
data_U4Re7Si5As
_symmetry_space_group_name_H-M   'P 1'
_cell_length_a   7.17240832
_cell_length_b   7.17240750
_cell_length_c   7.17240803
_cell_angle_alpha   109.56221286
_cell_angle_beta   109.56221817
_cell_angle_gamma   109.28938987
_symmetry_Int_Tables_number   1
_chemical_formula_structural   U4Re7Si5As
_chemical_formula_sum   'U4 Re7 Si5 As1'
_cell_volume   284.03361868
_cell_formula_units_Z   1
loop_
 _symmetry_equiv_pos_site_id
 _symmetry_equiv_pos_as_xyz
  1  'x, y, z'
loop_
 _atom_site_type_symbol
 _atom_site_label
 _atom_site_symmetry_multiplicity
 _atom_site_fract_x
 _atom_site_fract_y
 _atom_site_fract_z
 _atom_site_occupancy
  U  U0  1  0.501626  0.501626  0.503854  1
  U  U1  1  0.997772  0.997772  0.496146  1
  U  U2  1  0.501626  0.997772  0.000000  1
  U  U3  1  0.997772  0.501626  0.000000  1
  Re  Re4  1  0.751138  0.251138  0.500000  1
  Re  Re5  1  0.502651  0.251533  0.748882  1
  Re  Re6  1  0.502651  0.753769  0.251118  1
  Re  Re7  1  0.251533  0.502651  0.748882  1
  Re  Re8  1  0.753769  0.502651  0.251118  1
  Re  Re9  1  0.251138  0.751138  0.500000  1
  Re  Re10  1  0.994400  0.994400  0.000000  1
  Si  Si11  1  0.999830  0.310882  0.311052  1
  Si  Si12  1  0.999830  0.688778  0.688948  1
  Si  Si13  1  0.688778  0.999830  0.688948  1
  Si  Si14  1  0.310882  0.999830  0.311052  1
  Si  Si15  1  0.689599  0.689599  0.000000  1
  As  As16  1  0.305006  0.305006  0.000000  1
