# generated using pymatgen
data_Sr13La7Pt16
_symmetry_space_group_name_H-M   'P 1'
_cell_length_a   7.96584395
_cell_length_b   8.11050973
_cell_length_c   15.51271057
_cell_angle_alpha   90.05350460
_cell_angle_beta   89.83381666
_cell_angle_gamma   89.94732056
_symmetry_Int_Tables_number   1
_chemical_formula_structural   Sr13La7Pt16
_chemical_formula_sum   'Sr13 La7 Pt16'
_cell_volume   1002.22546432
_cell_formula_units_Z   1
loop_
 _symmetry_equiv_pos_site_id
 _symmetry_equiv_pos_as_xyz
  1  'x, y, z'
loop_
 _atom_site_type_symbol
 _atom_site_label
 _atom_site_symmetry_multiplicity
 _atom_site_fract_x
 _atom_site_fract_y
 _atom_site_fract_z
 _atom_site_occupancy
  Sr  Sr0  1  0.838573  0.668113  0.880598  1
  Sr  Sr1  1  0.495284  0.322111  0.902782  1
  Sr  Sr2  1  0.991833  0.178948  0.596029  1
  Sr  Sr3  1  0.506366  0.679590  0.404143  1
  Sr  Sr4  1  0.006721  0.818137  0.095211  1
  Sr  Sr5  1  0.506638  0.679688  0.095223  1
  Sr  Sr6  1  0.006327  0.819827  0.404328  1
  Sr  Sr7  1  0.493280  0.318919  0.596927  1
  Sr  Sr8  1  0.992604  0.183254  0.905518  1
  Sr  Sr9  1  0.176825  0.483416  0.750686  1
  Sr  Sr10  1  0.683371  0.014233  0.750895  1
  Sr  Sr11  1  0.818904  0.517652  0.250578  1
  Sr  Sr12  1  0.318383  0.981365  0.249951  1
  La  La13  1  0.337538  0.835502  0.877810  1
  La  La14  1  0.838512  0.664049  0.620697  1
  La  La15  1  0.661117  0.164726  0.379100  1
  La  La16  1  0.162696  0.333686  0.121997  1
  La  La17  1  0.662286  0.165433  0.122100  1
  La  La18  1  0.161520  0.334469  0.379284  1
  La  La19  1  0.338155  0.833532  0.620576  1
  Pt  Pt20  1  0.327536  0.040953  0.040396  1
  Pt  Pt21  1  0.832092  0.458645  0.459058  1
  Pt  Pt22  1  0.666865  0.956604  0.540069  1
  Pt  Pt23  1  0.181574  0.540638  0.962698  1
  Pt  Pt24  1  0.656215  0.973935  0.960624  1
  Pt  Pt25  1  0.166181  0.539993  0.540093  1
  Pt  Pt26  1  0.333147  0.040837  0.458835  1
  Pt  Pt27  1  0.840197  0.452534  0.046026  1
  Pt  Pt28  1  0.541431  0.631930  0.745993  1
  Pt  Pt29  1  0.052031  0.870955  0.742740  1
  Pt  Pt30  1  0.454282  0.365106  0.250879  1
  Pt  Pt31  1  0.954038  0.133020  0.252350  1
  Pt  Pt32  1  0.298285  0.115429  0.751261  1
  Pt  Pt33  1  0.787967  0.383769  0.744109  1
  Pt  Pt34  1  0.705196  0.887554  0.249917  1
  Pt  Pt35  1  0.206035  0.611447  0.250521  1
