# generated using pymatgen
data_TbY3(FeC4)2
_symmetry_space_group_name_H-M   'P 1'
_cell_length_a   5.04603734
_cell_length_b   6.62091160
_cell_length_c   6.62663702
_cell_angle_alpha   68.76138550
_cell_angle_beta   67.62054218
_cell_angle_gamma   67.60014570
_symmetry_Int_Tables_number   1
_chemical_formula_structural   TbY3(FeC4)2
_chemical_formula_sum   'Tb1 Y3 Fe2 C8'
_cell_volume   183.06227752
_cell_formula_units_Z   1
loop_
 _symmetry_equiv_pos_site_id
 _symmetry_equiv_pos_as_xyz
  1  'x, y, z'
loop_
 _atom_site_type_symbol
 _atom_site_label
 _atom_site_symmetry_multiplicity
 _atom_site_fract_x
 _atom_site_fract_y
 _atom_site_fract_z
 _atom_site_occupancy
  Tb  Tb0  1  0.855444  0.486903  0.802208  1
  Y  Y1  1  0.644133  0.198667  0.513069  1
  Y  Y2  1  0.355814  0.801707  0.486664  1
  Y  Y3  1  0.143988  0.513002  0.199023  1
  Fe  Fe4  1  0.250170  0.999785  0.999816  1
  Fe  Fe5  1  0.750229  0.999785  0.999816  1
  C  C6  1  0.871585  0.792570  0.464261  1
  C  C7  1  0.128631  0.207387  0.535350  1
  C  C8  1  0.371676  0.464753  0.791896  1
  C  C9  1  0.628291  0.535284  0.208133  1
  C  C10  1  0.922284  0.913523  0.241910  1
  C  C11  1  0.077987  0.086418  0.757608  1
  C  C12  1  0.422228  0.242468  0.913077  1
  C  C13  1  0.577540  0.757749  0.087169  1
