# generated using pymatgen
data_Dy16Sc4IrRh11
_symmetry_space_group_name_H-M   'P 1'
_cell_length_a   10.77455619
_cell_length_b   10.77455919
_cell_length_c   6.24236712
_cell_angle_alpha   90.01559502
_cell_angle_beta   90.01566896
_cell_angle_gamma   90.01483530
_symmetry_Int_Tables_number   1
_chemical_formula_structural   Dy16Sc4IrRh11
_chemical_formula_sum   'Dy16 Sc4 Ir1 Rh11'
_cell_volume   724.68314584
_cell_formula_units_Z   1
loop_
 _symmetry_equiv_pos_site_id
 _symmetry_equiv_pos_as_xyz
  1  'x, y, z'
loop_
 _atom_site_type_symbol
 _atom_site_label
 _atom_site_symmetry_multiplicity
 _atom_site_fract_x
 _atom_site_fract_y
 _atom_site_fract_z
 _atom_site_occupancy
  Dy  Dy0  1  0.287146  0.086435  0.378670  1
  Dy  Dy1  1  0.287342  0.912255  0.878564  1
  Dy  Dy2  1  0.712877  0.086260  0.878736  1
  Dy  Dy3  1  0.712857  0.913521  0.378654  1
  Dy  Dy4  1  0.585189  0.786522  0.878456  1
  Dy  Dy5  1  0.586413  0.212981  0.379117  1
  Dy  Dy6  1  0.413324  0.786581  0.379150  1
  Dy  Dy7  1  0.413474  0.212695  0.878671  1
  Dy  Dy8  1  0.213477  0.414811  0.621544  1
  Dy  Dy9  1  0.213419  0.586676  0.120850  1
  Dy  Dy10  1  0.787020  0.413587  0.120883  1
  Dy  Dy11  1  0.787304  0.586526  0.621329  1
  Dy  Dy12  1  0.913565  0.712855  0.121330  1
  Dy  Dy13  1  0.913740  0.287123  0.621263  1
  Dy  Dy14  1  0.087745  0.712659  0.621436  1
  Dy  Dy15  1  0.086480  0.287143  0.121346  1
  Sc  Sc16  1  0.999952  0.999933  0.500031  1
  Sc  Sc17  1  0.000067  0.000048  0.999970  1
  Sc  Sc18  1  0.499450  0.500386  0.999445  1
  Sc  Sc19  1  0.499613  0.500549  0.500556  1
  Ir  Ir20  1  0.352247  0.647752  0.750000  1
  Rh  Rh21  1  0.852332  0.147668  0.250000  1
  Rh  Rh22  1  0.852319  0.852479  0.750068  1
  Rh  Rh23  1  0.147520  0.147680  0.749932  1
  Rh  Rh24  1  0.147091  0.852909  0.250000  1
  Rh  Rh25  1  0.647917  0.352084  0.750002  1
  Rh  Rh26  1  0.648456  0.647723  0.249951  1
  Rh  Rh27  1  0.352279  0.351545  0.250043  1
  Rh  Rh28  1  0.500108  0.000395  0.123883  1
  Rh  Rh29  1  0.500223  0.000551  0.623432  1
  Rh  Rh30  1  0.999448  0.499777  0.876567  1
  Rh  Rh31  1  0.999605  0.499892  0.376120  1
