# generated using pymatgen
data_Ba4Na(AsIr)10
_symmetry_space_group_name_H-M   'P 1'
_cell_length_a   9.15906431
_cell_length_b   9.15906442
_cell_length_c   9.15906487
_cell_angle_alpha   120.05807604
_cell_angle_beta   120.05808029
_cell_angle_gamma   89.89943891
_symmetry_Int_Tables_number   1
_chemical_formula_structural   Ba4Na(AsIr)10
_chemical_formula_sum   'Ba4 Na1 As10 Ir10'
_cell_volume   542.82045743
_cell_formula_units_Z   1
loop_
 _symmetry_equiv_pos_site_id
 _symmetry_equiv_pos_as_xyz
  1  'x, y, z'
loop_
 _atom_site_type_symbol
 _atom_site_label
 _atom_site_symmetry_multiplicity
 _atom_site_fract_x
 _atom_site_fract_y
 _atom_site_fract_z
 _atom_site_occupancy
  Ba  Ba0  1  0.195093  0.608857  0.803950  1
  Ba  Ba1  1  0.391143  0.195093  0.586237  1
  Ba  Ba2  1  0.608857  0.804907  0.413763  1
  Ba  Ba3  1  0.804907  0.391143  0.196050  1
  Na  Na4  1  0.000000  0.000000  0.000000  1
  As  As5  1  0.442460  0.042230  0.199747  1
  As  As6  1  0.637658  0.637658  0.000000  1
  As  As7  1  0.842483  0.242713  0.800253  1
  As  As8  1  0.042230  0.842483  0.599771  1
  As  As9  1  0.242713  0.442460  0.400229  1
  As  As10  1  0.362342  0.362342  0.000000  1
  As  As11  1  0.557540  0.957770  0.800253  1
  As  As12  1  0.757287  0.557540  0.599771  1
  As  As13  1  0.957770  0.157517  0.400229  1
  As  As14  1  0.157517  0.757287  0.199747  1
  Ir  Ir15  1  0.349981  0.052364  0.900583  1
  Ir  Ir16  1  0.550603  0.650019  0.702384  1
  Ir  Ir17  1  0.750000  0.250000  0.500000  1
  Ir  Ir18  1  0.947636  0.848219  0.297616  1
  Ir  Ir19  1  0.151781  0.449397  0.099417  1
  Ir  Ir20  1  0.449397  0.349981  0.297616  1
  Ir  Ir21  1  0.650019  0.947636  0.099417  1
  Ir  Ir22  1  0.848219  0.550603  0.900583  1
  Ir  Ir23  1  0.052364  0.151781  0.702384  1
  Ir  Ir24  1  0.250000  0.750000  0.500000  1
