# generated using pymatgen
data_La2Sm2B4I5
_symmetry_space_group_name_H-M   'P 1'
_cell_length_a   9.92049524
_cell_length_b   9.92049490
_cell_length_c   9.98531212
_cell_angle_alpha   74.77200992
_cell_angle_beta   74.77201015
_cell_angle_gamma   25.27811563
_symmetry_Int_Tables_number   1
_chemical_formula_structural   La2Sm2B4I5
_chemical_formula_sum   'La2 Sm2 B4 I5'
_cell_volume   404.14324362
_cell_formula_units_Z   1
loop_
 _symmetry_equiv_pos_site_id
 _symmetry_equiv_pos_as_xyz
  1  'x, y, z'
loop_
 _atom_site_type_symbol
 _atom_site_label
 _atom_site_symmetry_multiplicity
 _atom_site_fract_x
 _atom_site_fract_y
 _atom_site_fract_z
 _atom_site_occupancy
  La  La0  1  0.134768  0.134768  0.932122  1
  La  La1  1  0.866590  0.866590  0.066194  1
  Sm  Sm2  1  0.504740  0.504740  0.752150  1
  Sm  Sm3  1  0.497010  0.497010  0.247051  1
  B  B4  1  0.316075  0.685339  0.999653  1
  B  B5  1  0.685339  0.316075  0.999653  1
  B  B6  1  0.999830  0.999830  0.094511  1
  B  B7  1  0.001533  0.001533  0.904773  1
  I  I8  1  0.674290  0.674290  0.671364  1
  I  I9  1  0.327531  0.327531  0.328106  1
  I  I10  1  0.331266  0.331266  0.836893  1
  I  I11  1  0.670934  0.670934  0.160124  1
  I  I12  1  0.004394  0.004394  0.497606  1
