# generated using pymatgen
data_Nd10GeBi6Au
_symmetry_space_group_name_H-M   'P 1'
_cell_length_a   9.68575300
_cell_length_b   9.68575348
_cell_length_c   6.69707500
_cell_angle_alpha   90.00000000
_cell_angle_beta   90.00000000
_cell_angle_gamma   119.99999493
_symmetry_Int_Tables_number   1
_chemical_formula_structural   Nd10GeBi6Au
_chemical_formula_sum   'Nd10 Ge1 Bi6 Au1'
_cell_volume   544.10487573
_cell_formula_units_Z   1
loop_
 _symmetry_equiv_pos_site_id
 _symmetry_equiv_pos_as_xyz
  1  'x, y, z'
loop_
 _atom_site_type_symbol
 _atom_site_label
 _atom_site_symmetry_multiplicity
 _atom_site_fract_x
 _atom_site_fract_y
 _atom_site_fract_z
 _atom_site_occupancy
  Nd  Nd0  1  0.666667  0.333333  0.000000  1
  Nd  Nd1  1  0.333333  0.666667  0.000000  1
  Nd  Nd2  1  0.333333  0.666667  0.500000  1
  Nd  Nd3  1  0.666667  0.333333  0.500000  1
  Nd  Nd4  1  0.744670  0.744670  0.757430  1
  Nd  Nd5  1  0.255330  0.000000  0.757430  1
  Nd  Nd6  1  0.000000  0.255330  0.757430  1
  Nd  Nd7  1  0.255330  0.255330  0.242570  1
  Nd  Nd8  1  0.744670  0.000000  0.242570  1
  Nd  Nd9  1  0.000000  0.744670  0.242570  1
  Ge  Ge10  1  0.000000  0.000000  0.000000  1
  Bi  Bi11  1  0.387752  0.387752  0.749029  1
  Bi  Bi12  1  0.612248  0.000000  0.749029  1
  Bi  Bi13  1  0.000000  0.612248  0.749029  1
  Bi  Bi14  1  0.612248  0.612248  0.250971  1
  Bi  Bi15  1  0.387752  0.000000  0.250971  1
  Bi  Bi16  1  0.000000  0.387752  0.250971  1
  Au  Au17  1  0.000000  0.000000  0.500000  1
