# generated using pymatgen
data_Li12Eu6Pb4N
_symmetry_space_group_name_H-M   'P 1'
_cell_length_a   8.81543034
_cell_length_b   8.81543028
_cell_length_c   8.81542900
_cell_angle_alpha   109.47122918
_cell_angle_beta   109.47122904
_cell_angle_gamma   109.47121561
_symmetry_Int_Tables_number   1
_chemical_formula_structural   Li12Eu6Pb4N
_chemical_formula_sum   'Li12 Eu6 Pb4 N1'
_cell_volume   527.36163300
_cell_formula_units_Z   1
loop_
 _symmetry_equiv_pos_site_id
 _symmetry_equiv_pos_as_xyz
  1  'x, y, z'
loop_
 _atom_site_type_symbol
 _atom_site_label
 _atom_site_symmetry_multiplicity
 _atom_site_fract_x
 _atom_site_fract_y
 _atom_site_fract_z
 _atom_site_occupancy
  Li  Li0  1  0.679735  0.339867  0.339867  1
  Li  Li1  1  0.339867  0.000000  0.660133  1
  Li  Li2  1  0.339867  0.679735  0.339867  1
  Li  Li3  1  0.339867  0.339867  0.679735  1
  Li  Li4  1  0.339867  0.660133  0.000000  1
  Li  Li5  1  0.000000  0.339867  0.660133  1
  Li  Li6  1  0.000000  0.660133  0.339867  1
  Li  Li7  1  0.660133  0.660133  0.320265  1
  Li  Li8  1  0.660133  0.000000  0.339867  1
  Li  Li9  1  0.660133  0.339867  0.000000  1
  Li  Li10  1  0.660133  0.320265  0.660133  1
  Li  Li11  1  0.320265  0.660133  0.660133  1
  Eu  Eu12  1  0.000000  0.247265  0.247265  1
  Eu  Eu13  1  0.247265  0.000000  0.247265  1
  Eu  Eu14  1  0.752735  0.000000  0.752735  1
  Eu  Eu15  1  0.752735  0.752735  0.000000  1
  Eu  Eu16  1  0.247265  0.247265  0.000000  1
  Eu  Eu17  1  0.000000  0.752735  0.752735  1
  Pb  Pb18  1  0.500000  0.500000  0.500000  1
  Pb  Pb19  1  0.500000  0.000000  0.000000  1
  Pb  Pb20  1  0.000000  0.500000  0.000000  1
  Pb  Pb21  1  0.000000  0.000000  0.500000  1
  N  N22  1  0.000000  0.000000  0.000000  1
