# generated using pymatgen
data_Er8MoRuI8
_symmetry_space_group_name_H-M   'P 1'
_cell_length_a   11.06586937
_cell_length_b   11.06586938
_cell_length_c   6.16396512
_cell_angle_alpha   90.41455825
_cell_angle_beta   90.41455346
_cell_angle_gamma   89.99669283
_symmetry_Int_Tables_number   1
_chemical_formula_structural   Er8MoRuI8
_chemical_formula_sum   'Er8 Mo1 Ru1 I8'
_cell_volume   754.75937430
_cell_formula_units_Z   1
loop_
 _symmetry_equiv_pos_site_id
 _symmetry_equiv_pos_as_xyz
  1  'x, y, z'
loop_
 _atom_site_type_symbol
 _atom_site_label
 _atom_site_symmetry_multiplicity
 _atom_site_fract_x
 _atom_site_fract_y
 _atom_site_fract_z
 _atom_site_occupancy
  Er  Er0  1  0.200879  0.917606  0.001836  1
  Er  Er1  1  0.799105  0.082408  0.996768  1
  Er  Er2  1  0.082394  0.799121  0.498164  1
  Er  Er3  1  0.917592  0.200895  0.503232  1
  Er  Er4  1  0.799048  0.917616  0.497042  1
  Er  Er5  1  0.200942  0.082444  0.504368  1
  Er  Er6  1  0.082384  0.200952  0.002958  1
  Er  Er7  1  0.917556  0.799058  0.995632  1
  Mo  Mo8  1  0.000130  0.999870  0.750000  1
  Ru  Ru9  1  0.999884  0.000116  0.250000  1
  I  I10  1  0.362464  0.847159  0.495080  1
  I  I11  1  0.637551  0.152833  0.504955  1
  I  I12  1  0.152841  0.637536  0.004920  1
  I  I13  1  0.847167  0.362449  0.995045  1
  I  I14  1  0.362247  0.153090  0.013405  1
  I  I15  1  0.637783  0.846877  0.986546  1
  I  I16  1  0.846910  0.637753  0.486595  1
  I  I17  1  0.153123  0.362217  0.513454  1
