# generated using pymatgen
data_LiNpF6
_symmetry_space_group_name_H-M   'P 1'
_cell_length_a   5.80955192
_cell_length_b   5.80955177
_cell_length_c   5.80955099
_cell_angle_alpha   55.63190338
_cell_angle_beta   55.63191212
_cell_angle_gamma   55.63191319
_symmetry_Int_Tables_number   1
_chemical_formula_structural   LiNpF6
_chemical_formula_sum   'Li1 Np1 F6'
_cell_volume   124.59423866
_cell_formula_units_Z   1
loop_
 _symmetry_equiv_pos_site_id
 _symmetry_equiv_pos_as_xyz
  1  'x, y, z'
loop_
 _atom_site_type_symbol
 _atom_site_label
 _atom_site_symmetry_multiplicity
 _atom_site_fract_x
 _atom_site_fract_y
 _atom_site_fract_z
 _atom_site_occupancy
  Li  Li0  1  0.500000  0.500000  0.500000  1
  Np  Np1  1  0.000000  0.000000  0.000000  1
  F  F2  1  0.142021  0.748980  0.360671  1
  F  F3  1  0.748980  0.360671  0.142021  1
  F  F4  1  0.360671  0.142021  0.748980  1
  F  F5  1  0.251020  0.639329  0.857979  1
  F  F6  1  0.639329  0.857979  0.251020  1
  F  F7  1  0.857979  0.251020  0.639329  1
