# generated using pymatgen
data_Dy6Fe5Co18
_symmetry_space_group_name_H-M   'P 1'
_cell_length_a   8.35937882
_cell_length_b   8.35738138
_cell_length_c   8.38174400
_cell_angle_alpha   59.90352224
_cell_angle_beta   59.91145697
_cell_angle_gamma   60.19274593
_symmetry_Int_Tables_number   1
_chemical_formula_structural   Dy6Fe5Co18
_chemical_formula_sum   'Dy6 Fe5 Co18'
_cell_volume   414.07764236
_cell_formula_units_Z   1
loop_
 _symmetry_equiv_pos_site_id
 _symmetry_equiv_pos_as_xyz
  1  'x, y, z'
loop_
 _atom_site_type_symbol
 _atom_site_label
 _atom_site_symmetry_multiplicity
 _atom_site_fract_x
 _atom_site_fract_y
 _atom_site_fract_z
 _atom_site_occupancy
  Dy  Dy0  1  0.712780  0.715969  0.285626  1
  Dy  Dy1  1  0.288245  0.713431  0.286336  1
  Dy  Dy2  1  0.711755  0.286569  0.288013  1
  Dy  Dy3  1  0.287220  0.284031  0.714374  1
  Dy  Dy4  1  0.711755  0.286569  0.713664  1
  Dy  Dy5  1  0.288245  0.713431  0.711987  1
  Fe  Fe6  1  0.000000  0.000000  0.000000  1
  Fe  Fe7  1  0.000000  0.000000  0.500000  1
  Fe  Fe8  1  0.000000  0.500000  0.500000  1
  Fe  Fe9  1  0.500000  0.500000  0.000000  1
  Fe  Fe10  1  0.000000  0.500000  0.000000  1
  Co  Co11  1  0.500000  0.000000  0.500000  1
  Co  Co12  1  0.500000  0.000000  0.000000  1
  Co  Co13  1  0.875808  0.877398  0.370553  1
  Co  Co14  1  0.876740  0.367771  0.877745  1
  Co  Co15  1  0.373225  0.875800  0.875487  1
  Co  Co16  1  0.875808  0.877398  0.876241  1
  Co  Co17  1  0.124192  0.122602  0.629447  1
  Co  Co18  1  0.123260  0.632229  0.122255  1
  Co  Co19  1  0.626775  0.124200  0.124513  1
  Co  Co20  1  0.124192  0.122602  0.123759  1
  Co  Co21  1  0.677507  0.677777  0.968410  1
  Co  Co22  1  0.676874  0.967663  0.677732  1
  Co  Co23  1  0.969788  0.675911  0.677150  1
  Co  Co24  1  0.677507  0.677777  0.676307  1
  Co  Co25  1  0.322493  0.322223  0.031590  1
  Co  Co26  1  0.323126  0.032337  0.322268  1
  Co  Co27  1  0.030212  0.324089  0.322850  1
  Co  Co28  1  0.322493  0.322223  0.323693  1
