# generated using pymatgen
data_Ho6Sn6Ir5Pt
_symmetry_space_group_name_H-M   'P 1'
_cell_length_a   7.51485300
_cell_length_b   7.51485409
_cell_length_c   7.84009300
_cell_angle_alpha   90.00000000
_cell_angle_beta   90.00000000
_cell_angle_gamma   120.00000077
_symmetry_Int_Tables_number   1
_chemical_formula_structural   Ho6Sn6Ir5Pt
_chemical_formula_sum   'Ho6 Sn6 Ir5 Pt1'
_cell_volume   383.43599976
_cell_formula_units_Z   1
loop_
 _symmetry_equiv_pos_site_id
 _symmetry_equiv_pos_as_xyz
  1  'x, y, z'
loop_
 _atom_site_type_symbol
 _atom_site_label
 _atom_site_symmetry_multiplicity
 _atom_site_fract_x
 _atom_site_fract_y
 _atom_site_fract_z
 _atom_site_occupancy
  Ho  Ho0  1  0.402634  0.997425  0.247992  1
  Ho  Ho1  1  0.594791  0.597366  0.247992  1
  Ho  Ho2  1  0.002575  0.405209  0.247992  1
  Ho  Ho3  1  0.400899  0.994167  0.752084  1
  Ho  Ho4  1  0.593268  0.599101  0.752084  1
  Ho  Ho5  1  0.005833  0.406732  0.752084  1
  Sn  Sn6  1  0.262326  0.260480  0.999795  1
  Sn  Sn7  1  0.998153  0.737674  0.999795  1
  Sn  Sn8  1  0.002705  0.742598  0.499749  1
  Sn  Sn9  1  0.739891  0.997295  0.499749  1
  Sn  Sn10  1  0.257402  0.260109  0.499749  1
  Sn  Sn11  1  0.739520  0.001847  0.999795  1
  Ir  Ir12  1  0.000000  0.000000  0.750933  1
  Ir  Ir13  1  0.000000  0.000000  0.248747  1
  Ir  Ir14  1  0.666667  0.333333  0.997183  1
  Ir  Ir15  1  0.333333  0.666667  0.497139  1
  Ir  Ir16  1  0.333333  0.666667  0.002832  1
  Pt  Pt17  1  0.666667  0.333333  0.504305  1
