# generated using pymatgen
data_Sc10NiPd3
_symmetry_space_group_name_H-M   'P 1'
_cell_length_a   8.75150800
_cell_length_b   8.75150865
_cell_length_c   8.56724600
_cell_angle_alpha   90.00000000
_cell_angle_beta   90.00000000
_cell_angle_gamma   119.99999754
_symmetry_Int_Tables_number   1
_chemical_formula_structural   Sc10NiPd3
_chemical_formula_sum   'Sc20 Ni2 Pd6'
_cell_volume   568.24771805
_cell_formula_units_Z   2
loop_
 _symmetry_equiv_pos_site_id
 _symmetry_equiv_pos_as_xyz
  1  'x, y, z'
loop_
 _atom_site_type_symbol
 _atom_site_label
 _atom_site_symmetry_multiplicity
 _atom_site_fract_x
 _atom_site_fract_y
 _atom_site_fract_z
 _atom_site_occupancy
  Sc  Sc0  1  0.000000  0.000000  0.500000  1
  Sc  Sc1  1  0.000000  0.000000  0.000000  1
  Sc  Sc2  1  0.542354  0.457646  0.250000  1
  Sc  Sc3  1  0.542354  0.084708  0.250000  1
  Sc  Sc4  1  0.915292  0.457646  0.250000  1
  Sc  Sc5  1  0.457646  0.542354  0.750000  1
  Sc  Sc6  1  0.457646  0.915292  0.750000  1
  Sc  Sc7  1  0.084708  0.542354  0.750000  1
  Sc  Sc8  1  0.206263  0.793737  0.441357  1
  Sc  Sc9  1  0.206263  0.412527  0.441357  1
  Sc  Sc10  1  0.587473  0.793737  0.441357  1
  Sc  Sc11  1  0.793737  0.206263  0.558643  1
  Sc  Sc12  1  0.793737  0.587473  0.558643  1
  Sc  Sc13  1  0.412527  0.206263  0.558643  1
  Sc  Sc14  1  0.793737  0.206263  0.941357  1
  Sc  Sc15  1  0.793737  0.587473  0.941357  1
  Sc  Sc16  1  0.412527  0.206263  0.941357  1
  Sc  Sc17  1  0.206263  0.793737  0.058643  1
  Sc  Sc18  1  0.206263  0.412527  0.058643  1
  Sc  Sc19  1  0.587473  0.793737  0.058643  1
  Ni  Ni20  1  0.333333  0.666667  0.250000  1
  Ni  Ni21  1  0.666667  0.333333  0.750000  1
  Pd  Pd22  1  0.880426  0.119574  0.250000  1
  Pd  Pd23  1  0.880426  0.760854  0.250000  1
  Pd  Pd24  1  0.239146  0.119574  0.250000  1
  Pd  Pd25  1  0.119574  0.880426  0.750000  1
  Pd  Pd26  1  0.119574  0.239146  0.750000  1
  Pd  Pd27  1  0.760854  0.880426  0.750000  1
