# generated using pymatgen
data_La4Si2GePd27
_symmetry_space_group_name_H-M   'P 1'
_cell_length_a   9.02227662
_cell_length_b   9.02227662
_cell_length_c   7.17174778
_cell_angle_alpha   90.41049056
_cell_angle_beta   90.41049056
_cell_angle_gamma   88.58780183
_symmetry_Int_Tables_number   1
_chemical_formula_structural   La4Si2GePd27
_chemical_formula_sum   'La4 Si2 Ge1 Pd27'
_cell_volume   583.58429729
_cell_formula_units_Z   1
loop_
 _symmetry_equiv_pos_site_id
 _symmetry_equiv_pos_as_xyz
  1  'x, y, z'
loop_
 _atom_site_type_symbol
 _atom_site_label
 _atom_site_symmetry_multiplicity
 _atom_site_fract_x
 _atom_site_fract_y
 _atom_site_fract_z
 _atom_site_occupancy
  La  La0  1  0.511807  0.011807  0.934292  1
  La  La1  1  0.988193  0.488193  0.065708  1
  La  La2  1  0.001392  0.998608  0.500000  1
  La  La3  1  0.498608  0.501392  0.500000  1
  Si  Si4  1  0.502985  0.002985  0.445721  1
  Si  Si5  1  0.997015  0.497015  0.554279  1
  Ge  Ge6  1  0.250000  0.750000  0.000000  1
  Pd  Pd7  1  0.338887  0.838887  0.602853  1
  Pd  Pd8  1  0.332581  0.165615  0.618737  1
  Pd  Pd9  1  0.665615  0.832581  0.618737  1
  Pd  Pd10  1  0.665940  0.165940  0.612101  1
  Pd  Pd11  1  0.161113  0.661113  0.397147  1
  Pd  Pd12  1  0.167419  0.334385  0.381263  1
  Pd  Pd13  1  0.834385  0.667419  0.381263  1
  Pd  Pd14  1  0.834060  0.334060  0.387899  1
  Pd  Pd15  1  0.500453  0.772486  0.255120  1
  Pd  Pd16  1  0.495999  0.232751  0.257944  1
  Pd  Pd17  1  0.272486  0.000453  0.255120  1
  Pd  Pd18  1  0.732751  0.995999  0.257944  1
  Pd  Pd19  1  0.999547  0.727514  0.744880  1
  Pd  Pd20  1  0.004001  0.267249  0.742056  1
  Pd  Pd21  1  0.227514  0.499547  0.744880  1
  Pd  Pd22  1  0.767249  0.504001  0.742056  1
  Pd  Pd23  1  0.498153  0.355381  0.854462  1
  Pd  Pd24  1  0.488343  0.665817  0.866211  1
  Pd  Pd25  1  0.855381  0.998153  0.854462  1
  Pd  Pd26  1  0.165817  0.988343  0.866211  1
  Pd  Pd27  1  0.001847  0.144619  0.145538  1
  Pd  Pd28  1  0.011657  0.834183  0.133789  1
  Pd  Pd29  1  0.644619  0.501847  0.145538  1
  Pd  Pd30  1  0.334183  0.511657  0.133789  1
  Pd  Pd31  1  0.250000  0.250000  0.000000  1
  Pd  Pd32  1  0.750000  0.750000  0.000000  1
  Pd  Pd33  1  0.750000  0.250000  0.000000  1
