# generated using pymatgen
data_Er9Tm(IrPt2)2
_symmetry_space_group_name_H-M   'P 1'
_cell_length_a   10.97463700
_cell_length_b   10.97463700
_cell_length_c   6.26240900
_cell_angle_alpha   90.00000000
_cell_angle_beta   90.00000000
_cell_angle_gamma   90.00000000
_symmetry_Int_Tables_number   1
_chemical_formula_structural   Er9Tm(IrPt2)2
_chemical_formula_sum   'Er18 Tm2 Ir4 Pt8'
_cell_volume   754.26118095
_cell_formula_units_Z   2
loop_
 _symmetry_equiv_pos_site_id
 _symmetry_equiv_pos_as_xyz
  1  'x, y, z'
loop_
 _atom_site_type_symbol
 _atom_site_label
 _atom_site_symmetry_multiplicity
 _atom_site_fract_x
 _atom_site_fract_y
 _atom_site_fract_z
 _atom_site_occupancy
  Er  Er0  1  0.294715  0.087303  0.373682  1
  Er  Er1  1  0.294715  0.912697  0.873682  1
  Er  Er2  1  0.705285  0.087303  0.873682  1
  Er  Er3  1  0.705285  0.912697  0.373682  1
  Er  Er4  1  0.587227  0.794412  0.873848  1
  Er  Er5  1  0.587227  0.205588  0.373848  1
  Er  Er6  1  0.412773  0.794412  0.373848  1
  Er  Er7  1  0.412773  0.205588  0.873848  1
  Er  Er8  1  0.205588  0.412773  0.626152  1
  Er  Er9  1  0.205588  0.587227  0.126152  1
  Er  Er10  1  0.794412  0.412773  0.126152  1
  Er  Er11  1  0.794412  0.587227  0.626152  1
  Er  Er12  1  0.912697  0.705285  0.126318  1
  Er  Er13  1  0.912697  0.294715  0.626318  1
  Er  Er14  1  0.087303  0.705285  0.626318  1
  Er  Er15  1  0.087303  0.294715  0.126318  1
  Er  Er16  1  0.000000  0.000000  0.500000  1
  Er  Er17  1  0.000000  0.000000  0.000000  1
  Tm  Tm18  1  0.500000  0.500000  0.000000  1
  Tm  Tm19  1  0.500000  0.500000  0.500000  1
  Ir  Ir20  1  0.500000  0.000000  0.120819  1
  Ir  Ir21  1  0.500000  0.000000  0.620819  1
  Ir  Ir22  1  0.000000  0.500000  0.879181  1
  Ir  Ir23  1  0.000000  0.500000  0.379181  1
  Pt  Pt24  1  0.846268  0.153732  0.250000  1
  Pt  Pt25  1  0.846268  0.846268  0.750000  1
  Pt  Pt26  1  0.153732  0.153732  0.750000  1
  Pt  Pt27  1  0.153732  0.846268  0.250000  1
  Pt  Pt28  1  0.653090  0.346910  0.750000  1
  Pt  Pt29  1  0.653090  0.653090  0.250000  1
  Pt  Pt30  1  0.346910  0.346910  0.250000  1
  Pt  Pt31  1  0.346910  0.653090  0.750000  1
