# generated using pymatgen
data_CaY7(Sn11Ru3)2
_symmetry_space_group_name_H-M   'P 1'
_cell_length_a   9.83813000
_cell_length_b   9.83812820
_cell_length_c   10.13411600
_cell_angle_alpha   90.00000000
_cell_angle_beta   90.00000000
_cell_angle_gamma   119.99999934
_symmetry_Int_Tables_number   1
_chemical_formula_structural   CaY7(Sn11Ru3)2
_chemical_formula_sum   'Ca1 Y7 Sn22 Ru6'
_cell_volume   849.45727483
_cell_formula_units_Z   1
loop_
 _symmetry_equiv_pos_site_id
 _symmetry_equiv_pos_as_xyz
  1  'x, y, z'
loop_
 _atom_site_type_symbol
 _atom_site_label
 _atom_site_symmetry_multiplicity
 _atom_site_fract_x
 _atom_site_fract_y
 _atom_site_fract_z
 _atom_site_occupancy
  Ca  Ca0  1  0.000000  0.000000  0.500000  1
  Y  Y1  1  0.000000  0.000000  0.000000  1
  Y  Y2  1  0.517828  0.482172  0.692224  1
  Y  Y3  1  0.517828  0.035656  0.692224  1
  Y  Y4  1  0.964344  0.482172  0.692224  1
  Y  Y5  1  0.035656  0.517828  0.307776  1
  Y  Y6  1  0.482172  0.964344  0.307776  1
  Y  Y7  1  0.482172  0.517828  0.307776  1
  Sn  Sn8  1  0.666667  0.333333  0.178956  1
  Sn  Sn9  1  0.666667  0.333333  0.875234  1
  Sn  Sn10  1  0.333333  0.666667  0.124766  1
  Sn  Sn11  1  0.349089  0.349089  0.000000  1
  Sn  Sn12  1  0.000000  0.650911  0.000000  1
  Sn  Sn13  1  0.650911  0.000000  0.000000  1
  Sn  Sn14  1  0.650911  0.650911  0.000000  1
  Sn  Sn15  1  0.333333  0.666667  0.821044  1
  Sn  Sn16  1  0.440462  0.220232  0.460315  1
  Sn  Sn17  1  0.220232  0.779768  0.539685  1
  Sn  Sn18  1  0.220232  0.440462  0.539685  1
  Sn  Sn19  1  0.559538  0.779768  0.539685  1
  Sn  Sn20  1  0.127259  0.872741  0.258994  1
  Sn  Sn21  1  0.779768  0.559538  0.460315  1
  Sn  Sn22  1  0.779768  0.220232  0.460315  1
  Sn  Sn23  1  0.349089  0.000000  0.000000  1
  Sn  Sn24  1  0.127259  0.254517  0.258994  1
  Sn  Sn25  1  0.745483  0.872741  0.258994  1
  Sn  Sn26  1  0.254517  0.127259  0.741006  1
  Sn  Sn27  1  0.872741  0.745483  0.741006  1
  Sn  Sn28  1  0.872741  0.127259  0.741006  1
  Sn  Sn29  1  0.000000  0.349089  0.000000  1
  Ru  Ru30  1  0.168074  0.831926  0.796043  1
  Ru  Ru31  1  0.168074  0.336147  0.796043  1
  Ru  Ru32  1  0.663853  0.831926  0.796043  1
  Ru  Ru33  1  0.336147  0.168074  0.203957  1
  Ru  Ru34  1  0.831926  0.663853  0.203957  1
  Ru  Ru35  1  0.831926  0.168074  0.203957  1
