# generated using pymatgen
data_Ho5Tm15Sn16
_symmetry_space_group_name_H-M   'P 1'
_cell_length_a   7.96879200
_cell_length_b   8.08180529
_cell_length_c   15.29131180
_cell_angle_alpha   90.00191927
_cell_angle_beta   89.88585912
_cell_angle_gamma   89.96507789
_symmetry_Int_Tables_number   1
_chemical_formula_structural   Ho5Tm15Sn16
_chemical_formula_sum   'Ho5 Tm15 Sn16'
_cell_volume   984.79237130
_cell_formula_units_Z   1
loop_
 _symmetry_equiv_pos_site_id
 _symmetry_equiv_pos_as_xyz
  1  'x, y, z'
loop_
 _atom_site_type_symbol
 _atom_site_label
 _atom_site_symmetry_multiplicity
 _atom_site_fract_x
 _atom_site_fract_y
 _atom_site_fract_z
 _atom_site_occupancy
  Ho  Ho0  1  0.978739  0.820859  0.096545  1
  Ho  Ho1  1  0.478860  0.678544  0.096076  1
  Ho  Ho2  1  0.978076  0.821167  0.403496  1
  Ho  Ho3  1  0.521641  0.321318  0.596398  1
  Ho  Ho4  1  0.020722  0.178899  0.903887  1
  Tm  Tm5  1  0.367065  0.837652  0.876812  1
  Tm  Tm6  1  0.868126  0.662037  0.622932  1
  Tm  Tm7  1  0.631612  0.162192  0.377098  1
  Tm  Tm8  1  0.132381  0.337794  0.123087  1
  Tm  Tm9  1  0.632353  0.162219  0.123212  1
  Tm  Tm10  1  0.131571  0.337915  0.377285  1
  Tm  Tm11  1  0.368626  0.838013  0.623018  1
  Tm  Tm12  1  0.867565  0.661999  0.876807  1
  Tm  Tm13  1  0.522161  0.321090  0.903159  1
  Tm  Tm14  1  0.022904  0.178800  0.597099  1
  Tm  Tm15  1  0.477190  0.678824  0.403093  1
  Tm  Tm16  1  0.198786  0.504216  0.749848  1
  Tm  Tm17  1  0.698798  0.995756  0.749910  1
  Tm  Tm18  1  0.801204  0.495751  0.250238  1
  Tm  Tm19  1  0.301413  0.004420  0.250252  1
  Sn  Sn20  1  0.294450  0.038629  0.041472  1
  Sn  Sn21  1  0.792230  0.463010  0.458298  1
  Sn  Sn22  1  0.707655  0.962997  0.541733  1
  Sn  Sn23  1  0.206777  0.537299  0.958190  1
  Sn  Sn24  1  0.704573  0.961481  0.958576  1
  Sn  Sn25  1  0.206718  0.538542  0.541024  1
  Sn  Sn26  1  0.293404  0.038276  0.458874  1
  Sn  Sn27  1  0.793650  0.460838  0.040969  1
  Sn  Sn28  1  0.564824  0.618367  0.750015  1
  Sn  Sn29  1  0.064608  0.881454  0.749956  1
  Sn  Sn30  1  0.435224  0.381225  0.249972  1
  Sn  Sn31  1  0.935300  0.119189  0.250178  1
  Sn  Sn32  1  0.332709  0.149935  0.750392  1
  Sn  Sn33  1  0.832789  0.349898  0.749838  1
  Sn  Sn34  1  0.667235  0.849863  0.250266  1
  Sn  Sn35  1  0.168061  0.649530  0.249992  1
