# generated using pymatgen
data_YbY7(B6Ru)4
_symmetry_space_group_name_H-M   'P 1'
_cell_length_a   3.66696000
_cell_length_b   9.16339495
_cell_length_c   11.54981771
_cell_angle_alpha   89.90812349
_cell_angle_beta   90.00000000
_cell_angle_gamma   90.00000000
_symmetry_Int_Tables_number   1
_chemical_formula_structural   YbY7(B6Ru)4
_chemical_formula_sum   'Yb1 Y7 B24 Ru4'
_cell_volume   388.09419736
_cell_formula_units_Z   1
loop_
 _symmetry_equiv_pos_site_id
 _symmetry_equiv_pos_as_xyz
  1  'x, y, z'
loop_
 _atom_site_type_symbol
 _atom_site_label
 _atom_site_symmetry_multiplicity
 _atom_site_fract_x
 _atom_site_fract_y
 _atom_site_fract_z
 _atom_site_occupancy
  Yb  Yb0  1  0.000000  0.324293  0.413515  1
  Y  Y1  1  0.000000  0.675327  0.584880  1
  Y  Y2  1  0.000000  0.823017  0.086624  1
  Y  Y3  1  0.000000  0.177354  0.914414  1
  Y  Y4  1  0.000000  0.944018  0.371406  1
  Y  Y5  1  0.000000  0.058163  0.627714  1
  Y  Y6  1  0.000000  0.442830  0.129565  1
  Y  Y7  1  0.000000  0.556188  0.872346  1
  B  B8  1  0.500000  0.553495  0.432348  1
  B  B9  1  0.500000  0.445627  0.567183  1
  B  B10  1  0.500000  0.053220  0.066841  1
  B  B11  1  0.500000  0.946093  0.932422  1
  B  B12  1  0.500000  0.747358  0.419259  1
  B  B13  1  0.500000  0.252987  0.580465  1
  B  B14  1  0.500000  0.246976  0.080701  1
  B  B15  1  0.500000  0.752366  0.919656  1
  B  B16  1  0.500000  0.790978  0.266561  1
  B  B17  1  0.500000  0.210172  0.733577  1
  B  B18  1  0.500000  0.289379  0.233746  1
  B  B19  1  0.500000  0.709799  0.766400  1
  B  B20  1  0.500000  0.632085  0.186504  1
  B  B21  1  0.500000  0.368210  0.814621  1
  B  B22  1  0.500000  0.131835  0.313862  1
  B  B23  1  0.500000  0.868323  0.685547  1
  B  B24  1  0.500000  0.983817  0.212059  1
  B  B25  1  0.500000  0.016378  0.787215  1
  B  B26  1  0.500000  0.483885  0.288138  1
  B  B27  1  0.500000  0.516091  0.712402  1
  B  B28  1  0.500000  0.609144  0.030663  1
  B  B29  1  0.500000  0.390846  0.970221  1
  B  B30  1  0.500000  0.106089  0.470381  1
  B  B31  1  0.500000  0.893104  0.529612  1
  Ru  Ru32  1  0.000000  0.639431  0.320752  1
  Ru  Ru33  1  0.000000  0.362284  0.679651  1
  Ru  Ru34  1  0.000000  0.136426  0.177469  1
  Ru  Ru35  1  0.000000  0.862410  0.821281  1
