# generated using pymatgen
data_Pa2Mn3Cr2(PRh)7
_symmetry_space_group_name_H-M   'P 1'
_cell_length_a   9.42704240
_cell_length_b   9.45938508
_cell_length_c   3.82243200
_cell_angle_alpha   90.00000000
_cell_angle_beta   90.00000000
_cell_angle_gamma   120.23828370
_symmetry_Int_Tables_number   1
_chemical_formula_structural   Pa2Mn3Cr2(PRh)7
_chemical_formula_sum   'Pa2 Mn3 Cr2 P7 Rh7'
_cell_volume   294.48349825
_cell_formula_units_Z   1
loop_
 _symmetry_equiv_pos_site_id
 _symmetry_equiv_pos_as_xyz
  1  'x, y, z'
loop_
 _atom_site_type_symbol
 _atom_site_label
 _atom_site_symmetry_multiplicity
 _atom_site_fract_x
 _atom_site_fract_y
 _atom_site_fract_z
 _atom_site_occupancy
  Pa  Pa0  1  0.664022  0.331412  0.000000  1
  Pa  Pa1  1  0.335622  0.665978  0.500000  1
  Mn  Mn2  1  0.266408  0.113874  0.000000  1
  Mn  Mn3  1  0.850447  0.731756  0.000000  1
  Mn  Mn4  1  0.882683  0.158853  0.000000  1
  Cr  Cr5  1  0.779711  0.901934  0.500000  1
  Cr  Cr6  1  0.117480  0.225822  0.500000  1
  P  P7  1  0.294509  0.894596  0.000000  1
  P  P8  1  0.606231  0.709944  0.000000  1
  P  P9  1  0.108023  0.398913  0.000000  1
  P  P10  1  0.385183  0.275257  0.500000  1
  P  P11  1  0.880675  0.604624  0.500000  1
  P  P12  1  0.724795  0.111822  0.500000  1
  P  P13  1  0.995044  0.003547  0.000000  1
  Rh  Rh14  1  0.070070  0.629963  0.000000  1
  Rh  Rh15  1  0.565289  0.930808  0.000000  1
  Rh  Rh16  1  0.368023  0.435543  0.000000  1
  Rh  Rh17  1  0.448171  0.061079  0.500000  1
  Rh  Rh18  1  0.614498  0.558599  0.500000  1
  Rh  Rh19  1  0.938191  0.386230  0.500000  1
  Rh  Rh20  1  0.104921  0.869448  0.500000  1
