# generated using pymatgen
data_Zr3Ta7N12
_symmetry_space_group_name_H-M   'P 1'
_cell_length_a   5.30332800
_cell_length_b   5.30332820
_cell_length_c   10.57722400
_cell_angle_alpha   90.00000000
_cell_angle_beta   90.00000000
_cell_angle_gamma   119.99999877
_symmetry_Int_Tables_number   1
_chemical_formula_structural   Zr3Ta7N12
_chemical_formula_sum   'Zr3 Ta7 N12'
_cell_volume   257.63171902
_cell_formula_units_Z   1
loop_
 _symmetry_equiv_pos_site_id
 _symmetry_equiv_pos_as_xyz
  1  'x, y, z'
loop_
 _atom_site_type_symbol
 _atom_site_label
 _atom_site_symmetry_multiplicity
 _atom_site_fract_x
 _atom_site_fract_y
 _atom_site_fract_z
 _atom_site_occupancy
  Zr  Zr0  1  0.666667  0.333333  0.000000  1
  Zr  Zr1  1  0.333333  0.666667  0.000000  1
  Zr  Zr2  1  0.333333  0.666667  0.500000  1
  Ta  Ta3  1  0.676624  0.678918  0.747641  1
  Ta  Ta4  1  0.321082  0.997707  0.747641  1
  Ta  Ta5  1  0.002293  0.323376  0.747641  1
  Ta  Ta6  1  0.321082  0.323376  0.252359  1
  Ta  Ta7  1  0.676624  0.997707  0.252359  1
  Ta  Ta8  1  0.002293  0.678918  0.252359  1
  Ta  Ta9  1  0.666667  0.333333  0.500000  1
  N  N10  1  0.663068  0.652492  0.376960  1
  N  N11  1  0.347508  0.010576  0.376960  1
  N  N12  1  0.989424  0.336932  0.376960  1
  N  N13  1  0.347508  0.336932  0.623040  1
  N  N14  1  0.663068  0.010576  0.623040  1
  N  N15  1  0.989424  0.652492  0.623040  1
  N  N16  1  0.341030  0.340540  0.869854  1
  N  N17  1  0.659460  0.000489  0.869854  1
  N  N18  1  0.999511  0.658970  0.869854  1
  N  N19  1  0.659460  0.658970  0.130146  1
  N  N20  1  0.341030  0.000489  0.130146  1
  N  N21  1  0.999511  0.340540  0.130146  1
