# generated using pymatgen
data_La4Dy5HoRu4
_symmetry_space_group_name_H-M   'P 1'
_cell_length_a   6.51197605
_cell_length_b   7.24751055
_cell_length_c   8.80401811
_cell_angle_alpha   96.30981152
_cell_angle_beta   111.70512478
_cell_angle_gamma   89.99999656
_symmetry_Int_Tables_number   1
_chemical_formula_structural   La4Dy5HoRu4
_chemical_formula_sum   'La4 Dy5 Ho1 Ru4'
_cell_volume   383.34061282
_cell_formula_units_Z   1
loop_
 _symmetry_equiv_pos_site_id
 _symmetry_equiv_pos_as_xyz
  1  'x, y, z'
loop_
 _atom_site_type_symbol
 _atom_site_label
 _atom_site_symmetry_multiplicity
 _atom_site_fract_x
 _atom_site_fract_y
 _atom_site_fract_z
 _atom_site_occupancy
  La  La0  1  0.978324  0.911583  0.193906  1
  La  La1  1  0.784417  0.588417  0.806094  1
  La  La2  1  0.021657  0.088566  0.806119  1
  La  La3  1  0.215538  0.411434  0.193881  1
  Dy  Dy4  1  0.636583  0.814971  0.431133  1
  Dy  Dy5  1  0.205449  0.685029  0.568867  1
  Dy  Dy6  1  0.363475  0.185094  0.568928  1
  Dy  Dy7  1  0.794548  0.314906  0.431072  1
  Dy  Dy8  1  0.425441  0.750000  0.000000  1
  Ho  Ho9  1  0.574473  0.250000  0.000000  1
  Ru  Ru10  1  0.824911  0.580843  0.224515  1
  Ru  Ru11  1  0.600396  0.919157  0.775485  1
  Ru  Ru12  1  0.175139  0.418996  0.775490  1
  Ru  Ru13  1  0.399649  0.081004  0.224510  1
