# generated using pymatgen
data_DyErLu6(Si3Rh)4
_symmetry_space_group_name_H-M   'P 1'
_cell_length_a   8.12009100
_cell_length_b   8.12009117
_cell_length_c   7.73461400
_cell_angle_alpha   90.00000000
_cell_angle_beta   90.00000000
_cell_angle_gamma   120.00000336
_symmetry_Int_Tables_number   1
_chemical_formula_structural   DyErLu6(Si3Rh)4
_chemical_formula_sum   'Dy1 Er1 Lu6 Si12 Rh4'
_cell_volume   441.66304652
_cell_formula_units_Z   1
loop_
 _symmetry_equiv_pos_site_id
 _symmetry_equiv_pos_as_xyz
  1  'x, y, z'
loop_
 _atom_site_type_symbol
 _atom_site_label
 _atom_site_symmetry_multiplicity
 _atom_site_fract_x
 _atom_site_fract_y
 _atom_site_fract_z
 _atom_site_occupancy
  Dy  Dy0  1  0.000000  0.000000  0.750000  1
  Er  Er1  1  0.000000  0.000000  0.250000  1
  Lu  Lu2  1  0.981401  0.490701  0.250000  1
  Lu  Lu3  1  0.509299  0.490701  0.250000  1
  Lu  Lu4  1  0.490698  0.981396  0.750000  1
  Lu  Lu5  1  0.018604  0.509302  0.750000  1
  Lu  Lu6  1  0.490698  0.509302  0.750000  1
  Lu  Lu7  1  0.509299  0.018599  0.250000  1
  Si  Si8  1  0.167223  0.832777  0.499791  1
  Si  Si9  1  0.167223  0.334447  0.499791  1
  Si  Si10  1  0.665553  0.832777  0.499791  1
  Si  Si11  1  0.334418  0.167209  0.000101  1
  Si  Si12  1  0.832791  0.665582  0.499899  1
  Si  Si13  1  0.832791  0.167209  0.000101  1
  Si  Si14  1  0.832791  0.665582  0.000101  1
  Si  Si15  1  0.167223  0.334447  0.000209  1
  Si  Si16  1  0.665553  0.832777  0.000209  1
  Si  Si17  1  0.334418  0.167209  0.499899  1
  Si  Si18  1  0.832791  0.167209  0.499899  1
  Si  Si19  1  0.167223  0.832777  0.000209  1
  Rh  Rh20  1  0.333333  0.666667  0.034912  1
  Rh  Rh21  1  0.666667  0.333333  0.965222  1
  Rh  Rh22  1  0.666667  0.333333  0.534778  1
  Rh  Rh23  1  0.333333  0.666667  0.465088  1
