# generated using pymatgen
data_SrLu3(Ga8Pt3)3
_symmetry_space_group_name_H-M   'P 1'
_cell_length_a   7.56258930
_cell_length_b   7.58283609
_cell_length_c   13.26103300
_cell_angle_alpha   84.64935295
_cell_angle_beta   79.22448665
_cell_angle_gamma   60.02691664
_symmetry_Int_Tables_number   1
_chemical_formula_structural   SrLu3(Ga8Pt3)3
_chemical_formula_sum   'Sr1 Lu3 Ga24 Pt9'
_cell_volume   647.14524847
_cell_formula_units_Z   1
loop_
 _symmetry_equiv_pos_site_id
 _symmetry_equiv_pos_as_xyz
  1  'x, y, z'
loop_
 _atom_site_type_symbol
 _atom_site_label
 _atom_site_symmetry_multiplicity
 _atom_site_fract_x
 _atom_site_fract_y
 _atom_site_fract_z
 _atom_site_occupancy
  Sr  Sr0  1  0.394037  0.167496  0.811124  1
  Lu  Lu1  1  0.603468  0.833418  0.192454  1
  Lu  Lu2  1  0.731032  0.499844  0.808234  1
  Lu  Lu3  1  0.267591  0.500408  0.191621  1
  Ga  Ga4  1  0.688287  0.829864  0.941970  1
  Ga  Ga5  1  0.315195  0.165853  0.065713  1
  Ga  Ga6  1  0.146426  0.832463  0.559964  1
  Ga  Ga7  1  0.854105  0.167582  0.438100  1
  Ga  Ga8  1  0.480243  0.166309  0.556037  1
  Ga  Ga9  1  0.520859  0.833469  0.441572  1
  Ga  Ga10  1  0.222486  0.164837  0.322333  1
  Ga  Ga11  1  0.781355  0.833688  0.672389  1
  Ga  Ga12  1  0.437691  0.505483  0.671770  1
  Ga  Ga13  1  0.563920  0.495928  0.323287  1
  Ga  Ga14  1  0.106192  0.162696  0.670817  1
  Ga  Ga15  1  0.893666  0.837315  0.324036  1
  Ga  Ga16  1  0.359397  0.500237  0.942041  1
  Ga  Ga17  1  0.638348  0.505307  0.063278  1
  Ga  Ga18  1  0.013867  0.170973  0.947970  1
  Ga  Ga19  1  0.979489  0.828207  0.058823  1
  Ga  Ga20  1  0.186507  0.499772  0.440957  1
  Ga  Ga21  1  0.813999  0.500327  0.557240  1
  Ga  Ga22  1  0.735379  0.164100  0.182301  1
  Ga  Ga23  1  0.267103  0.827583  0.817919  1
  Ga  Ga24  1  0.053878  0.636018  0.817193  1
  Ga  Ga25  1  0.938083  0.369200  0.183336  1
  Ga  Ga26  1  0.860594  0.042974  0.816663  1
  Ga  Ga27  1  0.144049  0.958523  0.183635  1
  Pt  Pt28  1  0.117039  0.494831  0.638219  1
  Pt  Pt29  1  0.882696  0.507245  0.359217  1
  Pt  Pt30  1  0.659927  0.169331  0.001158  1
  Pt  Pt31  1  0.338939  0.831536  0.001723  1
  Pt  Pt32  1  0.538999  0.167196  0.359018  1
  Pt  Pt33  1  0.461096  0.831385  0.638705  1
  Pt  Pt34  1  0.780295  0.174162  0.636272  1
  Pt  Pt35  1  0.222863  0.825079  0.361160  1
  Pt  Pt36  1  0.000900  0.499359  0.001754  1
