# generated using pymatgen
data_Na2Tc(Ni3P2)3
_symmetry_space_group_name_H-M   'P 1'
_cell_length_a   3.64051400
_cell_length_b   10.40675200
_cell_length_c   11.89529600
_cell_angle_alpha   90.00000000
_cell_angle_beta   90.00000000
_cell_angle_gamma   90.00000000
_symmetry_Int_Tables_number   1
_chemical_formula_structural   Na2Tc(Ni3P2)3
_chemical_formula_sum   'Na4 Tc2 Ni18 P12'
_cell_volume   450.66430817
_cell_formula_units_Z   2
loop_
 _symmetry_equiv_pos_site_id
 _symmetry_equiv_pos_as_xyz
  1  'x, y, z'
loop_
 _atom_site_type_symbol
 _atom_site_label
 _atom_site_symmetry_multiplicity
 _atom_site_fract_x
 _atom_site_fract_y
 _atom_site_fract_z
 _atom_site_occupancy
  Na  Na0  1  0.250000  0.581515  0.704260  1
  Na  Na1  1  0.250000  0.918485  0.204260  1
  Na  Na2  1  0.750000  0.415506  0.294831  1
  Na  Na3  1  0.750000  0.084494  0.794831  1
  Tc  Tc4  1  0.250000  0.709158  0.990122  1
  Tc  Tc5  1  0.250000  0.790842  0.490122  1
  Ni  Ni6  1  0.750000  0.285594  0.009268  1
  Ni  Ni7  1  0.750000  0.214406  0.509268  1
  Ni  Ni8  1  0.250000  0.406252  0.486827  1
  Ni  Ni9  1  0.250000  0.093748  0.986827  1
  Ni  Ni10  1  0.750000  0.589161  0.512784  1
  Ni  Ni11  1  0.750000  0.910839  0.012784  1
  Ni  Ni12  1  0.250000  0.218475  0.177143  1
  Ni  Ni13  1  0.250000  0.281525  0.677143  1
  Ni  Ni14  1  0.750000  0.781843  0.822258  1
  Ni  Ni15  1  0.750000  0.718157  0.322258  1
  Ni  Ni16  1  0.250000  0.886651  0.702845  1
  Ni  Ni17  1  0.250000  0.613349  0.202845  1
  Ni  Ni18  1  0.750000  0.118604  0.300241  1
  Ni  Ni19  1  0.750000  0.381396  0.800241  1
  Ni  Ni20  1  0.250000  0.462616  0.930629  1
  Ni  Ni21  1  0.250000  0.037384  0.430629  1
  Ni  Ni22  1  0.750000  0.531112  0.069118  1
  Ni  Ni23  1  0.750000  0.968888  0.569118  1
  P  P24  1  0.250000  0.415775  0.113918  1
  P  P25  1  0.250000  0.084225  0.613918  1
  P  P26  1  0.750000  0.583521  0.885397  1
  P  P27  1  0.750000  0.916479  0.385397  1
  P  P28  1  0.250000  0.265582  0.868435  1
  P  P29  1  0.250000  0.234418  0.368435  1
  P  P30  1  0.750000  0.733690  0.132281  1
  P  P31  1  0.750000  0.766310  0.632281  1
  P  P32  1  0.250000  0.595405  0.390877  1
  P  P33  1  0.250000  0.904595  0.890877  1
  P  P34  1  0.750000  0.398535  0.608768  1
  P  P35  1  0.750000  0.101465  0.108768  1
