# generated using pymatgen
data_Ba8DyLu(CuO3)6
_symmetry_space_group_name_H-M   'P 1'
_cell_length_a   8.11383500
_cell_length_b   8.11383500
_cell_length_c   8.11383500
_cell_angle_alpha   90.00000000
_cell_angle_beta   90.00000000
_cell_angle_gamma   90.00000000
_symmetry_Int_Tables_number   1
_chemical_formula_structural   Ba8DyLu(CuO3)6
_chemical_formula_sum   'Ba8 Dy1 Lu1 Cu6 O18'
_cell_volume   534.16879689
_cell_formula_units_Z   1
loop_
 _symmetry_equiv_pos_site_id
 _symmetry_equiv_pos_as_xyz
  1  'x, y, z'
loop_
 _atom_site_type_symbol
 _atom_site_label
 _atom_site_symmetry_multiplicity
 _atom_site_fract_x
 _atom_site_fract_y
 _atom_site_fract_z
 _atom_site_occupancy
  Ba  Ba0  1  0.750587  0.249413  0.249413  1
  Ba  Ba1  1  0.249413  0.249413  0.750587  1
  Ba  Ba2  1  0.249413  0.750587  0.249413  1
  Ba  Ba3  1  0.750587  0.750587  0.750587  1
  Ba  Ba4  1  0.249413  0.750587  0.750587  1
  Ba  Ba5  1  0.750587  0.750587  0.249413  1
  Ba  Ba6  1  0.750587  0.249413  0.750587  1
  Ba  Ba7  1  0.249413  0.249413  0.249413  1
  Dy  Dy8  1  0.500000  0.500000  0.500000  1
  Lu  Lu9  1  0.000000  0.000000  0.000000  1
  Cu  Cu10  1  0.000000  0.500000  0.000000  1
  Cu  Cu11  1  0.000000  0.000000  0.500000  1
  Cu  Cu12  1  0.500000  0.000000  0.000000  1
  Cu  Cu13  1  0.500000  0.000000  0.500000  1
  Cu  Cu14  1  0.500000  0.500000  0.000000  1
  Cu  Cu15  1  0.000000  0.500000  0.500000  1
  O  O16  1  0.000000  0.269724  0.000000  1
  O  O17  1  0.000000  0.730276  0.000000  1
  O  O18  1  0.000000  0.000000  0.269724  1
  O  O19  1  0.000000  0.000000  0.730276  1
  O  O20  1  0.269724  0.000000  0.000000  1
  O  O21  1  0.730276  0.000000  0.000000  1
  O  O22  1  0.500000  0.226965  0.500000  1
  O  O23  1  0.500000  0.773035  0.500000  1
  O  O24  1  0.500000  0.500000  0.226965  1
  O  O25  1  0.500000  0.500000  0.773035  1
  O  O26  1  0.226965  0.500000  0.500000  1
  O  O27  1  0.773035  0.500000  0.500000  1
  O  O28  1  0.500000  0.250099  0.000000  1
  O  O29  1  0.500000  0.749901  0.000000  1
  O  O30  1  0.000000  0.500000  0.250099  1
  O  O31  1  0.000000  0.500000  0.749901  1
  O  O32  1  0.250099  0.000000  0.500000  1
  O  O33  1  0.749901  0.000000  0.500000  1
