# generated using pymatgen
data_Pd(AuO2)2
_symmetry_space_group_name_H-M   'P 1'
_cell_length_a   8.14740000
_cell_length_b   8.14740000
_cell_length_c   5.63572100
_cell_angle_alpha   90.00000000
_cell_angle_beta   90.00000000
_cell_angle_gamma   90.00000000
_symmetry_Int_Tables_number   1
_chemical_formula_structural   Pd(AuO2)2
_chemical_formula_sum   'Pd4 Au8 O16'
_cell_volume   374.09987436
_cell_formula_units_Z   4
loop_
 _symmetry_equiv_pos_site_id
 _symmetry_equiv_pos_as_xyz
  1  'x, y, z'
loop_
 _atom_site_type_symbol
 _atom_site_label
 _atom_site_symmetry_multiplicity
 _atom_site_fract_x
 _atom_site_fract_y
 _atom_site_fract_z
 _atom_site_occupancy
  Pd  Pd0  1  0.499999  0.000000  0.012820  1
  Pd  Pd1  1  0.000000  0.499999  0.487181  1
  Pd  Pd2  1  0.499999  0.000000  0.512818  1
  Pd  Pd3  1  0.000000  0.499999  0.987179  1
  Au  Au4  1  0.869898  0.130102  0.250000  1
  Au  Au5  1  0.369897  0.369897  0.250000  1
  Au  Au6  1  0.630103  0.630103  0.250000  1
  Au  Au7  1  0.130102  0.869898  0.250000  1
  Au  Au8  1  0.130102  0.130102  0.750001  1
  Au  Au9  1  0.630103  0.369897  0.750001  1
  Au  Au10  1  0.369897  0.630103  0.750001  1
  Au  Au11  1  0.869898  0.869898  0.750001  1
  O  O12  1  0.254699  0.031405  0.034082  1
  O  O13  1  0.531404  0.245301  0.034082  1
  O  O14  1  0.468596  0.754699  0.034082  1
  O  O15  1  0.745301  0.968595  0.034082  1
  O  O16  1  0.031405  0.254699  0.465917  1
  O  O17  1  0.754699  0.468596  0.465917  1
  O  O18  1  0.245301  0.531404  0.465917  1
  O  O19  1  0.968595  0.745301  0.465917  1
  O  O20  1  0.745301  0.031405  0.534082  1
  O  O21  1  0.468596  0.245301  0.534082  1
  O  O22  1  0.531404  0.754699  0.534082  1
  O  O23  1  0.254699  0.968595  0.534082  1
  O  O24  1  0.968595  0.254699  0.965917  1
  O  O25  1  0.245301  0.468596  0.965917  1
  O  O26  1  0.754699  0.531404  0.965917  1
  O  O27  1  0.031405  0.745301  0.965917  1
