# generated using pymatgen
data_YHo2Pa(Ga3Ir)6
_symmetry_space_group_name_H-M   'P 1'
_cell_length_a   7.62121703
_cell_length_b   7.61107121
_cell_length_c   9.45264900
_cell_angle_alpha   90.00000000
_cell_angle_beta   90.00000000
_cell_angle_gamma   119.88916992
_symmetry_Int_Tables_number   1
_chemical_formula_structural   YHo2Pa(Ga3Ir)6
_chemical_formula_sum   'Y1 Ho2 Pa1 Ga18 Ir6'
_cell_volume   475.37705322
_cell_formula_units_Z   1
loop_
 _symmetry_equiv_pos_site_id
 _symmetry_equiv_pos_as_xyz
  1  'x, y, z'
loop_
 _atom_site_type_symbol
 _atom_site_label
 _atom_site_symmetry_multiplicity
 _atom_site_fract_x
 _atom_site_fract_y
 _atom_site_fract_z
 _atom_site_occupancy
  Y  Y0  1  0.330956  0.003079  0.750000  1
  Ho  Ho1  1  0.003960  0.331253  0.750000  1
  Ho  Ho2  1  0.669689  0.996405  0.250000  1
  Pa  Pa3  1  0.997574  0.669235  0.250000  1
  Ga  Ga4  1  0.130382  0.130131  0.250000  1
  Ga  Ga5  1  0.872718  0.873907  0.750000  1
  Ga  Ga6  1  0.998558  0.330723  0.079977  1
  Ga  Ga7  1  0.001035  0.665293  0.916915  1
  Ga  Ga8  1  0.001035  0.665293  0.583085  1
  Ga  Ga9  1  0.338445  0.002491  0.419742  1
  Ga  Ga10  1  0.998558  0.330723  0.420023  1
  Ga  Ga11  1  0.665899  0.001819  0.580984  1
  Ga  Ga12  1  0.665899  0.001819  0.919016  1
  Ga  Ga13  1  0.338445  0.002491  0.080258  1
  Ga  Ga14  1  0.331424  0.331559  0.567496  1
  Ga  Ga15  1  0.664046  0.667695  0.434439  1
  Ga  Ga16  1  0.664046  0.667695  0.065561  1
  Ga  Ga17  1  0.331424  0.331559  0.932504  1
  Ga  Ga18  1  0.339238  0.544756  0.250000  1
  Ga  Ga19  1  0.660493  0.452704  0.750000  1
  Ga  Ga20  1  0.544395  0.340120  0.250000  1
  Ga  Ga21  1  0.452740  0.661147  0.750000  1
  Ir  Ir22  1  0.674015  0.331576  0.002102  1
  Ir  Ir23  1  0.326150  0.671115  0.002109  1
  Ir  Ir24  1  0.326150  0.671115  0.497891  1
  Ir  Ir25  1  0.674015  0.331576  0.497898  1
  Ir  Ir26  1  0.999353  0.996362  0.002660  1
  Ir  Ir27  1  0.999353  0.996362  0.497340  1
