# generated using pymatgen
data_Mn3Sb12Pt
_symmetry_space_group_name_H-M   'P 1'
_cell_length_a   8.09756352
_cell_length_b   8.09756448
_cell_length_c   8.09756528
_cell_angle_alpha   109.45816943
_cell_angle_beta   109.45818029
_cell_angle_gamma   109.45817424
_symmetry_Int_Tables_number   1
_chemical_formula_structural   Mn3Sb12Pt
_chemical_formula_sum   'Mn3 Sb12 Pt1'
_cell_volume   408.93185154
_cell_formula_units_Z   1
loop_
 _symmetry_equiv_pos_site_id
 _symmetry_equiv_pos_as_xyz
  1  'x, y, z'
loop_
 _atom_site_type_symbol
 _atom_site_label
 _atom_site_symmetry_multiplicity
 _atom_site_fract_x
 _atom_site_fract_y
 _atom_site_fract_z
 _atom_site_occupancy
  Mn  Mn0  1  0.500000  0.000000  0.000000  1
  Mn  Mn1  1  0.000000  0.500000  0.000000  1
  Mn  Mn2  1  0.000000  0.000000  0.500000  1
  Sb  Sb3  1  0.333876  0.842277  0.175038  1
  Sb  Sb4  1  0.666124  0.157723  0.824962  1
  Sb  Sb5  1  0.333334  0.147983  0.494608  1
  Sb  Sb6  1  0.666666  0.852017  0.505392  1
  Sb  Sb7  1  0.842277  0.175038  0.333876  1
  Sb  Sb8  1  0.157723  0.824962  0.666124  1
  Sb  Sb9  1  0.147983  0.494608  0.333334  1
  Sb  Sb10  1  0.852017  0.505392  0.666666  1
  Sb  Sb11  1  0.175038  0.333876  0.842277  1
  Sb  Sb12  1  0.824962  0.666124  0.157723  1
  Sb  Sb13  1  0.494608  0.333334  0.147983  1
  Sb  Sb14  1  0.505392  0.666666  0.852017  1
  Pt  Pt15  1  0.500000  0.500000  0.500000  1
