# generated using pymatgen
data_Hf5Zr4ScN9
_symmetry_space_group_name_H-M   'P 1'
_cell_length_a   5.58211552
_cell_length_b   6.43599399
_cell_length_c   7.25263903
_cell_angle_alpha   77.29677946
_cell_angle_beta   75.14512437
_cell_angle_gamma   73.18410057
_symmetry_Int_Tables_number   1
_chemical_formula_structural   Hf5Zr4ScN9
_chemical_formula_sum   'Hf5 Zr4 Sc1 N9'
_cell_volume   238.07454905
_cell_formula_units_Z   1
loop_
 _symmetry_equiv_pos_site_id
 _symmetry_equiv_pos_as_xyz
  1  'x, y, z'
loop_
 _atom_site_type_symbol
 _atom_site_label
 _atom_site_symmetry_multiplicity
 _atom_site_fract_x
 _atom_site_fract_y
 _atom_site_fract_z
 _atom_site_occupancy
  Hf  Hf0  1  0.893860  0.604043  0.194457  1
  Hf  Hf1  1  0.099630  0.901200  0.796061  1
  Hf  Hf2  1  0.900370  0.098800  0.203939  1
  Hf  Hf3  1  0.106140  0.395957  0.805543  1
  Hf  Hf4  1  0.500000  0.500000  0.000000  1
  Zr  Zr5  1  0.311812  0.701464  0.398016  1
  Zr  Zr6  1  0.306984  0.196492  0.396003  1
  Zr  Zr7  1  0.688188  0.298536  0.601984  1
  Zr  Zr8  1  0.693016  0.803508  0.603997  1
  Sc  Sc9  1  0.500000  0.000000  0.000000  1
  N  N10  1  0.803070  0.696488  0.906841  1
  N  N11  1  0.803070  0.198507  0.906493  1
  N  N12  1  0.196930  0.801493  0.093507  1
  N  N13  1  0.000000  0.000000  0.500000  1
  N  N14  1  0.390042  0.098664  0.707230  1
  N  N15  1  0.196930  0.303512  0.093159  1
  N  N16  1  0.609905  0.399369  0.288221  1
  N  N17  1  0.390095  0.600631  0.711779  1
  N  N18  1  0.609958  0.901336  0.292770  1
