# generated using pymatgen
data_Hf8In4RhAu7
_symmetry_space_group_name_H-M   'P 1'
_cell_length_a   7.58311506
_cell_length_b   7.58311525
_cell_length_c   7.02126312
_cell_angle_alpha   90.12304175
_cell_angle_beta   89.87695638
_cell_angle_gamma   90.06797572
_symmetry_Int_Tables_number   1
_chemical_formula_structural   Hf8In4RhAu7
_chemical_formula_sum   'Hf8 In4 Rh1 Au7'
_cell_volume   403.74601151
_cell_formula_units_Z   1
loop_
 _symmetry_equiv_pos_site_id
 _symmetry_equiv_pos_as_xyz
  1  'x, y, z'
loop_
 _atom_site_type_symbol
 _atom_site_label
 _atom_site_symmetry_multiplicity
 _atom_site_fract_x
 _atom_site_fract_y
 _atom_site_fract_z
 _atom_site_occupancy
  Hf  Hf0  1  0.151976  0.136145  0.990981  1
  Hf  Hf1  1  0.863855  0.848024  0.990981  1
  Hf  Hf2  1  0.644219  0.355781  0.498380  1
  Hf  Hf3  1  0.347102  0.652898  0.507808  1
  Hf  Hf4  1  0.692931  0.307069  0.000203  1
  Hf  Hf5  1  0.298776  0.701224  0.990731  1
  Hf  Hf6  1  0.815836  0.806474  0.506093  1
  Hf  Hf7  1  0.193526  0.184164  0.506093  1
  In  In8  1  0.501963  0.999410  0.248943  1
  In  In9  1  0.495364  0.999268  0.746991  1
  In  In10  1  0.000590  0.498037  0.248943  1
  In  In11  1  0.000732  0.504636  0.746991  1
  Rh  Rh12  1  0.129658  0.870342  0.715442  1
  Au  Au13  1  0.366936  0.370239  0.210198  1
  Au  Au14  1  0.629231  0.630913  0.794313  1
  Au  Au15  1  0.629761  0.633064  0.210198  1
  Au  Au16  1  0.867993  0.132007  0.706223  1
  Au  Au17  1  0.869730  0.130270  0.288964  1
  Au  Au18  1  0.369087  0.370769  0.794313  1
  Au  Au19  1  0.130734  0.869266  0.297210  1
