# generated using pymatgen
data_Dy(ErPt2)9
_symmetry_space_group_name_H-M   'P 1'
_cell_length_a   9.73054825
_cell_length_b   9.72362025
_cell_length_c   5.75617100
_cell_angle_alpha   90.00000000
_cell_angle_beta   90.00000000
_cell_angle_gamma   90.02592337
_symmetry_Int_Tables_number   1
_chemical_formula_structural   Dy(ErPt2)9
_chemical_formula_sum   'Dy1 Er9 Pt18'
_cell_volume   544.62671747
_cell_formula_units_Z   1
loop_
 _symmetry_equiv_pos_site_id
 _symmetry_equiv_pos_as_xyz
  1  'x, y, z'
loop_
 _atom_site_type_symbol
 _atom_site_label
 _atom_site_symmetry_multiplicity
 _atom_site_fract_x
 _atom_site_fract_y
 _atom_site_fract_z
 _atom_site_occupancy
  Dy  Dy0  1  0.452550  0.809048  0.000000  1
  Er  Er1  1  0.547473  0.191053  0.000000  1
  Er  Er2  1  0.190914  0.547373  0.000000  1
  Er  Er3  1  0.809009  0.452528  0.000000  1
  Er  Er4  1  0.499984  0.500005  0.500000  1
  Er  Er5  1  0.308999  0.047557  0.500000  1
  Er  Er6  1  0.691036  0.952546  0.500000  1
  Er  Er7  1  0.952512  0.690982  0.500000  1
  Er  Er8  1  0.047495  0.309021  0.500000  1
  Er  Er9  1  0.000001  0.000002  0.000000  1
  Pt  Pt10  1  0.191417  0.808217  0.250788  1
  Pt  Pt11  1  0.808228  0.191778  0.749481  1
  Pt  Pt12  1  0.808228  0.191778  0.250519  1
  Pt  Pt13  1  0.191417  0.808217  0.749212  1
  Pt  Pt14  1  0.440884  0.782043  0.500000  1
  Pt  Pt15  1  0.559082  0.217909  0.500000  1
  Pt  Pt16  1  0.217926  0.559066  0.500000  1
  Pt  Pt17  1  0.782085  0.440900  0.500000  1
  Pt  Pt18  1  0.308226  0.308243  0.249523  1
  Pt  Pt19  1  0.692076  0.691654  0.750247  1
  Pt  Pt20  1  0.692076  0.691654  0.249753  1
  Pt  Pt21  1  0.308226  0.308243  0.750477  1
  Pt  Pt22  1  0.281877  0.059350  0.000000  1
  Pt  Pt23  1  0.718266  0.941061  0.000000  1
  Pt  Pt24  1  0.940941  0.717904  0.000000  1
  Pt  Pt25  1  0.059055  0.282108  0.000000  1
  Pt  Pt26  1  0.999972  0.000014  0.500000  1
  Pt  Pt27  1  0.500043  0.499747  0.000000  1
