# generated using pymatgen
data_CeLu3(MgIr)4
_symmetry_space_group_name_H-M   'P 1'
_cell_length_a   6.99797212
_cell_length_b   4.04229700
_cell_length_c   8.57368954
_cell_angle_alpha   90.00000000
_cell_angle_beta   90.42042850
_cell_angle_gamma   90.00000000
_symmetry_Int_Tables_number   1
_chemical_formula_structural   CeLu3(MgIr)4
_chemical_formula_sum   'Ce1 Lu3 Mg4 Ir4'
_cell_volume   242.52498623
_cell_formula_units_Z   1
loop_
 _symmetry_equiv_pos_site_id
 _symmetry_equiv_pos_as_xyz
  1  'x, y, z'
loop_
 _atom_site_type_symbol
 _atom_site_label
 _atom_site_symmetry_multiplicity
 _atom_site_fract_x
 _atom_site_fract_y
 _atom_site_fract_z
 _atom_site_occupancy
  Ce  Ce0  1  0.536128  0.750000  0.678291  1
  Lu  Lu1  1  0.958055  0.250000  0.173594  1
  Lu  Lu2  1  0.459682  0.250000  0.321574  1
  Lu  Lu3  1  0.039605  0.750000  0.831501  1
  Mg  Mg4  1  0.870364  0.250000  0.556077  1
  Mg  Mg5  1  0.361407  0.250000  0.946435  1
  Mg  Mg6  1  0.136110  0.750000  0.437255  1
  Mg  Mg7  1  0.634884  0.750000  0.060919  1
  Ir  Ir8  1  0.753440  0.250000  0.863134  1
  Ir  Ir9  1  0.257060  0.250000  0.631980  1
  Ir  Ir10  1  0.245108  0.750000  0.131679  1
  Ir  Ir11  1  0.748158  0.750000  0.367561  1
