# generated using pymatgen
data_Li3CaTm2TlPb2
_symmetry_space_group_name_H-M   'P 1'
_cell_length_a   4.84241100
_cell_length_b   4.84241130
_cell_length_c   10.76810700
_cell_angle_alpha   90.00000000
_cell_angle_beta   90.00000000
_cell_angle_gamma   120.00000478
_symmetry_Int_Tables_number   1
_chemical_formula_structural   Li3CaTm2TlPb2
_chemical_formula_sum   'Li3 Ca1 Tm2 Tl1 Pb2'
_cell_volume   218.67205939
_cell_formula_units_Z   1
loop_
 _symmetry_equiv_pos_site_id
 _symmetry_equiv_pos_as_xyz
  1  'x, y, z'
loop_
 _atom_site_type_symbol
 _atom_site_label
 _atom_site_symmetry_multiplicity
 _atom_site_fract_x
 _atom_site_fract_y
 _atom_site_fract_z
 _atom_site_occupancy
  Li  Li0  1  0.666667  0.333333  0.815356  1
  Li  Li1  1  0.333333  0.666667  0.494024  1
  Li  Li2  1  0.666667  0.333333  0.188509  1
  Ca  Ca3  1  0.000000  0.000000  0.665427  1
  Tm  Tm4  1  0.000000  0.000000  0.328239  1
  Tm  Tm5  1  0.000000  0.000000  0.004969  1
  Tl  Tl6  1  0.333333  0.666667  0.164682  1
  Pb  Pb7  1  0.333333  0.666667  0.856042  1
  Pb  Pb8  1  0.666667  0.333333  0.482752  1
