# generated using pymatgen
data_Dy6Er2Ti12Si15Pt
_symmetry_space_group_name_H-M   'P 1'
_cell_length_a   7.08410271
_cell_length_b   7.03613222
_cell_length_c   12.98427206
_cell_angle_alpha   89.87212448
_cell_angle_beta   89.90423411
_cell_angle_gamma   90.05931717
_symmetry_Int_Tables_number   1
_chemical_formula_structural   Dy6Er2Ti12Si15Pt
_chemical_formula_sum   'Dy6 Er2 Ti12 Si15 Pt1'
_cell_volume   647.19406388
_cell_formula_units_Z   1
loop_
 _symmetry_equiv_pos_site_id
 _symmetry_equiv_pos_as_xyz
  1  'x, y, z'
loop_
 _atom_site_type_symbol
 _atom_site_label
 _atom_site_symmetry_multiplicity
 _atom_site_fract_x
 _atom_site_fract_y
 _atom_site_fract_z
 _atom_site_occupancy
  Dy  Dy0  1  0.339808  0.001777  0.465688  1
  Dy  Dy1  1  0.500833  0.838783  0.717660  1
  Dy  Dy2  1  0.500975  0.160155  0.216633  1
  Dy  Dy3  1  0.841513  0.496701  0.283251  1
  Dy  Dy4  1  0.157124  0.502731  0.783326  1
  Dy  Dy5  1  0.660373  0.997414  0.967652  1
  Er  Er6  1  0.000992  0.339264  0.534599  1
  Er  Er7  1  0.999420  0.660013  0.033268  1
  Ti  Ti8  1  0.325894  0.326594  0.001166  1
  Ti  Ti9  1  0.173665  0.826213  0.249829  1
  Ti  Ti10  1  0.823695  0.173614  0.749918  1
  Ti  Ti11  1  0.673717  0.671843  0.499241  1
  Ti  Ti12  1  0.155397  0.012711  0.877199  1
  Ti  Ti13  1  0.491653  0.652520  0.126219  1
  Ti  Ti14  1  0.502192  0.343468  0.626331  1
  Ti  Ti15  1  0.655766  0.496432  0.875482  1
  Ti  Ti16  1  0.347862  0.506189  0.373161  1
  Ti  Ti17  1  0.847297  0.990848  0.375741  1
  Ti  Ti18  1  0.008456  0.152194  0.125194  1
  Ti  Ti19  1  0.986955  0.848172  0.618176  1
  Si  Si20  1  0.369456  0.702551  0.935366  1
  Si  Si21  1  0.631814  0.297177  0.434460  1
  Si  Si22  1  0.703537  0.371030  0.066446  1
  Si  Si23  1  0.300741  0.629878  0.563565  1
  Si  Si24  1  0.796691  0.869283  0.182921  1
  Si  Si25  1  0.129915  0.202851  0.315709  1
  Si  Si26  1  0.869708  0.799589  0.815680  1
  Si  Si27  1  0.291175  0.953074  0.065893  1
  Si  Si28  1  0.547425  0.790007  0.314719  1
  Si  Si29  1  0.456760  0.214636  0.818420  1
  Si  Si30  1  0.789243  0.547313  0.685390  1
  Si  Si31  1  0.208127  0.453957  0.184680  1
  Si  Si32  1  0.706701  0.047362  0.563230  1
  Si  Si33  1  0.952473  0.292449  0.937131  1
  Si  Si34  1  0.048494  0.707320  0.433219  1
  Pt  Pt35  1  0.204154  0.123886  0.683438  1
