# generated using pymatgen
data_Hf3ZrU2F22
_symmetry_space_group_name_H-M   'P 1'
_cell_length_a   8.47627511
_cell_length_b   8.47627390
_cell_length_c   8.47330375
_cell_angle_alpha   124.93687421
_cell_angle_beta   106.40749573
_cell_angle_gamma   98.34650085
_symmetry_Int_Tables_number   1
_chemical_formula_structural   Hf3ZrU2F22
_chemical_formula_sum   'Hf3 Zr1 U2 F22'
_cell_volume   440.77930249
_cell_formula_units_Z   1
loop_
 _symmetry_equiv_pos_site_id
 _symmetry_equiv_pos_as_xyz
  1  'x, y, z'
loop_
 _atom_site_type_symbol
 _atom_site_label
 _atom_site_symmetry_multiplicity
 _atom_site_fract_x
 _atom_site_fract_y
 _atom_site_fract_z
 _atom_site_occupancy
  Hf  Hf0  1  0.180009  0.133349  0.313358  1
  Hf  Hf1  1  0.819325  0.867176  0.686501  1
  Hf  Hf2  1  0.681198  0.366729  0.047928  1
  Zr  Zr3  1  0.319623  0.633172  0.952795  1
  U  U4  1  0.249887  0.750831  0.500347  1
  U  U5  1  0.749516  0.250460  0.500347  1
  F  F6  1  0.205856  0.390575  0.338477  1
  F  F7  1  0.793632  0.609139  0.660520  1
  F  F8  1  0.051382  0.866890  0.660520  1
  F  F9  1  0.448756  0.108442  0.814886  1
  F  F10  1  0.947900  0.132620  0.338477  1
  F  F11  1  0.556626  0.896109  0.190060  1
  F  F12  1  0.293951  0.633434  0.190060  1
  F  F13  1  0.706444  0.366131  0.814886  1
  F  F14  1  0.999038  0.000309  0.999347  1
  F  F15  1  0.502926  0.497722  0.000648  1
  F  F16  1  0.279793  0.366829  0.646622  1
  F  F17  1  0.721105  0.629775  0.350880  1
  F  F18  1  0.779560  0.129695  0.909256  1
  F  F19  1  0.218620  0.872767  0.091385  1
  F  F20  1  0.449147  0.238632  0.415916  1
  F  F21  1  0.551381  0.761700  0.584216  1
  F  F22  1  0.822517  0.032835  0.584216  1
  F  F23  1  0.677774  0.261666  0.210805  1
  F  F24  1  0.177283  0.966768  0.415916  1
  F  F25  1  0.321913  0.739715  0.785412  1
  F  F26  1  0.045697  0.463500  0.785412  1
  F  F27  1  0.949140  0.533031  0.210805  1
