# generated using pymatgen
data_Pa3In(Pd3Rh)3
_symmetry_space_group_name_H-M   'P 1'
_cell_length_a   5.78551500
_cell_length_b   5.78551442
_cell_length_c   9.52129300
_cell_angle_alpha   90.00000000
_cell_angle_beta   90.00000000
_cell_angle_gamma   120.00000906
_symmetry_Int_Tables_number   1
_chemical_formula_structural   Pa3In(Pd3Rh)3
_chemical_formula_sum   'Pa3 In1 Pd9 Rh3'
_cell_volume   276.00091759
_cell_formula_units_Z   1
loop_
 _symmetry_equiv_pos_site_id
 _symmetry_equiv_pos_as_xyz
  1  'x, y, z'
loop_
 _atom_site_type_symbol
 _atom_site_label
 _atom_site_symmetry_multiplicity
 _atom_site_fract_x
 _atom_site_fract_y
 _atom_site_fract_z
 _atom_site_occupancy
  Pa  Pa0  1  0.666667  0.333333  0.500000  1
  Pa  Pa1  1  0.000000  0.000000  0.740324  1
  Pa  Pa2  1  0.000000  0.000000  0.259676  1
  In  In3  1  0.333333  0.666667  0.000000  1
  Pd  Pd4  1  0.831192  0.168808  0.000000  1
  Pd  Pd5  1  0.831192  0.662384  0.000000  1
  Pd  Pd6  1  0.337616  0.168808  0.000000  1
  Pd  Pd7  1  0.999150  0.499576  0.751771  1
  Pd  Pd8  1  0.500424  0.499576  0.751771  1
  Pd  Pd9  1  0.500424  0.000850  0.751771  1
  Pd  Pd10  1  0.999150  0.499576  0.248229  1
  Pd  Pd11  1  0.500424  0.499576  0.248229  1
  Pd  Pd12  1  0.500424  0.000850  0.248229  1
  Rh  Rh13  1  0.168012  0.831988  0.500000  1
  Rh  Rh14  1  0.168012  0.336025  0.500000  1
  Rh  Rh15  1  0.663975  0.831988  0.500000  1
