# generated using pymatgen
data_Pm2(SeO4)3
_symmetry_space_group_name_H-M   'P 1'
_cell_length_a   6.95086610
_cell_length_b   6.95086672
_cell_length_c   11.61582560
_cell_angle_alpha   80.51753995
_cell_angle_beta   80.51754189
_cell_angle_gamma   117.13940010
_symmetry_Int_Tables_number   1
_chemical_formula_structural   Pm2(SeO4)3
_chemical_formula_sum   'Pm4 Se6 O24'
_cell_volume   473.84398346
_cell_formula_units_Z   2
loop_
 _symmetry_equiv_pos_site_id
 _symmetry_equiv_pos_as_xyz
  1  'x, y, z'
loop_
 _atom_site_type_symbol
 _atom_site_label
 _atom_site_symmetry_multiplicity
 _atom_site_fract_x
 _atom_site_fract_y
 _atom_site_fract_z
 _atom_site_occupancy
  Pm  Pm0  1  0.198234  0.447656  0.595333  1
  Pm  Pm1  1  0.801766  0.552344  0.404667  1
  Pm  Pm2  1  0.552344  0.801766  0.904667  1
  Pm  Pm3  1  0.447656  0.198234  0.095333  1
  Se  Se4  1  0.045813  0.288279  0.923662  1
  Se  Se5  1  0.954187  0.711721  0.076338  1
  Se  Se6  1  0.711721  0.954187  0.576338  1
  Se  Se7  1  0.288279  0.045813  0.423662  1
  Se  Se8  1  0.630438  0.369562  0.750000  1
  Se  Se9  1  0.369562  0.630438  0.250000  1
  O  O10  1  0.553519  0.450845  0.627682  1
  O  O11  1  0.446481  0.549155  0.372318  1
  O  O12  1  0.549155  0.446481  0.872318  1
  O  O13  1  0.450845  0.553519  0.127682  1
  O  O14  1  0.503686  0.091160  0.790752  1
  O  O15  1  0.496314  0.908840  0.209248  1
  O  O16  1  0.908840  0.496314  0.709248  1
  O  O17  1  0.091160  0.503686  0.290752  1
  O  O18  1  0.759505  0.159396  0.959426  1
  O  O19  1  0.240495  0.840604  0.040574  1
  O  O20  1  0.840604  0.240495  0.540574  1
  O  O21  1  0.159396  0.759505  0.459426  1
  O  O22  1  0.431819  0.823654  0.608766  1
  O  O23  1  0.568181  0.176346  0.391234  1
  O  O24  1  0.176346  0.568181  0.891234  1
  O  O25  1  0.823654  0.431819  0.108766  1
  O  O26  1  0.114980  0.229430  0.794205  1
  O  O27  1  0.885020  0.770570  0.205795  1
  O  O28  1  0.770570  0.885020  0.705795  1
  O  O29  1  0.229430  0.114980  0.294205  1
  O  O30  1  0.875820  0.804596  0.962137  1
  O  O31  1  0.124180  0.195404  0.037863  1
  O  O32  1  0.195404  0.124180  0.537863  1
  O  O33  1  0.804596  0.875820  0.462137  1
