# generated using pymatgen
data_Rb4Cu(PS4)2
_symmetry_space_group_name_H-M   'P 1'
_cell_length_a   6.77120803
_cell_length_b   7.12333665
_cell_length_c   9.34008800
_cell_angle_alpha   86.57312610
_cell_angle_beta   80.19891036
_cell_angle_gamma   85.14198724
_symmetry_Int_Tables_number   1
_chemical_formula_structural   Rb4Cu(PS4)2
_chemical_formula_sum   'Rb4 Cu1 P2 S8'
_cell_volume   441.86371563
_cell_formula_units_Z   1
loop_
 _symmetry_equiv_pos_site_id
 _symmetry_equiv_pos_as_xyz
  1  'x, y, z'
loop_
 _atom_site_type_symbol
 _atom_site_label
 _atom_site_symmetry_multiplicity
 _atom_site_fract_x
 _atom_site_fract_y
 _atom_site_fract_z
 _atom_site_occupancy
  Rb  Rb0  1  0.292058  0.334389  0.144876  1
  Rb  Rb1  1  0.741755  0.222971  0.485802  1
  Rb  Rb2  1  0.258245  0.777029  0.514198  1
  Rb  Rb3  1  0.707942  0.665611  0.855124  1
  Cu  Cu4  1  0.000000  0.000000  0.000000  1
  P  P5  1  0.832007  0.737590  0.254966  1
  P  P6  1  0.167993  0.262410  0.745034  1
  S  S7  1  0.688975  0.958718  0.144559  1
  S  S8  1  0.780567  0.486005  0.184543  1
  S  S9  1  0.127067  0.807881  0.178767  1
  S  S10  1  0.764203  0.746481  0.475416  1
  S  S11  1  0.235797  0.253519  0.524584  1
  S  S12  1  0.872933  0.192119  0.821233  1
  S  S13  1  0.219433  0.513995  0.815457  1
  S  S14  1  0.311025  0.041282  0.855441  1
