# generated using pymatgen
data_Ho8Co(Si4Au)3
_symmetry_space_group_name_H-M   'P 1'
_cell_length_a   8.12308300
_cell_length_b   8.12285351
_cell_length_c   8.13201300
_cell_angle_alpha   89.99828342
_cell_angle_beta   90.00205847
_cell_angle_gamma   119.99924518
_symmetry_Int_Tables_number   1
_chemical_formula_structural   Ho8Co(Si4Au)3
_chemical_formula_sum   'Ho8 Co1 Si12 Au3'
_cell_volume   464.68805730
_cell_formula_units_Z   1
loop_
 _symmetry_equiv_pos_site_id
 _symmetry_equiv_pos_as_xyz
  1  'x, y, z'
loop_
 _atom_site_type_symbol
 _atom_site_label
 _atom_site_symmetry_multiplicity
 _atom_site_fract_x
 _atom_site_fract_y
 _atom_site_fract_z
 _atom_site_occupancy
  Ho  Ho0  1  0.495837  0.991678  0.243725  1
  Ho  Ho1  1  0.495836  0.991676  0.756530  1
  Ho  Ho2  1  0.008318  0.504160  0.243726  1
  Ho  Ho3  1  0.008317  0.504160  0.756529  1
  Ho  Ho4  1  0.495840  0.504160  0.243723  1
  Ho  Ho5  1  0.495838  0.504159  0.756531  1
  Ho  Ho6  1  0.999998  0.999999  0.247633  1
  Ho  Ho7  1  0.000010  0.000000  0.751450  1
  Co  Co8  1  0.333330  0.666665  0.001051  1
  Si  Si9  1  0.174561  0.349129  0.000472  1
  Si  Si10  1  0.839525  0.679056  0.998920  1
  Si  Si11  1  0.650872  0.825439  0.000473  1
  Si  Si12  1  0.836382  0.672770  0.496621  1
  Si  Si13  1  0.320911  0.160458  0.998920  1
  Si  Si14  1  0.162898  0.325802  0.502999  1
  Si  Si15  1  0.174562  0.825436  0.000473  1
  Si  Si16  1  0.327218  0.163611  0.496620  1
  Si  Si17  1  0.839529  0.160470  0.998920  1
  Si  Si18  1  0.674222  0.837114  0.503000  1
  Si  Si19  1  0.836389  0.163610  0.496621  1
  Si  Si20  1  0.162902  0.837096  0.502999  1
  Au  Au21  1  0.666690  0.333351  0.001075  1
  Au  Au22  1  0.666671  0.333333  0.502319  1
  Au  Au23  1  0.333342  0.666669  0.498675  1
