# generated using pymatgen
data_DyB2IrOs
_symmetry_space_group_name_H-M   'P 1'
_cell_length_a   6.79347058
_cell_length_b   5.99720999
_cell_length_c   5.56384344
_cell_angle_alpha   71.86510343
_cell_angle_beta   57.02824176
_cell_angle_gamma   51.10665591
_symmetry_Int_Tables_number   1
_chemical_formula_structural   DyB2IrOs
_chemical_formula_sum   'Dy2 B4 Ir2 Os2'
_cell_volume   147.85277922
_cell_formula_units_Z   2
loop_
 _symmetry_equiv_pos_site_id
 _symmetry_equiv_pos_as_xyz
  1  'x, y, z'
loop_
 _atom_site_type_symbol
 _atom_site_label
 _atom_site_symmetry_multiplicity
 _atom_site_fract_x
 _atom_site_fract_y
 _atom_site_fract_z
 _atom_site_occupancy
  Dy  Dy0  1  0.500000  0.500000  0.500000  1
  Dy  Dy1  1  0.750000  0.750000  0.750000  1
  B  B2  1  0.180369  0.819631  0.180369  1
  B  B3  1  0.057671  0.442329  0.057671  1
  B  B4  1  0.819631  0.180369  0.819631  1
  B  B5  1  0.442329  0.057671  0.442329  1
  Ir  Ir6  1  0.385391  0.385391  0.114609  1
  Ir  Ir7  1  0.114609  0.114609  0.385391  1
  Os  Os8  1  0.863733  0.863733  0.136267  1
  Os  Os9  1  0.136267  0.136267  0.863733  1
