# generated using pymatgen
data_Lu12InFe3Bi
_symmetry_space_group_name_H-M   'P 1'
_cell_length_a   8.21188215
_cell_length_b   8.21188251
_cell_length_c   8.21188222
_cell_angle_alpha   108.54505398
_cell_angle_beta   108.17308922
_cell_angle_gamma   111.71937592
_symmetry_Int_Tables_number   1
_chemical_formula_structural   Lu12InFe3Bi
_chemical_formula_sum   'Lu12 In1 Fe3 Bi1'
_cell_volume   425.79243459
_cell_formula_units_Z   1
loop_
 _symmetry_equiv_pos_site_id
 _symmetry_equiv_pos_as_xyz
  1  'x, y, z'
loop_
 _atom_site_type_symbol
 _atom_site_label
 _atom_site_symmetry_multiplicity
 _atom_site_fract_x
 _atom_site_fract_y
 _atom_site_fract_z
 _atom_site_occupancy
  Lu  Lu0  1  0.313234  0.303431  0.616665  1
  Lu  Lu1  1  0.686766  0.696569  0.383335  1
  Lu  Lu2  1  0.686766  0.303431  0.990197  1
  Lu  Lu3  1  0.313234  0.696569  0.009803  1
  Lu  Lu4  1  0.194299  0.425358  0.231059  1
  Lu  Lu5  1  0.805701  0.574642  0.768941  1
  Lu  Lu6  1  0.194299  0.963239  0.768941  1
  Lu  Lu7  1  0.955356  0.190891  0.764467  1
  Lu  Lu8  1  0.805701  0.036761  0.231059  1
  Lu  Lu9  1  0.044644  0.809109  0.235533  1
  Lu  Lu10  1  0.426424  0.190891  0.235533  1
  Lu  Lu11  1  0.573576  0.809109  0.764467  1
  In  In12  1  0.500000  0.000000  0.500000  1
  Fe  Fe13  1  0.384107  0.384107  0.000000  1
  Fe  Fe14  1  0.615893  0.615893  0.000000  1
  Fe  Fe15  1  0.000000  0.000000  0.000000  1
  Bi  Bi16  1  0.000000  0.500000  0.500000  1
