# generated using pymatgen
data_Cs2KNdBr6
_symmetry_space_group_name_H-M   'P 1'
_cell_length_a   8.40102389
_cell_length_b   8.40102385
_cell_length_c   8.70674680
_cell_angle_alpha   119.33629949
_cell_angle_beta   119.33629815
_cell_angle_gamma   60.06220574
_symmetry_Int_Tables_number   1
_chemical_formula_structural   Cs2KNdBr6
_chemical_formula_sum   'Cs2 K1 Nd1 Br6'
_cell_volume   439.03363980
_cell_formula_units_Z   1
loop_
 _symmetry_equiv_pos_site_id
 _symmetry_equiv_pos_as_xyz
  1  'x, y, z'
loop_
 _atom_site_type_symbol
 _atom_site_label
 _atom_site_symmetry_multiplicity
 _atom_site_fract_x
 _atom_site_fract_y
 _atom_site_fract_z
 _atom_site_occupancy
  Cs  Cs0  1  0.749152  0.749152  0.233086  1
  Cs  Cs1  1  0.250848  0.250848  0.766916  1
  K  K2  1  0.500000  0.500000  0.500001  1
  Nd  Nd3  1  0.000000  0.000000  0.000000  1
  Br  Br4  1  0.703199  0.185600  0.173494  1
  Br  Br5  1  0.185600  0.703199  0.173494  1
  Br  Br6  1  0.230104  0.230104  0.326768  1
  Br  Br7  1  0.769896  0.769896  0.673232  1
  Br  Br8  1  0.814400  0.296802  0.826505  1
  Br  Br9  1  0.296802  0.814400  0.826505  1
