# generated using pymatgen
data_Tb16In4PdPt3
_symmetry_space_group_name_H-M   'P 1'
_cell_length_a   9.78748729
_cell_length_b   9.77089739
_cell_length_c   9.78748600
_cell_angle_alpha   59.94382275
_cell_angle_beta   60.00000435
_cell_angle_gamma   59.94381738
_symmetry_Int_Tables_number   1
_chemical_formula_structural   Tb16In4PdPt3
_chemical_formula_sum   'Tb16 In4 Pd1 Pt3'
_cell_volume   661.29086908
_cell_formula_units_Z   1
loop_
 _symmetry_equiv_pos_site_id
 _symmetry_equiv_pos_as_xyz
  1  'x, y, z'
loop_
 _atom_site_type_symbol
 _atom_site_label
 _atom_site_symmetry_multiplicity
 _atom_site_fract_x
 _atom_site_fract_y
 _atom_site_fract_z
 _atom_site_occupancy
  Tb  Tb0  1  0.809919  0.810463  0.189810  1
  Tb  Tb1  1  0.810140  0.188650  0.810140  1
  Tb  Tb2  1  0.191070  0.188650  0.810140  1
  Tb  Tb3  1  0.649467  0.051599  0.649467  1
  Tb  Tb4  1  0.061064  0.062733  0.438101  1
  Tb  Tb5  1  0.437251  0.438723  0.062013  1
  Tb  Tb6  1  0.648023  0.650295  0.648023  1
  Tb  Tb7  1  0.810140  0.188650  0.191070  1
  Tb  Tb8  1  0.189810  0.810463  0.809919  1
  Tb  Tb9  1  0.053658  0.650295  0.648023  1
  Tb  Tb10  1  0.438101  0.062733  0.061064  1
  Tb  Tb11  1  0.438101  0.062733  0.438101  1
  Tb  Tb12  1  0.062013  0.438723  0.062013  1
  Tb  Tb13  1  0.648023  0.650295  0.053658  1
  Tb  Tb14  1  0.189810  0.810463  0.189810  1
  Tb  Tb15  1  0.062013  0.438723  0.437251  1
  In  In16  1  0.417111  0.416875  0.417111  1
  In  In17  1  0.417111  0.416875  0.748902  1
  In  In18  1  0.417027  0.748917  0.417027  1
  In  In19  1  0.748902  0.416875  0.417111  1
  Pd  Pd20  1  0.856692  0.429923  0.856692  1
  Pt  Pt21  1  0.857346  0.855447  0.857346  1
  Pt  Pt22  1  0.857346  0.855447  0.429861  1
  Pt  Pt23  1  0.429861  0.855447  0.857346  1
