# generated using pymatgen
data_Na11Cd2As5
_symmetry_space_group_name_H-M   'P 1'
_cell_length_a   8.65532120
_cell_length_b   10.23122267
_cell_length_c   11.15437617
_cell_angle_alpha   103.19601159
_cell_angle_beta   97.36471408
_cell_angle_gamma   107.24568602
_symmetry_Int_Tables_number   1
_chemical_formula_structural   Na11Cd2As5
_chemical_formula_sum   'Na22 Cd4 As10'
_cell_volume   897.84492227
_cell_formula_units_Z   2
loop_
 _symmetry_equiv_pos_site_id
 _symmetry_equiv_pos_as_xyz
  1  'x, y, z'
loop_
 _atom_site_type_symbol
 _atom_site_label
 _atom_site_symmetry_multiplicity
 _atom_site_fract_x
 _atom_site_fract_y
 _atom_site_fract_z
 _atom_site_occupancy
  Na  Na0  1  0.845944  0.570303  0.957031  1
  Na  Na1  1  0.154056  0.429697  0.042969  1
  Na  Na2  1  0.299911  0.893371  0.777102  1
  Na  Na3  1  0.700089  0.106629  0.222898  1
  Na  Na4  1  0.633592  0.165906  0.535494  1
  Na  Na5  1  0.366408  0.834094  0.464506  1
  Na  Na6  1  0.629872  0.671917  0.556404  1
  Na  Na7  1  0.370128  0.328083  0.443596  1
  Na  Na8  1  0.216206  0.562841  0.577037  1
  Na  Na9  1  0.783794  0.437159  0.422963  1
  Na  Na10  1  0.055926  0.703128  0.248442  1
  Na  Na11  1  0.944074  0.296872  0.751558  1
  Na  Na12  1  0.215916  0.084665  0.577374  1
  Na  Na13  1  0.784084  0.915335  0.422626  1
  Na  Na14  1  0.864285  0.089874  0.976129  1
  Na  Na15  1  0.135715  0.910126  0.023871  1
  Na  Na16  1  0.573499  0.224141  0.857571  1
  Na  Na17  1  0.426501  0.775859  0.142429  1
  Na  Na18  1  0.410407  0.254419  0.147996  1
  Na  Na19  1  0.589593  0.745581  0.852004  1
  Na  Na20  1  0.336119  0.409826  0.792753  1
  Na  Na21  1  0.663881  0.590174  0.207247  1
  Cd  Cd22  1  0.942530  0.956522  0.714893  1
  Cd  Cd23  1  0.057470  0.043478  0.285107  1
  Cd  Cd24  1  0.942202  0.622224  0.711162  1
  Cd  Cd25  1  0.057798  0.377776  0.288838  1
  As  As26  1  0.003699  0.758844  0.526784  1
  As  As27  1  0.996301  0.241156  0.473216  1
  As  As28  1  0.633148  0.446355  0.689686  1
  As  As29  1  0.366852  0.553645  0.310314  1
  As  As30  1  0.635576  0.966627  0.698067  1
  As  As31  1  0.364424  0.033373  0.301933  1
  As  As32  1  0.202905  0.155163  0.881635  1
  As  As33  1  0.797095  0.844837  0.118365  1
  As  As34  1  0.200611  0.637862  0.880903  1
  As  As35  1  0.799389  0.362138  0.119097  1
