# generated using pymatgen
data_Ba6Nd2Te(IrO9)2
_symmetry_space_group_name_H-M   'P 1'
_cell_length_a   10.52744463
_cell_length_b   10.52744387
_cell_length_c   10.52744466
_cell_angle_alpha   146.65248293
_cell_angle_beta   131.71335728
_cell_angle_gamma   59.94996193
_symmetry_Int_Tables_number   1
_chemical_formula_structural   Ba6Nd2Te(IrO9)2
_chemical_formula_sum   'Ba6 Nd2 Te1 Ir2 O18'
_cell_volume   474.43595851
_cell_formula_units_Z   1
loop_
 _symmetry_equiv_pos_site_id
 _symmetry_equiv_pos_as_xyz
  1  'x, y, z'
loop_
 _atom_site_type_symbol
 _atom_site_label
 _atom_site_symmetry_multiplicity
 _atom_site_fract_x
 _atom_site_fract_y
 _atom_site_fract_z
 _atom_site_occupancy
  Ba  Ba0  1  0.779021  0.500000  0.279021  1
  Ba  Ba1  1  0.382453  0.153116  0.229337  1
  Ba  Ba2  1  0.076219  0.846884  0.229337  1
  Ba  Ba3  1  0.220979  0.500000  0.720979  1
  Ba  Ba4  1  0.923781  0.153116  0.770663  1
  Ba  Ba5  1  0.617547  0.846884  0.770663  1
  Nd  Nd6  1  0.666839  0.666839  0.000000  1
  Nd  Nd7  1  0.333161  0.333161  0.000000  1
  Te  Te8  1  0.500000  0.000000  0.500000  1
  Ir  Ir9  1  0.167060  0.667060  0.500000  1
  Ir  Ir10  1  0.832940  0.332940  0.500000  1
  O  O11  1  0.723116  0.000000  0.723116  1
  O  O12  1  0.395885  0.666180  0.729705  1
  O  O13  1  0.063526  0.333820  0.729705  1
  O  O14  1  0.577076  0.847651  0.270575  1
  O  O15  1  0.242435  0.510094  0.267660  1
  O  O16  1  0.907659  0.182871  0.275212  1
  O  O17  1  0.422924  0.693499  0.270575  1
  O  O18  1  0.092341  0.367553  0.275212  1
  O  O19  1  0.757565  0.025225  0.267660  1
  O  O20  1  0.276884  0.000000  0.276884  1
  O  O21  1  0.936474  0.666180  0.270295  1
  O  O22  1  0.604115  0.333820  0.270295  1
  O  O23  1  0.422924  0.152349  0.729425  1
  O  O24  1  0.092341  0.817129  0.724788  1
  O  O25  1  0.757565  0.489906  0.732340  1
  O  O26  1  0.577076  0.306501  0.729425  1
  O  O27  1  0.242435  0.974775  0.732340  1
  O  O28  1  0.907659  0.632448  0.724788  1
