# generated using pymatgen
data_Li2Pa2Co10As7
_symmetry_space_group_name_H-M   'P 1'
_cell_length_a   3.80406800
_cell_length_b   9.33858769
_cell_length_c   9.40044709
_cell_angle_alpha   119.97150299
_cell_angle_beta   90.00000000
_cell_angle_gamma   90.00000000
_symmetry_Int_Tables_number   1
_chemical_formula_structural   Li2Pa2Co10As7
_chemical_formula_sum   'Li2 Pa2 Co10 As7'
_cell_volume   289.28988714
_cell_formula_units_Z   1
loop_
 _symmetry_equiv_pos_site_id
 _symmetry_equiv_pos_as_xyz
  1  'x, y, z'
loop_
 _atom_site_type_symbol
 _atom_site_label
 _atom_site_symmetry_multiplicity
 _atom_site_fract_x
 _atom_site_fract_y
 _atom_site_fract_z
 _atom_site_occupancy
  Li  Li0  1  0.500000  0.788831  0.890179  1
  Li  Li1  1  0.500000  0.103350  0.213849  1
  Pa  Pa2  1  0.000000  0.667518  0.330930  1
  Pa  Pa3  1  0.500000  0.334688  0.666432  1
  Co  Co4  1  0.000000  0.554072  0.932989  1
  Co  Co5  1  0.000000  0.379240  0.443891  1
  Co  Co6  1  0.000000  0.063974  0.624496  1
  Co  Co7  1  0.500000  0.099545  0.885445  1
  Co  Co8  1  0.000000  0.872338  0.154308  1
  Co  Co9  1  0.000000  0.287853  0.127663  1
  Co  Co10  1  0.000000  0.850793  0.720346  1
  Co  Co11  1  0.500000  0.940944  0.383061  1
  Co  Co12  1  0.500000  0.436266  0.058003  1
  Co  Co13  1  0.500000  0.620119  0.565536  1
  As  As14  1  0.000000  0.004510  0.000398  1
  As  As15  1  0.500000  0.707028  0.104167  1
  As  As16  1  0.500000  0.400394  0.296610  1
  As  As17  1  0.500000  0.891887  0.600882  1
  As  As18  1  0.000000  0.598899  0.708633  1
  As  As19  1  0.000000  0.109664  0.404414  1
  As  As20  1  0.000000  0.288087  0.887770  1
