# generated using pymatgen
data_Li4La3LuSi8
_symmetry_space_group_name_H-M   'P 1'
_cell_length_a   3.89359700
_cell_length_b   7.75605722
_cell_length_c   10.53066204
_cell_angle_alpha   89.75145758
_cell_angle_beta   90.00000000
_cell_angle_gamma   90.00000000
_symmetry_Int_Tables_number   1
_chemical_formula_structural   Li4La3LuSi8
_chemical_formula_sum   'Li4 La3 Lu1 Si8'
_cell_volume   318.01206137
_cell_formula_units_Z   1
loop_
 _symmetry_equiv_pos_site_id
 _symmetry_equiv_pos_as_xyz
  1  'x, y, z'
loop_
 _atom_site_type_symbol
 _atom_site_label
 _atom_site_symmetry_multiplicity
 _atom_site_fract_x
 _atom_site_fract_y
 _atom_site_fract_z
 _atom_site_occupancy
  Li  Li0  1  0.250000  0.993873  0.389893  1
  Li  Li1  1  0.750000  0.003296  0.610855  1
  Li  Li2  1  0.250000  0.495367  0.105218  1
  Li  Li3  1  0.750000  0.511853  0.891428  1
  La  La4  1  0.750000  0.863337  0.135234  1
  La  La5  1  0.250000  0.637461  0.638651  1
  La  La6  1  0.750000  0.358271  0.364581  1
  Lu  Lu7  1  0.250000  0.129615  0.864424  1
  Si  Si8  1  0.750000  0.271730  0.060144  1
  Si  Si9  1  0.250000  0.739679  0.928782  1
  Si  Si10  1  0.750000  0.772158  0.429223  1
  Si  Si11  1  0.250000  0.218191  0.581032  1
  Si  Si12  1  0.750000  0.846499  0.821874  1
  Si  Si13  1  0.250000  0.165976  0.169061  1
  Si  Si14  1  0.750000  0.328131  0.687049  1
  Si  Si15  1  0.250000  0.664564  0.322552  1
