# generated using pymatgen
data_CsDyEr9(C2I9)2
_symmetry_space_group_name_H-M   'P 1'
_cell_length_a   11.40924426
_cell_length_b   11.42534153
_cell_length_c   11.45554030
_cell_angle_alpha   113.28261851
_cell_angle_beta   86.82354138
_cell_angle_gamma   119.89568039
_symmetry_Int_Tables_number   1
_chemical_formula_structural   CsDyEr9(C2I9)2
_chemical_formula_sum   'Cs1 Dy1 Er9 C4 I18'
_cell_volume   1170.20483559
_cell_formula_units_Z   1
loop_
 _symmetry_equiv_pos_site_id
 _symmetry_equiv_pos_as_xyz
  1  'x, y, z'
loop_
 _atom_site_type_symbol
 _atom_site_label
 _atom_site_symmetry_multiplicity
 _atom_site_fract_x
 _atom_site_fract_y
 _atom_site_fract_z
 _atom_site_occupancy
  Cs  Cs0  1  0.500140  0.999913  0.500230  1
  Dy  Dy1  1  0.895395  0.055364  0.999495  1
  Er  Er2  1  0.681688  0.726476  0.714000  1
  Er  Er3  1  0.275826  0.350899  0.015641  1
  Er  Er4  1  0.093287  0.386728  0.289029  1
  Er  Er5  1  0.964939  0.037751  0.322530  1
  Er  Er6  1  0.906827  0.612667  0.710503  1
  Er  Er7  1  0.102664  0.945202  0.000486  1
  Er  Er8  1  0.035306  0.962100  0.677581  1
  Er  Er9  1  0.318967  0.273770  0.286325  1
  Er  Er10  1  0.724438  0.648898  0.984319  1
  C  C11  1  0.152177  0.219048  0.119416  1
  C  C12  1  0.848746  0.780337  0.880560  1
  C  C13  1  0.925479  0.857429  0.803642  1
  C  C14  1  0.075321  0.141986  0.196359  1
  I  I15  1  0.451672  0.530725  0.832641  1
  I  I16  1  0.382042  0.041351  0.157844  1
  I  I17  1  0.779437  0.855696  0.502162  1
  I  I18  1  0.839685  0.312117  0.155216  1
  I  I19  1  0.548701  0.469416  0.167329  1
  I  I20  1  0.220815  0.144230  0.497968  1
  I  I21  1  0.316372  0.096653  0.829472  1
  I  I22  1  0.683031  0.902476  0.171400  1
  I  I23  1  0.973588  0.756445  0.169493  1
  I  I24  1  0.934517  0.297062  0.499443  1
  I  I25  1  0.027545  0.244347  0.829578  1
  I  I26  1  0.065782  0.702974  0.500434  1
  I  I27  1  0.259807  0.619134  0.181975  1
  I  I28  1  0.740199  0.380560  0.817951  1
  I  I29  1  0.644972  0.438495  0.503613  1
  I  I30  1  0.160326  0.691199  0.846905  1
  I  I31  1  0.615286  0.957135  0.840188  1
  I  I32  1  0.355021  0.561416  0.496273  1
