# generated using pymatgen
data_SmUTeN2
_symmetry_space_group_name_H-M   'P 1'
_cell_length_a   6.96303670
_cell_length_b   6.96303635
_cell_length_c   6.96303732
_cell_angle_alpha   147.13964261
_cell_angle_beta   147.13963851
_cell_angle_gamma   47.15706229
_symmetry_Int_Tables_number   1
_chemical_formula_structural   SmUTeN2
_chemical_formula_sum   'Sm1 U1 Te1 N2'
_cell_volume   99.01405294
_cell_formula_units_Z   1
loop_
 _symmetry_equiv_pos_site_id
 _symmetry_equiv_pos_as_xyz
  1  'x, y, z'
loop_
 _atom_site_type_symbol
 _atom_site_label
 _atom_site_symmetry_multiplicity
 _atom_site_fract_x
 _atom_site_fract_y
 _atom_site_fract_z
 _atom_site_occupancy
  Sm  Sm0  1  0.343247  0.343247  0.000000  1
  U  U1  1  0.667627  0.667627  0.000000  1
  Te  Te2  1  0.006424  0.006424  0.000000  1
  N  N3  1  0.741351  0.241351  0.500000  1
  N  N4  1  0.241351  0.741351  0.500000  1
