# generated using pymatgen
data_Ho6Hf7Al9Os7
_symmetry_space_group_name_H-M   'P 1'
_cell_length_a   9.36462721
_cell_length_b   9.36462790
_cell_length_c   9.36462800
_cell_angle_alpha   59.59286291
_cell_angle_beta   59.59286753
_cell_angle_gamma   59.59286310
_symmetry_Int_Tables_number   1
_chemical_formula_structural   Ho6Hf7Al9Os7
_chemical_formula_sum   'Ho6 Hf7 Al9 Os7'
_cell_volume   575.33239228
_cell_formula_units_Z   1
loop_
 _symmetry_equiv_pos_site_id
 _symmetry_equiv_pos_as_xyz
  1  'x, y, z'
loop_
 _atom_site_type_symbol
 _atom_site_label
 _atom_site_symmetry_multiplicity
 _atom_site_fract_x
 _atom_site_fract_y
 _atom_site_fract_z
 _atom_site_occupancy
  Ho  Ho0  1  0.699236  0.699236  0.301216  1
  Ho  Ho1  1  0.298270  0.710177  0.298270  1
  Ho  Ho2  1  0.710177  0.298270  0.298270  1
  Ho  Ho3  1  0.298270  0.298270  0.710177  1
  Ho  Ho4  1  0.699236  0.301216  0.699236  1
  Ho  Ho5  1  0.301216  0.699236  0.699236  1
  Hf  Hf6  1  0.880057  0.880057  0.363802  1
  Hf  Hf7  1  0.880057  0.363802  0.880057  1
  Hf  Hf8  1  0.363802  0.880057  0.880057  1
  Hf  Hf9  1  0.876922  0.876922  0.876922  1
  Hf  Hf10  1  0.123876  0.123876  0.630408  1
  Hf  Hf11  1  0.123876  0.630408  0.123876  1
  Hf  Hf12  1  0.630408  0.123876  0.123876  1
  Al  Al13  1  0.118353  0.118353  0.118353  1
  Al  Al14  1  0.666776  0.666776  0.998264  1
  Al  Al15  1  0.666776  0.998264  0.666776  1
  Al  Al16  1  0.998264  0.666776  0.666776  1
  Al  Al17  1  0.668295  0.668295  0.668295  1
  Al  Al18  1  0.327955  0.327955  0.005999  1
  Al  Al19  1  0.327955  0.005999  0.327955  1
  Al  Al20  1  0.005999  0.327955  0.327955  1
  Al  Al21  1  0.335853  0.335853  0.335853  1
  Os  Os22  1  0.997661  0.997661  0.997661  1
  Os  Os23  1  0.000402  0.000402  0.500986  1
  Os  Os24  1  0.500180  0.998558  0.500180  1
  Os  Os25  1  0.998558  0.500180  0.500180  1
  Os  Os26  1  0.500180  0.500180  0.998558  1
  Os  Os27  1  0.000402  0.500986  0.000402  1
  Os  Os28  1  0.500986  0.000402  0.000402  1
