# generated using pymatgen
data_Tb3HoAu2
_symmetry_space_group_name_H-M   'P 1'
_cell_length_a   4.96580000
_cell_length_b   7.13775634
_cell_length_c   8.99183028
_cell_angle_alpha   90.20423076
_cell_angle_beta   90.00000000
_cell_angle_gamma   90.00000000
_symmetry_Int_Tables_number   1
_chemical_formula_structural   Tb3HoAu2
_chemical_formula_sum   'Tb6 Ho2 Au4'
_cell_volume   318.71043601
_cell_formula_units_Z   2
loop_
 _symmetry_equiv_pos_site_id
 _symmetry_equiv_pos_as_xyz
  1  'x, y, z'
loop_
 _atom_site_type_symbol
 _atom_site_label
 _atom_site_symmetry_multiplicity
 _atom_site_fract_x
 _atom_site_fract_y
 _atom_site_fract_z
 _atom_site_occupancy
  Tb  Tb0  1  0.250000  0.486723  0.176509  1
  Tb  Tb1  1  0.750000  0.513277  0.823491  1
  Tb  Tb2  1  0.250000  0.987129  0.323010  1
  Tb  Tb3  1  0.750000  0.012871  0.676990  1
  Tb  Tb4  1  0.750000  0.648937  0.418851  1
  Tb  Tb5  1  0.250000  0.351063  0.581149  1
  Ho  Ho6  1  0.750000  0.148679  0.080336  1
  Ho  Ho7  1  0.250000  0.851321  0.919664  1
  Au  Au8  1  0.250000  0.256411  0.901895  1
  Au  Au9  1  0.750000  0.743589  0.098105  1
  Au  Au10  1  0.250000  0.758225  0.600068  1
  Au  Au11  1  0.750000  0.241775  0.399932  1
