# generated using pymatgen
data_Cs10Zn4Sn4Se17
_symmetry_space_group_name_H-M   'P 1'
_cell_length_a   11.06371435
_cell_length_b   11.06371174
_cell_length_c   11.06377300
_cell_angle_alpha   90.55401276
_cell_angle_beta   90.55417980
_cell_angle_gamma   90.55344125
_symmetry_Int_Tables_number   1
_chemical_formula_structural   Cs10Zn4Sn4Se17
_chemical_formula_sum   'Cs10 Zn4 Sn4 Se17'
_cell_volume   1354.07832332
_cell_formula_units_Z   1
loop_
 _symmetry_equiv_pos_site_id
 _symmetry_equiv_pos_as_xyz
  1  'x, y, z'
loop_
 _atom_site_type_symbol
 _atom_site_label
 _atom_site_symmetry_multiplicity
 _atom_site_fract_x
 _atom_site_fract_y
 _atom_site_fract_z
 _atom_site_occupancy
  Cs  Cs0  1  0.999641  0.500729  0.999640  1
  Cs  Cs1  1  0.999640  0.999641  0.500730  1
  Cs  Cs2  1  0.500730  0.999641  0.999639  1
  Cs  Cs3  1  0.036727  0.501754  0.501756  1
  Cs  Cs4  1  0.501755  0.036727  0.501756  1
  Cs  Cs5  1  0.501755  0.501754  0.036727  1
  Cs  Cs6  1  0.330388  0.684644  0.330387  1
  Cs  Cs7  1  0.330386  0.330385  0.684642  1
  Cs  Cs8  1  0.684643  0.330388  0.330387  1
  Cs  Cs9  1  0.669169  0.669169  0.669168  1
  Zn  Zn10  1  0.870867  0.870867  0.870875  1
  Zn  Zn11  1  0.128278  0.871847  0.128266  1
  Zn  Zn12  1  0.871847  0.128277  0.128266  1
  Zn  Zn13  1  0.128268  0.128268  0.871845  1
  Sn  Sn14  1  0.215093  0.783383  0.783382  1
  Sn  Sn15  1  0.783383  0.215093  0.783382  1
  Sn  Sn16  1  0.783384  0.783383  0.215094  1
  Sn  Sn17  1  0.218461  0.218461  0.218460  1
  Se  Se18  1  0.000515  0.000514  0.000525  1
  Se  Se19  1  0.340859  0.649463  0.649461  1
  Se  Se20  1  0.649463  0.340859  0.649462  1
  Se  Se21  1  0.649461  0.649461  0.340861  1
  Se  Se22  1  0.351872  0.351872  0.351871  1
  Se  Se23  1  0.991507  0.735637  0.735639  1
  Se  Se24  1  0.735638  0.991507  0.735639  1
  Se  Se25  1  0.735635  0.735635  0.991510  1
  Se  Se26  1  0.006493  0.737051  0.263377  1
  Se  Se27  1  0.265004  0.996198  0.265003  1
  Se  Se28  1  0.263380  0.737047  0.006489  1
  Se  Se29  1  0.996199  0.265003  0.265002  1
  Se  Se30  1  0.737051  0.006492  0.263376  1
  Se  Se31  1  0.737046  0.263387  0.006489  1
  Se  Se32  1  0.006489  0.263379  0.737050  1
  Se  Se33  1  0.263379  0.006489  0.737050  1
  Se  Se34  1  0.264998  0.264998  0.996198  1
