# generated using pymatgen
data_Dy8Er6Sc6Si15Pt
_symmetry_space_group_name_H-M   'P 1'
_cell_length_a   7.17403191
_cell_length_b   7.60451109
_cell_length_c   14.23077718
_cell_angle_alpha   90.20597309
_cell_angle_beta   90.17521435
_cell_angle_gamma   90.28643041
_symmetry_Int_Tables_number   1
_chemical_formula_structural   Dy8Er6Sc6Si15Pt
_chemical_formula_sum   'Dy8 Er6 Sc6 Si15 Pt1'
_cell_volume   776.34173334
_cell_formula_units_Z   1
loop_
 _symmetry_equiv_pos_site_id
 _symmetry_equiv_pos_as_xyz
  1  'x, y, z'
loop_
 _atom_site_type_symbol
 _atom_site_label
 _atom_site_symmetry_multiplicity
 _atom_site_fract_x
 _atom_site_fract_y
 _atom_site_fract_z
 _atom_site_occupancy
  Dy  Dy0  1  0.014734  0.180706  0.094185  1
  Dy  Dy1  1  0.986717  0.819431  0.907104  1
  Dy  Dy2  1  0.484474  0.681160  0.906408  1
  Dy  Dy3  1  0.984293  0.819137  0.597147  1
  Dy  Dy4  1  0.516395  0.318478  0.095546  1
  Dy  Dy5  1  0.018025  0.182359  0.401146  1
  Dy  Dy6  1  0.517624  0.318963  0.401664  1
  Dy  Dy7  1  0.483947  0.680088  0.596125  1
  Er  Er8  1  0.315087  0.173919  0.627869  1
  Er  Er9  1  0.678132  0.825199  0.372213  1
  Er  Er10  1  0.177056  0.677976  0.372606  1
  Er  Er11  1  0.676282  0.824477  0.124122  1
  Er  Er12  1  0.825857  0.321804  0.627989  1
  Er  Er13  1  0.317231  0.175177  0.875703  1
  Sc  Sc14  1  0.154718  0.515962  0.752610  1
  Sc  Sc15  1  0.844498  0.489469  0.247315  1
  Sc  Sc16  1  0.343091  0.012017  0.247469  1
  Sc  Sc17  1  0.660949  0.989532  0.752775  1
  Sc  Sc18  1  0.827154  0.324792  0.873424  1
  Sc  Sc19  1  0.176316  0.676129  0.125898  1
  Si  Si20  1  0.982281  0.896050  0.246390  1
  Si  Si21  1  0.476003  0.599456  0.246058  1
  Si  Si22  1  0.523582  0.401477  0.754127  1
  Si  Si23  1  0.283230  0.862799  0.751598  1
  Si  Si24  1  0.718997  0.136701  0.248150  1
  Si  Si25  1  0.217513  0.366892  0.247193  1
  Si  Si26  1  0.775528  0.629002  0.753016  1
  Si  Si27  1  0.155335  0.470659  0.539073  1
  Si  Si28  1  0.844901  0.531323  0.460020  1
  Si  Si29  1  0.347840  0.970074  0.459843  1
  Si  Si30  1  0.848664  0.529742  0.038207  1
  Si  Si31  1  0.653536  0.029677  0.540454  1
  Si  Si32  1  0.152404  0.473140  0.962732  1
  Si  Si33  1  0.661951  0.036042  0.958989  1
  Si  Si34  1  0.341536  0.964235  0.041094  1
  Pt  Pt35  1  0.014119  0.095954  0.753739  1
