# generated using pymatgen
data_Y2ThAs4Pd7
_symmetry_space_group_name_H-M   'P 1'
_cell_length_a   8.17026886
_cell_length_b   8.17026952
_cell_length_c   9.71447044
_cell_angle_alpha   55.48355742
_cell_angle_beta   55.48355412
_cell_angle_gamma   29.33646953
_symmetry_Int_Tables_number   1
_chemical_formula_structural   Y2ThAs4Pd7
_chemical_formula_sum   'Y2 Th1 As4 Pd7'
_cell_volume   257.50625125
_cell_formula_units_Z   1
loop_
 _symmetry_equiv_pos_site_id
 _symmetry_equiv_pos_as_xyz
  1  'x, y, z'
loop_
 _atom_site_type_symbol
 _atom_site_label
 _atom_site_symmetry_multiplicity
 _atom_site_fract_x
 _atom_site_fract_y
 _atom_site_fract_z
 _atom_site_occupancy
  Y  Y0  1  0.823039  0.823039  0.170284  1
  Y  Y1  1  0.176961  0.176961  0.829716  1
  Th  Th2  1  0.500000  0.500000  0.500000  1
  As  As3  1  0.392611  0.392611  0.320946  1
  As  As4  1  0.607389  0.607389  0.679054  1
  As  As5  1  0.838966  0.838966  0.753427  1
  As  As6  1  0.161034  0.161034  0.246573  1
  Pd  Pd7  1  0.665898  0.665898  0.072484  1
  Pd  Pd8  1  0.011756  0.011756  0.207245  1
  Pd  Pd9  1  0.988244  0.988244  0.792755  1
  Pd  Pd10  1  0.500000  0.500000  0.000000  1
  Pd  Pd11  1  0.192830  0.192830  0.475976  1
  Pd  Pd12  1  0.807170  0.807170  0.524024  1
  Pd  Pd13  1  0.334102  0.334102  0.927516  1
