# generated using pymatgen
data_Pa4InIr4Pb
_symmetry_space_group_name_H-M   'P 1'
_cell_length_a   7.82509800
_cell_length_b   7.82509800
_cell_length_c   3.57854000
_cell_angle_alpha   90.00000000
_cell_angle_beta   90.00000000
_cell_angle_gamma   90.00000000
_symmetry_Int_Tables_number   1
_chemical_formula_structural   Pa4InIr4Pb
_chemical_formula_sum   'Pa4 In1 Ir4 Pb1'
_cell_volume   219.12172923
_cell_formula_units_Z   1
loop_
 _symmetry_equiv_pos_site_id
 _symmetry_equiv_pos_as_xyz
  1  'x, y, z'
loop_
 _atom_site_type_symbol
 _atom_site_label
 _atom_site_symmetry_multiplicity
 _atom_site_fract_x
 _atom_site_fract_y
 _atom_site_fract_z
 _atom_site_occupancy
  Pa  Pa0  1  0.327115  0.166060  0.500001  1
  Pa  Pa1  1  0.833940  0.327115  0.500001  1
  Pa  Pa2  1  0.166060  0.672886  0.500001  1
  Pa  Pa3  1  0.672886  0.833940  0.500001  1
  In  In4  1  0.000000  0.000000  0.000000  1
  Ir  Ir5  1  0.637030  0.127116  0.000000  1
  Ir  Ir6  1  0.127116  0.362970  0.000000  1
  Ir  Ir7  1  0.872884  0.637030  0.000000  1
  Ir  Ir8  1  0.362970  0.872884  0.000000  1
  Pb  Pb9  1  0.499999  0.499999  0.000000  1
