# generated using pymatgen
data_TbNd(GaNi4)2
_symmetry_space_group_name_H-M   'P 1'
_cell_length_a   4.03482900
_cell_length_b   5.04781200
_cell_length_c   8.46036200
_cell_angle_alpha   90.00000000
_cell_angle_beta   90.00000000
_cell_angle_gamma   90.00000000
_symmetry_Int_Tables_number   1
_chemical_formula_structural   TbNd(GaNi4)2
_chemical_formula_sum   'Tb1 Nd1 Ga2 Ni8'
_cell_volume   172.31268562
_cell_formula_units_Z   1
loop_
 _symmetry_equiv_pos_site_id
 _symmetry_equiv_pos_as_xyz
  1  'x, y, z'
loop_
 _atom_site_type_symbol
 _atom_site_label
 _atom_site_symmetry_multiplicity
 _atom_site_fract_x
 _atom_site_fract_y
 _atom_site_fract_z
 _atom_site_occupancy
  Tb  Tb0  1  0.000000  0.000000  0.000000  1
  Nd  Nd1  1  0.000000  0.500000  0.500000  1
  Ga  Ga2  1  0.500000  0.500000  0.000000  1
  Ga  Ga3  1  0.500000  0.000000  0.500000  1
  Ni  Ni4  1  0.000000  0.000000  0.327387  1
  Ni  Ni5  1  0.000000  0.500000  0.833309  1
  Ni  Ni6  1  0.000000  0.500000  0.166691  1
  Ni  Ni7  1  0.000000  0.000000  0.672613  1
  Ni  Ni8  1  0.500000  0.247769  0.246913  1
  Ni  Ni9  1  0.500000  0.752231  0.753087  1
  Ni  Ni10  1  0.500000  0.752231  0.246913  1
  Ni  Ni11  1  0.500000  0.247769  0.753087  1
