# generated using pymatgen
data_Pa20Si16B3
_symmetry_space_group_name_H-M   'P 1'
_cell_length_a   10.53283400
_cell_length_b   10.53283229
_cell_length_c   8.19739000
_cell_angle_alpha   90.00000000
_cell_angle_beta   90.00000000
_cell_angle_gamma   119.99999280
_symmetry_Int_Tables_number   1
_chemical_formula_structural   Pa20Si16B3
_chemical_formula_sum   'Pa20 Si16 B3'
_cell_volume   787.58361002
_cell_formula_units_Z   1
loop_
 _symmetry_equiv_pos_site_id
 _symmetry_equiv_pos_as_xyz
  1  'x, y, z'
loop_
 _atom_site_type_symbol
 _atom_site_label
 _atom_site_symmetry_multiplicity
 _atom_site_fract_x
 _atom_site_fract_y
 _atom_site_fract_z
 _atom_site_occupancy
  Pa  Pa0  1  0.000000  0.000000  0.000000  1
  Pa  Pa1  1  0.000000  0.000000  0.500000  1
  Pa  Pa2  1  0.500000  0.000000  0.296308  1
  Pa  Pa3  1  0.500000  0.500000  0.296308  1
  Pa  Pa4  1  0.000000  0.500000  0.296308  1
  Pa  Pa5  1  0.500000  0.000000  0.703692  1
  Pa  Pa6  1  0.500000  0.500000  0.703692  1
  Pa  Pa7  1  0.000000  0.500000  0.703692  1
  Pa  Pa8  1  0.215530  0.431061  0.000000  1
  Pa  Pa9  1  0.784470  0.215530  0.000000  1
  Pa  Pa10  1  0.431061  0.215530  0.000000  1
  Pa  Pa11  1  0.568939  0.784470  0.000000  1
  Pa  Pa12  1  0.215530  0.784470  0.000000  1
  Pa  Pa13  1  0.784470  0.568939  0.000000  1
  Pa  Pa14  1  0.211177  0.422356  0.500000  1
  Pa  Pa15  1  0.788823  0.211177  0.500000  1
  Pa  Pa16  1  0.422356  0.211177  0.500000  1
  Pa  Pa17  1  0.577644  0.788823  0.500000  1
  Pa  Pa18  1  0.211177  0.788823  0.500000  1
  Pa  Pa19  1  0.788823  0.577644  0.500000  1
  Si  Si20  1  0.333333  0.666667  0.253671  1
  Si  Si21  1  0.666667  0.333333  0.253671  1
  Si  Si22  1  0.666667  0.333333  0.746329  1
  Si  Si23  1  0.333333  0.666667  0.746329  1
  Si  Si24  1  0.225341  0.000000  0.248438  1
  Si  Si25  1  0.225341  0.225341  0.248438  1
  Si  Si26  1  0.000000  0.774659  0.248438  1
  Si  Si27  1  0.000000  0.225341  0.248438  1
  Si  Si28  1  0.774659  0.774659  0.248438  1
  Si  Si29  1  0.225341  0.000000  0.751562  1
  Si  Si30  1  0.774659  0.774659  0.751562  1
  Si  Si31  1  0.774659  0.000000  0.248438  1
  Si  Si32  1  0.000000  0.225341  0.751562  1
  Si  Si33  1  0.000000  0.774659  0.751562  1
  Si  Si34  1  0.774659  0.000000  0.751562  1
  Si  Si35  1  0.225341  0.225341  0.751562  1
  B  B36  1  0.500000  0.000000  0.000000  1
  B  B37  1  0.500000  0.500000  0.000000  1
  B  B38  1  0.000000  0.500000  0.000000  1
