# generated using pymatgen
data_Y4Ho4Re3TcB24
_symmetry_space_group_name_H-M   'P 1'
_cell_length_a   3.67975400
_cell_length_b   9.16899208
_cell_length_c   11.55766200
_cell_angle_alpha   90.02664333
_cell_angle_beta   90.00000000
_cell_angle_gamma   90.00000000
_symmetry_Int_Tables_number   1
_chemical_formula_structural   Y4Ho4Re3TcB24
_chemical_formula_sum   'Y4 Ho4 Re3 Tc1 B24'
_cell_volume   389.95125836
_cell_formula_units_Z   1
loop_
 _symmetry_equiv_pos_site_id
 _symmetry_equiv_pos_as_xyz
  1  'x, y, z'
loop_
 _atom_site_type_symbol
 _atom_site_label
 _atom_site_symmetry_multiplicity
 _atom_site_fract_x
 _atom_site_fract_y
 _atom_site_fract_z
 _atom_site_occupancy
  Y  Y0  1  0.000000  0.323554  0.413925  1
  Y  Y1  1  0.000000  0.676763  0.585839  1
  Y  Y2  1  0.000000  0.823290  0.085973  1
  Y  Y3  1  0.000000  0.176934  0.914027  1
  Ho  Ho4  1  0.000000  0.941944  0.369701  1
  Ho  Ho5  1  0.000000  0.056919  0.629798  1
  Ho  Ho6  1  0.000000  0.443582  0.130719  1
  Ho  Ho7  1  0.000000  0.556989  0.870200  1
  Re  Re8  1  0.000000  0.361302  0.679431  1
  Re  Re9  1  0.000000  0.138789  0.179589  1
  Re  Re10  1  0.000000  0.861289  0.820503  1
  Tc  Tc11  1  0.000000  0.638899  0.320383  1
  B  B12  1  0.500000  0.553485  0.432523  1
  B  B13  1  0.500000  0.446715  0.567186  1
  B  B14  1  0.500000  0.053450  0.067255  1
  B  B15  1  0.500000  0.946768  0.932675  1
  B  B16  1  0.500000  0.748858  0.418152  1
  B  B17  1  0.500000  0.250696  0.581650  1
  B  B18  1  0.500000  0.249467  0.081780  1
  B  B19  1  0.500000  0.750818  0.918291  1
  B  B20  1  0.500000  0.791713  0.265444  1
  B  B21  1  0.500000  0.207943  0.734375  1
  B  B22  1  0.500000  0.292027  0.234638  1
  B  B23  1  0.500000  0.707959  0.765554  1
  B  B24  1  0.500000  0.630654  0.185736  1
  B  B25  1  0.500000  0.369566  0.814404  1
  B  B26  1  0.500000  0.130240  0.314465  1
  B  B27  1  0.500000  0.869493  0.685531  1
  B  B28  1  0.500000  0.982075  0.212029  1
  B  B29  1  0.500000  0.017825  0.787790  1
  B  B30  1  0.500000  0.482474  0.288059  1
  B  B31  1  0.500000  0.517842  0.712177  1
  B  B32  1  0.500000  0.599659  0.027963  1
  B  B33  1  0.500000  0.400600  0.972474  1
  B  B34  1  0.500000  0.099155  0.472025  1
  B  B35  1  0.500000  0.900263  0.527735  1
