# generated using pymatgen
data_Eu3Sn3IrPt2
_symmetry_space_group_name_H-M   'P 1'
_cell_length_a   7.64463900
_cell_length_b   7.64463912
_cell_length_c   4.24412300
_cell_angle_alpha   90.00000000
_cell_angle_beta   90.00000000
_cell_angle_gamma   119.99999517
_symmetry_Int_Tables_number   1
_chemical_formula_structural   Eu3Sn3IrPt2
_chemical_formula_sum   'Eu3 Sn3 Ir1 Pt2'
_cell_volume   214.79916297
_cell_formula_units_Z   1
loop_
 _symmetry_equiv_pos_site_id
 _symmetry_equiv_pos_as_xyz
  1  'x, y, z'
loop_
 _atom_site_type_symbol
 _atom_site_label
 _atom_site_symmetry_multiplicity
 _atom_site_fract_x
 _atom_site_fract_y
 _atom_site_fract_z
 _atom_site_occupancy
  Eu  Eu0  1  0.589909  0.000000  0.000000  1
  Eu  Eu1  1  0.000000  0.589909  0.000000  1
  Eu  Eu2  1  0.410091  0.410091  0.000000  1
  Sn  Sn3  1  0.246889  0.000000  0.500000  1
  Sn  Sn4  1  0.000000  0.246889  0.500000  1
  Sn  Sn5  1  0.753111  0.753111  0.500000  1
  Ir  Ir6  1  0.000000  0.000000  0.000000  1
  Pt  Pt7  1  0.333333  0.666667  0.500000  1
  Pt  Pt8  1  0.666667  0.333333  0.500000  1
