# generated using pymatgen
data_Nb4VGa2GeB
_symmetry_space_group_name_H-M   'P 1'
_cell_length_a   7.75571910
_cell_length_b   7.75133382
_cell_length_c   5.23802109
_cell_angle_alpha   90.01011906
_cell_angle_beta   89.97984075
_cell_angle_gamma   120.01879923
_symmetry_Int_Tables_number   1
_chemical_formula_structural   Nb4VGa2GeB
_chemical_formula_sum   'Nb8 V2 Ga4 Ge2 B2'
_cell_volume   272.65537195
_cell_formula_units_Z   2
loop_
 _symmetry_equiv_pos_site_id
 _symmetry_equiv_pos_as_xyz
  1  'x, y, z'
loop_
 _atom_site_type_symbol
 _atom_site_label
 _atom_site_symmetry_multiplicity
 _atom_site_fract_x
 _atom_site_fract_y
 _atom_site_fract_z
 _atom_site_occupancy
  Nb  Nb0  1  0.244270  0.000000  0.252068  1
  Nb  Nb1  1  0.755730  0.000000  0.747932  1
  Nb  Nb2  1  0.998091  0.242287  0.253604  1
  Nb  Nb3  1  0.001909  0.757713  0.746396  1
  Nb  Nb4  1  0.755805  0.757713  0.253602  1
  Nb  Nb5  1  0.244195  0.242287  0.746398  1
  Nb  Nb6  1  0.665654  0.331307  0.500000  1
  Nb  Nb7  1  0.334346  0.668693  0.500000  1
  V  V8  1  0.335302  0.670598  0.999998  1
  V  V9  1  0.664698  0.329402  0.000002  1
  Ga  Ga10  1  0.998183  0.595160  0.235169  1
  Ga  Ga11  1  0.001817  0.404840  0.764831  1
  Ga  Ga12  1  0.403023  0.404840  0.235171  1
  Ga  Ga13  1  0.596977  0.595160  0.764829  1
  Ge  Ge14  1  0.596916  0.000001  0.237052  1
  Ge  Ge15  1  0.403084  0.999999  0.762948  1
  B  B16  1  0.000000  0.000000  0.000000  1
  B  B17  1  0.000000  0.000000  0.500000  1
