# generated using pymatgen
data_Ac5Ce(HfSb5)2
_symmetry_space_group_name_H-M   'P 1'
_cell_length_a   9.84169411
_cell_length_b   9.84169514
_cell_length_c   6.54667300
_cell_angle_alpha   90.00000000
_cell_angle_beta   90.00000000
_cell_angle_gamma   120.31468139
_symmetry_Int_Tables_number   1
_chemical_formula_structural   Ac5Ce(HfSb5)2
_chemical_formula_sum   'Ac5 Ce1 Hf2 Sb10'
_cell_volume   547.40048539
_cell_formula_units_Z   1
loop_
 _symmetry_equiv_pos_site_id
 _symmetry_equiv_pos_as_xyz
  1  'x, y, z'
loop_
 _atom_site_type_symbol
 _atom_site_label
 _atom_site_symmetry_multiplicity
 _atom_site_fract_x
 _atom_site_fract_y
 _atom_site_fract_z
 _atom_site_occupancy
  Ac  Ac0  1  0.616472  0.002442  0.250000  1
  Ac  Ac1  1  0.379086  0.998204  0.750000  1
  Ac  Ac2  1  0.002442  0.616472  0.250000  1
  Ac  Ac3  1  0.998204  0.379086  0.750000  1
  Ac  Ac4  1  0.386238  0.386238  0.250000  1
  Ce  Ce5  1  0.620526  0.620526  0.750000  1
  Hf  Hf6  1  0.999749  0.999749  0.001059  1
  Hf  Hf7  1  0.999749  0.999749  0.498941  1
  Sb  Sb8  1  0.252342  0.000603  0.250000  1
  Sb  Sb9  1  0.743285  0.989341  0.750000  1
  Sb  Sb10  1  0.000603  0.252342  0.250000  1
  Sb  Sb11  1  0.989341  0.743285  0.750000  1
  Sb  Sb12  1  0.745674  0.745674  0.250000  1
  Sb  Sb13  1  0.254347  0.254347  0.750000  1
  Sb  Sb14  1  0.339574  0.666397  0.993842  1
  Sb  Sb15  1  0.666397  0.339574  0.993842  1
  Sb  Sb16  1  0.666397  0.339574  0.506158  1
  Sb  Sb17  1  0.339574  0.666397  0.506158  1
