# generated using pymatgen
data_Y3Al12Ru3Rh
_symmetry_space_group_name_H-M   'P 1'
_cell_length_a   8.80360669
_cell_length_b   8.80360671
_cell_length_c   9.55255000
_cell_angle_alpha   90.00000000
_cell_angle_beta   90.00000000
_cell_angle_gamma   119.47951787
_symmetry_Int_Tables_number   1
_chemical_formula_structural   Y3Al12Ru3Rh
_chemical_formula_sum   'Y6 Al24 Ru6 Rh2'
_cell_volume   644.50332261
_cell_formula_units_Z   2
loop_
 _symmetry_equiv_pos_site_id
 _symmetry_equiv_pos_as_xyz
  1  'x, y, z'
loop_
 _atom_site_type_symbol
 _atom_site_label
 _atom_site_symmetry_multiplicity
 _atom_site_fract_x
 _atom_site_fract_y
 _atom_site_fract_z
 _atom_site_occupancy
  Y  Y0  1  0.189365  0.386191  0.250000  1
  Y  Y1  1  0.810635  0.613809  0.750000  1
  Y  Y2  1  0.613809  0.810635  0.250000  1
  Y  Y3  1  0.386191  0.189365  0.750000  1
  Y  Y4  1  0.194458  0.805542  0.250000  1
  Y  Y5  1  0.805542  0.194458  0.750000  1
  Al  Al6  1  0.332144  0.667856  0.018619  1
  Al  Al7  1  0.667856  0.332144  0.981381  1
  Al  Al8  1  0.667856  0.332144  0.518619  1
  Al  Al9  1  0.332144  0.667856  0.481381  1
  Al  Al10  1  0.161283  0.323744  0.578255  1
  Al  Al11  1  0.838717  0.676256  0.421745  1
  Al  Al12  1  0.676256  0.838717  0.578255  1
  Al  Al13  1  0.838717  0.676256  0.078255  1
  Al  Al14  1  0.323744  0.161283  0.421745  1
  Al  Al15  1  0.161283  0.323744  0.921745  1
  Al  Al16  1  0.163163  0.836837  0.577704  1
  Al  Al17  1  0.323744  0.161283  0.078255  1
  Al  Al18  1  0.836837  0.163163  0.422296  1
  Al  Al19  1  0.676256  0.838717  0.921745  1
  Al  Al20  1  0.836837  0.163163  0.077704  1
  Al  Al21  1  0.163163  0.836837  0.922296  1
  Al  Al22  1  0.560201  0.122735  0.250000  1
  Al  Al23  1  0.439799  0.877265  0.750000  1
  Al  Al24  1  0.877265  0.439799  0.250000  1
  Al  Al25  1  0.122735  0.560201  0.750000  1
  Al  Al26  1  0.560756  0.439244  0.250000  1
  Al  Al27  1  0.439244  0.560756  0.750000  1
  Al  Al28  1  0.999416  0.000584  0.250000  1
  Al  Al29  1  0.000584  0.999416  0.750000  1
  Ru  Ru30  1  0.500000  0.000000  0.000000  1
  Ru  Ru31  1  0.000000  0.500000  0.000000  1
  Ru  Ru32  1  0.500000  0.000000  0.500000  1
  Ru  Ru33  1  0.000000  0.500000  0.500000  1
  Ru  Ru34  1  0.000000  0.000000  0.000000  1
  Ru  Ru35  1  0.000000  0.000000  0.500000  1
  Rh  Rh36  1  0.500000  0.500000  0.000000  1
  Rh  Rh37  1  0.500000  0.500000  0.500000  1
