# generated using pymatgen
data_Tb5Er5(GaSb)4
_symmetry_space_group_name_H-M   'P 1'
_cell_length_a   8.67850829
_cell_length_b   8.58420636
_cell_length_c   7.90264010
_cell_angle_alpha   90.04673119
_cell_angle_beta   90.08216150
_cell_angle_gamma   125.50678861
_symmetry_Int_Tables_number   1
_chemical_formula_structural   Tb5Er5(GaSb)4
_chemical_formula_sum   'Tb5 Er5 Ga4 Sb4'
_cell_volume   479.25364388
_cell_formula_units_Z   1
loop_
 _symmetry_equiv_pos_site_id
 _symmetry_equiv_pos_as_xyz
  1  'x, y, z'
loop_
 _atom_site_type_symbol
 _atom_site_label
 _atom_site_symmetry_multiplicity
 _atom_site_fract_x
 _atom_site_fract_y
 _atom_site_fract_z
 _atom_site_occupancy
  Tb  Tb0  1  0.041024  0.305381  0.330449  1
  Tb  Tb1  1  0.958427  0.694290  0.669522  1
  Tb  Tb2  1  0.458491  0.194249  0.829820  1
  Tb  Tb3  1  0.798845  0.537951  0.168367  1
  Tb  Tb4  1  0.541673  0.806258  0.169889  1
  Er  Er5  1  0.203356  0.462464  0.833082  1
  Er  Er6  1  0.703470  0.961961  0.666996  1
  Er  Er7  1  0.295530  0.037410  0.333129  1
  Er  Er8  1  0.000775  0.000634  0.999535  1
  Er  Er9  1  0.499153  0.499584  0.500496  1
  Ga  Ga10  1  0.374684  0.374939  0.124263  1
  Ga  Ga11  1  0.623867  0.624847  0.874951  1
  Ga  Ga12  1  0.123956  0.124556  0.623824  1
  Ga  Ga13  1  0.875831  0.876509  0.377160  1
  Sb  Sb14  1  0.799615  0.208625  0.992580  1
  Sb  Sb15  1  0.203151  0.792316  0.004833  1
  Sb  Sb16  1  0.699530  0.288266  0.495095  1
  Sb  Sb17  1  0.298620  0.709759  0.506008  1
