# generated using pymatgen
data_La8Lu12Sn13Au3
_symmetry_space_group_name_H-M   'P 1'
_cell_length_a   7.81972600
_cell_length_b   8.35007966
_cell_length_c   15.33254100
_cell_angle_alpha   90.00000000
_cell_angle_beta   90.00000000
_cell_angle_gamma   89.68442175
_symmetry_Int_Tables_number   1
_chemical_formula_structural   La8Lu12Sn13Au3
_chemical_formula_sum   'La8 Lu12 Sn13 Au3'
_cell_volume   1001.12821523
_cell_formula_units_Z   1
loop_
 _symmetry_equiv_pos_site_id
 _symmetry_equiv_pos_as_xyz
  1  'x, y, z'
loop_
 _atom_site_type_symbol
 _atom_site_label
 _atom_site_symmetry_multiplicity
 _atom_site_fract_x
 _atom_site_fract_y
 _atom_site_fract_z
 _atom_site_occupancy
  La  La0  1  0.504042  0.319353  0.906418  1
  La  La1  1  0.003581  0.181629  0.593670  1
  La  La2  1  0.496682  0.680479  0.408909  1
  La  La3  1  0.995611  0.820733  0.093406  1
  La  La4  1  0.496682  0.680479  0.091091  1
  La  La5  1  0.995611  0.820733  0.406594  1
  La  La6  1  0.504042  0.319353  0.593582  1
  La  La7  1  0.003581  0.181629  0.906330  1
  Lu  Lu8  1  0.337991  0.828498  0.867307  1
  Lu  Lu9  1  0.834552  0.669113  0.632247  1
  Lu  Lu10  1  0.649922  0.173787  0.371422  1
  Lu  Lu11  1  0.177772  0.335699  0.127771  1
  Lu  Lu12  1  0.649922  0.173787  0.128578  1
  Lu  Lu13  1  0.177772  0.335699  0.372229  1
  Lu  Lu14  1  0.337991  0.828498  0.632693  1
  Lu  Lu15  1  0.834552  0.669113  0.867753  1
  Lu  Lu16  1  0.184809  0.501807  0.750000  1
  Lu  Lu17  1  0.685448  0.997660  0.750000  1
  Lu  Lu18  1  0.815807  0.496895  0.250000  1
  Lu  Lu19  1  0.323022  0.998829  0.250000  1
  Sn  Sn20  1  0.319364  0.038048  0.038545  1
  Sn  Sn21  1  0.825734  0.459395  0.458284  1
  Sn  Sn22  1  0.680527  0.961555  0.540793  1
  Sn  Sn23  1  0.176968  0.539156  0.957838  1
  Sn  Sn24  1  0.680527  0.961555  0.959207  1
  Sn  Sn25  1  0.176968  0.539156  0.542162  1
  Sn  Sn26  1  0.319364  0.038048  0.461455  1
  Sn  Sn27  1  0.825734  0.459395  0.041716  1
  Sn  Sn28  1  0.961052  0.127189  0.250000  1
  Sn  Sn29  1  0.298380  0.132750  0.750000  1
  Sn  Sn30  1  0.798648  0.364621  0.750000  1
  Sn  Sn31  1  0.691064  0.860025  0.250000  1
  Sn  Sn32  1  0.201090  0.636783  0.250000  1
  Au  Au33  1  0.536798  0.628028  0.750000  1
  Au  Au34  1  0.036117  0.870119  0.750000  1
  Au  Au35  1  0.462271  0.370405  0.250000  1
