# generated using pymatgen
data_NdDy3CuNiPt2
_symmetry_space_group_name_H-M   'P 1'
_cell_length_a   4.39170700
_cell_length_b   5.58446092
_cell_length_c   7.19044406
_cell_angle_alpha   90.84928531
_cell_angle_beta   90.00000000
_cell_angle_gamma   90.00000000
_symmetry_Int_Tables_number   1
_chemical_formula_structural   NdDy3CuNiPt2
_chemical_formula_sum   'Nd1 Dy3 Cu1 Ni1 Pt2'
_cell_volume   176.32854062
_cell_formula_units_Z   1
loop_
 _symmetry_equiv_pos_site_id
 _symmetry_equiv_pos_as_xyz
  1  'x, y, z'
loop_
 _atom_site_type_symbol
 _atom_site_label
 _atom_site_symmetry_multiplicity
 _atom_site_fract_x
 _atom_site_fract_y
 _atom_site_fract_z
 _atom_site_occupancy
  Nd  Nd0  1  0.500000  0.136569  0.186858  1
  Dy  Dy1  1  0.000000  0.631902  0.328269  1
  Dy  Dy2  1  0.000000  0.868727  0.810395  1
  Dy  Dy3  1  0.500000  0.360065  0.677022  1
  Cu  Cu4  1  0.500000  0.636155  0.034885  1
  Ni  Ni5  1  0.000000  0.139355  0.465151  1
  Pt  Pt6  1  0.000000  0.375431  0.953511  1
  Pt  Pt7  1  0.500000  0.851795  0.543911  1
