# generated using pymatgen
data_Tb3DyCo12(SiB3)2
_symmetry_space_group_name_H-M   'P 1'
_cell_length_a   5.10502101
_cell_length_b   5.10538433
_cell_length_c   12.31194800
_cell_angle_alpha   90.00001730
_cell_angle_beta   89.99998467
_cell_angle_gamma   119.99021359
_symmetry_Int_Tables_number   1
_chemical_formula_structural   Tb3DyCo12(SiB3)2
_chemical_formula_sum   'Tb3 Dy1 Co12 Si2 B6'
_cell_volume   277.92409381
_cell_formula_units_Z   1
loop_
 _symmetry_equiv_pos_site_id
 _symmetry_equiv_pos_as_xyz
  1  'x, y, z'
loop_
 _atom_site_type_symbol
 _atom_site_label
 _atom_site_symmetry_multiplicity
 _atom_site_fract_x
 _atom_site_fract_y
 _atom_site_fract_z
 _atom_site_occupancy
  Tb  Tb0  1  0.999992  0.000000  0.999997  1
  Tb  Tb1  1  0.999988  0.000000  0.257756  1
  Tb  Tb2  1  0.999995  0.000000  0.742260  1
  Dy  Dy3  1  0.999992  0.000000  0.499961  1
  Co  Co4  1  0.499989  0.000000  0.149532  1
  Co  Co5  1  0.499989  0.500000  0.149542  1
  Co  Co6  1  0.999989  0.500000  0.149537  1
  Co  Co7  1  0.499993  0.999999  0.850479  1
  Co  Co8  1  0.499994  0.500000  0.850457  1
  Co  Co9  1  0.999994  0.500000  0.850453  1
  Co  Co10  1  0.499991  0.000000  0.382450  1
  Co  Co11  1  0.499991  0.500000  0.382460  1
  Co  Co12  1  0.999991  0.500000  0.382461  1
  Co  Co13  1  0.499993  0.000000  0.617546  1
  Co  Co14  1  0.499993  0.500000  0.617543  1
  Co  Co15  1  0.999993  0.500000  0.617547  1
  Si  Si16  1  0.333307  0.666627  0.000007  1
  Si  Si17  1  0.666677  0.333373  0.000007  1
  B  B18  1  0.333326  0.666686  0.499987  1
  B  B19  1  0.666657  0.333314  0.499987  1
  B  B20  1  0.333306  0.666661  0.264207  1
  B  B21  1  0.666672  0.333339  0.264207  1
  B  B22  1  0.666640  0.333299  0.735806  1
  B  B23  1  0.333346  0.666701  0.735806  1
