# generated using pymatgen
data_CeSm2(ZnPt)3
_symmetry_space_group_name_H-M   'P 1'
_cell_length_a   7.44898700
_cell_length_b   7.39369914
_cell_length_c   3.89940100
_cell_angle_alpha   90.00000000
_cell_angle_beta   90.00000000
_cell_angle_gamma   120.24767461
_symmetry_Int_Tables_number   1
_chemical_formula_structural   CeSm2(ZnPt)3
_chemical_formula_sum   'Ce1 Sm2 Zn3 Pt3'
_cell_volume   185.52319669
_cell_formula_units_Z   1
loop_
 _symmetry_equiv_pos_site_id
 _symmetry_equiv_pos_as_xyz
  1  'x, y, z'
loop_
 _atom_site_type_symbol
 _atom_site_label
 _atom_site_symmetry_multiplicity
 _atom_site_fract_x
 _atom_site_fract_y
 _atom_site_fract_z
 _atom_site_occupancy
  Ce  Ce0  1  0.410037  0.000000  0.000000  1
  Sm  Sm1  1  0.998557  0.405393  0.000000  1
  Sm  Sm2  1  0.593162  0.594606  0.000000  1
  Zn  Zn3  1  0.756467  0.000000  0.500000  1
  Zn  Zn4  1  0.246831  0.249656  0.500000  1
  Zn  Zn5  1  0.997174  0.750344  0.500000  1
  Pt  Pt6  1  0.003856  0.000000  0.000000  1
  Pt  Pt7  1  0.659812  0.325708  0.500000  1
  Pt  Pt8  1  0.334105  0.674293  0.500000  1
