# generated using pymatgen
data_La2Ho2Ni13Ir
_symmetry_space_group_name_H-M   'P 1'
_cell_length_a   5.00334088
_cell_length_b   5.00334217
_cell_length_c   12.58534301
_cell_angle_alpha   78.53458703
_cell_angle_beta   78.53456964
_cell_angle_gamma   60.00000680
_symmetry_Int_Tables_number   1
_chemical_formula_structural   La2Ho2Ni13Ir
_chemical_formula_sum   'La2 Ho2 Ni13 Ir1'
_cell_volume   265.56065149
_cell_formula_units_Z   1
loop_
 _symmetry_equiv_pos_site_id
 _symmetry_equiv_pos_as_xyz
  1  'x, y, z'
loop_
 _atom_site_type_symbol
 _atom_site_label
 _atom_site_symmetry_multiplicity
 _atom_site_fract_x
 _atom_site_fract_y
 _atom_site_fract_z
 _atom_site_occupancy
  La  La0  1  0.948614  0.948614  0.154158  1
  La  La1  1  0.051386  0.051386  0.845842  1
  Ho  Ho2  1  0.852215  0.852215  0.443354  1
  Ho  Ho3  1  0.147785  0.147785  0.556646  1
  Ni  Ni4  1  0.721318  0.721318  0.836047  1
  Ni  Ni5  1  0.278682  0.278682  0.163953  1
  Ni  Ni6  1  0.612297  0.612297  0.163108  1
  Ni  Ni7  1  0.387703  0.387703  0.836892  1
  Ni  Ni8  1  0.000000  0.500000  0.000000  1
  Ni  Ni9  1  0.500000  0.000000  0.000000  1
  Ni  Ni10  1  0.500000  0.500000  0.000000  1
  Ni  Ni11  1  0.389604  0.389604  0.327673  1
  Ni  Ni12  1  0.893120  0.389604  0.327673  1
  Ni  Ni13  1  0.389604  0.893120  0.327673  1
  Ni  Ni14  1  0.610396  0.610396  0.672327  1
  Ni  Ni15  1  0.106880  0.610396  0.672327  1
  Ni  Ni16  1  0.610396  0.106880  0.672327  1
  Ir  Ir17  1  0.500000  0.500000  0.500000  1
