# generated using pymatgen
data_Ho2TcC2
_symmetry_space_group_name_H-M   'P 1'
_cell_length_a   5.07375900
_cell_length_b   6.55313400
_cell_length_c   9.85474500
_cell_angle_alpha   90.00000000
_cell_angle_beta   90.00000000
_cell_angle_gamma   90.00000000
_symmetry_Int_Tables_number   1
_chemical_formula_structural   Ho2TcC2
_chemical_formula_sum   'Ho8 Tc4 C8'
_cell_volume   327.66063933
_cell_formula_units_Z   4
loop_
 _symmetry_equiv_pos_site_id
 _symmetry_equiv_pos_as_xyz
  1  'x, y, z'
loop_
 _atom_site_type_symbol
 _atom_site_label
 _atom_site_symmetry_multiplicity
 _atom_site_fract_x
 _atom_site_fract_y
 _atom_site_fract_z
 _atom_site_occupancy
  Ho  Ho0  1  0.250000  0.466963  0.783780  1
  Ho  Ho1  1  0.750000  0.033037  0.283780  1
  Ho  Ho2  1  0.250000  0.966963  0.716220  1
  Ho  Ho3  1  0.750000  0.533037  0.216220  1
  Ho  Ho4  1  0.250000  0.822960  0.058168  1
  Ho  Ho5  1  0.750000  0.677040  0.558168  1
  Ho  Ho6  1  0.250000  0.322960  0.441832  1
  Ho  Ho7  1  0.750000  0.177040  0.941832  1
  Tc  Tc8  1  0.250000  0.281855  0.133430  1
  Tc  Tc9  1  0.750000  0.218145  0.633430  1
  Tc  Tc10  1  0.250000  0.781855  0.366570  1
  Tc  Tc11  1  0.750000  0.718145  0.866570  1
  C  C12  1  0.250000  0.177860  0.950513  1
  C  C13  1  0.750000  0.822140  0.049487  1
  C  C14  1  0.250000  0.677860  0.549487  1
  C  C15  1  0.750000  0.322140  0.450513  1
  C  C16  1  0.250000  0.048601  0.258425  1
  C  C17  1  0.750000  0.451399  0.758425  1
  C  C18  1  0.250000  0.548601  0.241575  1
  C  C19  1  0.750000  0.951399  0.741575  1
