# generated using pymatgen
data_Ho3Sc2In4IrPt
_symmetry_space_group_name_H-M   'P 1'
_cell_length_a   3.58560200
_cell_length_b   7.94028219
_cell_length_c   17.80771217
_cell_angle_alpha   90.01574053
_cell_angle_beta   90.00000000
_cell_angle_gamma   90.00000000
_symmetry_Int_Tables_number   1
_chemical_formula_structural   Ho3Sc2In4IrPt
_chemical_formula_sum   'Ho6 Sc4 In8 Ir2 Pt2'
_cell_volume   506.99786414
_cell_formula_units_Z   2
loop_
 _symmetry_equiv_pos_site_id
 _symmetry_equiv_pos_as_xyz
  1  'x, y, z'
loop_
 _atom_site_type_symbol
 _atom_site_label
 _atom_site_symmetry_multiplicity
 _atom_site_fract_x
 _atom_site_fract_y
 _atom_site_fract_z
 _atom_site_occupancy
  Ho  Ho0  1  0.000000  0.236402  0.218804  1
  Ho  Ho1  1  0.000000  0.763598  0.781196  1
  Ho  Ho2  1  0.000000  0.253394  0.717401  1
  Ho  Ho3  1  0.000000  0.746606  0.282599  1
  Ho  Ho4  1  0.000000  0.000000  0.000000  1
  Ho  Ho5  1  0.000000  0.500000  0.500000  1
  Sc  Sc6  1  0.000000  0.115136  0.410892  1
  Sc  Sc7  1  0.000000  0.884864  0.589108  1
  Sc  Sc8  1  0.000000  0.382992  0.912204  1
  Sc  Sc9  1  0.000000  0.617008  0.087796  1
  In  In10  1  0.500000  0.414122  0.351158  1
  In  In11  1  0.500000  0.585878  0.648842  1
  In  In12  1  0.500000  0.082419  0.850904  1
  In  In13  1  0.500000  0.917581  0.149096  1
  In  In14  1  0.500000  0.305429  0.060229  1
  In  In15  1  0.500000  0.694571  0.939771  1
  In  In16  1  0.500000  0.193932  0.560936  1
  In  In17  1  0.500000  0.806068  0.439064  1
  Ir  Ir18  1  0.500000  0.027063  0.307772  1
  Ir  Ir19  1  0.500000  0.972937  0.692228  1
  Pt  Pt20  1  0.500000  0.472609  0.807356  1
  Pt  Pt21  1  0.500000  0.527391  0.192644  1
