# generated using pymatgen
data_Tm3Zr3TiBi2
_symmetry_space_group_name_H-M   'P 1'
_cell_length_a   7.91777400
_cell_length_b   7.91777363
_cell_length_c   4.34489400
_cell_angle_alpha   90.00000000
_cell_angle_beta   90.00000000
_cell_angle_gamma   120.00000154
_symmetry_Int_Tables_number   1
_chemical_formula_structural   Tm3Zr3TiBi2
_chemical_formula_sum   'Tm3 Zr3 Ti1 Bi2'
_cell_volume   235.89351032
_cell_formula_units_Z   1
loop_
 _symmetry_equiv_pos_site_id
 _symmetry_equiv_pos_as_xyz
  1  'x, y, z'
loop_
 _atom_site_type_symbol
 _atom_site_label
 _atom_site_symmetry_multiplicity
 _atom_site_fract_x
 _atom_site_fract_y
 _atom_site_fract_z
 _atom_site_occupancy
  Tm  Tm0  1  0.397068  0.000000  0.000000  1
  Tm  Tm1  1  0.000000  0.397068  0.000000  1
  Tm  Tm2  1  0.602932  0.602931  0.000000  1
  Zr  Zr3  1  0.774316  0.000000  0.499999  1
  Zr  Zr4  1  0.225685  0.225684  0.499999  1
  Zr  Zr5  1  0.000000  0.774315  0.499999  1
  Ti  Ti6  1  0.000000  0.000000  0.000000  1
  Bi  Bi7  1  0.666666  0.333333  0.499999  1
  Bi  Bi8  1  0.333333  0.666666  0.499999  1
