# generated using pymatgen
data_Ba2LiLaO4
_symmetry_space_group_name_H-M   'P 1'
_cell_length_a   12.21552800
_cell_length_b   12.34948200
_cell_length_c   3.73009600
_cell_angle_alpha   90.00000000
_cell_angle_beta   90.00000000
_cell_angle_gamma   90.00000000
_symmetry_Int_Tables_number   1
_chemical_formula_structural   Ba2LiLaO4
_chemical_formula_sum   'Ba8 Li4 La4 O16'
_cell_volume   562.70528510
_cell_formula_units_Z   4
loop_
 _symmetry_equiv_pos_site_id
 _symmetry_equiv_pos_as_xyz
  1  'x, y, z'
loop_
 _atom_site_type_symbol
 _atom_site_label
 _atom_site_symmetry_multiplicity
 _atom_site_fract_x
 _atom_site_fract_y
 _atom_site_fract_z
 _atom_site_occupancy
  Ba  Ba0  1  0.573216  0.862144  0.750001  1
  Ba  Ba1  1  0.073215  0.637857  0.250001  1
  Ba  Ba2  1  0.926784  0.362143  0.750001  1
  Ba  Ba3  1  0.426784  0.137856  0.250001  1
  Ba  Ba4  1  0.385295  0.594999  0.750001  1
  Ba  Ba5  1  0.885295  0.905001  0.250001  1
  Ba  Ba6  1  0.114705  0.094999  0.750001  1
  Ba  Ba7  1  0.614705  0.405000  0.250001  1
  Li  Li8  1  0.091748  0.840576  0.750001  1
  Li  Li9  1  0.591748  0.659424  0.250001  1
  Li  Li10  1  0.408252  0.340577  0.750001  1
  Li  Li11  1  0.908251  0.159424  0.250001  1
  La  La12  1  0.793851  0.641629  0.750001  1
  La  La13  1  0.293852  0.858371  0.250001  1
  La  La14  1  0.706149  0.141629  0.750001  1
  La  La15  1  0.206149  0.358371  0.250001  1
  O  O16  1  0.954942  0.756585  0.750001  1
  O  O17  1  0.454942  0.743414  0.250001  1
  O  O18  1  0.545058  0.256585  0.750001  1
  O  O19  1  0.045059  0.243414  0.250001  1
  O  O20  1  0.608646  0.572186  0.750001  1
  O  O21  1  0.108647  0.927814  0.250001  1
  O  O22  1  0.891353  0.072187  0.750001  1
  O  O23  1  0.391353  0.427813  0.250001  1
  O  O24  1  0.220219  0.746364  0.750001  1
  O  O25  1  0.720219  0.753636  0.250001  1
  O  O26  1  0.279781  0.246364  0.750001  1
  O  O27  1  0.779781  0.253636  0.250001  1
  O  O28  1  0.364952  0.969799  0.750001  1
  O  O29  1  0.864952  0.530201  0.250001  1
  O  O30  1  0.135048  0.469798  0.750001  1
  O  O31  1  0.635049  0.030201  0.250001  1
