# generated using pymatgen
data_BaPaRhS3
_symmetry_space_group_name_H-M   'P 1'
_cell_length_a   7.18830946
_cell_length_b   7.18830920
_cell_length_c   10.00432100
_cell_angle_alpha   90.00000000
_cell_angle_beta   90.00000000
_cell_angle_gamma   147.59614218
_symmetry_Int_Tables_number   1
_chemical_formula_structural   BaPaRhS3
_chemical_formula_sum   'Ba2 Pa2 Rh2 S6'
_cell_volume   277.02032541
_cell_formula_units_Z   2
loop_
 _symmetry_equiv_pos_site_id
 _symmetry_equiv_pos_as_xyz
  1  'x, y, z'
loop_
 _atom_site_type_symbol
 _atom_site_label
 _atom_site_symmetry_multiplicity
 _atom_site_fract_x
 _atom_site_fract_y
 _atom_site_fract_z
 _atom_site_occupancy
  Ba  Ba0  1  0.254392  0.745609  0.250000  1
  Ba  Ba1  1  0.745609  0.254392  0.750000  1
  Pa  Pa2  1  0.000000  0.000000  0.000000  1
  Pa  Pa3  1  0.000000  0.000000  0.500000  1
  Rh  Rh4  1  0.525694  0.474308  0.250000  1
  Rh  Rh5  1  0.474308  0.525694  0.750000  1
  S  S6  1  0.632318  0.367683  0.056841  1
  S  S7  1  0.929990  0.070012  0.250000  1
  S  S8  1  0.632318  0.367683  0.443159  1
  S  S9  1  0.367683  0.632318  0.556841  1
  S  S10  1  0.070012  0.929990  0.750000  1
  S  S11  1  0.367683  0.632318  0.943159  1
