# generated using pymatgen
data_Ba12SiP3I8
_symmetry_space_group_name_H-M   'P 1'
_cell_length_a   16.13909632
_cell_length_b   15.39220308
_cell_length_c   8.60909231
_cell_angle_alpha   78.92767792
_cell_angle_beta   69.58366781
_cell_angle_gamma   31.16349569
_symmetry_Int_Tables_number   1
_chemical_formula_structural   Ba12SiP3I8
_chemical_formula_sum   'Ba12 Si1 P3 I8'
_cell_volume   1011.89204301
_cell_formula_units_Z   1
loop_
 _symmetry_equiv_pos_site_id
 _symmetry_equiv_pos_as_xyz
  1  'x, y, z'
loop_
 _atom_site_type_symbol
 _atom_site_label
 _atom_site_symmetry_multiplicity
 _atom_site_fract_x
 _atom_site_fract_y
 _atom_site_fract_z
 _atom_site_occupancy
  Ba  Ba0  1  0.372906  0.945705  0.589351  1
  Ba  Ba1  1  0.595190  0.087418  0.373440  1
  Ba  Ba2  1  0.305385  0.875091  0.156834  1
  Ba  Ba3  1  0.945784  0.373165  0.093881  1
  Ba  Ba4  1  0.458772  0.039009  0.042050  1
  Ba  Ba5  1  0.874940  0.305716  0.660869  1
  Ba  Ba6  1  0.088927  0.593121  0.943148  1
  Ba  Ba7  1  0.661185  0.158897  0.874319  1
  Ba  Ba8  1  0.791264  0.209172  0.206689  1
  Ba  Ba9  1  0.209623  0.790692  0.792689  1
  Ba  Ba10  1  0.157886  0.662364  0.306011  1
  Ba  Ba11  1  0.038614  0.459220  0.460235  1
  Si  Si12  1  0.332438  0.334442  0.166690  1
  P  P13  1  0.083825  0.084508  0.916174  1
  P  P14  1  0.918752  0.916742  0.082330  1
  P  P15  1  0.164471  0.164006  0.335621  1
  I  I16  1  0.671184  0.670538  0.829133  1
  I  I17  1  0.745033  0.746140  0.253966  1
  I  I18  1  0.252874  0.251929  0.747569  1
  I  I19  1  0.577962  0.578464  0.421696  1
  I  I20  1  0.997667  0.998114  0.502154  1
  I  I21  1  0.828125  0.827901  0.672603  1
  I  I22  1  0.422056  0.423318  0.577115  1
  I  I23  1  0.505136  0.504330  0.995435  1
