# generated using pymatgen
data_Ti10Al2Sn3Sb
_symmetry_space_group_name_H-M   'P 1'
_cell_length_a   7.92363795
_cell_length_b   7.92363828
_cell_length_c   7.90285895
_cell_angle_alpha   96.22532226
_cell_angle_beta   96.22531732
_cell_angle_gamma   141.59980930
_symmetry_Int_Tables_number   1
_chemical_formula_structural   Ti10Al2Sn3Sb
_chemical_formula_sum   'Ti10 Al2 Sn3 Sb1'
_cell_volume   290.96209427
_cell_formula_units_Z   1
loop_
 _symmetry_equiv_pos_site_id
 _symmetry_equiv_pos_as_xyz
  1  'x, y, z'
loop_
 _atom_site_type_symbol
 _atom_site_label
 _atom_site_symmetry_multiplicity
 _atom_site_fract_x
 _atom_site_fract_y
 _atom_site_fract_z
 _atom_site_occupancy
  Ti  Ti0  1  0.217420  0.924882  0.142303  1
  Ti  Ti1  1  0.424882  0.717420  0.142303  1
  Ti  Ti2  1  0.073909  0.218301  0.292209  1
  Ti  Ti3  1  0.718301  0.573909  0.292209  1
  Ti  Ti4  1  0.748350  0.248350  0.499548  1
  Ti  Ti5  1  0.251196  0.751196  0.499548  1
  Ti  Ti6  1  0.281982  0.424765  0.706747  1
  Ti  Ti7  1  0.924765  0.781982  0.706747  1
  Ti  Ti8  1  0.782792  0.076334  0.859127  1
  Ti  Ti9  1  0.576333  0.282792  0.859126  1
  Al  Al10  1  0.249958  0.249958  0.999918  1
  Al  Al11  1  0.749958  0.749958  0.999918  1
  Sn  Sn12  1  0.334863  0.165183  0.500045  1
  Sn  Sn13  1  0.665183  0.834863  0.500045  1
  Sn  Sn14  1  0.164508  0.664508  0.829017  1
  Sb  Sb15  1  0.835594  0.335594  0.171188  1
