# generated using pymatgen
data_Rb2MnPt11O24
_symmetry_space_group_name_H-M   'P 1'
_cell_length_a   7.57729571
_cell_length_b   7.65148879
_cell_length_c   9.41547200
_cell_angle_alpha   101.98859380
_cell_angle_beta   102.08627496
_cell_angle_gamma   87.43811464
_symmetry_Int_Tables_number   1
_chemical_formula_structural   Rb2MnPt11O24
_chemical_formula_sum   'Rb2 Mn1 Pt11 O24'
_cell_volume   522.14313599
_cell_formula_units_Z   1
loop_
 _symmetry_equiv_pos_site_id
 _symmetry_equiv_pos_as_xyz
  1  'x, y, z'
loop_
 _atom_site_type_symbol
 _atom_site_label
 _atom_site_symmetry_multiplicity
 _atom_site_fract_x
 _atom_site_fract_y
 _atom_site_fract_z
 _atom_site_occupancy
  Rb  Rb0  1  0.001817  0.998350  0.209337  1
  Rb  Rb1  1  0.006110  0.002363  0.788827  1
  Mn  Mn2  1  0.479206  0.186319  0.944794  1
  Pt  Pt3  1  0.484546  0.183936  0.612633  1
  Pt  Pt4  1  0.485125  0.183361  0.277857  1
  Pt  Pt5  1  0.182827  0.518145  0.116501  1
  Pt  Pt6  1  0.185877  0.517181  0.449716  1
  Pt  Pt7  1  0.183618  0.520949  0.784652  1
  Pt  Pt8  1  0.814738  0.480683  0.217672  1
  Pt  Pt9  1  0.815905  0.483070  0.549587  1
  Pt  Pt10  1  0.814973  0.481902  0.880895  1
  Pt  Pt11  1  0.517027  0.815737  0.722492  1
  Pt  Pt12  1  0.515244  0.815008  0.055248  1
  Pt  Pt13  1  0.517710  0.814859  0.388477  1
  O  O14  1  0.356436  0.039428  0.076272  1
  O  O15  1  0.361315  0.044631  0.401175  1
  O  O16  1  0.359230  0.039294  0.723443  1
  O  O17  1  0.281160  0.369824  0.274279  1
  O  O18  1  0.290591  0.389363  0.945812  1
  O  O19  1  0.282879  0.373190  0.610312  1
  O  O20  1  0.050116  0.640124  0.283466  1
  O  O21  1  0.048586  0.641270  0.611403  1
  O  O22  1  0.048208  0.644810  0.950348  1
  O  O23  1  0.625756  0.287388  0.486493  1
  O  O24  1  0.617984  0.296305  0.819143  1
  O  O25  1  0.617520  0.295035  0.152769  1
  O  O26  1  0.369851  0.718665  0.183083  1
  O  O27  1  0.385183  0.703920  0.512789  1
  O  O28  1  0.368521  0.722392  0.848241  1
  O  O29  1  0.951711  0.358512  0.051114  1
  O  O30  1  0.953030  0.361225  0.386227  1
  O  O31  1  0.953316  0.362333  0.718537  1
  O  O32  1  0.718789  0.626097  0.724088  1
  O  O33  1  0.713357  0.620246  0.055408  1
  O  O34  1  0.717382  0.625209  0.390641  1
  O  O35  1  0.641873  0.937936  0.931012  1
  O  O36  1  0.640787  0.950258  0.265866  1
  O  O37  1  0.641698  0.950673  0.599396  1
