# generated using pymatgen
data_TbNd10In9(PdPt)2
_symmetry_space_group_name_H-M   'P 1'
_cell_length_a   13.50727309
_cell_length_b   13.46487897
_cell_length_c   3.79944200
_cell_angle_alpha   90.00000000
_cell_angle_beta   90.00000000
_cell_angle_gamma   111.17059764
_symmetry_Int_Tables_number   1
_chemical_formula_structural   TbNd10In9(PdPt)2
_chemical_formula_sum   'Tb1 Nd10 In9 Pd2 Pt2'
_cell_volume   644.38155922
_cell_formula_units_Z   1
loop_
 _symmetry_equiv_pos_site_id
 _symmetry_equiv_pos_as_xyz
  1  'x, y, z'
loop_
 _atom_site_type_symbol
 _atom_site_label
 _atom_site_symmetry_multiplicity
 _atom_site_fract_x
 _atom_site_fract_y
 _atom_site_fract_z
 _atom_site_occupancy
  Tb  Tb0  1  0.687901  0.690440  0.000000  1
  Nd  Nd1  1  0.418600  0.071331  0.000000  1
  Nd  Nd2  1  0.582720  0.927154  0.000000  1
  Nd  Nd3  1  0.069347  0.417522  0.000000  1
  Nd  Nd4  1  0.928656  0.583256  0.000000  1
  Nd  Nd5  1  0.158215  0.841306  0.000000  1
  Nd  Nd6  1  0.840657  0.157432  0.000000  1
  Nd  Nd7  1  0.374033  0.630757  0.000000  1
  Nd  Nd8  1  0.627452  0.370235  0.000000  1
  Nd  Nd9  1  0.310954  0.309031  0.000000  1
  Nd  Nd10  1  0.999885  0.999769  0.000000  1
  In  In11  1  0.365138  0.840080  0.500000  1
  In  In12  1  0.635548  0.160044  0.500000  1
  In  In13  1  0.838911  0.367331  0.500000  1
  In  In14  1  0.161062  0.633055  0.500000  1
  In  In15  1  0.218053  0.075297  0.500000  1
  In  In16  1  0.781278  0.921535  0.500000  1
  In  In17  1  0.076369  0.219447  0.500000  1
  In  In18  1  0.920012  0.779542  0.500000  1
  In  In19  1  0.502201  0.502218  0.500000  1
  Pd  Pd20  1  0.247035  0.451005  0.500000  1
  Pd  Pd21  1  0.750804  0.553976  0.500000  1
  Pt  Pt22  1  0.450982  0.247446  0.500000  1
  Pt  Pt23  1  0.554189  0.750790  0.500000  1
