# generated using pymatgen
data_Lu5Al2GaC4
_symmetry_space_group_name_H-M   'P 1'
_cell_length_a   10.63357800
_cell_length_b   10.63357800
_cell_length_c   3.43754900
_cell_angle_alpha   90.00000000
_cell_angle_beta   90.00000000
_cell_angle_gamma   90.00000000
_symmetry_Int_Tables_number   1
_chemical_formula_structural   Lu5Al2GaC4
_chemical_formula_sum   'Lu10 Al4 Ga2 C8'
_cell_volume   388.69391305
_cell_formula_units_Z   2
loop_
 _symmetry_equiv_pos_site_id
 _symmetry_equiv_pos_as_xyz
  1  'x, y, z'
loop_
 _atom_site_type_symbol
 _atom_site_label
 _atom_site_symmetry_multiplicity
 _atom_site_fract_x
 _atom_site_fract_y
 _atom_site_fract_z
 _atom_site_occupancy
  Lu  Lu0  1  0.549799  0.730409  0.500000  1
  Lu  Lu1  1  0.450201  0.269591  0.500000  1
  Lu  Lu2  1  0.049799  0.769591  0.500000  1
  Lu  Lu3  1  0.950201  0.230409  0.500000  1
  Lu  Lu4  1  0.269591  0.549799  0.500000  1
  Lu  Lu5  1  0.730409  0.450201  0.500000  1
  Lu  Lu6  1  0.230409  0.049799  0.500000  1
  Lu  Lu7  1  0.769591  0.950201  0.500000  1
  Lu  Lu8  1  0.500000  0.000000  0.000000  1
  Lu  Lu9  1  0.000000  0.500000  0.000000  1
  Al  Al10  1  0.703738  0.203738  0.000000  1
  Al  Al11  1  0.296262  0.796262  0.000000  1
  Al  Al12  1  0.203738  0.296262  0.000000  1
  Al  Al13  1  0.796262  0.703738  0.000000  1
  Ga  Ga14  1  0.500000  0.500000  0.000000  1
  Ga  Ga15  1  0.000000  0.000000  0.000000  1
  C  C16  1  0.629410  0.129410  0.500000  1
  C  C17  1  0.370590  0.870590  0.500000  1
  C  C18  1  0.129410  0.370590  0.500000  1
  C  C19  1  0.870590  0.629410  0.500000  1
  C  C20  1  0.161003  0.661003  0.000000  1
  C  C21  1  0.838997  0.338997  0.000000  1
  C  C22  1  0.661003  0.838997  0.000000  1
  C  C23  1  0.338997  0.161003  0.000000  1
