# generated using pymatgen
data_HoTmAl20IrRu3
_symmetry_space_group_name_H-M   'P 1'
_cell_length_a   6.83996190
_cell_length_b   6.84459257
_cell_length_c   9.13523100
_cell_angle_alpha   90.07996411
_cell_angle_beta   90.08660215
_cell_angle_gamma   96.66746168
_symmetry_Int_Tables_number   1
_chemical_formula_structural   HoTmAl20IrRu3
_chemical_formula_sum   'Ho1 Tm1 Al20 Ir1 Ru3'
_cell_volume   424.78831054
_cell_formula_units_Z   1
loop_
 _symmetry_equiv_pos_site_id
 _symmetry_equiv_pos_as_xyz
  1  'x, y, z'
loop_
 _atom_site_type_symbol
 _atom_site_label
 _atom_site_symmetry_multiplicity
 _atom_site_fract_x
 _atom_site_fract_y
 _atom_site_fract_z
 _atom_site_occupancy
  Ho  Ho0  1  0.128980  0.872476  0.249611  1
  Tm  Tm1  1  0.870713  0.127730  0.750441  1
  Al  Al2  1  0.620873  0.375896  0.551131  1
  Al  Al3  1  0.379288  0.623955  0.448951  1
  Al  Al4  1  0.377170  0.623426  0.050196  1
  Al  Al5  1  0.622996  0.376410  0.949710  1
  Al  Al6  1  0.226460  0.223663  0.498953  1
  Al  Al7  1  0.773456  0.776433  0.501283  1
  Al  Al8  1  0.774472  0.775178  0.000386  1
  Al  Al9  1  0.225435  0.224906  0.999365  1
  Al  Al10  1  0.844375  0.156210  0.099777  1
  Al  Al11  1  0.155443  0.843963  0.900103  1
  Al  Al12  1  0.156974  0.845887  0.601447  1
  Al  Al13  1  0.842848  0.154324  0.398669  1
  Al  Al14  1  0.857203  0.586871  0.751558  1
  Al  Al15  1  0.142661  0.412784  0.248440  1
  Al  Al16  1  0.414114  0.141923  0.750421  1
  Al  Al17  1  0.586243  0.858192  0.249578  1
  Al  Al18  1  0.221906  0.480423  0.752265  1
  Al  Al19  1  0.777902  0.519229  0.247732  1
  Al  Al20  1  0.519409  0.779208  0.749844  1
  Al  Al21  1  0.480947  0.220974  0.250166  1
  Ir  Ir22  1  0.999982  0.499967  0.500196  1
  Ru  Ru23  1  0.999973  0.499916  0.999770  1
  Ru  Ru24  1  0.500087  0.000029  0.999749  1
  Ru  Ru25  1  0.500092  0.000027  0.500257  1
