# generated using pymatgen
data_Cs6Rb3Ga(BiSb)2
_symmetry_space_group_name_H-M   'P 1'
_cell_length_a   11.43032100
_cell_length_b   11.44580776
_cell_length_c   11.97836100
_cell_angle_alpha   90.00000000
_cell_angle_beta   90.00000000
_cell_angle_gamma   119.95528058
_symmetry_Int_Tables_number   1
_chemical_formula_structural   Cs6Rb3Ga(BiSb)2
_chemical_formula_sum   'Cs12 Rb6 Ga2 Bi4 Sb4'
_cell_volume   1357.77694510
_cell_formula_units_Z   2
loop_
 _symmetry_equiv_pos_site_id
 _symmetry_equiv_pos_as_xyz
  1  'x, y, z'
loop_
 _atom_site_type_symbol
 _atom_site_label
 _atom_site_symmetry_multiplicity
 _atom_site_fract_x
 _atom_site_fract_y
 _atom_site_fract_z
 _atom_site_occupancy
  Cs  Cs0  1  0.209174  0.417939  0.541459  1
  Cs  Cs1  1  0.791416  0.209263  0.041670  1
  Cs  Cs2  1  0.417820  0.209049  0.041200  1
  Cs  Cs3  1  0.582153  0.790737  0.541670  1
  Cs  Cs4  1  0.208771  0.790951  0.541200  1
  Cs  Cs5  1  0.791234  0.582061  0.458542  1
  Cs  Cs6  1  0.791416  0.209263  0.458330  1
  Cs  Cs7  1  0.791234  0.582061  0.041458  1
  Cs  Cs8  1  0.417820  0.209049  0.458800  1
  Cs  Cs9  1  0.582153  0.790737  0.958330  1
  Cs  Cs10  1  0.209174  0.417939  0.958541  1
  Cs  Cs11  1  0.208771  0.790951  0.958800  1
  Rb  Rb12  1  0.118121  0.237278  0.250000  1
  Rb  Rb13  1  0.881677  0.118343  0.750000  1
  Rb  Rb14  1  0.237293  0.119178  0.750000  1
  Rb  Rb15  1  0.763333  0.881656  0.250000  1
  Rb  Rb16  1  0.118114  0.880823  0.250000  1
  Rb  Rb17  1  0.880837  0.762721  0.750000  1
  Ga  Ga18  1  0.329478  0.664822  0.250000  1
  Ga  Ga19  1  0.664656  0.335178  0.750000  1
  Bi  Bi20  1  0.473801  0.526070  0.250000  1
  Bi  Bi21  1  0.947731  0.473931  0.750000  1
  Bi  Bi22  1  0.526105  0.052352  0.750000  1
  Bi  Bi23  1  0.473754  0.947648  0.250000  1
  Sb  Sb24  1  0.055984  0.527991  0.250000  1
  Sb  Sb25  1  0.527992  0.472008  0.750000  1
  Sb  Sb26  1  0.999995  0.000000  0.000000  1
  Sb  Sb27  1  0.999995  0.000000  0.500000  1
