# generated using pymatgen
data_LaEu3(ZnRh)4
_symmetry_space_group_name_H-M   'P 1'
_cell_length_a   4.23488300
_cell_length_b   7.17202048
_cell_length_c   8.13220501
_cell_angle_alpha   89.85942674
_cell_angle_beta   90.00000000
_cell_angle_gamma   90.00000000
_symmetry_Int_Tables_number   1
_chemical_formula_structural   LaEu3(ZnRh)4
_chemical_formula_sum   'La1 Eu3 Zn4 Rh4'
_cell_volume   246.99601629
_cell_formula_units_Z   1
loop_
 _symmetry_equiv_pos_site_id
 _symmetry_equiv_pos_as_xyz
  1  'x, y, z'
loop_
 _atom_site_type_symbol
 _atom_site_label
 _atom_site_symmetry_multiplicity
 _atom_site_fract_x
 _atom_site_fract_y
 _atom_site_fract_z
 _atom_site_occupancy
  La  La0  1  0.750000  0.469931  0.817771  1
  Eu  Eu1  1  0.250000  0.028384  0.317609  1
  Eu  Eu2  1  0.750000  0.972230  0.682645  1
  Eu  Eu3  1  0.250000  0.528393  0.186550  1
  Zn  Zn4  1  0.250000  0.134766  0.938211  1
  Zn  Zn5  1  0.750000  0.859822  0.064113  1
  Zn  Zn6  1  0.250000  0.648269  0.560397  1
  Zn  Zn7  1  0.750000  0.358296  0.433512  1
  Rh  Rh8  1  0.750000  0.227831  0.118373  1
  Rh  Rh9  1  0.250000  0.765680  0.877166  1
  Rh  Rh10  1  0.750000  0.726471  0.377773  1
  Rh  Rh11  1  0.250000  0.279928  0.625880  1
