# generated using pymatgen
data_HoCd3P6N13
_symmetry_space_group_name_H-M   'P 1'
_cell_length_a   7.29040335
_cell_length_b   7.31481946
_cell_length_c   7.31482009
_cell_angle_alpha   109.53873602
_cell_angle_beta   109.40362784
_cell_angle_gamma   109.40362087
_symmetry_Int_Tables_number   1
_chemical_formula_structural   HoCd3P6N13
_chemical_formula_sum   'Ho1 Cd3 P6 N13'
_cell_volume   300.53740192
_cell_formula_units_Z   1
loop_
 _symmetry_equiv_pos_site_id
 _symmetry_equiv_pos_as_xyz
  1  'x, y, z'
loop_
 _atom_site_type_symbol
 _atom_site_label
 _atom_site_symmetry_multiplicity
 _atom_site_fract_x
 _atom_site_fract_y
 _atom_site_fract_z
 _atom_site_occupancy
  Ho  Ho0  1  0.685875  0.000000  0.000000  1
  Cd  Cd1  1  0.001870  0.000000  0.707084  1
  Cd  Cd2  1  0.001870  0.707084  0.000000  1
  Cd  Cd3  1  0.294785  0.292916  0.292916  1
  P  P4  1  0.248884  0.748874  0.497268  1
  P  P5  1  0.751615  0.251606  0.502732  1
  P  P6  1  0.751615  0.502732  0.251606  1
  P  P7  1  0.248884  0.497268  0.748874  1
  P  P8  1  0.500009  0.748394  0.251126  1
  P  P9  1  0.500009  0.251126  0.748394  1
  N  N10  1  0.986680  0.000000  0.000000  1
  N  N11  1  0.717923  0.284068  0.284068  1
  N  N12  1  0.279635  0.712990  0.278940  1
  N  N13  1  0.300715  0.576912  0.576912  1
  N  N14  1  0.566646  0.565950  0.287010  1
  N  N15  1  0.433854  0.715932  0.000000  1
  N  N16  1  0.000695  0.721060  0.434050  1
  N  N17  1  0.566646  0.287010  0.565950  1
  N  N18  1  0.723803  0.000000  0.423088  1
  N  N19  1  0.433854  0.000000  0.715932  1
  N  N20  1  0.723803  0.423088  0.000000  1
  N  N21  1  0.279635  0.278940  0.712990  1
  N  N22  1  0.000695  0.434050  0.721060  1
