# generated using pymatgen
data_Na3TiH7
_symmetry_space_group_name_H-M   'P 1'
_cell_length_a   5.62287457
_cell_length_b   3.01688504
_cell_length_c   7.14273782
_cell_angle_alpha   114.86050341
_cell_angle_beta   90.28295290
_cell_angle_gamma   89.64098232
_symmetry_Int_Tables_number   1
_chemical_formula_structural   Na3TiH7
_chemical_formula_sum   'Na3 Ti1 H7'
_cell_volume   109.93580065
_cell_formula_units_Z   1
loop_
 _symmetry_equiv_pos_site_id
 _symmetry_equiv_pos_as_xyz
  1  'x, y, z'
loop_
 _atom_site_type_symbol
 _atom_site_label
 _atom_site_symmetry_multiplicity
 _atom_site_fract_x
 _atom_site_fract_y
 _atom_site_fract_z
 _atom_site_occupancy
  Na  Na0  1  0.155890  0.373084  0.038148  1
  Na  Na1  1  0.158146  0.857162  0.525392  1
  Na  Na2  1  0.628342  0.126582  0.784700  1
  Ti  Ti3  1  0.657865  0.116975  0.283411  1
  H  H4  1  0.867392  0.611964  0.281649  1
  H  H5  1  0.334432  0.119547  0.284877  1
  H  H6  1  0.814804  0.866996  0.033363  1
  H  H7  1  0.555909  0.771753  0.437679  1
  H  H8  1  0.818956  0.362695  0.531720  1
  H  H9  1  0.551517  0.464500  0.130446  1
  H  H10  1  0.289894  0.621875  0.782220  1
