# generated using pymatgen
data_Sm2Ga2Co2C
_symmetry_space_group_name_H-M   'P 1'
_cell_length_a   5.83730953
_cell_length_b   5.83730904
_cell_length_c   7.04395398
_cell_angle_alpha   126.17011865
_cell_angle_beta   126.17011135
_cell_angle_gamma   40.52200540
_symmetry_Int_Tables_number   1
_chemical_formula_structural   Sm2Ga2Co2C
_chemical_formula_sum   'Sm2 Ga2 Co2 C1'
_cell_volume   121.22127841
_cell_formula_units_Z   1
loop_
 _symmetry_equiv_pos_site_id
 _symmetry_equiv_pos_as_xyz
  1  'x, y, z'
loop_
 _atom_site_type_symbol
 _atom_site_label
 _atom_site_symmetry_multiplicity
 _atom_site_fract_x
 _atom_site_fract_y
 _atom_site_fract_z
 _atom_site_occupancy
  Sm  Sm0  1  0.553917  0.553917  0.287509  1
  Sm  Sm1  1  0.446084  0.446084  0.712491  1
  Ga  Ga2  1  0.833633  0.833633  0.281883  1
  Ga  Ga3  1  0.166366  0.166366  0.718115  1
  Co  Co4  1  0.191278  0.191278  0.086507  1
  Co  Co5  1  0.808722  0.808722  0.913493  1
  C  C6  1  0.000000  0.000000  0.000000  1
