# generated using pymatgen
data_Y2Cd2IrRh3O14
_symmetry_space_group_name_H-M   'P 1'
_cell_length_a   7.22905855
_cell_length_b   7.22905750
_cell_length_c   7.36139150
_cell_angle_alpha   59.62503177
_cell_angle_beta   59.62503871
_cell_angle_gamma   59.28505722
_symmetry_Int_Tables_number   1
_chemical_formula_structural   Y2Cd2IrRh3O14
_chemical_formula_sum   'Y2 Cd2 Ir1 Rh3 O14'
_cell_volume   268.99767414
_cell_formula_units_Z   1
loop_
 _symmetry_equiv_pos_site_id
 _symmetry_equiv_pos_as_xyz
  1  'x, y, z'
loop_
 _atom_site_type_symbol
 _atom_site_label
 _atom_site_symmetry_multiplicity
 _atom_site_fract_x
 _atom_site_fract_y
 _atom_site_fract_z
 _atom_site_occupancy
  Y  Y0  1  0.125000  0.125000  0.625000  1
  Y  Y1  1  0.125000  0.125000  0.125000  1
  Cd  Cd2  1  0.625000  0.125000  0.125000  1
  Cd  Cd3  1  0.125000  0.625000  0.125000  1
  Ir  Ir4  1  0.625000  0.625000  0.125000  1
  Rh  Rh5  1  0.125000  0.625000  0.625000  1
  Rh  Rh6  1  0.625000  0.125000  0.625000  1
  Rh  Rh7  1  0.625000  0.625000  0.625000  1
  O  O8  1  0.697607  0.697607  0.297856  1
  O  O9  1  0.287122  0.287122  0.716347  1
  O  O10  1  0.707717  0.291994  0.705265  1
  O  O11  1  0.299106  0.711021  0.296537  1
  O  O12  1  0.291994  0.707717  0.705265  1
  O  O13  1  0.711021  0.299106  0.296537  1
  O  O14  1  0.552393  0.552393  0.952144  1
  O  O15  1  0.962878  0.962878  0.533653  1
  O  O16  1  0.542283  0.958006  0.544735  1
  O  O17  1  0.950894  0.538979  0.953463  1
  O  O18  1  0.958006  0.542283  0.544735  1
  O  O19  1  0.538979  0.950894  0.953463  1
  O  O20  1  0.251258  0.251258  0.247840  1
  O  O21  1  0.998742  0.998742  0.002160  1
