# generated using pymatgen
data_VTc11P4
_symmetry_space_group_name_H-M   'P 1'
_cell_length_a   7.16886602
_cell_length_b   7.16833591
_cell_length_c   7.16107712
_cell_angle_alpha   95.81540800
_cell_angle_beta   97.31686849
_cell_angle_gamma   140.41234177
_symmetry_Int_Tables_number   1
_chemical_formula_structural   VTc11P4
_chemical_formula_sum   'V1 Tc11 P4'
_cell_volume   220.71445174
_cell_formula_units_Z   1
loop_
 _symmetry_equiv_pos_site_id
 _symmetry_equiv_pos_as_xyz
  1  'x, y, z'
loop_
 _atom_site_type_symbol
 _atom_site_label
 _atom_site_symmetry_multiplicity
 _atom_site_fract_x
 _atom_site_fract_y
 _atom_site_fract_z
 _atom_site_occupancy
  V  V0  1  0.347201  0.998785  0.346829  1
  Tc  Tc1  1  0.002082  0.352873  0.352424  1
  Tc  Tc2  1  0.996257  0.645743  0.647321  1
  Tc  Tc3  1  0.644942  0.002426  0.645542  1
  Tc  Tc4  1  0.492812  0.086622  0.999374  1
  Tc  Tc5  1  0.915527  0.911948  0.404885  1
  Tc  Tc6  1  0.508341  0.510872  0.596477  1
  Tc  Tc7  1  0.087811  0.491628  0.001102  1
  Tc  Tc8  1  0.707793  0.904213  0.001409  1
  Tc  Tc9  1  0.095936  0.095435  0.802954  1
  Tc  Tc10  1  0.301002  0.298569  0.199264  1
  Tc  Tc11  1  0.901591  0.701893  0.002016  1
  P  P12  1  0.211226  0.501484  0.712233  1
  P  P13  1  0.494775  0.207040  0.707916  1
  P  P14  1  0.503387  0.792796  0.291041  1
  P  P15  1  0.789318  0.497674  0.289214  1
