# generated using pymatgen
data_Lu4P3S
_symmetry_space_group_name_H-M   'P 1'
_cell_length_a   7.79532600
_cell_length_b   3.89531100
_cell_length_c   5.47596300
_cell_angle_alpha   90.00036832
_cell_angle_beta   89.99886620
_cell_angle_gamma   90.00047819
_symmetry_Int_Tables_number   1
_chemical_formula_structural   Lu4P3S
_chemical_formula_sum   'Lu4 P3 S1'
_cell_volume   166.27881640
_cell_formula_units_Z   1
loop_
 _symmetry_equiv_pos_site_id
 _symmetry_equiv_pos_as_xyz
  1  'x, y, z'
loop_
 _atom_site_type_symbol
 _atom_site_label
 _atom_site_symmetry_multiplicity
 _atom_site_fract_x
 _atom_site_fract_y
 _atom_site_fract_z
 _atom_site_occupancy
  Lu  Lu0  1  0.118352  0.749992  0.249804  1
  Lu  Lu1  1  0.631304  0.750009  0.250193  1
  Lu  Lu2  1  0.375198  0.250001  0.749824  1
  Lu  Lu3  1  0.875176  0.249994  0.750191  1
  P  P4  1  0.874803  0.250002  0.250227  1
  P  P5  1  0.128383  0.750000  0.749800  1
  P  P6  1  0.621982  0.749998  0.750183  1
  S  S7  1  0.374802  0.249995  0.249781  1
