# generated using pymatgen
data_PrNd5IrCl10
_symmetry_space_group_name_H-M   'P 1'
_cell_length_a   7.43610302
_cell_length_b   9.20472938
_cell_length_c   9.30680365
_cell_angle_alpha   109.69593069
_cell_angle_beta   96.67246741
_cell_angle_gamma   106.87303085
_symmetry_Int_Tables_number   1
_chemical_formula_structural   PrNd5IrCl10
_chemical_formula_sum   'Pr1 Nd5 Ir1 Cl10'
_cell_volume   557.50926600
_cell_formula_units_Z   1
loop_
 _symmetry_equiv_pos_site_id
 _symmetry_equiv_pos_as_xyz
  1  'x, y, z'
loop_
 _atom_site_type_symbol
 _atom_site_label
 _atom_site_symmetry_multiplicity
 _atom_site_fract_x
 _atom_site_fract_y
 _atom_site_fract_z
 _atom_site_occupancy
  Pr  Pr0  1  0.970916  0.308686  0.101376  1
  Nd  Nd1  1  0.140081  0.056122  0.749090  1
  Nd  Nd2  1  0.622615  0.848319  0.802652  1
  Nd  Nd3  1  0.859212  0.944039  0.250692  1
  Nd  Nd4  1  0.029545  0.693455  0.899488  1
  Nd  Nd5  1  0.377163  0.150418  0.196953  1
  Ir  Ir6  1  0.999769  0.999986  0.999891  1
  Cl  Cl7  1  0.201776  0.748003  0.653379  1
  Cl  Cl8  1  0.646771  0.540911  0.726574  1
  Cl  Cl9  1  0.240600  0.079380  0.447537  1
  Cl  Cl10  1  0.796579  0.251097  0.348024  1
  Cl  Cl11  1  0.548261  0.167596  0.924168  1
  Cl  Cl12  1  0.758651  0.919734  0.552153  1
  Cl  Cl13  1  0.909994  0.633431  0.162694  1
  Cl  Cl14  1  0.357561  0.459247  0.274744  1
  Cl  Cl15  1  0.090541  0.368690  0.835740  1
  Cl  Cl16  1  0.449964  0.830887  0.074844  1
