# generated using pymatgen
data_AcYbIn4
_symmetry_space_group_name_H-M   'P 1'
_cell_length_a   5.10842500
_cell_length_b   5.10842490
_cell_length_c   7.78015100
_cell_angle_alpha   90.00000000
_cell_angle_beta   90.00000000
_cell_angle_gamma   119.99999415
_symmetry_Int_Tables_number   1
_chemical_formula_structural   AcYbIn4
_chemical_formula_sum   'Ac1 Yb1 In4'
_cell_volume   175.82989562
_cell_formula_units_Z   1
loop_
 _symmetry_equiv_pos_site_id
 _symmetry_equiv_pos_as_xyz
  1  'x, y, z'
loop_
 _atom_site_type_symbol
 _atom_site_label
 _atom_site_symmetry_multiplicity
 _atom_site_fract_x
 _atom_site_fract_y
 _atom_site_fract_z
 _atom_site_occupancy
  Ac  Ac0  1  0.000000  0.000000  0.250000  1
  Yb  Yb1  1  0.000000  0.000000  0.750000  1
  In  In2  1  0.333333  0.666667  0.020737  1
  In  In3  1  0.333333  0.666667  0.479263  1
  In  In4  1  0.666667  0.333333  0.948510  1
  In  In5  1  0.666667  0.333333  0.551490  1
