# generated using pymatgen
data_Pr8Er12Hg5Bi11
_symmetry_space_group_name_H-M   'P 1'
_cell_length_a   8.33507900
_cell_length_b   8.31512203
_cell_length_c   15.59660700
_cell_angle_alpha   90.00000000
_cell_angle_beta   90.00000000
_cell_angle_gamma   90.51967877
_symmetry_Int_Tables_number   1
_chemical_formula_structural   Pr8Er12Hg5Bi11
_chemical_formula_sum   'Pr8 Er12 Hg5 Bi11'
_cell_volume   1080.91268176
_cell_formula_units_Z   1
loop_
 _symmetry_equiv_pos_site_id
 _symmetry_equiv_pos_as_xyz
  1  'x, y, z'
loop_
 _atom_site_type_symbol
 _atom_site_label
 _atom_site_symmetry_multiplicity
 _atom_site_fract_x
 _atom_site_fract_y
 _atom_site_fract_z
 _atom_site_occupancy
  Pr  Pr0  1  0.524274  0.315324  0.899850  1
  Pr  Pr1  1  0.022646  0.182558  0.599801  1
  Pr  Pr2  1  0.476381  0.688344  0.398908  1
  Pr  Pr3  1  0.978549  0.821303  0.099219  1
  Pr  Pr4  1  0.476381  0.688344  0.101092  1
  Pr  Pr5  1  0.978549  0.821303  0.400781  1
  Pr  Pr6  1  0.524274  0.315324  0.600150  1
  Pr  Pr7  1  0.022646  0.182558  0.900199  1
  Er  Er8  1  0.362334  0.850133  0.874893  1
  Er  Er9  1  0.865189  0.648039  0.625259  1
  Er  Er10  1  0.648698  0.147106  0.371549  1
  Er  Er11  1  0.122793  0.341860  0.127379  1
  Er  Er12  1  0.648698  0.147106  0.128451  1
  Er  Er13  1  0.122793  0.341860  0.372621  1
  Er  Er14  1  0.362334  0.850133  0.625107  1
  Er  Er15  1  0.865189  0.648039  0.874741  1
  Er  Er16  1  0.191340  0.488479  0.750000  1
  Er  Er17  1  0.691982  0.009040  0.750000  1
  Er  Er18  1  0.804901  0.508850  0.250000  1
  Er  Er19  1  0.296716  0.995325  0.250000  1
  Hg  Hg20  1  0.941305  0.121716  0.250000  1
  Hg  Hg21  1  0.333715  0.150134  0.750000  1
  Hg  Hg22  1  0.835402  0.349416  0.750000  1
  Hg  Hg23  1  0.679372  0.856260  0.250000  1
  Hg  Hg24  1  0.167948  0.645428  0.250000  1
  Bi  Bi25  1  0.297468  0.048835  0.043869  1
  Bi  Bi26  1  0.785218  0.459722  0.455670  1
  Bi  Bi27  1  0.708607  0.953369  0.545496  1
  Bi  Bi28  1  0.209530  0.543012  0.956889  1
  Bi  Bi29  1  0.708607  0.953369  0.954504  1
  Bi  Bi30  1  0.209530  0.543012  0.543111  1
  Bi  Bi31  1  0.297468  0.048835  0.456131  1
  Bi  Bi32  1  0.785218  0.459722  0.044330  1
  Bi  Bi33  1  0.559011  0.624100  0.750000  1
  Bi  Bi34  1  0.060046  0.875850  0.750000  1
  Bi  Bi35  1  0.434886  0.376195  0.250000  1
