# generated using pymatgen
data_Tb6Ho10MgCd2HgIr4
_symmetry_space_group_name_H-M   'P 1'
_cell_length_a   9.61015959
_cell_length_b   9.61015946
_cell_length_c   9.61612000
_cell_angle_alpha   59.97948073
_cell_angle_beta   59.97948116
_cell_angle_gamma   59.99465848
_symmetry_Int_Tables_number   1
_chemical_formula_structural   Tb6Ho10MgCd2HgIr4
_chemical_formula_sum   'Tb6 Ho10 Mg1 Cd2 Hg1 Ir4'
_cell_volume   627.76020567
_cell_formula_units_Z   1
loop_
 _symmetry_equiv_pos_site_id
 _symmetry_equiv_pos_as_xyz
  1  'x, y, z'
loop_
 _atom_site_type_symbol
 _atom_site_label
 _atom_site_symmetry_multiplicity
 _atom_site_fract_x
 _atom_site_fract_y
 _atom_site_fract_z
 _atom_site_occupancy
  Tb  Tb0  1  0.190254  0.811044  0.812217  1
  Tb  Tb1  1  0.810965  0.188478  0.189307  1
  Tb  Tb2  1  0.811044  0.190254  0.812217  1
  Tb  Tb3  1  0.188478  0.810965  0.189307  1
  Tb  Tb4  1  0.811537  0.811537  0.190882  1
  Tb  Tb5  1  0.188878  0.188878  0.811603  1
  Ho  Ho6  1  0.599977  0.599977  0.598470  1
  Ho  Ho7  1  0.597948  0.597948  0.206360  1
  Ho  Ho8  1  0.599420  0.203594  0.597580  1
  Ho  Ho9  1  0.203594  0.599420  0.597580  1
  Ho  Ho10  1  0.059885  0.438378  0.440872  1
  Ho  Ho11  1  0.436928  0.061452  0.062819  1
  Ho  Ho12  1  0.438378  0.059885  0.440872  1
  Ho  Ho13  1  0.061452  0.436928  0.062819  1
  Ho  Ho14  1  0.438929  0.438929  0.061202  1
  Ho  Ho15  1  0.061600  0.061600  0.438799  1
  Mg  Mg16  1  0.826669  0.826669  0.826220  1
  Cd  Cd17  1  0.830706  0.506897  0.831815  1
  Cd  Cd18  1  0.506897  0.830706  0.831815  1
  Hg  Hg19  1  0.834628  0.834628  0.498685  1
  Ir  Ir20  1  0.392032  0.392032  0.391158  1
  Ir  Ir21  1  0.392404  0.392404  0.824167  1
  Ir  Ir22  1  0.392719  0.824683  0.391617  1
  Ir  Ir23  1  0.824683  0.392719  0.391617  1
