# generated using pymatgen
data_Sc6Sn6Ru11Rh
_symmetry_space_group_name_H-M   'P 1'
_cell_length_a   4.53289508
_cell_length_b   6.44128012
_cell_length_c   13.65702600
_cell_angle_alpha   89.99850172
_cell_angle_beta   90.00130770
_cell_angle_gamma   90.02198458
_symmetry_Int_Tables_number   1
_chemical_formula_structural   Sc6Sn6Ru11Rh
_chemical_formula_sum   'Sc6 Sn6 Ru11 Rh1'
_cell_volume   398.75299447
_cell_formula_units_Z   1
loop_
 _symmetry_equiv_pos_site_id
 _symmetry_equiv_pos_as_xyz
  1  'x, y, z'
loop_
 _atom_site_type_symbol
 _atom_site_label
 _atom_site_symmetry_multiplicity
 _atom_site_fract_x
 _atom_site_fract_y
 _atom_site_fract_z
 _atom_site_occupancy
  Sc  Sc0  1  0.000012  0.000840  0.000824  1
  Sc  Sc1  1  0.500211  0.499668  0.166959  1
  Sc  Sc2  1  0.000324  0.999150  0.333335  1
  Sc  Sc3  1  0.500000  0.499660  0.499702  1
  Sc  Sc4  1  0.999821  0.000846  0.665832  1
  Sc  Sc5  1  0.499765  0.498826  0.833339  1
  Sn  Sn6  1  0.000022  0.498173  0.001293  1
  Sn  Sn7  1  0.500092  0.000032  0.166600  1
  Sn  Sn8  1  0.000123  0.500362  0.333366  1
  Sn  Sn9  1  0.499974  0.000033  0.500089  1
  Sn  Sn10  1  0.999819  0.498128  0.665336  1
  Sn  Sn11  1  0.499782  0.002988  0.833325  1
  Ru  Ru12  1  0.499935  0.249544  0.999187  1
  Ru  Ru13  1  0.499992  0.750717  0.999490  1
  Ru  Ru14  1  0.000260  0.250335  0.166661  1
  Ru  Ru15  1  0.000180  0.749529  0.165990  1
  Ru  Ru16  1  0.500263  0.249323  0.333333  1
  Ru  Ru17  1  0.500264  0.750730  0.333336  1
  Ru  Ru18  1  0.000038  0.250348  0.500002  1
  Ru  Ru19  1  0.999968  0.749521  0.500688  1
  Ru  Ru20  1  0.499732  0.249532  0.667484  1
  Ru  Ru21  1  0.499766  0.750715  0.667179  1
  Ru  Ru22  1  0.999750  0.251434  0.833319  1
  Rh  Rh23  1  0.999910  0.749564  0.833328  1
