# generated using pymatgen
data_Tb5In4GaRh
_symmetry_space_group_name_H-M   'P 1'
_cell_length_a   8.19692480
_cell_length_b   18.22479469
_cell_length_c   3.68970700
_cell_angle_alpha   90.00000000
_cell_angle_beta   90.00000000
_cell_angle_gamma   88.88035207
_symmetry_Int_Tables_number   1
_chemical_formula_structural   Tb5In4GaRh
_chemical_formula_sum   'Tb10 In8 Ga2 Rh2'
_cell_volume   551.09002174
_cell_formula_units_Z   2
loop_
 _symmetry_equiv_pos_site_id
 _symmetry_equiv_pos_as_xyz
  1  'x, y, z'
loop_
 _atom_site_type_symbol
 _atom_site_label
 _atom_site_symmetry_multiplicity
 _atom_site_fract_x
 _atom_site_fract_y
 _atom_site_fract_z
 _atom_site_occupancy
  Tb  Tb0  1  0.500000  0.500000  0.000000  1
  Tb  Tb1  1  0.000000  0.000000  0.000000  1
  Tb  Tb2  1  0.720607  0.277234  0.000000  1
  Tb  Tb3  1  0.279393  0.722766  0.000000  1
  Tb  Tb4  1  0.741393  0.782588  0.000000  1
  Tb  Tb5  1  0.258607  0.217412  0.000000  1
  Tb  Tb6  1  0.615544  0.085282  0.000000  1
  Tb  Tb7  1  0.384456  0.914718  0.000000  1
  Tb  Tb8  1  0.878439  0.580561  0.000000  1
  Tb  Tb9  1  0.121561  0.419439  0.000000  1
  In  In10  1  0.707484  0.932257  0.500000  1
  In  In11  1  0.292516  0.067743  0.500000  1
  In  In12  1  0.791950  0.430264  0.500000  1
  In  In13  1  0.208050  0.569736  0.500000  1
  In  In14  1  0.574967  0.648571  0.500000  1
  In  In15  1  0.425033  0.351429  0.500000  1
  In  In16  1  0.920604  0.149659  0.500000  1
  In  In17  1  0.079396  0.850341  0.500000  1
  Ga  Ga18  1  0.979212  0.698361  0.500000  1
  Ga  Ga19  1  0.020788  0.301639  0.500000  1
  Rh  Rh20  1  0.523752  0.195685  0.500000  1
  Rh  Rh21  1  0.476248  0.804315  0.500000  1
