# generated using pymatgen
data_TmZr8(In2Co)7
_symmetry_space_group_name_H-M   'P 1'
_cell_length_a   9.46132405
_cell_length_b   9.46132425
_cell_length_c   9.46132400
_cell_angle_alpha   60.00000089
_cell_angle_beta   60.00000019
_cell_angle_gamma   60.00000082
_symmetry_Int_Tables_number   1
_chemical_formula_structural   TmZr8(In2Co)7
_chemical_formula_sum   'Tm1 Zr8 In14 Co7'
_cell_volume   598.88132076
_cell_formula_units_Z   1
loop_
 _symmetry_equiv_pos_site_id
 _symmetry_equiv_pos_as_xyz
  1  'x, y, z'
loop_
 _atom_site_type_symbol
 _atom_site_label
 _atom_site_symmetry_multiplicity
 _atom_site_fract_x
 _atom_site_fract_y
 _atom_site_fract_z
 _atom_site_occupancy
  Tm  Tm0  1  0.500000  0.500000  0.500000  1
  Zr  Zr1  1  0.120846  0.637464  0.120846  1
  Zr  Zr2  1  0.362536  0.879154  0.879154  1
  Zr  Zr3  1  0.879154  0.879154  0.879154  1
  Zr  Zr4  1  0.637464  0.120846  0.120846  1
  Zr  Zr5  1  0.879154  0.879154  0.362536  1
  Zr  Zr6  1  0.120846  0.120846  0.120846  1
  Zr  Zr7  1  0.879154  0.362536  0.879154  1
  Zr  Zr8  1  0.120846  0.120846  0.637464  1
  In  In9  1  0.500000  0.844047  0.155953  1
  In  In10  1  0.500000  0.844047  0.500000  1
  In  In11  1  0.500000  0.155953  0.500000  1
  In  In12  1  0.500000  0.500000  0.844047  1
  In  In13  1  0.155953  0.500000  0.500000  1
  In  In14  1  0.844047  0.155953  0.500000  1
  In  In15  1  0.155953  0.844047  0.500000  1
  In  In16  1  0.500000  0.155953  0.844047  1
  In  In17  1  0.155953  0.500000  0.844047  1
  In  In18  1  0.500000  0.500000  0.155953  1
  In  In19  1  0.844047  0.500000  0.500000  1
  In  In20  1  0.844047  0.500000  0.155953  1
  In  In21  1  0.250000  0.250000  0.250000  1
  In  In22  1  0.750000  0.750000  0.750000  1
  Co  Co23  1  0.779932  0.779932  0.220068  1
  Co  Co24  1  0.000000  0.000000  0.000000  1
  Co  Co25  1  0.220068  0.779932  0.220068  1
  Co  Co26  1  0.220068  0.779932  0.779932  1
  Co  Co27  1  0.220068  0.220068  0.779932  1
  Co  Co28  1  0.779932  0.220068  0.779932  1
  Co  Co29  1  0.779932  0.220068  0.220068  1
