# generated using pymatgen
data_K4NpGeAs4
_symmetry_space_group_name_H-M   'P 1'
_cell_length_a   8.46247905
_cell_length_b   8.46247925
_cell_length_c   8.46247924
_cell_angle_alpha   132.95580083
_cell_angle_beta   126.99085339
_cell_angle_gamma   73.55340811
_symmetry_Int_Tables_number   1
_chemical_formula_structural   K4NpGeAs4
_chemical_formula_sum   'K4 Np1 Ge1 As4'
_cell_volume   345.82262671
_cell_formula_units_Z   1
loop_
 _symmetry_equiv_pos_site_id
 _symmetry_equiv_pos_as_xyz
  1  'x, y, z'
loop_
 _atom_site_type_symbol
 _atom_site_label
 _atom_site_symmetry_multiplicity
 _atom_site_fract_x
 _atom_site_fract_y
 _atom_site_fract_z
 _atom_site_occupancy
  K  K0  1  0.299298  0.659167  0.664552  1
  K  K1  1  0.700702  0.365255  0.359870  1
  K  K2  1  0.005385  0.840833  0.140130  1
  K  K3  1  0.994615  0.134745  0.835448  1
  Np  Np4  1  0.500000  0.250000  0.750000  1
  Ge  Ge5  1  0.500000  0.750000  0.250000  1
  As  As6  1  0.585226  0.866784  0.661999  1
  As  As7  1  0.414774  0.076775  0.281559  1
  As  As8  1  0.795215  0.633216  0.218441  1
  As  As9  1  0.204785  0.423225  0.838001  1
