# generated using pymatgen
data_Ce3Er7(Al2Co3)2
_symmetry_space_group_name_H-M   'P 1'
_cell_length_a   8.17471257
_cell_length_b   8.17471103
_cell_length_c   8.17471300
_cell_angle_alpha   110.08127754
_cell_angle_beta   110.08128105
_cell_angle_gamma   110.08127192
_symmetry_Int_Tables_number   1
_chemical_formula_structural   Ce3Er7(Al2Co3)2
_chemical_formula_sum   'Ce3 Er7 Al4 Co6'
_cell_volume   410.75590721
_cell_formula_units_Z   1
loop_
 _symmetry_equiv_pos_site_id
 _symmetry_equiv_pos_as_xyz
  1  'x, y, z'
loop_
 _atom_site_type_symbol
 _atom_site_label
 _atom_site_symmetry_multiplicity
 _atom_site_fract_x
 _atom_site_fract_y
 _atom_site_fract_z
 _atom_site_occupancy
  Ce  Ce0  1  0.256199  0.204097  0.948555  1
  Ce  Ce1  1  0.948555  0.256199  0.204097  1
  Ce  Ce2  1  0.204097  0.948555  0.256199  1
  Er  Er3  1  0.789266  0.789266  0.789266  1
  Er  Er4  1  0.308454  0.564561  0.750507  1
  Er  Er5  1  0.750507  0.308454  0.564561  1
  Er  Er6  1  0.564561  0.750507  0.308454  1
  Er  Er7  1  0.715538  0.506870  0.993349  1
  Er  Er8  1  0.993349  0.715538  0.506870  1
  Er  Er9  1  0.506870  0.993349  0.715538  1
  Al  Al10  1  0.414551  0.414551  0.414551  1
  Al  Al11  1  0.092778  0.497365  0.002079  1
  Al  Al12  1  0.002079  0.092778  0.497365  1
  Al  Al13  1  0.497365  0.002079  0.092778  1
  Co  Co14  1  0.906295  0.121673  0.752910  1
  Co  Co15  1  0.752910  0.906295  0.121673  1
  Co  Co16  1  0.121673  0.752910  0.906295  1
  Co  Co17  1  0.220027  0.592001  0.362925  1
  Co  Co18  1  0.362925  0.220027  0.592001  1
  Co  Co19  1  0.592001  0.362925  0.220027  1
