# generated using pymatgen
data_Ca7PaBi6
_symmetry_space_group_name_H-M   'P 1'
_cell_length_a   8.30349470
_cell_length_b   8.40900479
_cell_length_c   8.40900419
_cell_angle_alpha   109.72399448
_cell_angle_beta   109.21725254
_cell_angle_gamma   109.21724393
_symmetry_Int_Tables_number   1
_chemical_formula_structural   Ca7PaBi6
_chemical_formula_sum   'Ca7 Pa1 Bi6'
_cell_volume   453.39824740
_cell_formula_units_Z   1
loop_
 _symmetry_equiv_pos_site_id
 _symmetry_equiv_pos_as_xyz
  1  'x, y, z'
loop_
 _atom_site_type_symbol
 _atom_site_label
 _atom_site_symmetry_multiplicity
 _atom_site_fract_x
 _atom_site_fract_y
 _atom_site_fract_z
 _atom_site_occupancy
  Ca  Ca0  1  0.502686  0.005578  0.361437  1
  Ca  Ca1  1  0.500893  0.000593  0.852157  1
  Ca  Ca2  1  0.648737  0.647843  0.648436  1
  Ca  Ca3  1  0.997109  0.355859  0.494422  1
  Ca  Ca4  1  0.141250  0.138563  0.144141  1
  Ca  Ca5  1  0.853885  0.500000  0.000000  1
  Ca  Ca6  1  0.000299  0.851564  0.499407  1
  Pa  Pa7  1  0.349871  0.500000  0.000000  1
  Bi  Bi8  1  0.131366  0.744093  0.877229  1
  Bi  Bi9  1  0.887274  0.133136  0.755907  1
  Bi  Bi10  1  0.617853  0.375847  0.245216  1
  Bi  Bi11  1  0.372635  0.254784  0.630629  1
  Bi  Bi12  1  0.742006  0.869371  0.124153  1
  Bi  Bi13  1  0.254137  0.622771  0.366864  1
