# generated using pymatgen
data_Na4PN3
_symmetry_space_group_name_H-M   'P 1'
_cell_length_a   6.26973053
_cell_length_b   6.02289437
_cell_length_c   8.26817641
_cell_angle_alpha   68.96821832
_cell_angle_beta   67.71907245
_cell_angle_gamma   58.63477846
_symmetry_Int_Tables_number   1
_chemical_formula_structural   Na4PN3
_chemical_formula_sum   'Na8 P2 N6'
_cell_volume   241.48000873
_cell_formula_units_Z   2
loop_
 _symmetry_equiv_pos_site_id
 _symmetry_equiv_pos_as_xyz
  1  'x, y, z'
loop_
 _atom_site_type_symbol
 _atom_site_label
 _atom_site_symmetry_multiplicity
 _atom_site_fract_x
 _atom_site_fract_y
 _atom_site_fract_z
 _atom_site_occupancy
  Na  Na0  1  0.450534  0.755182  0.036502  1
  Na  Na1  1  0.931179  0.330513  0.135140  1
  Na  Na2  1  0.388007  0.202431  0.353260  1
  Na  Na3  1  0.252923  0.754821  0.452710  1
  Na  Na4  1  0.757781  0.255183  0.536502  1
  Na  Na5  1  0.603169  0.830513  0.635140  1
  Na  Na6  1  0.056302  0.702431  0.853260  1
  Na  Na7  1  0.539546  0.254821  0.952711  1
  P  P8  1  0.892244  0.770809  0.238936  1
  P  P9  1  0.098011  0.270809  0.738936  1
  N  N10  1  0.164635  0.560485  0.145038  1
  N  N11  1  0.632821  0.788556  0.226412  1
  N  N12  1  0.869050  0.963494  0.344101  1
  N  N13  1  0.129842  0.060487  0.645038  1
  N  N14  1  0.352210  0.288557  0.726412  1
  N  N15  1  0.823355  0.463494  0.844101  1
