# generated using pymatgen
data_Er20N19
_symmetry_space_group_name_H-M   'P 1'
_cell_length_a   9.07725768
_cell_length_b   9.07725720
_cell_length_c   9.07725810
_cell_angle_alpha   106.59743950
_cell_angle_beta   106.59743021
_cell_angle_gamma   115.38567149
_symmetry_Int_Tables_number   1
_chemical_formula_structural   Er20N19
_chemical_formula_sum   'Er20 N19'
_cell_volume   571.11215650
_cell_formula_units_Z   1
loop_
 _symmetry_equiv_pos_site_id
 _symmetry_equiv_pos_as_xyz
  1  'x, y, z'
loop_
 _atom_site_type_symbol
 _atom_site_label
 _atom_site_symmetry_multiplicity
 _atom_site_fract_x
 _atom_site_fract_y
 _atom_site_fract_z
 _atom_site_occupancy
  Er  Er0  1  0.047753  0.650075  0.200618  1
  Er  Er1  1  0.396042  0.707198  0.103240  1
  Er  Er2  1  0.100146  0.798612  0.898758  1
  Er  Er3  1  0.758151  0.758151  0.000000  1
  Er  Er4  1  0.798612  0.899854  0.698465  1
  Er  Er5  1  0.449458  0.847135  0.799382  1
  Er  Er6  1  0.500000  0.000000  0.500000  1
  Er  Er7  1  0.152865  0.952247  0.602321  1
  Er  Er8  1  0.201388  0.100146  0.301535  1
  Er  Er9  1  0.847135  0.047753  0.397679  1
  Er  Er10  1  0.899854  0.201388  0.101242  1
  Er  Er11  1  0.550542  0.152865  0.200618  1
  Er  Er12  1  0.603958  0.292802  0.896760  1
  Er  Er13  1  0.241849  0.241849  0.000000  1
  Er  Er14  1  0.292802  0.396042  0.688845  1
  Er  Er15  1  0.952247  0.349925  0.799382  1
  Er  Er16  1  0.000000  0.500000  0.500000  1
  Er  Er17  1  0.650075  0.449458  0.602321  1
  Er  Er18  1  0.707198  0.603958  0.311155  1
  Er  Er19  1  0.349925  0.550542  0.397679  1
  N  N20  1  0.898563  0.699623  0.598185  1
  N  N21  1  0.550276  0.650233  0.701817  1
  N  N22  1  0.600214  0.799215  0.399429  1
  N  N23  1  0.250000  0.750000  0.500000  1
  N  N24  1  0.300377  0.898563  0.198940  1
  N  N25  1  0.948416  0.848459  0.298183  1
  N  N26  1  0.000000  0.000000  0.000000  1
  N  N27  1  0.650233  0.948416  0.099956  1
  N  N28  1  0.699623  0.101437  0.801060  1
  N  N29  1  0.349767  0.051584  0.900044  1
  N  N30  1  0.051584  0.151541  0.701817  1
  N  N31  1  0.750000  0.250000  0.500000  1
  N  N32  1  0.399786  0.200785  0.600571  1
  N  N33  1  0.449724  0.349767  0.298183  1
  N  N34  1  0.101437  0.300377  0.401815  1
  N  N35  1  0.151541  0.449724  0.099956  1
  N  N36  1  0.200785  0.600214  0.801000  1
  N  N37  1  0.799215  0.399786  0.199000  1
  N  N38  1  0.848459  0.550276  0.900044  1
