# generated using pymatgen
data_Ta4Nb2PbCl18
_symmetry_space_group_name_H-M   'P 1'
_cell_length_a   10.32204228
_cell_length_b   10.31921946
_cell_length_c   10.32440000
_cell_angle_alpha   55.80609353
_cell_angle_beta   55.77670434
_cell_angle_gamma   55.80158962
_symmetry_Int_Tables_number   1
_chemical_formula_structural   Ta4Nb2PbCl18
_chemical_formula_sum   'Ta4 Nb2 Pb1 Cl18'
_cell_volume   701.78456907
_cell_formula_units_Z   1
loop_
 _symmetry_equiv_pos_site_id
 _symmetry_equiv_pos_as_xyz
  1  'x, y, z'
loop_
 _atom_site_type_symbol
 _atom_site_label
 _atom_site_symmetry_multiplicity
 _atom_site_fract_x
 _atom_site_fract_y
 _atom_site_fract_z
 _atom_site_occupancy
  Ta  Ta0  1  0.412954  0.298472  0.647862  1
  Ta  Ta1  1  0.351970  0.587630  0.701069  1
  Ta  Ta2  1  0.702583  0.351389  0.587057  1
  Ta  Ta3  1  0.298349  0.649050  0.411594  1
  Nb  Nb4  1  0.649654  0.412019  0.296952  1
  Nb  Nb5  1  0.588625  0.702615  0.350159  1
  Pb  Pb6  1  0.997786  0.000813  0.001216  1
  Cl  Cl7  1  0.569181  0.167278  0.441041  1
  Cl  Cl8  1  0.229680  0.369011  0.900800  1
  Cl  Cl9  1  0.902396  0.228221  0.370695  1
  Cl  Cl10  1  0.366800  0.901848  0.229844  1
  Cl  Cl11  1  0.771560  0.631346  0.097140  1
  Cl  Cl12  1  0.098765  0.770020  0.631246  1
  Cl  Cl13  1  0.683398  0.955100  0.171901  1
  Cl  Cl14  1  0.949716  0.173250  0.684050  1
  Cl  Cl15  1  0.174307  0.681335  0.950042  1
  Cl  Cl16  1  0.317143  0.050763  0.826286  1
  Cl  Cl17  1  0.048612  0.825397  0.319049  1
  Cl  Cl18  1  0.828749  0.315117  0.045842  1
  Cl  Cl19  1  0.561117  0.429180  0.831297  1
  Cl  Cl20  1  0.168483  0.439107  0.570865  1
  Cl  Cl21  1  0.436548  0.571711  0.168992  1
  Cl  Cl22  1  0.428002  0.831203  0.563177  1
  Cl  Cl23  1  0.832687  0.559083  0.431176  1
  Cl  Cl24  1  0.630935  0.099042  0.770647  1
