# generated using pymatgen
data_Tb9Sm8Lu3Pb16
_symmetry_space_group_name_H-M   'P 1'
_cell_length_a   8.23217404
_cell_length_b   8.34817805
_cell_length_c   15.78354900
_cell_angle_alpha   90.00000000
_cell_angle_beta   90.00000000
_cell_angle_gamma   89.98781051
_symmetry_Int_Tables_number   1
_chemical_formula_structural   Tb9Sm8Lu3Pb16
_chemical_formula_sum   'Tb9 Sm8 Lu3 Pb16'
_cell_volume   1084.70314619
_cell_formula_units_Z   1
loop_
 _symmetry_equiv_pos_site_id
 _symmetry_equiv_pos_as_xyz
  1  'x, y, z'
loop_
 _atom_site_type_symbol
 _atom_site_label
 _atom_site_symmetry_multiplicity
 _atom_site_fract_x
 _atom_site_fract_y
 _atom_site_fract_z
 _atom_site_occupancy
  Tb  Tb0  1  0.628368  0.157917  0.621233  1
  Tb  Tb1  1  0.129509  0.341324  0.878701  1
  Tb  Tb2  1  0.371043  0.841941  0.121535  1
  Tb  Tb3  1  0.871223  0.657968  0.377997  1
  Tb  Tb4  1  0.371043  0.841941  0.378465  1
  Tb  Tb5  1  0.871223  0.657968  0.122003  1
  Tb  Tb6  1  0.628368  0.157917  0.878767  1
  Tb  Tb7  1  0.129509  0.341324  0.621299  1
  Tb  Tb8  1  0.795747  0.495789  0.750000  1
  Sm  Sm9  1  0.471805  0.678166  0.597892  1
  Sm  Sm10  1  0.972542  0.823080  0.902131  1
  Sm  Sm11  1  0.528038  0.322439  0.098416  1
  Sm  Sm12  1  0.027906  0.177559  0.402050  1
  Sm  Sm13  1  0.528038  0.322439  0.401584  1
  Sm  Sm14  1  0.027906  0.177559  0.097950  1
  Sm  Sm15  1  0.471805  0.678166  0.902108  1
  Sm  Sm16  1  0.972542  0.823080  0.597869  1
  Lu  Lu17  1  0.294969  0.005195  0.750000  1
  Lu  Lu18  1  0.204632  0.504984  0.250000  1
  Lu  Lu19  1  0.704599  0.994992  0.250000  1
  Pb  Pb20  1  0.712196  0.962633  0.456025  1
  Pb  Pb21  1  0.212100  0.536710  0.043995  1
  Pb  Pb22  1  0.287885  0.036765  0.956377  1
  Pb  Pb23  1  0.787937  0.462893  0.542826  1
  Pb  Pb24  1  0.287885  0.036765  0.543623  1
  Pb  Pb25  1  0.787937  0.462893  0.957174  1
  Pb  Pb26  1  0.712196  0.962633  0.043975  1
  Pb  Pb27  1  0.212100  0.536710  0.456005  1
  Pb  Pb28  1  0.431578  0.373275  0.750000  1
  Pb  Pb29  1  0.933384  0.124665  0.750000  1
  Pb  Pb30  1  0.566119  0.625924  0.250000  1
  Pb  Pb31  1  0.066781  0.874423  0.250000  1
  Pb  Pb32  1  0.659132  0.848513  0.750000  1
  Pb  Pb33  1  0.159982  0.654405  0.750000  1
  Pb  Pb34  1  0.340673  0.154017  0.250000  1
  Pb  Pb35  1  0.841300  0.345027  0.250000  1
