# generated using pymatgen
data_Y3PaTlInPd4
_symmetry_space_group_name_H-M   'P 1'
_cell_length_a   7.83327728
_cell_length_b   7.84400209
_cell_length_c   3.67979700
_cell_angle_alpha   90.00000000
_cell_angle_beta   90.00000000
_cell_angle_gamma   91.74529924
_symmetry_Int_Tables_number   1
_chemical_formula_structural   Y3PaTlInPd4
_chemical_formula_sum   'Y3 Pa1 Tl1 In1 Pd4'
_cell_volume   225.99745204
_cell_formula_units_Z   1
loop_
 _symmetry_equiv_pos_site_id
 _symmetry_equiv_pos_as_xyz
  1  'x, y, z'
loop_
 _atom_site_type_symbol
 _atom_site_label
 _atom_site_symmetry_multiplicity
 _atom_site_fract_x
 _atom_site_fract_y
 _atom_site_fract_z
 _atom_site_occupancy
  Y  Y0  1  0.322900  0.825240  0.500000  1
  Y  Y1  1  0.173026  0.328628  0.500000  1
  Y  Y2  1  0.830918  0.675986  0.500000  1
  Pa  Pa3  1  0.670655  0.168273  0.500000  1
  Tl  Tl4  1  0.499689  0.506420  0.000000  1
  In  In5  1  0.005818  0.999525  0.000000  1
  Pd  Pd6  1  0.116686  0.622875  0.000000  1
  Pd  Pd7  1  0.863824  0.357253  0.000000  1
  Pd  Pd8  1  0.635178  0.886983  0.000000  1
  Pd  Pd9  1  0.381306  0.128819  0.000000  1
