# generated using pymatgen
data_YTh3(ZnIr)4
_symmetry_space_group_name_H-M   'P 1'
_cell_length_a   4.04631100
_cell_length_b   7.15828256
_cell_length_c   8.40408024
_cell_angle_alpha   89.91929585
_cell_angle_beta   90.00000000
_cell_angle_gamma   90.00000000
_symmetry_Int_Tables_number   1
_chemical_formula_structural   YTh3(ZnIr)4
_chemical_formula_sum   'Y1 Th3 Zn4 Ir4'
_cell_volume   243.42089565
_cell_formula_units_Z   1
loop_
 _symmetry_equiv_pos_site_id
 _symmetry_equiv_pos_as_xyz
  1  'x, y, z'
loop_
 _atom_site_type_symbol
 _atom_site_label
 _atom_site_symmetry_multiplicity
 _atom_site_fract_x
 _atom_site_fract_y
 _atom_site_fract_z
 _atom_site_occupancy
  Y  Y0  1  0.250000  0.052569  0.310355  1
  Th  Th1  1  0.250000  0.549523  0.192016  1
  Th  Th2  1  0.750000  0.451655  0.813905  1
  Th  Th3  1  0.750000  0.951156  0.679982  1
  Zn  Zn4  1  0.250000  0.624597  0.558555  1
  Zn  Zn5  1  0.750000  0.362458  0.437980  1
  Zn  Zn6  1  0.750000  0.883159  0.066160  1
  Zn  Zn7  1  0.250000  0.124579  0.942516  1
  Ir  Ir8  1  0.250000  0.744061  0.872546  1
  Ir  Ir9  1  0.750000  0.263105  0.121902  1
  Ir  Ir10  1  0.750000  0.751377  0.374108  1
  Ir  Ir11  1  0.250000  0.241760  0.629974  1
