# generated using pymatgen
data_Ca10TaMn3N14
_symmetry_space_group_name_H-M   'P 1'
_cell_length_a   6.02854416
_cell_length_b   8.59034048
_cell_length_c   8.65404100
_cell_angle_alpha   115.23158969
_cell_angle_beta   96.82511077
_cell_angle_gamma   89.30652633
_symmetry_Int_Tables_number   1
_chemical_formula_structural   Ca10TaMn3N14
_chemical_formula_sum   'Ca10 Ta1 Mn3 N14'
_cell_volume   402.16615864
_cell_formula_units_Z   1
loop_
 _symmetry_equiv_pos_site_id
 _symmetry_equiv_pos_as_xyz
  1  'x, y, z'
loop_
 _atom_site_type_symbol
 _atom_site_label
 _atom_site_symmetry_multiplicity
 _atom_site_fract_x
 _atom_site_fract_y
 _atom_site_fract_z
 _atom_site_occupancy
  Ca  Ca0  1  0.838972  0.592701  0.329222  1
  Ca  Ca1  1  0.273966  0.987009  0.572418  1
  Ca  Ca2  1  0.710369  0.407185  0.849277  1
  Ca  Ca3  1  0.288672  0.578517  0.143462  1
  Ca  Ca4  1  0.397967  0.789557  0.920999  1
  Ca  Ca5  1  0.587626  0.210701  0.072946  1
  Ca  Ca6  1  0.159767  0.403148  0.673037  1
  Ca  Ca7  1  0.894903  0.855441  0.762274  1
  Ca  Ca8  1  0.103353  0.162351  0.237466  1
  Ca  Ca9  1  0.738350  0.019806  0.441358  1
  Ta  Ta10  1  0.881471  0.783717  0.084572  1
  Mn  Mn11  1  0.574392  0.363363  0.476232  1
  Mn  Mn12  1  0.427293  0.637573  0.525864  1
  Mn  Mn13  1  0.119055  0.215243  0.913203  1
  N  N14  1  0.539268  0.551166  0.675590  1
  N  N15  1  0.460878  0.447674  0.325880  1
  N  N16  1  0.164756  0.698395  0.558104  1
  N  N17  1  0.840945  0.305956  0.444498  1
  N  N18  1  0.416981  0.196235  0.471346  1
  N  N19  1  0.589376  0.805102  0.532663  1
  N  N20  1  0.944311  0.140586  0.719924  1
  N  N21  1  0.060031  0.876885  0.308098  1
  N  N22  1  0.222635  0.048949  0.957036  1
  N  N23  1  0.749263  0.962621  0.030315  1
  N  N24  1  0.354290  0.313422  0.888545  1
  N  N25  1  0.975361  0.351953  0.081751  1
  N  N26  1  0.055253  0.639699  0.903232  1
  N  N27  1  0.630497  0.655044  0.100689  1
