# generated using pymatgen
data_Hf16Ir8C3N
_symmetry_space_group_name_H-M   'P 1'
_cell_length_a   8.75226381
_cell_length_b   8.76137010
_cell_length_c   8.76131000
_cell_angle_alpha   60.00042856
_cell_angle_beta   59.96608204
_cell_angle_gamma   59.96627478
_symmetry_Int_Tables_number   1
_chemical_formula_structural   Hf16Ir8C3N
_chemical_formula_sum   'Hf16 Ir8 C3 N1'
_cell_volume   474.81635999
_cell_formula_units_Z   1
loop_
 _symmetry_equiv_pos_site_id
 _symmetry_equiv_pos_as_xyz
  1  'x, y, z'
loop_
 _atom_site_type_symbol
 _atom_site_label
 _atom_site_symmetry_multiplicity
 _atom_site_fract_x
 _atom_site_fract_y
 _atom_site_fract_z
 _atom_site_occupancy
  Hf  Hf0  1  0.125003  0.624999  0.624999  1
  Hf  Hf1  1  0.624999  0.125003  0.624998  1
  Hf  Hf2  1  0.625001  0.625000  0.124999  1
  Hf  Hf3  1  0.625000  0.625000  0.624999  1
  Hf  Hf4  1  0.816563  0.815814  0.183812  1
  Hf  Hf5  1  0.184207  0.184342  0.815724  1
  Hf  Hf6  1  0.816559  0.183815  0.815810  1
  Hf  Hf7  1  0.184205  0.815727  0.184341  1
  Hf  Hf8  1  0.184208  0.815728  0.815724  1
  Hf  Hf9  1  0.816559  0.183814  0.183813  1
  Hf  Hf10  1  0.433457  0.434193  0.066175  1
  Hf  Hf11  1  0.065774  0.065642  0.434292  1
  Hf  Hf12  1  0.433457  0.066176  0.434193  1
  Hf  Hf13  1  0.065771  0.434292  0.065647  1
  Hf  Hf14  1  0.065772  0.434291  0.434290  1
  Hf  Hf15  1  0.433459  0.066174  0.066173  1
  Ir  Ir16  1  0.759041  0.413651  0.413654  1
  Ir  Ir17  1  0.414801  0.760046  0.412577  1
  Ir  Ir18  1  0.414804  0.412573  0.760048  1
  Ir  Ir19  1  0.414805  0.412573  0.412576  1
  Ir  Ir20  1  0.490955  0.836350  0.836346  1
  Ir  Ir21  1  0.835189  0.489944  0.837433  1
  Ir  Ir22  1  0.835185  0.837432  0.489952  1
  Ir  Ir23  1  0.835185  0.837435  0.837432  1
  C  C24  1  0.125013  0.624994  0.124998  1
  C  C25  1  0.125015  0.124996  0.624992  1
  C  C26  1  0.125014  0.124995  0.124999  1
  N  N27  1  0.625002  0.124998  0.125001  1
