# generated using pymatgen
data_Ce8Ta5Ti7Si16
_symmetry_space_group_name_H-M   'P 1'
_cell_length_a   7.08679192
_cell_length_b   7.08260354
_cell_length_c   13.21547293
_cell_angle_alpha   90.02012266
_cell_angle_beta   90.07390149
_cell_angle_gamma   90.03992836
_symmetry_Int_Tables_number   1
_chemical_formula_structural   Ce8Ta5Ti7Si16
_chemical_formula_sum   'Ce8 Ta5 Ti7 Si16'
_cell_volume   663.32265298
_cell_formula_units_Z   1
loop_
 _symmetry_equiv_pos_site_id
 _symmetry_equiv_pos_as_xyz
  1  'x, y, z'
loop_
 _atom_site_type_symbol
 _atom_site_label
 _atom_site_symmetry_multiplicity
 _atom_site_fract_x
 _atom_site_fract_y
 _atom_site_fract_z
 _atom_site_occupancy
  Ce  Ce0  1  0.992988  0.666616  0.031958  1
  Ce  Ce1  1  0.006766  0.333117  0.532030  1
  Ce  Ce2  1  0.666586  0.992860  0.967864  1
  Ce  Ce3  1  0.166717  0.507210  0.782106  1
  Ce  Ce4  1  0.833603  0.492835  0.281935  1
  Ce  Ce5  1  0.507394  0.166483  0.217725  1
  Ce  Ce6  1  0.492847  0.833162  0.717971  1
  Ce  Ce7  1  0.333144  0.007569  0.468093  1
  Ta  Ta8  1  0.343342  0.506853  0.372884  1
  Ta  Ta9  1  0.670327  0.670912  0.499806  1
  Ta  Ta10  1  0.828429  0.171281  0.750105  1
  Ta  Ta11  1  0.171529  0.828304  0.250428  1
  Ta  Ta12  1  0.328770  0.328575  0.000053  1
  Ti  Ti13  1  0.842684  0.992735  0.377081  1
  Ti  Ti14  1  0.007806  0.157535  0.123045  1
  Ti  Ti15  1  0.992779  0.842630  0.622627  1
  Ti  Ti16  1  0.507145  0.342401  0.626713  1
  Ti  Ti17  1  0.157438  0.007545  0.876922  1
  Ti  Ti18  1  0.492957  0.656625  0.127244  1
  Ti  Ti19  1  0.657402  0.492547  0.872832  1
  Si  Si20  1  0.041149  0.708180  0.434458  1
  Si  Si21  1  0.958043  0.293094  0.933931  1
  Si  Si22  1  0.706650  0.041687  0.566297  1
  Si  Si23  1  0.206340  0.457782  0.183461  1
  Si  Si24  1  0.792685  0.542068  0.684121  1
  Si  Si25  1  0.457988  0.207006  0.815953  1
  Si  Si26  1  0.543252  0.795256  0.315729  1
  Si  Si27  1  0.292866  0.957645  0.065925  1
  Si  Si28  1  0.800959  0.872136  0.188185  1
  Si  Si29  1  0.299885  0.628119  0.562472  1
  Si  Si30  1  0.699397  0.372378  0.061593  1
  Si  Si31  1  0.629258  0.299613  0.437997  1
  Si  Si32  1  0.372211  0.699462  0.938459  1
  Si  Si33  1  0.127050  0.199888  0.312007  1
  Si  Si34  1  0.199293  0.127496  0.688452  1
  Si  Si35  1  0.872322  0.800394  0.811536  1
