# generated using pymatgen
data_Tb4NiB14
_symmetry_space_group_name_H-M   'P 1'
_cell_length_a   7.24155500
_cell_length_b   7.24155500
_cell_length_c   7.52547700
_cell_angle_alpha   90.00000000
_cell_angle_beta   90.00000000
_cell_angle_gamma   90.00000000
_symmetry_Int_Tables_number   1
_chemical_formula_structural   Tb4NiB14
_chemical_formula_sum   'Tb8 Ni2 B28'
_cell_volume   394.63690804
_cell_formula_units_Z   2
loop_
 _symmetry_equiv_pos_site_id
 _symmetry_equiv_pos_as_xyz
  1  'x, y, z'
loop_
 _atom_site_type_symbol
 _atom_site_label
 _atom_site_symmetry_multiplicity
 _atom_site_fract_x
 _atom_site_fract_y
 _atom_site_fract_z
 _atom_site_occupancy
  Tb  Tb0  1  0.193815  0.331535  0.000000  1
  Tb  Tb1  1  0.668465  0.193815  0.000000  1
  Tb  Tb2  1  0.331535  0.806185  0.000000  1
  Tb  Tb3  1  0.693815  0.168465  0.500000  1
  Tb  Tb4  1  0.306185  0.831535  0.500000  1
  Tb  Tb5  1  0.806185  0.668465  0.000000  1
  Tb  Tb6  1  0.831535  0.693815  0.500000  1
  Tb  Tb7  1  0.168465  0.306185  0.500000  1
  Ni  Ni8  1  0.000000  0.000000  0.000000  1
  Ni  Ni9  1  0.500000  0.500000  0.500000  1
  B  B10  1  0.174174  0.039327  0.232573  1
  B  B11  1  0.960673  0.174174  0.232573  1
  B  B12  1  0.039327  0.825826  0.232573  1
  B  B13  1  0.674174  0.460673  0.267427  1
  B  B14  1  0.325826  0.539327  0.267427  1
  B  B15  1  0.825826  0.960673  0.232573  1
  B  B16  1  0.539327  0.674174  0.267427  1
  B  B17  1  0.460673  0.325826  0.267427  1
  B  B18  1  0.825826  0.960673  0.767427  1
  B  B19  1  0.039327  0.825826  0.767427  1
  B  B20  1  0.960673  0.174174  0.767427  1
  B  B21  1  0.325826  0.539327  0.732573  1
  B  B22  1  0.674174  0.460673  0.732573  1
  B  B23  1  0.174174  0.039327  0.767427  1
  B  B24  1  0.460673  0.325826  0.732573  1
  B  B25  1  0.539327  0.674174  0.732573  1
  B  B26  1  0.089560  0.589560  0.250000  1
  B  B27  1  0.410440  0.089560  0.250000  1
  B  B28  1  0.589560  0.910440  0.250000  1
  B  B29  1  0.910440  0.410440  0.250000  1
  B  B30  1  0.910440  0.410440  0.750000  1
  B  B31  1  0.589560  0.910440  0.750000  1
  B  B32  1  0.410440  0.089560  0.750000  1
  B  B33  1  0.089560  0.589560  0.750000  1
  B  B34  1  0.000000  0.000000  0.388582  1
  B  B35  1  0.500000  0.500000  0.111418  1
  B  B36  1  0.000000  0.000000  0.611418  1
  B  B37  1  0.500000  0.500000  0.888582  1
