# generated using pymatgen
data_La13YPd5Rh
_symmetry_space_group_name_H-M   'P 1'
_cell_length_a   10.33616138
_cell_length_b   10.33616096
_cell_length_c   6.56513697
_cell_angle_alpha   90.11368637
_cell_angle_beta   89.88631882
_cell_angle_gamma   120.09087606
_symmetry_Int_Tables_number   1
_chemical_formula_structural   La13YPd5Rh
_chemical_formula_sum   'La13 Y1 Pd5 Rh1'
_cell_volume   606.86683613
_cell_formula_units_Z   1
loop_
 _symmetry_equiv_pos_site_id
 _symmetry_equiv_pos_as_xyz
  1  'x, y, z'
loop_
 _atom_site_type_symbol
 _atom_site_label
 _atom_site_symmetry_multiplicity
 _atom_site_fract_x
 _atom_site_fract_y
 _atom_site_fract_z
 _atom_site_occupancy
  La  La0  1  0.668855  0.331145  0.960227  1
  La  La1  1  0.127705  0.872295  0.244875  1
  La  La2  1  0.747351  0.879513  0.244157  1
  La  La3  1  0.120487  0.252649  0.244157  1
  La  La4  1  0.872880  0.127120  0.750536  1
  La  La5  1  0.252791  0.125951  0.744552  1
  La  La6  1  0.874049  0.747209  0.744552  1
  La  La7  1  0.537266  0.462734  0.442591  1
  La  La8  1  0.921246  0.455669  0.439146  1
  La  La9  1  0.544331  0.078754  0.439146  1
  La  La10  1  0.460455  0.539545  0.945206  1
  La  La11  1  0.078744  0.538300  0.942440  1
  La  La12  1  0.461700  0.921256  0.942440  1
  Y  Y13  1  0.333028  0.666972  0.453674  1
  Pd  Pd14  1  0.374436  0.187990  0.191600  1
  Pd  Pd15  1  0.812010  0.625564  0.191600  1
  Pd  Pd16  1  0.189319  0.810681  0.690714  1
  Pd  Pd17  1  0.621346  0.810192  0.690076  1
  Pd  Pd18  1  0.189808  0.378654  0.690076  1
  Rh  Rh19  1  0.812194  0.187806  0.194029  1
