# generated using pymatgen
data_Y2HoTlIn3Rh2
_symmetry_space_group_name_H-M   'P 1'
_cell_length_a   7.83941416
_cell_length_b   7.83328528
_cell_length_c   3.89688200
_cell_angle_alpha   90.00000000
_cell_angle_beta   90.00000000
_cell_angle_gamma   120.08782634
_symmetry_Int_Tables_number   1
_chemical_formula_structural   Y2HoTlIn3Rh2
_chemical_formula_sum   'Y2 Ho1 Tl1 In3 Rh2'
_cell_volume   207.05723459
_cell_formula_units_Z   1
loop_
 _symmetry_equiv_pos_site_id
 _symmetry_equiv_pos_as_xyz
  1  'x, y, z'
loop_
 _atom_site_type_symbol
 _atom_site_label
 _atom_site_symmetry_multiplicity
 _atom_site_fract_x
 _atom_site_fract_y
 _atom_site_fract_z
 _atom_site_occupancy
  Y  Y0  1  0.418211  0.389536  0.500000  1
  Y  Y1  1  0.611286  0.028749  0.500000  1
  Ho  Ho2  1  0.969004  0.582269  0.500000  1
  Tl  Tl3  1  0.331809  0.666183  0.000000  1
  In  In4  1  0.989399  0.245747  0.000000  1
  In  In5  1  0.257774  0.011022  0.000000  1
  In  In6  1  0.752273  0.742651  0.000000  1
  Rh  Rh7  1  0.000100  0.997782  0.500000  1
  Rh  Rh8  1  0.670144  0.336062  0.000000  1
