# generated using pymatgen
data_Pr2Ga2Te
_symmetry_space_group_name_H-M   'P 1'
_cell_length_a   4.32518300
_cell_length_b   4.32518381
_cell_length_c   16.87909900
_cell_angle_alpha   90.00000000
_cell_angle_beta   90.00000000
_cell_angle_gamma   120.00000146
_symmetry_Int_Tables_number   1
_chemical_formula_structural   Pr2Ga2Te
_chemical_formula_sum   'Pr4 Ga4 Te2'
_cell_volume   273.45693496
_cell_formula_units_Z   2
loop_
 _symmetry_equiv_pos_site_id
 _symmetry_equiv_pos_as_xyz
  1  'x, y, z'
loop_
 _atom_site_type_symbol
 _atom_site_label
 _atom_site_symmetry_multiplicity
 _atom_site_fract_x
 _atom_site_fract_y
 _atom_site_fract_z
 _atom_site_occupancy
  Pr  Pr0  1  0.000000  0.000000  0.125326  1
  Pr  Pr1  1  0.000000  0.000000  0.374674  1
  Pr  Pr2  1  0.000000  0.000000  0.625326  1
  Pr  Pr3  1  0.000000  0.000000  0.874674  1
  Ga  Ga4  1  0.333333  0.666665  0.016658  1
  Ga  Ga5  1  0.333333  0.666665  0.483342  1
  Ga  Ga6  1  0.666666  0.333333  0.516658  1
  Ga  Ga7  1  0.666666  0.333333  0.983342  1
  Te  Te8  1  0.666666  0.333333  0.250000  1
  Te  Te9  1  0.333333  0.666665  0.750000  1
