# generated using pymatgen
data_Yb3SnRh2
_symmetry_space_group_name_H-M   'P 1'
_cell_length_a   5.56431861
_cell_length_b   5.56431935
_cell_length_c   5.57831633
_cell_angle_alpha   107.09472715
_cell_angle_beta   107.09472715
_cell_angle_gamma   114.24356289
_symmetry_Int_Tables_number   1
_chemical_formula_structural   Yb3SnRh2
_chemical_formula_sum   'Yb3 Sn1 Rh2'
_cell_volume   132.39585444
_cell_formula_units_Z   1
loop_
 _symmetry_equiv_pos_site_id
 _symmetry_equiv_pos_as_xyz
  1  'x, y, z'
loop_
 _atom_site_type_symbol
 _atom_site_label
 _atom_site_symmetry_multiplicity
 _atom_site_fract_x
 _atom_site_fract_y
 _atom_site_fract_z
 _atom_site_occupancy
  Yb  Yb0  1  0.680533  0.184688  0.865222  1
  Yb  Yb1  1  0.315312  0.819467  0.134778  1
  Yb  Yb2  1  0.824413  0.675587  0.500000  1
  Sn  Sn3  1  0.185250  0.314750  0.500000  1
  Rh  Rh4  1  0.747247  0.752753  0.000000  1
  Rh  Rh5  1  0.247247  0.252753  0.000000  1
