# generated using pymatgen
data_Yb4GaAs5Ir7
_symmetry_space_group_name_H-M   'P 1'
_cell_length_a   7.28771017
_cell_length_b   7.28770959
_cell_length_c   7.28771000
_cell_angle_alpha   108.13662410
_cell_angle_beta   110.14261651
_cell_angle_gamma   110.14261410
_symmetry_Int_Tables_number   1
_chemical_formula_structural   Yb4GaAs5Ir7
_chemical_formula_sum   'Yb4 Ga1 As5 Ir7'
_cell_volume   297.83453154
_cell_formula_units_Z   1
loop_
 _symmetry_equiv_pos_site_id
 _symmetry_equiv_pos_as_xyz
  1  'x, y, z'
loop_
 _atom_site_type_symbol
 _atom_site_label
 _atom_site_symmetry_multiplicity
 _atom_site_fract_x
 _atom_site_fract_y
 _atom_site_fract_z
 _atom_site_occupancy
  Yb  Yb0  1  0.000000  0.999396  0.495559  1
  Yb  Yb1  1  0.000000  0.495559  0.999396  1
  Yb  Yb2  1  0.503838  0.999396  0.999396  1
  Yb  Yb3  1  0.496162  0.495559  0.495559  1
  Ga  Ga4  1  0.000000  0.689933  0.689933  1
  As  As5  1  0.682378  0.678323  0.995945  1
  As  As6  1  0.317622  0.995945  0.313567  1
  As  As7  1  0.000000  0.332262  0.332262  1
  As  As8  1  0.317622  0.313567  0.995945  1
  As  As9  1  0.682378  0.995945  0.678323  1
  Ir  Ir10  1  0.748864  0.250598  0.501735  1
  Ir  Ir11  1  0.748864  0.501735  0.250598  1
  Ir  Ir12  1  0.500000  0.246790  0.746790  1
  Ir  Ir13  1  0.251136  0.501735  0.752871  1
  Ir  Ir14  1  0.251136  0.752871  0.501735  1
  Ir  Ir15  1  0.500000  0.746790  0.246790  1
  Ir  Ir16  1  0.000000  0.003595  0.003595  1
