# generated using pymatgen
data_Dy2SiRhI2
_symmetry_space_group_name_H-M   'P 1'
_cell_length_a   4.16572900
_cell_length_b   4.16572950
_cell_length_c   11.92812300
_cell_angle_alpha   90.00000000
_cell_angle_beta   90.00000000
_cell_angle_gamma   119.99998813
_symmetry_Int_Tables_number   1
_chemical_formula_structural   Dy2SiRhI2
_chemical_formula_sum   'Dy2 Si1 Rh1 I2'
_cell_volume   179.26061062
_cell_formula_units_Z   1
loop_
 _symmetry_equiv_pos_site_id
 _symmetry_equiv_pos_as_xyz
  1  'x, y, z'
loop_
 _atom_site_type_symbol
 _atom_site_label
 _atom_site_symmetry_multiplicity
 _atom_site_fract_x
 _atom_site_fract_y
 _atom_site_fract_z
 _atom_site_occupancy
  Dy  Dy0  1  0.000000  0.000000  0.154666  1
  Dy  Dy1  1  0.000000  0.000000  0.842910  1
  Si  Si2  1  0.666667  0.333333  0.990743  1
  Rh  Rh3  1  0.333333  0.666667  0.009682  1
  I  I4  1  0.333333  0.666667  0.670365  1
  I  I5  1  0.666667  0.333333  0.331633  1
