# generated using pymatgen
data_Tb4Tm2Si24Os5Ru3
_symmetry_space_group_name_H-M   'P 1'
_cell_length_a   10.11827946
_cell_length_b   10.11828164
_cell_length_c   8.16136901
_cell_angle_alpha   90.00253816
_cell_angle_beta   90.00257059
_cell_angle_gamma   132.42871914
_symmetry_Int_Tables_number   1
_chemical_formula_structural   Tb4Tm2Si24Os5Ru3
_chemical_formula_sum   'Tb4 Tm2 Si24 Os5 Ru3'
_cell_volume   616.73955872
_cell_formula_units_Z   1
loop_
 _symmetry_equiv_pos_site_id
 _symmetry_equiv_pos_as_xyz
  1  'x, y, z'
loop_
 _atom_site_type_symbol
 _atom_site_label
 _atom_site_symmetry_multiplicity
 _atom_site_fract_x
 _atom_site_fract_y
 _atom_site_fract_z
 _atom_site_occupancy
  Tb  Tb0  1  0.501974  0.001837  0.749556  1
  Tb  Tb1  1  0.997997  0.498073  0.250411  1
  Tb  Tb2  1  0.498073  0.997997  0.250411  1
  Tb  Tb3  1  0.001837  0.501973  0.749555  1
  Tm  Tm4  1  0.499667  0.499667  0.500059  1
  Tm  Tm5  1  0.000019  0.000019  0.999603  1
  Si  Si6  1  0.795694  0.204488  0.500180  1
  Si  Si7  1  0.295859  0.704101  0.000154  1
  Si  Si8  1  0.204488  0.795694  0.500181  1
  Si  Si9  1  0.704101  0.295859  0.000154  1
  Si  Si10  1  0.333073  0.333073  0.833389  1
  Si  Si11  1  0.667489  0.667489  0.167131  1
  Si  Si12  1  0.166536  0.166536  0.331369  1
  Si  Si13  1  0.831043  0.831043  0.666125  1
  Si  Si14  1  0.121108  0.887149  0.728315  1
  Si  Si15  1  0.113156  0.879851  0.271843  1
  Si  Si16  1  0.610949  0.378179  0.228583  1
  Si  Si17  1  0.622380  0.389117  0.771616  1
  Si  Si18  1  0.879851  0.113156  0.271843  1
  Si  Si19  1  0.887149  0.121109  0.728315  1
  Si  Si20  1  0.389117  0.622381  0.771616  1
  Si  Si21  1  0.378179  0.610949  0.228583  1
  Si  Si22  1  0.345304  0.111978  0.504439  1
  Si  Si23  1  0.887836  0.655134  0.496009  1
  Si  Si24  1  0.387813  0.154947  0.005970  1
  Si  Si25  1  0.845014  0.612657  0.994414  1
  Si  Si26  1  0.655134  0.887836  0.496009  1
  Si  Si27  1  0.111978  0.345304  0.504439  1
  Si  Si28  1  0.612657  0.845014  0.994414  1
  Si  Si29  1  0.154947  0.387813  0.005970  1
  Os  Os30  1  0.668866  0.331156  0.499915  1
  Os  Os31  1  0.169146  0.830714  0.000025  1
  Os  Os32  1  0.331156  0.668866  0.499915  1
  Os  Os33  1  0.830714  0.169147  0.000024  1
  Os  Os34  1  0.126536  0.126535  0.627142  1
  Ru  Ru35  1  0.873354  0.873354  0.372555  1
  Ru  Ru36  1  0.372398  0.372398  0.127895  1
  Ru  Ru37  1  0.627410  0.627409  0.871874  1
