# generated using pymatgen
data_Hf4TaNb3Ge4
_symmetry_space_group_name_H-M   'P 1'
_cell_length_a   3.67272800
_cell_length_b   7.02843628
_cell_length_c   8.59059447
_cell_angle_alpha   90.03100746
_cell_angle_beta   90.00000000
_cell_angle_gamma   90.00000000
_symmetry_Int_Tables_number   1
_chemical_formula_structural   Hf4TaNb3Ge4
_chemical_formula_sum   'Hf4 Ta1 Nb3 Ge4'
_cell_volume   221.75357624
_cell_formula_units_Z   1
loop_
 _symmetry_equiv_pos_site_id
 _symmetry_equiv_pos_as_xyz
  1  'x, y, z'
loop_
 _atom_site_type_symbol
 _atom_site_label
 _atom_site_symmetry_multiplicity
 _atom_site_fract_x
 _atom_site_fract_y
 _atom_site_fract_z
 _atom_site_occupancy
  Hf  Hf0  1  0.250000  0.547319  0.164695  1
  Hf  Hf1  1  0.250000  0.047680  0.335145  1
  Hf  Hf2  1  0.750000  0.451543  0.836308  1
  Hf  Hf3  1  0.750000  0.951817  0.665286  1
  Ta  Ta4  1  0.750000  0.868820  0.057618  1
  Nb  Nb5  1  0.250000  0.631973  0.557037  1
  Nb  Nb6  1  0.250000  0.131830  0.942200  1
  Nb  Nb7  1  0.750000  0.369559  0.442477  1
  Ge  Ge8  1  0.250000  0.749336  0.857109  1
  Ge  Ge9  1  0.250000  0.249732  0.642455  1
  Ge  Ge10  1  0.750000  0.249411  0.143416  1
  Ge  Ge11  1  0.750000  0.750978  0.356255  1
