# generated using pymatgen
data_Nd6Mn(TcC4)3
_symmetry_space_group_name_H-M   'P 1'
_cell_length_a   8.35681200
_cell_length_b   8.35681131
_cell_length_c   5.35893100
_cell_angle_alpha   90.00000000
_cell_angle_beta   90.00000000
_cell_angle_gamma   119.99998477
_symmetry_Int_Tables_number   1
_chemical_formula_structural   Nd6Mn(TcC4)3
_chemical_formula_sum   'Nd6 Mn1 Tc3 C12'
_cell_volume   324.10825453
_cell_formula_units_Z   1
loop_
 _symmetry_equiv_pos_site_id
 _symmetry_equiv_pos_as_xyz
  1  'x, y, z'
loop_
 _atom_site_type_symbol
 _atom_site_label
 _atom_site_symmetry_multiplicity
 _atom_site_fract_x
 _atom_site_fract_y
 _atom_site_fract_z
 _atom_site_occupancy
  Nd  Nd0  1  0.620016  0.691137  0.750000  1
  Nd  Nd1  1  0.932295  0.617187  0.250000  1
  Nd  Nd2  1  0.684891  0.067705  0.250000  1
  Nd  Nd3  1  0.308863  0.928879  0.750000  1
  Nd  Nd4  1  0.071121  0.379984  0.750000  1
  Nd  Nd5  1  0.382813  0.315109  0.250000  1
  Mn  Mn6  1  0.333333  0.666667  0.250000  1
  Tc  Tc7  1  0.000000  0.000000  0.496195  1
  Tc  Tc8  1  0.000000  0.000000  0.003805  1
  Tc  Tc9  1  0.666667  0.333333  0.750000  1
  C  C10  1  0.958702  0.776355  0.750000  1
  C  C11  1  0.192908  0.956294  0.250000  1
  C  C12  1  0.763385  0.807092  0.250000  1
  C  C13  1  0.223645  0.182347  0.750000  1
  C  C14  1  0.817653  0.041298  0.750000  1
  C  C15  1  0.043706  0.236615  0.250000  1
  C  C16  1  0.869187  0.588090  0.750000  1
  C  C17  1  0.281302  0.855611  0.250000  1
  C  C18  1  0.574308  0.718698  0.250000  1
  C  C19  1  0.411910  0.281096  0.750000  1
  C  C20  1  0.144389  0.425692  0.250000  1
  C  C21  1  0.718904  0.130813  0.750000  1
