# generated using pymatgen
data_Ac7Yb12DySn16
_symmetry_space_group_name_H-M   'P 1'
_cell_length_a   8.16619328
_cell_length_b   8.64815982
_cell_length_c   16.43128400
_cell_angle_alpha   90.05876553
_cell_angle_beta   89.95716599
_cell_angle_gamma   89.98582626
_symmetry_Int_Tables_number   1
_chemical_formula_structural   Ac7Yb12DySn16
_chemical_formula_sum   'Ac7 Yb12 Dy1 Sn16'
_cell_volume   1160.41811649
_cell_formula_units_Z   1
loop_
 _symmetry_equiv_pos_site_id
 _symmetry_equiv_pos_as_xyz
  1  'x, y, z'
loop_
 _atom_site_type_symbol
 _atom_site_label
 _atom_site_symmetry_multiplicity
 _atom_site_fract_x
 _atom_site_fract_y
 _atom_site_fract_z
 _atom_site_occupancy
  Ac  Ac0  1  0.493610  0.316010  0.904532  1
  Ac  Ac1  1  0.992726  0.181370  0.595650  1
  Ac  Ac2  1  0.506681  0.681164  0.403918  1
  Ac  Ac3  1  0.006852  0.820413  0.091289  1
  Ac  Ac4  1  0.509923  0.680595  0.093917  1
  Ac  Ac5  1  0.007067  0.818498  0.403948  1
  Ac  Ac6  1  0.493083  0.317821  0.598078  1
  Yb  Yb7  1  0.328115  0.830888  0.877951  1
  Yb  Yb8  1  0.830638  0.671010  0.625637  1
  Yb  Yb9  1  0.669645  0.170659  0.376575  1
  Yb  Yb10  1  0.168105  0.326556  0.121701  1
  Yb  Yb11  1  0.670945  0.170065  0.122865  1
  Yb  Yb12  1  0.169978  0.330099  0.376351  1
  Yb  Yb13  1  0.329000  0.830680  0.625924  1
  Yb  Yb14  1  0.830401  0.669348  0.876373  1
  Yb  Yb15  1  0.160561  0.504159  0.751799  1
  Yb  Yb16  1  0.660429  0.996327  0.752483  1
  Yb  Yb17  1  0.840003  0.493894  0.248917  1
  Yb  Yb18  1  0.338986  0.005397  0.249501  1
  Dy  Dy19  1  0.989098  0.193762  0.898872  1
  Sn  Sn20  1  0.337184  0.038926  0.038132  1
  Sn  Sn21  1  0.836752  0.461596  0.461002  1
  Sn  Sn22  1  0.662387  0.960788  0.540784  1
  Sn  Sn23  1  0.160523  0.529568  0.957398  1
  Sn  Sn24  1  0.674348  0.967235  0.957640  1
  Sn  Sn25  1  0.163095  0.539524  0.540890  1
  Sn  Sn26  1  0.336519  0.038942  0.461128  1
  Sn  Sn27  1  0.838071  0.453922  0.036121  1
  Sn  Sn28  1  0.532997  0.607603  0.751386  1
  Sn  Sn29  1  0.028923  0.894233  0.754573  1
  Sn  Sn30  1  0.467758  0.389421  0.249438  1
  Sn  Sn31  1  0.968035  0.110157  0.249994  1
  Sn  Sn32  1  0.279914  0.135489  0.754243  1
  Sn  Sn33  1  0.790950  0.363972  0.752870  1
  Sn  Sn34  1  0.713527  0.867345  0.249232  1
  Sn  Sn35  1  0.213173  0.632568  0.248887  1
