# generated using pymatgen
data_Eu8Si13Au3
_symmetry_space_group_name_H-M   'P 1'
_cell_length_a   8.28505500
_cell_length_b   8.28507347
_cell_length_c   8.57006000
_cell_angle_alpha   89.99971646
_cell_angle_beta   90.00002766
_cell_angle_gamma   119.99973859
_symmetry_Int_Tables_number   1
_chemical_formula_structural   Eu8Si13Au3
_chemical_formula_sum   'Eu8 Si13 Au3'
_cell_volume   509.45684075
_cell_formula_units_Z   1
loop_
 _symmetry_equiv_pos_site_id
 _symmetry_equiv_pos_as_xyz
  1  'x, y, z'
loop_
 _atom_site_type_symbol
 _atom_site_label
 _atom_site_symmetry_multiplicity
 _atom_site_fract_x
 _atom_site_fract_y
 _atom_site_fract_z
 _atom_site_occupancy
  Eu  Eu0  1  0.999985  0.999988  0.749734  1
  Eu  Eu1  1  0.999984  0.000023  0.250304  1
  Eu  Eu2  1  0.496861  0.503065  0.752606  1
  Eu  Eu3  1  0.496845  0.993718  0.752456  1
  Eu  Eu4  1  0.006315  0.503146  0.752564  1
  Eu  Eu5  1  0.497642  0.502346  0.247543  1
  Eu  Eu6  1  0.004720  0.502375  0.247506  1
  Eu  Eu7  1  0.497655  0.995344  0.247578  1
  Si  Si8  1  0.836398  0.163648  0.000787  1
  Si  Si9  1  0.836429  0.672842  0.001025  1
  Si  Si10  1  0.327287  0.163699  0.000745  1
  Si  Si11  1  0.836702  0.163254  0.499020  1
  Si  Si12  1  0.836702  0.673493  0.498922  1
  Si  Si13  1  0.326516  0.163270  0.498977  1
  Si  Si14  1  0.162478  0.837469  0.498578  1
  Si  Si15  1  0.674949  0.837409  0.498659  1
  Si  Si16  1  0.162466  0.324928  0.498568  1
  Si  Si17  1  0.164693  0.835264  0.001418  1
  Si  Si18  1  0.670612  0.835294  0.001311  1
  Si  Si19  1  0.164779  0.329513  0.001544  1
  Si  Si20  1  0.333263  0.666602  0.000819  1
  Au  Au21  1  0.666768  0.333410  0.998997  1
  Au  Au22  1  0.666745  0.333384  0.501039  1
  Au  Au23  1  0.333208  0.666511  0.499299  1
