# generated using pymatgen
data_La2B6Ir4Rh5
_symmetry_space_group_name_H-M   'P 1'
_cell_length_a   5.70824500
_cell_length_b   5.70595807
_cell_length_c   8.60214501
_cell_angle_alpha   90.00039567
_cell_angle_beta   89.99920899
_cell_angle_gamma   120.01326493
_symmetry_Int_Tables_number   1
_chemical_formula_structural   La2B6Ir4Rh5
_chemical_formula_sum   'La2 B6 Ir4 Rh5'
_cell_volume   242.61101026
_cell_formula_units_Z   1
loop_
 _symmetry_equiv_pos_site_id
 _symmetry_equiv_pos_as_xyz
  1  'x, y, z'
loop_
 _atom_site_type_symbol
 _atom_site_label
 _atom_site_symmetry_multiplicity
 _atom_site_fract_x
 _atom_site_fract_y
 _atom_site_fract_z
 _atom_site_occupancy
  La  La0  1  0.999972  0.000000  0.291673  1
  La  La1  1  0.000006  0.000000  0.710295  1
  B  B2  1  0.333884  0.667781  0.999576  1
  B  B3  1  0.666103  0.332219  0.999576  1
  B  B4  1  0.333672  0.667356  0.333259  1
  B  B5  1  0.666316  0.332644  0.333259  1
  B  B6  1  0.666804  0.333617  0.666873  1
  B  B7  1  0.333187  0.666383  0.666873  1
  Ir  Ir8  1  0.499986  0.000000  0.162166  1
  Ir  Ir9  1  0.499999  0.000000  0.500860  1
  Ir  Ir10  1  0.500007  0.500004  0.500206  1
  Ir  Ir11  1  0.000003  0.499996  0.500206  1
  Rh  Rh12  1  0.499979  0.500001  0.162123  1
  Rh  Rh13  1  0.999978  0.499999  0.162123  1
  Rh  Rh14  1  0.499991  0.000000  0.836446  1
  Rh  Rh15  1  0.500008  0.500003  0.837244  1
  Rh  Rh16  1  0.000005  0.499997  0.837244  1
