# generated using pymatgen
data_MnFe(PO3)4
_symmetry_space_group_name_H-M   'P 1'
_cell_length_a   7.43387527
_cell_length_b   7.43387435
_cell_length_c   10.22865031
_cell_angle_alpha   66.74065942
_cell_angle_beta   66.74066142
_cell_angle_gamma   70.12294729
_symmetry_Int_Tables_number   1
_chemical_formula_structural   MnFe(PO3)4
_chemical_formula_sum   'Mn2 Fe2 P8 O24'
_cell_volume   465.63105133
_cell_formula_units_Z   2
loop_
 _symmetry_equiv_pos_site_id
 _symmetry_equiv_pos_as_xyz
  1  'x, y, z'
loop_
 _atom_site_type_symbol
 _atom_site_label
 _atom_site_symmetry_multiplicity
 _atom_site_fract_x
 _atom_site_fract_y
 _atom_site_fract_z
 _atom_site_occupancy
  Mn  Mn0  1  0.954548  0.045452  0.250000  1
  Mn  Mn1  1  0.045452  0.954548  0.750000  1
  Fe  Fe2  1  0.000000  0.500000  0.000000  1
  Fe  Fe3  1  0.500000  0.000000  0.500000  1
  P  P4  1  0.701707  0.683880  0.305361  1
  P  P5  1  0.316120  0.298293  0.194639  1
  P  P6  1  0.298293  0.316120  0.694639  1
  P  P7  1  0.683880  0.701707  0.805361  1
  P  P8  1  0.741438  0.274682  0.521930  1
  P  P9  1  0.725318  0.258562  0.978070  1
  P  P10  1  0.258562  0.725318  0.478070  1
  P  P11  1  0.274682  0.741438  0.021930  1
  O  O12  1  0.468204  0.683576  0.349973  1
  O  O13  1  0.316424  0.531796  0.150027  1
  O  O14  1  0.531796  0.316424  0.650027  1
  O  O15  1  0.683576  0.468204  0.849973  1
  O  O16  1  0.780857  0.497599  0.433498  1
  O  O17  1  0.502401  0.219143  0.066502  1
  O  O18  1  0.219143  0.502402  0.566502  1
  O  O19  1  0.497599  0.780857  0.933498  1
  O  O20  1  0.804684  0.650183  0.156852  1
  O  O21  1  0.349817  0.195316  0.343148  1
  O  O22  1  0.195316  0.349817  0.843148  1
  O  O23  1  0.650183  0.804684  0.656852  1
  O  O24  1  0.717052  0.869454  0.325139  1
  O  O25  1  0.130546  0.282948  0.174861  1
  O  O26  1  0.282948  0.130546  0.674861  1
  O  O27  1  0.869454  0.717052  0.825139  1
  O  O28  1  0.710099  0.192136  0.419945  1
  O  O29  1  0.807864  0.289901  0.080055  1
  O  O30  1  0.289901  0.807864  0.580055  1
  O  O31  1  0.192136  0.710099  0.919945  1
  O  O32  1  0.902887  0.160913  0.592452  1
  O  O33  1  0.839087  0.097113  0.907548  1
  O  O34  1  0.097113  0.839087  0.407548  1
  O  O35  1  0.160913  0.902887  0.092452  1
