# generated using pymatgen
data_La2Er18Si13Au3
_symmetry_space_group_name_H-M   'P 1'
_cell_length_a   7.38715556
_cell_length_b   7.84304309
_cell_length_c   14.57561774
_cell_angle_alpha   89.73423222
_cell_angle_beta   90.02201998
_cell_angle_gamma   89.90545144
_symmetry_Int_Tables_number   1
_chemical_formula_structural   La2Er18Si13Au3
_chemical_formula_sum   'La2 Er18 Si13 Au3'
_cell_volume   844.46862420
_cell_formula_units_Z   1
loop_
 _symmetry_equiv_pos_site_id
 _symmetry_equiv_pos_as_xyz
  1  'x, y, z'
loop_
 _atom_site_type_symbol
 _atom_site_label
 _atom_site_symmetry_multiplicity
 _atom_site_fract_x
 _atom_site_fract_y
 _atom_site_fract_z
 _atom_site_occupancy
  La  La0  1  0.517256  0.567792  0.336046  1
  La  La1  1  0.019059  0.425801  0.663387  1
  Er  Er2  1  0.810872  0.581609  0.874717  1
  Er  Er3  1  0.310646  0.420635  0.126124  1
  Er  Er4  1  0.180981  0.929494  0.372383  1
  Er  Er5  1  0.686502  0.075289  0.627472  1
  Er  Er6  1  0.180499  0.928004  0.629035  1
  Er  Er7  1  0.684334  0.074551  0.370545  1
  Er  Er8  1  0.818942  0.575083  0.126428  1
  Er  Er9  1  0.318546  0.425991  0.873102  1
  Er  Er10  1  0.652389  0.231623  0.999817  1
  Er  Er11  1  0.155241  0.770894  0.000474  1
  Er  Er12  1  0.352463  0.270526  0.499622  1
  Er  Er13  1  0.843895  0.735609  0.500419  1
  Er  Er14  1  0.478680  0.936682  0.841676  1
  Er  Er15  1  0.977629  0.062529  0.155609  1
  Er  Er16  1  0.475754  0.938761  0.156597  1
  Er  Er17  1  0.973714  0.059383  0.845224  1
  Er  Er18  1  0.523253  0.563120  0.659490  1
  Er  Er19  1  0.023229  0.432781  0.343062  1
  Si  Si20  1  0.979224  0.144821  0.498506  1
  Si  Si21  1  0.655303  0.276334  0.792479  1
  Si  Si22  1  0.152328  0.723579  0.208607  1
  Si  Si23  1  0.347463  0.216428  0.288328  1
  Si  Si24  1  0.844790  0.782397  0.711008  1
  Si  Si25  1  0.360411  0.220119  0.709345  1
  Si  Si26  1  0.856186  0.781609  0.289732  1
  Si  Si27  1  0.654266  0.271269  0.205414  1
  Si  Si28  1  0.151542  0.728675  0.793828  1
  Si  Si29  1  0.772543  0.882064  0.001049  1
  Si  Si30  1  0.273072  0.119634  0.998963  1
  Si  Si31  1  0.220560  0.619950  0.500899  1
  Si  Si32  1  0.736484  0.372372  0.497732  1
  Au  Au33  1  0.518027  0.649456  0.002816  1
  Au  Au34  1  0.017280  0.351907  0.997073  1
  Au  Au35  1  0.476637  0.853229  0.502989  1
