# generated using pymatgen
data_La7Tb3Si8O3
_symmetry_space_group_name_H-M   'P 1'
_cell_length_a   10.80292000
_cell_length_b   10.80291987
_cell_length_c   4.56451500
_cell_angle_alpha   90.00000000
_cell_angle_beta   90.00000000
_cell_angle_gamma   120.00000041
_symmetry_Int_Tables_number   1
_chemical_formula_structural   La7Tb3Si8O3
_chemical_formula_sum   'La7 Tb3 Si8 O3'
_cell_volume   461.32562952
_cell_formula_units_Z   1
loop_
 _symmetry_equiv_pos_site_id
 _symmetry_equiv_pos_as_xyz
  1  'x, y, z'
loop_
 _atom_site_type_symbol
 _atom_site_label
 _atom_site_symmetry_multiplicity
 _atom_site_fract_x
 _atom_site_fract_y
 _atom_site_fract_z
 _atom_site_occupancy
  La  La0  1  0.211400  0.788600  0.000000  1
  La  La1  1  0.577201  0.788600  0.000000  1
  La  La2  1  0.788600  0.577201  0.000000  1
  La  La3  1  0.000000  0.000000  0.000000  1
  La  La4  1  0.211400  0.422799  0.000000  1
  La  La5  1  0.422799  0.211400  0.000000  1
  La  La6  1  0.788600  0.211400  0.000000  1
  Tb  Tb7  1  0.000000  0.500000  0.500000  1
  Tb  Tb8  1  0.500000  0.500000  0.500000  1
  Tb  Tb9  1  0.500000  0.000000  0.500000  1
  Si  Si10  1  0.000000  0.777501  0.500000  1
  Si  Si11  1  0.000000  0.222499  0.500000  1
  Si  Si12  1  0.222499  0.222499  0.500000  1
  Si  Si13  1  0.777501  0.000000  0.500000  1
  Si  Si14  1  0.333333  0.666667  0.500000  1
  Si  Si15  1  0.222499  0.000000  0.500000  1
  Si  Si16  1  0.666667  0.333333  0.500000  1
  Si  Si17  1  0.777501  0.777501  0.500000  1
  O  O18  1  0.000000  0.500000  0.000000  1
  O  O19  1  0.500000  0.500000  0.000000  1
  O  O20  1  0.500000  0.000000  0.000000  1
