# generated using pymatgen
data_TiFe4Re3P4
_symmetry_space_group_name_H-M   'P 1'
_cell_length_a   3.71476500
_cell_length_b   5.82787367
_cell_length_c   6.64507384
_cell_angle_alpha   89.71150391
_cell_angle_beta   90.00000000
_cell_angle_gamma   90.00000000
_symmetry_Int_Tables_number   1
_chemical_formula_structural   TiFe4Re3P4
_chemical_formula_sum   'Ti1 Fe4 Re3 P4'
_cell_volume   143.85858337
_cell_formula_units_Z   1
loop_
 _symmetry_equiv_pos_site_id
 _symmetry_equiv_pos_as_xyz
  1  'x, y, z'
loop_
 _atom_site_type_symbol
 _atom_site_label
 _atom_site_symmetry_multiplicity
 _atom_site_fract_x
 _atom_site_fract_y
 _atom_site_fract_z
 _atom_site_occupancy
  Ti  Ti0  1  0.750000  0.475006  0.322097  1
  Fe  Fe1  1  0.250000  0.137663  0.437148  1
  Fe  Fe2  1  0.250000  0.639592  0.065020  1
  Fe  Fe3  1  0.750000  0.860989  0.568423  1
  Fe  Fe4  1  0.750000  0.357646  0.933799  1
  Re  Re5  1  0.250000  0.031609  0.831528  1
  Re  Re6  1  0.250000  0.529276  0.670084  1
  Re  Re7  1  0.750000  0.970729  0.166612  1
  P  P8  1  0.250000  0.771365  0.377862  1
  P  P9  1  0.250000  0.263335  0.119748  1
  P  P10  1  0.750000  0.231511  0.625582  1
  P  P11  1  0.750000  0.731278  0.882096  1
