# generated using pymatgen
data_Ho4Tm4Sc12Si15Ag
_symmetry_space_group_name_H-M   'P 1'
_cell_length_a   7.10148882
_cell_length_b   7.34559889
_cell_length_c   14.02386979
_cell_angle_alpha   89.87038886
_cell_angle_beta   89.55438068
_cell_angle_gamma   90.18561992
_symmetry_Int_Tables_number   1
_chemical_formula_structural   Ho4Tm4Sc12Si15Ag
_chemical_formula_sum   'Ho4 Tm4 Sc12 Si15 Ag1'
_cell_volume   731.52291916
_cell_formula_units_Z   1
loop_
 _symmetry_equiv_pos_site_id
 _symmetry_equiv_pos_as_xyz
  1  'x, y, z'
loop_
 _atom_site_type_symbol
 _atom_site_label
 _atom_site_symmetry_multiplicity
 _atom_site_fract_x
 _atom_site_fract_y
 _atom_site_fract_z
 _atom_site_occupancy
  Ho  Ho0  1  0.011878  0.175608  0.097472  1
  Ho  Ho1  1  0.988151  0.825861  0.904216  1
  Ho  Ho2  1  0.487700  0.677198  0.904319  1
  Ho  Ho3  1  0.989666  0.830582  0.597351  1
  Tm  Tm4  1  0.511787  0.322863  0.096584  1
  Tm  Tm5  1  0.007994  0.172059  0.398659  1
  Tm  Tm6  1  0.511004  0.321873  0.400426  1
  Tm  Tm7  1  0.494580  0.678901  0.599713  1
  Sc  Sc8  1  0.163979  0.502328  0.752980  1
  Sc  Sc9  1  0.836826  0.497754  0.251092  1
  Sc  Sc10  1  0.336908  0.000726  0.249029  1
  Sc  Sc11  1  0.665671  0.995901  0.751164  1
  Sc  Sc12  1  0.342929  0.173740  0.626709  1
  Sc  Sc13  1  0.663587  0.823166  0.373632  1
  Sc  Sc14  1  0.166453  0.674873  0.371660  1
  Sc  Sc15  1  0.669146  0.824232  0.124919  1
  Sc  Sc16  1  0.826930  0.325772  0.625260  1
  Sc  Sc17  1  0.329358  0.175502  0.876264  1
  Sc  Sc18  1  0.830761  0.322941  0.876035  1
  Sc  Sc19  1  0.168881  0.675913  0.125314  1
  Si  Si20  1  0.036867  0.120166  0.750026  1
  Si  Si21  1  0.964641  0.884776  0.248721  1
  Si  Si22  1  0.466491  0.612703  0.248077  1
  Si  Si23  1  0.534715  0.387681  0.752244  1
  Si  Si24  1  0.286326  0.872610  0.750779  1
  Si  Si25  1  0.711735  0.129271  0.248612  1
  Si  Si26  1  0.214379  0.368724  0.248544  1
  Si  Si27  1  0.788448  0.629152  0.752353  1
  Si  Si28  1  0.833038  0.536383  0.459258  1
  Si  Si29  1  0.335299  0.962253  0.460888  1
  Si  Si30  1  0.842016  0.534752  0.039257  1
  Si  Si31  1  0.661174  0.036101  0.537490  1
  Si  Si32  1  0.156450  0.464755  0.962075  1
  Si  Si33  1  0.658092  0.035329  0.960988  1
  Si  Si34  1  0.341977  0.965196  0.040043  1
  Ag  Ag35  1  0.164161  0.462352  0.537846  1
