# generated using pymatgen
data_Dy8Ta2Ti7Si16W3
_symmetry_space_group_name_H-M   'P 1'
_cell_length_a   6.99971044
_cell_length_b   6.99522625
_cell_length_c   12.90298154
_cell_angle_alpha   90.06287411
_cell_angle_beta   90.03989986
_cell_angle_gamma   89.99621575
_symmetry_Int_Tables_number   1
_chemical_formula_structural   Dy8Ta2Ti7Si16W3
_chemical_formula_sum   'Dy8 Ta2 Ti7 Si16 W3'
_cell_volume   631.78825652
_cell_formula_units_Z   1
loop_
 _symmetry_equiv_pos_site_id
 _symmetry_equiv_pos_as_xyz
  1  'x, y, z'
loop_
 _atom_site_type_symbol
 _atom_site_label
 _atom_site_symmetry_multiplicity
 _atom_site_fract_x
 _atom_site_fract_y
 _atom_site_fract_z
 _atom_site_occupancy
  Dy  Dy0  1  0.999590  0.659691  0.032593  1
  Dy  Dy1  1  0.001252  0.340106  0.532310  1
  Dy  Dy2  1  0.659069  0.999581  0.967300  1
  Dy  Dy3  1  0.158856  0.500132  0.783417  1
  Dy  Dy4  1  0.842104  0.498743  0.281419  1
  Dy  Dy5  1  0.500225  0.159698  0.217230  1
  Dy  Dy6  1  0.498828  0.841651  0.718336  1
  Dy  Dy7  1  0.339993  0.001758  0.467403  1
  Ta  Ta8  1  0.347368  0.507772  0.373735  1
  Ta  Ta9  1  0.671923  0.671843  0.499790  1
  Ti  Ti10  1  0.846890  0.990621  0.375574  1
  Ti  Ti11  1  0.009418  0.154129  0.124238  1
  Ti  Ti12  1  0.991138  0.846252  0.623813  1
  Ti  Ti13  1  0.508250  0.345317  0.626058  1
  Ti  Ti14  1  0.153615  0.009479  0.876166  1
  Ti  Ti15  1  0.491767  0.653269  0.125183  1
  Ti  Ti16  1  0.654124  0.491337  0.874744  1
  Si  Si17  1  0.046576  0.708864  0.434632  1
  Si  Si18  1  0.953323  0.291534  0.935042  1
  Si  Si19  1  0.707630  0.047503  0.566395  1
  Si  Si20  1  0.207797  0.453148  0.183424  1
  Si  Si21  1  0.791585  0.545188  0.686014  1
  Si  Si22  1  0.453480  0.209082  0.815406  1
  Si  Si23  1  0.546986  0.794844  0.313738  1
  Si  Si24  1  0.291529  0.953433  0.065151  1
  Si  Si25  1  0.800400  0.870022  0.184116  1
  Si  Si26  1  0.295896  0.630929  0.566759  1
  Si  Si27  1  0.700090  0.369778  0.065309  1
  Si  Si28  1  0.633427  0.295501  0.433673  1
  Si  Si29  1  0.370200  0.700285  0.934708  1
  Si  Si30  1  0.129445  0.199826  0.315811  1
  Si  Si31  1  0.199205  0.130326  0.684937  1
  Si  Si32  1  0.869701  0.800297  0.815056  1
  W  W33  1  0.826229  0.173892  0.750942  1
  W  W34  1  0.174335  0.826880  0.249427  1
  W  W35  1  0.327753  0.327289  0.000151  1
