# generated using pymatgen
data_Cs2LiHoBi2
_symmetry_space_group_name_H-M   'P 1'
_cell_length_a   10.27010164
_cell_length_b   10.27010225
_cell_length_c   10.27010300
_cell_angle_alpha   136.65865413
_cell_angle_beta   62.99130629
_cell_angle_gamma   136.62279661
_symmetry_Int_Tables_number   1
_chemical_formula_structural   Cs2LiHoBi2
_chemical_formula_sum   'Cs4 Li2 Ho2 Bi4'
_cell_volume   504.19999002
_cell_formula_units_Z   2
loop_
 _symmetry_equiv_pos_site_id
 _symmetry_equiv_pos_as_xyz
  1  'x, y, z'
loop_
 _atom_site_type_symbol
 _atom_site_label
 _atom_site_symmetry_multiplicity
 _atom_site_fract_x
 _atom_site_fract_y
 _atom_site_fract_z
 _atom_site_occupancy
  Cs  Cs0  1  0.324025  0.782424  0.106450  1
  Cs  Cs1  1  0.175976  0.282424  0.458400  1
  Cs  Cs2  1  0.824024  0.717576  0.541600  1
  Cs  Cs3  1  0.675976  0.217576  0.893551  1
  Li  Li4  1  0.749999  0.249999  0.500000  1
  Li  Li5  1  0.249999  0.749999  0.500000  1
  Ho  Ho6  1  0.249999  0.249999  0.000000  1
  Ho  Ho7  1  0.750000  0.750000  0.000000  1
  Bi  Bi8  1  0.909035  0.244649  0.153684  1
  Bi  Bi9  1  0.590965  0.744649  0.335613  1
  Bi  Bi10  1  0.409035  0.255351  0.664387  1
  Bi  Bi11  1  0.090965  0.755351  0.846315  1
