# generated using pymatgen
data_LiTb9Er7Cd3Co4
_symmetry_space_group_name_H-M   'P 1'
_cell_length_a   9.49949070
_cell_length_b   9.50683888
_cell_length_c   9.52969289
_cell_angle_alpha   59.99823035
_cell_angle_beta   59.97822878
_cell_angle_gamma   59.96059631
_symmetry_Int_Tables_number   1
_chemical_formula_structural   LiTb9Er7Cd3Co4
_chemical_formula_sum   'Li1 Tb9 Er7 Cd3 Co4'
_cell_volume   608.26607809
_cell_formula_units_Z   1
loop_
 _symmetry_equiv_pos_site_id
 _symmetry_equiv_pos_as_xyz
  1  'x, y, z'
loop_
 _atom_site_type_symbol
 _atom_site_label
 _atom_site_symmetry_multiplicity
 _atom_site_fract_x
 _atom_site_fract_y
 _atom_site_fract_z
 _atom_site_occupancy
  Li  Li0  1  0.821599  0.822085  0.533087  1
  Tb  Tb1  1  0.596216  0.213463  0.598515  1
  Tb  Tb2  1  0.810715  0.812281  0.187126  1
  Tb  Tb3  1  0.214561  0.596423  0.597542  1
  Tb  Tb4  1  0.810097  0.189804  0.187935  1
  Tb  Tb5  1  0.062762  0.434505  0.436675  1
  Tb  Tb6  1  0.190021  0.811715  0.186562  1
  Tb  Tb7  1  0.596666  0.598405  0.208632  1
  Tb  Tb8  1  0.187738  0.186710  0.811666  1
  Tb  Tb9  1  0.063865  0.436729  0.060230  1
  Er  Er10  1  0.439495  0.437429  0.058767  1
  Er  Er11  1  0.593101  0.593971  0.597064  1
  Er  Er12  1  0.188276  0.813517  0.811422  1
  Er  Er13  1  0.064931  0.063234  0.435780  1
  Er  Er14  1  0.437998  0.063096  0.061445  1
  Er  Er15  1  0.812616  0.187932  0.812227  1
  Er  Er16  1  0.434898  0.062206  0.436146  1
  Cd  Cd17  1  0.831693  0.832476  0.826470  1
  Cd  Cd18  1  0.508901  0.830536  0.827087  1
  Cd  Cd19  1  0.830132  0.508793  0.827593  1
  Co  Co20  1  0.391503  0.391235  0.388350  1
  Co  Co21  1  0.827368  0.392576  0.391430  1
  Co  Co22  1  0.392191  0.828357  0.390857  1
  Co  Co23  1  0.392659  0.392525  0.827389  1
