# generated using pymatgen
data_La2Al2Ga7Ir3
_symmetry_space_group_name_H-M   'P 1'
_cell_length_a   7.69085355
_cell_length_b   7.69085391
_cell_length_c   9.67726500
_cell_angle_alpha   90.00000000
_cell_angle_beta   90.00000000
_cell_angle_gamma   119.42306488
_symmetry_Int_Tables_number   1
_chemical_formula_structural   La2Al2Ga7Ir3
_chemical_formula_sum   'La4 Al4 Ga14 Ir6'
_cell_volume   498.57205426
_cell_formula_units_Z   2
loop_
 _symmetry_equiv_pos_site_id
 _symmetry_equiv_pos_as_xyz
  1  'x, y, z'
loop_
 _atom_site_type_symbol
 _atom_site_label
 _atom_site_symmetry_multiplicity
 _atom_site_fract_x
 _atom_site_fract_y
 _atom_site_fract_z
 _atom_site_occupancy
  La  La0  1  0.000642  0.670399  0.250000  1
  La  La1  1  0.999358  0.329601  0.750000  1
  La  La2  1  0.670399  0.000642  0.250000  1
  La  La3  1  0.329601  0.999358  0.750000  1
  Al  Al4  1  0.333340  0.333340  0.545064  1
  Al  Al5  1  0.666660  0.666660  0.454936  1
  Al  Al6  1  0.666660  0.666660  0.045064  1
  Al  Al7  1  0.333340  0.333340  0.954936  1
  Ga  Ga8  1  0.130383  0.130383  0.250000  1
  Ga  Ga9  1  0.869617  0.869617  0.750000  1
  Ga  Ga10  1  0.004072  0.335563  0.077254  1
  Ga  Ga11  1  0.995928  0.664437  0.922746  1
  Ga  Ga12  1  0.995928  0.664437  0.577254  1
  Ga  Ga13  1  0.335563  0.004072  0.422746  1
  Ga  Ga14  1  0.004072  0.335563  0.422746  1
  Ga  Ga15  1  0.664437  0.995928  0.577254  1
  Ga  Ga16  1  0.664437  0.995928  0.922746  1
  Ga  Ga17  1  0.335563  0.004072  0.077254  1
  Ga  Ga18  1  0.347585  0.547976  0.250000  1
  Ga  Ga19  1  0.652415  0.452024  0.750000  1
  Ga  Ga20  1  0.547976  0.347585  0.250000  1
  Ga  Ga21  1  0.452024  0.652415  0.750000  1
  Ir  Ir22  1  0.667958  0.332042  0.000000  1
  Ir  Ir23  1  0.332042  0.667958  0.000000  1
  Ir  Ir24  1  0.332042  0.667958  0.500000  1
  Ir  Ir25  1  0.667958  0.332042  0.500000  1
  Ir  Ir26  1  0.000000  0.000000  0.000000  1
  Ir  Ir27  1  0.000000  0.000000  0.500000  1
