# generated using pymatgen
data_Lu4MnCrC4
_symmetry_space_group_name_H-M   'P 1'
_cell_length_a   6.30355100
_cell_length_b   4.91135700
_cell_length_c   9.51133200
_cell_angle_alpha   90.00000000
_cell_angle_beta   90.00000000
_cell_angle_gamma   90.00000000
_symmetry_Int_Tables_number   1
_chemical_formula_structural   Lu4MnCrC4
_chemical_formula_sum   'Lu8 Mn2 Cr2 C8'
_cell_volume   294.46122589
_cell_formula_units_Z   2
loop_
 _symmetry_equiv_pos_site_id
 _symmetry_equiv_pos_as_xyz
  1  'x, y, z'
loop_
 _atom_site_type_symbol
 _atom_site_label
 _atom_site_symmetry_multiplicity
 _atom_site_fract_x
 _atom_site_fract_y
 _atom_site_fract_z
 _atom_site_occupancy
  Lu  Lu0  1  0.821433  0.249999  0.058331  1
  Lu  Lu1  1  0.532432  0.750000  0.217053  1
  Lu  Lu2  1  0.032432  0.750000  0.282948  1
  Lu  Lu3  1  0.321434  0.249999  0.441670  1
  Lu  Lu4  1  0.679575  0.750000  0.556318  1
  Lu  Lu5  1  0.965985  0.249999  0.718148  1
  Lu  Lu6  1  0.465986  0.249999  0.781852  1
  Lu  Lu7  1  0.179575  0.750000  0.943682  1
  Mn  Mn8  1  0.276296  0.249999  0.139562  1
  Mn  Mn9  1  0.776296  0.249999  0.360439  1
  Cr  Cr10  1  0.223341  0.750000  0.636315  1
  Cr  Cr11  1  0.723342  0.750000  0.863685  1
  C  C12  1  0.815789  0.750000  0.045353  1
  C  C13  1  0.544650  0.249999  0.239262  1
  C  C14  1  0.044650  0.249999  0.260738  1
  C  C15  1  0.315789  0.750000  0.454646  1
  C  C16  1  0.686055  0.249999  0.540287  1
  C  C17  1  0.954440  0.750000  0.738322  1
  C  C18  1  0.454440  0.750000  0.761677  1
  C  C19  1  0.186055  0.249999  0.959713  1
