# generated using pymatgen
data_Ca4Pr16Ga5Sn11
_symmetry_space_group_name_H-M   'P 1'
_cell_length_a   7.92587036
_cell_length_b   8.58325463
_cell_length_c   15.98443400
_cell_angle_alpha   90.16354501
_cell_angle_beta   89.79779118
_cell_angle_gamma   90.03628981
_symmetry_Int_Tables_number   1
_chemical_formula_structural   Ca4Pr16Ga5Sn11
_chemical_formula_sum   'Ca4 Pr16 Ga5 Sn11'
_cell_volume   1087.40585137
_cell_formula_units_Z   1
loop_
 _symmetry_equiv_pos_site_id
 _symmetry_equiv_pos_as_xyz
  1  'x, y, z'
loop_
 _atom_site_type_symbol
 _atom_site_label
 _atom_site_symmetry_multiplicity
 _atom_site_fract_x
 _atom_site_fract_y
 _atom_site_fract_z
 _atom_site_occupancy
  Ca  Ca0  1  0.825328  0.507505  0.749018  1
  Ca  Ca1  1  0.327159  0.990317  0.749164  1
  Ca  Ca2  1  0.172082  0.492022  0.252429  1
  Ca  Ca3  1  0.674167  0.011640  0.251392  1
  Pr  Pr4  1  0.671482  0.169101  0.624303  1
  Pr  Pr5  1  0.166389  0.322486  0.870888  1
  Pr  Pr6  1  0.333003  0.822879  0.128935  1
  Pr  Pr7  1  0.826591  0.686367  0.375062  1
  Pr  Pr8  1  0.338974  0.825090  0.372250  1
  Pr  Pr9  1  0.834382  0.678264  0.129361  1
  Pr  Pr10  1  0.666562  0.176950  0.870827  1
  Pr  Pr11  1  0.167223  0.321235  0.627569  1
  Pr  Pr12  1  0.509307  0.687023  0.593278  1
  Pr  Pr13  1  0.007092  0.814504  0.904159  1
  Pr  Pr14  1  0.493172  0.316259  0.096247  1
  Pr  Pr15  1  0.984743  0.180651  0.406476  1
  Pr  Pr16  1  0.492785  0.311608  0.405017  1
  Pr  Pr17  1  0.993383  0.186605  0.095881  1
  Pr  Pr18  1  0.507032  0.684549  0.904369  1
  Pr  Pr19  1  0.008406  0.816577  0.595219  1
  Ga  Ga20  1  0.667202  0.968898  0.461362  1
  Ga  Ga21  1  0.464883  0.394526  0.748529  1
  Ga  Ga22  1  0.965061  0.100677  0.748825  1
  Ga  Ga23  1  0.535022  0.601236  0.249101  1
  Ga  Ga24  1  0.036191  0.898242  0.253390  1
  Sn  Sn25  1  0.175842  0.533934  0.036786  1
  Sn  Sn26  1  0.323868  0.033751  0.963020  1
  Sn  Sn27  1  0.825574  0.466649  0.537587  1
  Sn  Sn28  1  0.332222  0.032632  0.535957  1
  Sn  Sn29  1  0.824062  0.466184  0.963403  1
  Sn  Sn30  1  0.676591  0.966847  0.037188  1
  Sn  Sn31  1  0.173881  0.533651  0.462245  1
  Sn  Sn32  1  0.717198  0.867693  0.750224  1
  Sn  Sn33  1  0.217815  0.630157  0.749229  1
  Sn  Sn34  1  0.281590  0.131588  0.250134  1
  Sn  Sn35  1  0.783741  0.371702  0.251179  1
