# generated using pymatgen
data_TbDy7(ThRh)6
_symmetry_space_group_name_H-M   'P 1'
_cell_length_a   9.79223914
_cell_length_b   9.79223784
_cell_length_c   6.38275742
_cell_angle_alpha   90.02398776
_cell_angle_beta   89.97600853
_cell_angle_gamma   119.45971255
_symmetry_Int_Tables_number   1
_chemical_formula_structural   TbDy7(ThRh)6
_chemical_formula_sum   'Tb1 Dy7 Th6 Rh6'
_cell_volume   532.89501617
_cell_formula_units_Z   1
loop_
 _symmetry_equiv_pos_site_id
 _symmetry_equiv_pos_as_xyz
  1  'x, y, z'
loop_
 _atom_site_type_symbol
 _atom_site_label
 _atom_site_symmetry_multiplicity
 _atom_site_fract_x
 _atom_site_fract_y
 _atom_site_fract_z
 _atom_site_occupancy
  Tb  Tb0  1  0.667272  0.332728  0.528583  1
  Dy  Dy1  1  0.128131  0.871869  0.256792  1
  Dy  Dy2  1  0.460907  0.923437  0.549522  1
  Dy  Dy3  1  0.076563  0.539093  0.549522  1
  Dy  Dy4  1  0.461704  0.538296  0.551033  1
  Dy  Dy5  1  0.537236  0.076848  0.052371  1
  Dy  Dy6  1  0.923152  0.462764  0.052371  1
  Dy  Dy7  1  0.538900  0.461100  0.052081  1
  Th  Th8  1  0.332536  0.667464  0.024820  1
  Th  Th9  1  0.873161  0.743416  0.753957  1
  Th  Th10  1  0.256584  0.126839  0.753957  1
  Th  Th11  1  0.870728  0.129272  0.754915  1
  Th  Th12  1  0.130248  0.254987  0.257422  1
  Th  Th13  1  0.745013  0.869752  0.257422  1
  Rh  Rh14  1  0.185677  0.369818  0.799460  1
  Rh  Rh15  1  0.630182  0.814323  0.799460  1
  Rh  Rh16  1  0.184892  0.815108  0.795488  1
  Rh  Rh17  1  0.808110  0.628756  0.299968  1
  Rh  Rh18  1  0.371244  0.191890  0.299968  1
  Rh  Rh19  1  0.817762  0.182238  0.292325  1
