# generated using pymatgen
data_Li3Tm(BO3)2
_symmetry_space_group_name_H-M   'P 1'
_cell_length_a   6.44085500
_cell_length_b   8.82925172
_cell_length_c   10.08375200
_cell_angle_alpha   63.13974498
_cell_angle_beta   90.00000000
_cell_angle_gamma   90.00000000
_symmetry_Int_Tables_number   1
_chemical_formula_structural   Li3Tm(BO3)2
_chemical_formula_sum   'Li12 Tm4 B8 O24'
_cell_volume   511.57410077
_cell_formula_units_Z   4
loop_
 _symmetry_equiv_pos_site_id
 _symmetry_equiv_pos_as_xyz
  1  'x, y, z'
loop_
 _atom_site_type_symbol
 _atom_site_label
 _atom_site_symmetry_multiplicity
 _atom_site_fract_x
 _atom_site_fract_y
 _atom_site_fract_z
 _atom_site_occupancy
  Li  Li0  1  0.247046  0.396526  0.978482  1
  Li  Li1  1  0.939176  0.294174  0.166427  1
  Li  Li2  1  0.747046  0.603474  0.521518  1
  Li  Li3  1  0.719823  0.160361  0.041345  1
  Li  Li4  1  0.560824  0.294174  0.666427  1
  Li  Li5  1  0.219823  0.839639  0.458655  1
  Li  Li6  1  0.780177  0.160361  0.541345  1
  Li  Li7  1  0.439176  0.705826  0.333573  1
  Li  Li8  1  0.280177  0.839639  0.958655  1
  Li  Li9  1  0.252954  0.396526  0.478482  1
  Li  Li10  1  0.060824  0.705826  0.833573  1
  Li  Li11  1  0.752954  0.603474  0.021518  1
  Tm  Tm12  1  0.471113  0.184355  0.302022  1
  Tm  Tm13  1  0.028887  0.184355  0.802022  1
  Tm  Tm14  1  0.971113  0.815645  0.197978  1
  Tm  Tm15  1  0.528887  0.815645  0.697978  1
  B  B16  1  0.338150  0.541279  0.680456  1
  B  B17  1  0.838150  0.458721  0.819544  1
  B  B18  1  0.825465  0.946210  0.388345  1
  B  B19  1  0.325465  0.053790  0.111655  1
  B  B20  1  0.674535  0.946210  0.888345  1
  B  B21  1  0.174535  0.053790  0.611655  1
  B  B22  1  0.161850  0.541279  0.180456  1
  B  B23  1  0.661850  0.458721  0.319544  1
  O  O24  1  0.786647  0.618046  0.805075  1
  O  O25  1  0.296357  0.595629  0.788455  1
  O  O26  1  0.442539  0.662714  0.554601  1
  O  O27  1  0.942539  0.337286  0.945399  1
  O  O28  1  0.796357  0.404371  0.711545  1
  O  O29  1  0.707147  0.986533  0.483190  1
  O  O30  1  0.434471  0.203552  0.067264  1
  O  O31  1  0.286647  0.381954  0.694925  1
  O  O32  1  0.824414  0.058621  0.237905  1
  O  O33  1  0.324414  0.941379  0.262095  1
  O  O34  1  0.934471  0.796448  0.432736  1
  O  O35  1  0.207147  0.013467  0.016810  1
  O  O36  1  0.792853  0.986533  0.983190  1
  O  O37  1  0.065529  0.203552  0.567264  1
  O  O38  1  0.675586  0.058621  0.737905  1
  O  O39  1  0.175586  0.941379  0.762095  1
  O  O40  1  0.713353  0.618046  0.305075  1
  O  O41  1  0.565529  0.796448  0.932736  1
  O  O42  1  0.292853  0.013467  0.516810  1
  O  O43  1  0.203643  0.595629  0.288455  1
  O  O44  1  0.057461  0.662714  0.054601  1
  O  O45  1  0.557461  0.337286  0.445399  1
  O  O46  1  0.703643  0.404371  0.211545  1
  O  O47  1  0.213353  0.381954  0.194925  1
