# generated using pymatgen
data_Ba3Al2Cl2O5
_symmetry_space_group_name_H-M   'P 1'
_cell_length_a   8.53267918
_cell_length_b   8.53266723
_cell_length_c   8.53268392
_cell_angle_alpha   109.46842874
_cell_angle_beta   109.46740853
_cell_angle_gamma   109.47796776
_symmetry_Int_Tables_number   1
_chemical_formula_structural   Ba3Al2Cl2O5
_chemical_formula_sum   'Ba6 Al4 Cl4 O10'
_cell_volume   478.22604174
_cell_formula_units_Z   2
loop_
 _symmetry_equiv_pos_site_id
 _symmetry_equiv_pos_as_xyz
  1  'x, y, z'
loop_
 _atom_site_type_symbol
 _atom_site_label
 _atom_site_symmetry_multiplicity
 _atom_site_fract_x
 _atom_site_fract_y
 _atom_site_fract_z
 _atom_site_occupancy
  Ba  Ba0  1  0.656735  0.406737  0.250001  1
  Ba  Ba1  1  0.250003  0.656554  0.406552  1
  Ba  Ba2  1  0.843264  0.093263  0.749999  1
  Ba  Ba3  1  0.406697  0.249999  0.656699  1
  Ba  Ba4  1  0.093304  0.750000  0.843304  1
  Ba  Ba5  1  0.749998  0.843445  0.093448  1
  Al  Al6  1  0.499966  0.000004  0.307799  1
  Al  Al7  1  0.307796  0.499996  0.999963  1
  Al  Al8  1  0.000036  0.307839  0.500037  1
  Al  Al9  1  0.192199  0.192162  0.192198  1
  Cl  Cl10  1  0.999903  0.883482  0.500004  1
  Cl  Cl11  1  0.616520  0.616516  0.616420  1
  Cl  Cl12  1  0.883481  0.499900  0.999999  1
  Cl  Cl13  1  0.500099  0.000100  0.883581  1
  O  O14  1  0.987672  0.987649  0.987746  1
  O  O15  1  0.000098  0.512352  0.500024  1
  O  O16  1  0.512322  0.500068  0.999976  1
  O  O17  1  0.499908  0.999933  0.512254  1
  O  O18  1  0.118656  0.368659  0.750001  1
  O  O19  1  0.750000  0.118772  0.368767  1
  O  O20  1  0.131356  0.250000  0.381356  1
  O  O21  1  0.249996  0.381228  0.131228  1
  O  O22  1  0.381341  0.131340  0.249996  1
  O  O23  1  0.368648  0.750000  0.118647  1
