# generated using pymatgen
data_NdErPa2(NiAs)4
_symmetry_space_group_name_H-M   'P 1'
_cell_length_a   4.10479000
_cell_length_b   4.10478927
_cell_length_c   15.45423200
_cell_angle_alpha   90.00000000
_cell_angle_beta   90.00000000
_cell_angle_gamma   120.00002198
_symmetry_Int_Tables_number   1
_chemical_formula_structural   NdErPa2(NiAs)4
_chemical_formula_sum   'Nd1 Er1 Pa2 Ni4 As4'
_cell_volume   225.50686811
_cell_formula_units_Z   1
loop_
 _symmetry_equiv_pos_site_id
 _symmetry_equiv_pos_as_xyz
  1  'x, y, z'
loop_
 _atom_site_type_symbol
 _atom_site_label
 _atom_site_symmetry_multiplicity
 _atom_site_fract_x
 _atom_site_fract_y
 _atom_site_fract_z
 _atom_site_occupancy
  Nd  Nd0  1  0.000000  0.000000  0.000000  1
  Er  Er1  1  0.000000  0.000000  0.500000  1
  Pa  Pa2  1  0.000000  0.000000  0.253162  1
  Pa  Pa3  1  0.000000  0.000000  0.746838  1
  Ni  Ni4  1  0.333333  0.666667  0.147363  1
  Ni  Ni5  1  0.666667  0.333333  0.852637  1
  Ni  Ni6  1  0.666667  0.333333  0.642077  1
  Ni  Ni7  1  0.333333  0.666667  0.357923  1
  As  As8  1  0.333333  0.666667  0.620232  1
  As  As9  1  0.666667  0.333333  0.379768  1
  As  As10  1  0.666667  0.333333  0.128340  1
  As  As11  1  0.333333  0.666667  0.871660  1
