# generated using pymatgen
data_Tb3BiMoRh3O14
_symmetry_space_group_name_H-M   'P 1'
_cell_length_a   7.22528530
_cell_length_b   7.35429564
_cell_length_c   7.22528500
_cell_angle_alpha   60.57861932
_cell_angle_beta   60.00000597
_cell_angle_gamma   60.57861996
_symmetry_Int_Tables_number   1
_chemical_formula_structural   Tb3BiMoRh3O14
_chemical_formula_sum   'Tb3 Bi1 Mo1 Rh3 O14'
_cell_volume   273.82903772
_cell_formula_units_Z   1
loop_
 _symmetry_equiv_pos_site_id
 _symmetry_equiv_pos_as_xyz
  1  'x, y, z'
loop_
 _atom_site_type_symbol
 _atom_site_label
 _atom_site_symmetry_multiplicity
 _atom_site_fract_x
 _atom_site_fract_y
 _atom_site_fract_z
 _atom_site_occupancy
  Tb  Tb0  1  0.125000  0.125000  0.125000  1
  Tb  Tb1  1  0.625000  0.125000  0.125000  1
  Tb  Tb2  1  0.125000  0.125000  0.625000  1
  Bi  Bi3  1  0.125000  0.625000  0.125000  1
  Mo  Mo4  1  0.625000  0.125000  0.625000  1
  Rh  Rh5  1  0.625000  0.625000  0.625000  1
  Rh  Rh6  1  0.625000  0.625000  0.125000  1
  Rh  Rh7  1  0.125000  0.625000  0.625000  1
  O  O8  1  0.251325  0.246023  0.251325  1
  O  O9  1  0.286678  0.720206  0.286678  1
  O  O10  1  0.957566  0.961332  0.540550  1
  O  O11  1  0.540550  0.961332  0.540550  1
  O  O12  1  0.706436  0.720206  0.286678  1
  O  O13  1  0.963322  0.529794  0.543564  1
  O  O14  1  0.709450  0.288668  0.709450  1
  O  O15  1  0.292434  0.288668  0.709450  1
  O  O16  1  0.709450  0.288668  0.292434  1
  O  O17  1  0.286678  0.720206  0.706436  1
  O  O18  1  0.963322  0.529794  0.963322  1
  O  O19  1  0.543564  0.529794  0.963322  1
  O  O20  1  0.998675  0.003977  0.998675  1
  O  O21  1  0.540550  0.961332  0.957566  1
