# generated using pymatgen
data_La2Nd4RuBr10
_symmetry_space_group_name_H-M   'P 1'
_cell_length_a   7.75743125
_cell_length_b   9.73999063
_cell_length_c   9.50753252
_cell_angle_alpha   108.13150162
_cell_angle_beta   95.45227321
_cell_angle_gamma   106.66169613
_symmetry_Int_Tables_number   1
_chemical_formula_structural   La2Nd4RuBr10
_chemical_formula_sum   'La2 Nd4 Ru1 Br10'
_cell_volume   640.49777169
_cell_formula_units_Z   1
loop_
 _symmetry_equiv_pos_site_id
 _symmetry_equiv_pos_as_xyz
  1  'x, y, z'
loop_
 _atom_site_type_symbol
 _atom_site_label
 _atom_site_symmetry_multiplicity
 _atom_site_fract_x
 _atom_site_fract_y
 _atom_site_fract_z
 _atom_site_occupancy
  La  La0  1  0.123655  0.046650  0.765803  1
  La  La1  1  0.876345  0.953350  0.234197  1
  Nd  Nd2  1  0.975202  0.306407  0.100230  1
  Nd  Nd3  1  0.024798  0.693593  0.899770  1
  Nd  Nd4  1  0.369168  0.141697  0.185555  1
  Nd  Nd5  1  0.630832  0.858303  0.814445  1
  Ru  Ru6  1  0.000000  0.000000  0.000000  1
  Br  Br7  1  0.548936  0.171985  0.919555  1
  Br  Br8  1  0.451064  0.828015  0.080445  1
  Br  Br9  1  0.353189  0.450938  0.270675  1
  Br  Br10  1  0.646811  0.549062  0.729325  1
  Br  Br11  1  0.252129  0.083592  0.452012  1
  Br  Br12  1  0.747871  0.916408  0.547988  1
  Br  Br13  1  0.791506  0.257788  0.346892  1
  Br  Br14  1  0.208494  0.742212  0.653108  1
  Br  Br15  1  0.086098  0.369343  0.832111  1
  Br  Br16  1  0.913902  0.630657  0.167889  1
