# generated using pymatgen
data_Li4LuNi9As6P
_symmetry_space_group_name_H-M   'P 1'
_cell_length_a   9.38825045
_cell_length_b   9.41794308
_cell_length_c   3.77957000
_cell_angle_alpha   90.00000000
_cell_angle_beta   90.00000000
_cell_angle_gamma   120.08887058
_symmetry_Int_Tables_number   1
_chemical_formula_structural   Li4LuNi9As6P
_chemical_formula_sum   'Li4 Lu1 Ni9 As6 P1'
_cell_volume   289.15062611
_cell_formula_units_Z   1
loop_
 _symmetry_equiv_pos_site_id
 _symmetry_equiv_pos_as_xyz
  1  'x, y, z'
loop_
 _atom_site_type_symbol
 _atom_site_label
 _atom_site_symmetry_multiplicity
 _atom_site_fract_x
 _atom_site_fract_y
 _atom_site_fract_z
 _atom_site_occupancy
  Li  Li0  1  0.892994  0.785965  0.500000  1
  Li  Li1  1  0.891267  0.107515  0.500000  1
  Li  Li2  1  0.217612  0.101207  0.500000  1
  Li  Li3  1  0.670340  0.336183  0.500000  1
  Lu  Lu4  1  0.331261  0.670447  0.000000  1
  Ni  Ni5  1  0.711924  0.884894  0.000000  1
  Ni  Ni6  1  0.170212  0.288079  0.000000  1
  Ni  Ni7  1  0.126136  0.831941  0.000000  1
  Ni  Ni8  1  0.623773  0.573290  0.000000  1
  Ni  Ni9  1  0.948420  0.379153  0.000000  1
  Ni  Ni10  1  0.420561  0.040903  0.000000  1
  Ni  Ni11  1  0.550560  0.948403  0.500000  1
  Ni  Ni12  1  0.392406  0.435343  0.500000  1
  Ni  Ni13  1  0.053120  0.617105  0.500000  1
  As  As14  1  0.589715  0.714811  0.500000  1
  As  As15  1  0.124729  0.410743  0.500000  1
  As  As16  1  0.001046  0.999853  0.000000  1
  As  As17  1  0.876861  0.579937  0.000000  1
  As  As18  1  0.698707  0.125791  0.000000  1
  As  As19  1  0.424531  0.295868  0.000000  1
  P  P20  1  0.283825  0.872566  0.500000  1
