# generated using pymatgen
data_Ho5Hg2(RhPb)2
_symmetry_space_group_name_H-M   'P 1'
_cell_length_a   3.64765700
_cell_length_b   8.10343900
_cell_length_c   18.33780200
_cell_angle_alpha   90.00000000
_cell_angle_beta   90.00000000
_cell_angle_gamma   90.00000000
_symmetry_Int_Tables_number   1
_chemical_formula_structural   Ho5Hg2(RhPb)2
_chemical_formula_sum   'Ho10 Hg4 Rh4 Pb4'
_cell_volume   542.03913057
_cell_formula_units_Z   2
loop_
 _symmetry_equiv_pos_site_id
 _symmetry_equiv_pos_as_xyz
  1  'x, y, z'
loop_
 _atom_site_type_symbol
 _atom_site_label
 _atom_site_symmetry_multiplicity
 _atom_site_fract_x
 _atom_site_fract_y
 _atom_site_fract_z
 _atom_site_occupancy
  Ho  Ho0  1  0.000000  0.105976  0.412221  1
  Ho  Ho1  1  0.000000  0.894024  0.587779  1
  Ho  Ho2  1  0.000000  0.394024  0.912221  1
  Ho  Ho3  1  0.000000  0.605976  0.087779  1
  Ho  Ho4  1  0.000000  0.246526  0.218301  1
  Ho  Ho5  1  0.000000  0.753474  0.781699  1
  Ho  Ho6  1  0.000000  0.253474  0.718301  1
  Ho  Ho7  1  0.000000  0.746526  0.281699  1
  Ho  Ho8  1  0.000000  0.000000  0.000000  1
  Ho  Ho9  1  0.000000  0.500000  0.500000  1
  Hg  Hg10  1  0.500000  0.294123  0.063841  1
  Hg  Hg11  1  0.500000  0.705877  0.936159  1
  Hg  Hg12  1  0.500000  0.205877  0.563841  1
  Hg  Hg13  1  0.500000  0.794123  0.436159  1
  Rh  Rh14  1  0.500000  0.026884  0.304027  1
  Rh  Rh15  1  0.500000  0.973116  0.695973  1
  Rh  Rh16  1  0.500000  0.473116  0.804027  1
  Rh  Rh17  1  0.500000  0.526884  0.195973  1
  Pb  Pb18  1  0.500000  0.422436  0.351927  1
  Pb  Pb19  1  0.500000  0.577564  0.648073  1
  Pb  Pb20  1  0.500000  0.077564  0.851927  1
  Pb  Pb21  1  0.500000  0.922436  0.148073  1
