# generated using pymatgen
data_Sc20Cd6TcRu
_symmetry_space_group_name_H-M   'P 1'
_cell_length_a   8.96078900
_cell_length_b   8.96081478
_cell_length_c   9.23178900
_cell_angle_alpha   90.00000000
_cell_angle_beta   90.00000000
_cell_angle_gamma   120.00017569
_symmetry_Int_Tables_number   1
_chemical_formula_structural   Sc20Cd6TcRu
_chemical_formula_sum   'Sc20 Cd6 Tc1 Ru1'
_cell_volume   641.96224076
_cell_formula_units_Z   1
loop_
 _symmetry_equiv_pos_site_id
 _symmetry_equiv_pos_as_xyz
  1  'x, y, z'
loop_
 _atom_site_type_symbol
 _atom_site_label
 _atom_site_symmetry_multiplicity
 _atom_site_fract_x
 _atom_site_fract_y
 _atom_site_fract_z
 _atom_site_occupancy
  Sc  Sc0  1  0.000000  0.000000  0.500056  1
  Sc  Sc1  1  0.000000  0.000000  0.999944  1
  Sc  Sc2  1  0.210307  0.789693  0.443159  1
  Sc  Sc3  1  0.210307  0.420614  0.443160  1
  Sc  Sc4  1  0.579386  0.789693  0.443161  1
  Sc  Sc5  1  0.789792  0.210209  0.557588  1
  Sc  Sc6  1  0.789791  0.579581  0.557588  1
  Sc  Sc7  1  0.420419  0.210209  0.557588  1
  Sc  Sc8  1  0.789792  0.210209  0.942412  1
  Sc  Sc9  1  0.789791  0.579581  0.942412  1
  Sc  Sc10  1  0.420419  0.210209  0.942412  1
  Sc  Sc11  1  0.210307  0.789693  0.056841  1
  Sc  Sc12  1  0.210307  0.420614  0.056840  1
  Sc  Sc13  1  0.579386  0.789693  0.056839  1
  Sc  Sc14  1  0.539697  0.460304  0.250000  1
  Sc  Sc15  1  0.539696  0.079393  0.250000  1
  Sc  Sc16  1  0.920607  0.460304  0.250000  1
  Sc  Sc17  1  0.459194  0.540806  0.750000  1
  Sc  Sc18  1  0.459194  0.918389  0.750000  1
  Sc  Sc19  1  0.081611  0.540806  0.750000  1
  Cd  Cd20  1  0.884716  0.115285  0.250000  1
  Cd  Cd21  1  0.884715  0.769430  0.250000  1
  Cd  Cd22  1  0.230569  0.115285  0.250000  1
  Cd  Cd23  1  0.115062  0.884938  0.750000  1
  Cd  Cd24  1  0.115062  0.230125  0.750000  1
  Cd  Cd25  1  0.769876  0.884938  0.750000  1
  Tc  Tc26  1  0.333333  0.666666  0.250000  1
  Ru  Ru27  1  0.666667  0.333332  0.750000  1
