# generated using pymatgen
data_Ca2(Ga3Pt)3
_symmetry_space_group_name_H-M   'P 1'
_cell_length_a   7.58204700
_cell_length_b   7.58204707
_cell_length_c   9.74015800
_cell_angle_alpha   90.00000000
_cell_angle_beta   90.00000000
_cell_angle_gamma   119.49341365
_symmetry_Int_Tables_number   1
_chemical_formula_structural   Ca2(Ga3Pt)3
_chemical_formula_sum   'Ca4 Ga18 Pt6'
_cell_volume   487.37580769
_cell_formula_units_Z   2
loop_
 _symmetry_equiv_pos_site_id
 _symmetry_equiv_pos_as_xyz
  1  'x, y, z'
loop_
 _atom_site_type_symbol
 _atom_site_label
 _atom_site_symmetry_multiplicity
 _atom_site_fract_x
 _atom_site_fract_y
 _atom_site_fract_z
 _atom_site_occupancy
  Ca  Ca0  1  0.998113  0.670016  0.750000  1
  Ca  Ca1  1  0.001887  0.329984  0.250000  1
  Ca  Ca2  1  0.670017  0.998110  0.750000  1
  Ca  Ca3  1  0.329983  0.001890  0.250000  1
  Ga  Ga4  1  0.129397  0.129395  0.750000  1
  Ga  Ga5  1  0.870603  0.870605  0.250000  1
  Ga  Ga6  1  0.997991  0.334701  0.580763  1
  Ga  Ga7  1  0.002009  0.665299  0.419237  1
  Ga  Ga8  1  0.002009  0.665299  0.080763  1
  Ga  Ga9  1  0.334702  0.997992  0.919237  1
  Ga  Ga10  1  0.997991  0.334701  0.919237  1
  Ga  Ga11  1  0.665298  0.002008  0.080763  1
  Ga  Ga12  1  0.665298  0.002008  0.419237  1
  Ga  Ga13  1  0.334702  0.997992  0.580763  1
  Ga  Ga14  1  0.330460  0.330462  0.068002  1
  Ga  Ga15  1  0.669540  0.669538  0.931998  1
  Ga  Ga16  1  0.669540  0.669538  0.568002  1
  Ga  Ga17  1  0.330460  0.330462  0.431998  1
  Ga  Ga18  1  0.339045  0.544022  0.750000  1
  Ga  Ga19  1  0.660955  0.455978  0.250000  1
  Ga  Ga20  1  0.544024  0.339044  0.750000  1
  Ga  Ga21  1  0.455976  0.660956  0.250000  1
  Pt  Pt22  1  0.669220  0.330780  0.499999  1
  Pt  Pt23  1  0.330780  0.669220  0.500001  1
  Pt  Pt24  1  0.330780  0.669220  0.999999  1
  Pt  Pt25  1  0.669220  0.330780  0.000001  1
  Pt  Pt26  1  0.000000  0.000000  0.500000  1
  Pt  Pt27  1  0.000000  0.000000  0.000000  1
