# generated using pymatgen
data_DyTm3(Co5As3)4
_symmetry_space_group_name_H-M   'P 1'
_cell_length_a   3.77154000
_cell_length_b   12.15308079
_cell_length_c   10.65481300
_cell_angle_alpha   89.96092123
_cell_angle_beta   90.00000000
_cell_angle_gamma   90.00000000
_symmetry_Int_Tables_number   1
_chemical_formula_structural   DyTm3(Co5As3)4
_chemical_formula_sum   'Dy1 Tm3 Co20 As12'
_cell_volume   488.37208734
_cell_formula_units_Z   1
loop_
 _symmetry_equiv_pos_site_id
 _symmetry_equiv_pos_as_xyz
  1  'x, y, z'
loop_
 _atom_site_type_symbol
 _atom_site_label
 _atom_site_symmetry_multiplicity
 _atom_site_fract_x
 _atom_site_fract_y
 _atom_site_fract_z
 _atom_site_occupancy
  Dy  Dy0  1  0.750000  0.202092  0.418407  1
  Tm  Tm1  1  0.750000  0.701858  0.081074  1
  Tm  Tm2  1  0.250000  0.298157  0.918908  1
  Tm  Tm3  1  0.250000  0.798131  0.581202  1
  Co  Co4  1  0.750000  0.697398  0.383754  1
  Co  Co5  1  0.250000  0.303137  0.617047  1
  Co  Co6  1  0.250000  0.802663  0.883803  1
  Co  Co7  1  0.750000  0.197283  0.115659  1
  Co  Co8  1  0.750000  0.991008  0.212323  1
  Co  Co9  1  0.250000  0.008613  0.787759  1
  Co  Co10  1  0.250000  0.508932  0.712565  1
  Co  Co11  1  0.750000  0.491152  0.287517  1
  Co  Co12  1  0.750000  0.677487  0.783672  1
  Co  Co13  1  0.250000  0.322773  0.215925  1
  Co  Co14  1  0.250000  0.822423  0.283498  1
  Co  Co15  1  0.750000  0.177408  0.716763  1
  Co  Co16  1  0.750000  0.931606  0.968965  1
  Co  Co17  1  0.250000  0.068117  0.030505  1
  Co  Co18  1  0.250000  0.568777  0.469079  1
  Co  Co19  1  0.750000  0.432424  0.531354  1
  Co  Co20  1  0.750000  0.986925  0.592962  1
  Co  Co21  1  0.250000  0.011525  0.407357  1
  Co  Co22  1  0.250000  0.512808  0.092677  1
  Co  Co23  1  0.750000  0.487254  0.907312  1
  As  As24  1  0.750000  0.614839  0.584515  1
  As  As25  1  0.250000  0.386456  0.415584  1
  As  As26  1  0.250000  0.885358  0.084378  1
  As  As27  1  0.750000  0.114500  0.915559  1
  As  As28  1  0.750000  0.890177  0.400011  1
  As  As29  1  0.250000  0.109297  0.600891  1
  As  As30  1  0.250000  0.609755  0.900008  1
  As  As31  1  0.750000  0.390245  0.099966  1
  As  As32  1  0.750000  0.869870  0.768033  1
  As  As33  1  0.250000  0.129513  0.230994  1
  As  As34  1  0.250000  0.630109  0.267844  1
  As  As35  1  0.750000  0.369932  0.732130  1
