# generated using pymatgen
data_TbGd11Os4
_symmetry_space_group_name_H-M   'P 1'
_cell_length_a   7.50296008
_cell_length_b   9.04283400
_cell_length_c   6.33437700
_cell_angle_alpha   90.00000000
_cell_angle_beta   89.87421273
_cell_angle_gamma   90.00000000
_symmetry_Int_Tables_number   1
_chemical_formula_structural   TbGd11Os4
_chemical_formula_sum   'Tb1 Gd11 Os4'
_cell_volume   429.77391766
_cell_formula_units_Z   1
loop_
 _symmetry_equiv_pos_site_id
 _symmetry_equiv_pos_as_xyz
  1  'x, y, z'
loop_
 _atom_site_type_symbol
 _atom_site_label
 _atom_site_symmetry_multiplicity
 _atom_site_fract_x
 _atom_site_fract_y
 _atom_site_fract_z
 _atom_site_occupancy
  Tb  Tb0  1  0.538044  0.250000  0.871570  1
  Gd  Gd1  1  0.675340  0.063182  0.334828  1
  Gd  Gd2  1  0.174704  0.437937  0.165496  1
  Gd  Gd3  1  0.325404  0.562539  0.664083  1
  Gd  Gd4  1  0.824603  0.937225  0.835657  1
  Gd  Gd5  1  0.325404  0.937461  0.664083  1
  Gd  Gd6  1  0.824603  0.562775  0.835657  1
  Gd  Gd7  1  0.675340  0.436818  0.334828  1
  Gd  Gd8  1  0.174704  0.062063  0.165496  1
  Gd  Gd9  1  0.040339  0.250000  0.630588  1
  Gd  Gd10  1  0.460475  0.750000  0.127560  1
  Gd  Gd11  1  0.959649  0.750000  0.370160  1
  Os  Os12  1  0.882663  0.250000  0.042476  1
  Os  Os13  1  0.382784  0.250000  0.457546  1
  Os  Os14  1  0.118268  0.750000  0.956261  1
  Os  Os15  1  0.617677  0.750000  0.543712  1
