# generated using pymatgen
data_TlFe2(Sb6Pt)2
_symmetry_space_group_name_H-M   'P 1'
_cell_length_a   8.16159781
_cell_length_b   8.10890593
_cell_length_c   8.16014500
_cell_angle_alpha   109.41731757
_cell_angle_beta   109.84383602
_cell_angle_gamma   109.41614380
_symmetry_Int_Tables_number   1
_chemical_formula_structural   TlFe2(Sb6Pt)2
_chemical_formula_sum   'Tl1 Fe2 Sb12 Pt2'
_cell_volume   414.36807589
_cell_formula_units_Z   1
loop_
 _symmetry_equiv_pos_site_id
 _symmetry_equiv_pos_as_xyz
  1  'x, y, z'
loop_
 _atom_site_type_symbol
 _atom_site_label
 _atom_site_symmetry_multiplicity
 _atom_site_fract_x
 _atom_site_fract_y
 _atom_site_fract_z
 _atom_site_occupancy
  Tl  Tl0  1  0.000000  0.000000  0.000000  1
  Fe  Fe1  1  0.500000  0.000000  0.000000  1
  Fe  Fe2  1  0.000000  0.000000  0.500000  1
  Sb  Sb3  1  0.853012  0.671968  0.503908  1
  Sb  Sb4  1  0.146988  0.328032  0.496092  1
  Sb  Sb5  1  0.168002  0.671849  0.818854  1
  Sb  Sb6  1  0.831998  0.328151  0.181146  1
  Sb  Sb7  1  0.652412  0.500347  0.847988  1
  Sb  Sb8  1  0.347588  0.499653  0.152012  1
  Sb  Sb9  1  0.670790  0.832250  0.161537  1
  Sb  Sb10  1  0.329210  0.167750  0.838463  1
  Sb  Sb11  1  0.505241  0.853422  0.672487  1
  Sb  Sb12  1  0.494759  0.146578  0.327513  1
  Sb  Sb13  1  0.180933  0.853477  0.348210  1
  Sb  Sb14  1  0.819067  0.146523  0.651790  1
  Pt  Pt15  1  0.500000  0.500000  0.500000  1
  Pt  Pt16  1  0.000000  0.500000  0.000000  1
