# generated using pymatgen
data_La3Pr(ZnSi3)2
_symmetry_space_group_name_H-M   'P 1'
_cell_length_a   4.29211600
_cell_length_b   4.29908400
_cell_length_c   14.14888900
_cell_angle_alpha   90.00000000
_cell_angle_beta   90.00000000
_cell_angle_gamma   90.00000000
_symmetry_Int_Tables_number   1
_chemical_formula_structural   La3Pr(ZnSi3)2
_chemical_formula_sum   'La3 Pr1 Zn2 Si6'
_cell_volume   261.07766583
_cell_formula_units_Z   1
loop_
 _symmetry_equiv_pos_site_id
 _symmetry_equiv_pos_as_xyz
  1  'x, y, z'
loop_
 _atom_site_type_symbol
 _atom_site_label
 _atom_site_symmetry_multiplicity
 _atom_site_fract_x
 _atom_site_fract_y
 _atom_site_fract_z
 _atom_site_occupancy
  La  La0  1  0.000000  0.000000  0.504901  1
  La  La1  1  0.500000  0.000000  0.747143  1
  La  La2  1  0.000000  0.500000  0.245187  1
  Pr  Pr3  1  0.500000  0.500000  0.004186  1
  Zn  Zn4  1  0.000000  0.000000  0.916082  1
  Zn  Zn5  1  0.500000  0.500000  0.415033  1
  Si  Si6  1  0.000000  0.500000  0.834217  1
  Si  Si7  1  0.500000  0.000000  0.332572  1
  Si  Si8  1  0.000000  0.000000  0.083114  1
  Si  Si9  1  0.500000  0.500000  0.584035  1
  Si  Si10  1  0.500000  0.000000  0.165977  1
  Si  Si11  1  0.000000  0.500000  0.667552  1
