# generated using pymatgen
data_Hf2Zr4FeSb2
_symmetry_space_group_name_H-M   'P 1'
_cell_length_a   7.78154700
_cell_length_b   7.78770604
_cell_length_c   3.64355800
_cell_angle_alpha   90.00000000
_cell_angle_beta   90.00000000
_cell_angle_gamma   119.97384604
_symmetry_Int_Tables_number   1
_chemical_formula_structural   Hf2Zr4FeSb2
_chemical_formula_sum   'Hf2 Zr4 Fe1 Sb2'
_cell_volume   191.26971436
_cell_formula_units_Z   1
loop_
 _symmetry_equiv_pos_site_id
 _symmetry_equiv_pos_as_xyz
  1  'x, y, z'
loop_
 _atom_site_type_symbol
 _atom_site_label
 _atom_site_symmetry_multiplicity
 _atom_site_fract_x
 _atom_site_fract_y
 _atom_site_fract_z
 _atom_site_occupancy
  Hf  Hf0  1  0.999332  0.236148  0.500000  1
  Hf  Hf1  1  0.763184  0.763852  0.500000  1
  Zr  Zr2  1  0.238876  0.000000  0.500000  1
  Zr  Zr3  1  0.602667  0.000000  0.000000  1
  Zr  Zr4  1  0.999282  0.600168  0.000000  1
  Zr  Zr5  1  0.399114  0.399832  0.000000  1
  Fe  Fe6  1  0.997341  0.000000  0.000000  1
  Sb  Sb7  1  0.333018  0.665834  0.500000  1
  Sb  Sb8  1  0.667186  0.334166  0.500000  1
