# generated using pymatgen
data_Tb6Dy10Cd4Ru3Pt
_symmetry_space_group_name_H-M   'P 1'
_cell_length_a   9.60617060
_cell_length_b   9.70119774
_cell_length_c   9.70119900
_cell_angle_alpha   59.99999911
_cell_angle_beta   59.67222129
_cell_angle_gamma   59.67221669
_symmetry_Int_Tables_number   1
_chemical_formula_structural   Tb6Dy10Cd4Ru3Pt
_chemical_formula_sum   'Tb6 Dy10 Cd4 Ru3 Pt1'
_cell_volume   636.08701597
_cell_formula_units_Z   1
loop_
 _symmetry_equiv_pos_site_id
 _symmetry_equiv_pos_as_xyz
  1  'x, y, z'
loop_
 _atom_site_type_symbol
 _atom_site_label
 _atom_site_symmetry_multiplicity
 _atom_site_fract_x
 _atom_site_fract_y
 _atom_site_fract_z
 _atom_site_occupancy
  Tb  Tb0  1  0.935359  0.562779  0.562779  1
  Tb  Tb1  1  0.557925  0.938610  0.938610  1
  Tb  Tb2  1  0.557925  0.938610  0.564854  1
  Tb  Tb3  1  0.935359  0.562779  0.939084  1
  Tb  Tb4  1  0.557925  0.564854  0.938610  1
  Tb  Tb5  1  0.935359  0.939084  0.562779  1
  Dy  Dy6  1  0.345045  0.350533  0.350533  1
  Dy  Dy7  1  0.345045  0.350533  0.953890  1
  Dy  Dy8  1  0.345045  0.953890  0.350533  1
  Dy  Dy9  1  0.964839  0.345053  0.345053  1
  Dy  Dy10  1  0.815732  0.188552  0.188552  1
  Dy  Dy11  1  0.187879  0.812020  0.812020  1
  Dy  Dy12  1  0.187879  0.812020  0.188080  1
  Dy  Dy13  1  0.815732  0.188552  0.807164  1
  Dy  Dy14  1  0.187879  0.188080  0.812020  1
  Dy  Dy15  1  0.815732  0.807164  0.188552  1
  Cd  Cd16  1  0.580427  0.579316  0.579316  1
  Cd  Cd17  1  0.580427  0.579316  0.260940  1
  Cd  Cd18  1  0.580427  0.260940  0.579316  1
  Cd  Cd19  1  0.257540  0.580819  0.580819  1
  Ru  Ru20  1  0.145564  0.138375  0.138375  1
  Ru  Ru21  1  0.145564  0.138375  0.577688  1
  Ru  Ru22  1  0.145564  0.577688  0.138375  1
  Pt  Pt23  1  0.573828  0.142058  0.142058  1
