# generated using pymatgen
data_Ba3Dy2OsO9
_symmetry_space_group_name_H-M   'P 1'
_cell_length_a   6.08566500
_cell_length_b   6.08566296
_cell_length_c   14.78153300
_cell_angle_alpha   90.00000000
_cell_angle_beta   90.00000000
_cell_angle_gamma   119.99999478
_symmetry_Int_Tables_number   1
_chemical_formula_structural   Ba3Dy2OsO9
_chemical_formula_sum   'Ba6 Dy4 Os2 O18'
_cell_volume   474.09575869
_cell_formula_units_Z   2
loop_
 _symmetry_equiv_pos_site_id
 _symmetry_equiv_pos_as_xyz
  1  'x, y, z'
loop_
 _atom_site_type_symbol
 _atom_site_label
 _atom_site_symmetry_multiplicity
 _atom_site_fract_x
 _atom_site_fract_y
 _atom_site_fract_z
 _atom_site_occupancy
  Ba  Ba0  1  0.333333  0.666667  0.090028  1
  Ba  Ba1  1  0.666667  0.333333  0.909972  1
  Ba  Ba2  1  0.333333  0.666667  0.590028  1
  Ba  Ba3  1  0.666667  0.333333  0.409972  1
  Ba  Ba4  1  0.000000  0.000000  0.250000  1
  Ba  Ba5  1  0.000000  0.000000  0.750000  1
  Dy  Dy6  1  0.333333  0.666667  0.834385  1
  Dy  Dy7  1  0.666667  0.333333  0.165615  1
  Dy  Dy8  1  0.333333  0.666667  0.334385  1
  Dy  Dy9  1  0.666667  0.333333  0.665615  1
  Os  Os10  1  0.000000  0.000000  0.000000  1
  Os  Os11  1  0.000000  0.000000  0.500000  1
  O  O12  1  0.885688  0.697153  0.574827  1
  O  O13  1  0.000000  0.548896  0.250000  1
  O  O14  1  0.188536  0.302847  0.925173  1
  O  O15  1  0.885688  0.188536  0.074827  1
  O  O16  1  0.811464  0.114312  0.574827  1
  O  O17  1  0.811464  0.697153  0.074827  1
  O  O18  1  0.697153  0.811464  0.425173  1
  O  O19  1  0.451104  0.000000  0.750000  1
  O  O20  1  0.548896  0.548896  0.750000  1
  O  O21  1  0.302847  0.188536  0.574827  1
  O  O22  1  0.114312  0.302847  0.425173  1
  O  O23  1  0.188536  0.885688  0.425173  1
  O  O24  1  0.302847  0.114312  0.074827  1
  O  O25  1  0.548896  0.000000  0.250000  1
  O  O26  1  0.451104  0.451104  0.250000  1
  O  O27  1  0.000000  0.451104  0.750000  1
  O  O28  1  0.114312  0.811464  0.925173  1
  O  O29  1  0.697153  0.885688  0.925173  1
