# generated using pymatgen
data_Sc2Co3Cu4
_symmetry_space_group_name_H-M   'P 1'
_cell_length_a   4.74637848
_cell_length_b   4.73308337
_cell_length_c   6.45510110
_cell_angle_alpha   82.43183002
_cell_angle_beta   74.77123777
_cell_angle_gamma   59.90702957
_symmetry_Int_Tables_number   1
_chemical_formula_structural   Sc2Co3Cu4
_chemical_formula_sum   'Sc2 Co3 Cu4'
_cell_volume   121.06204951
_cell_formula_units_Z   1
loop_
 _symmetry_equiv_pos_site_id
 _symmetry_equiv_pos_as_xyz
  1  'x, y, z'
loop_
 _atom_site_type_symbol
 _atom_site_label
 _atom_site_symmetry_multiplicity
 _atom_site_fract_x
 _atom_site_fract_y
 _atom_site_fract_z
 _atom_site_occupancy
  Sc  Sc0  1  0.094358  0.000000  0.248932  1
  Sc  Sc1  1  0.905642  0.000000  0.751068  1
  Co  Co2  1  0.500000  0.500000  0.500000  1
  Co  Co3  1  0.000000  0.500000  0.500000  1
  Co  Co4  1  0.500000  0.000000  0.500000  1
  Cu  Cu5  1  0.540067  0.672817  0.845353  1
  Cu  Cu6  1  0.212884  0.327183  0.845353  1
  Cu  Cu7  1  0.459933  0.327183  0.154647  1
  Cu  Cu8  1  0.787116  0.672817  0.154647  1
