# generated using pymatgen
data_Sm3Dy4Th(ReB6)4
_symmetry_space_group_name_H-M   'P 1'
_cell_length_a   3.73362900
_cell_length_b   9.23655786
_cell_length_c   11.66338109
_cell_angle_alpha   90.04359168
_cell_angle_beta   90.00000000
_cell_angle_gamma   90.00000000
_symmetry_Int_Tables_number   1
_chemical_formula_structural   Sm3Dy4Th(ReB6)4
_chemical_formula_sum   'Sm3 Dy4 Th1 Re4 B24'
_cell_volume   402.22184774
_cell_formula_units_Z   1
loop_
 _symmetry_equiv_pos_site_id
 _symmetry_equiv_pos_as_xyz
  1  'x, y, z'
loop_
 _atom_site_type_symbol
 _atom_site_label
 _atom_site_symmetry_multiplicity
 _atom_site_fract_x
 _atom_site_fract_y
 _atom_site_fract_z
 _atom_site_occupancy
  Sm  Sm0  1  0.000000  0.677926  0.586629  1
  Sm  Sm1  1  0.000000  0.822958  0.085174  1
  Sm  Sm2  1  0.000000  0.176402  0.914131  1
  Dy  Dy3  1  0.000000  0.941691  0.369221  1
  Dy  Dy4  1  0.000000  0.056772  0.631400  1
  Dy  Dy5  1  0.000000  0.442930  0.129088  1
  Dy  Dy6  1  0.000000  0.557718  0.869809  1
  Th  Th7  1  0.000000  0.322499  0.414387  1
  Re  Re8  1  0.000000  0.637676  0.320164  1
  Re  Re9  1  0.000000  0.361859  0.679802  1
  Re  Re10  1  0.000000  0.138952  0.179959  1
  Re  Re11  1  0.000000  0.861622  0.820206  1
  B  B12  1  0.500000  0.554962  0.431170  1
  B  B13  1  0.500000  0.445960  0.569561  1
  B  B14  1  0.500000  0.053935  0.068018  1
  B  B15  1  0.500000  0.946172  0.931788  1
  B  B16  1  0.500000  0.749401  0.416582  1
  B  B17  1  0.500000  0.251146  0.584834  1
  B  B18  1  0.500000  0.248777  0.082463  1
  B  B19  1  0.500000  0.751031  0.916897  1
  B  B20  1  0.500000  0.790795  0.265547  1
  B  B21  1  0.500000  0.209263  0.734983  1
  B  B22  1  0.500000  0.290319  0.233196  1
  B  B23  1  0.500000  0.709098  0.765881  1
  B  B24  1  0.500000  0.630442  0.185415  1
  B  B25  1  0.500000  0.370316  0.814374  1
  B  B26  1  0.500000  0.129480  0.313014  1
  B  B27  1  0.500000  0.869918  0.686375  1
  B  B28  1  0.500000  0.983415  0.211945  1
  B  B29  1  0.500000  0.016371  0.787893  1
  B  B30  1  0.500000  0.484821  0.286635  1
  B  B31  1  0.500000  0.516885  0.713384  1
  B  B32  1  0.500000  0.598555  0.027199  1
  B  B33  1  0.500000  0.401822  0.972164  1
  B  B34  1  0.500000  0.097079  0.472896  1
  B  B35  1  0.500000  0.901035  0.527812  1
