# generated using pymatgen
data_YHoCo8(TcP3)2
_symmetry_space_group_name_H-M   'P 1'
_cell_length_a   3.70835200
_cell_length_b   10.35540900
_cell_length_c   11.80708000
_cell_angle_alpha   90.00072912
_cell_angle_beta   90.00000000
_cell_angle_gamma   90.00000000
_symmetry_Int_Tables_number   1
_chemical_formula_structural   YHoCo8(TcP3)2
_chemical_formula_sum   'Y2 Ho2 Co16 Tc4 P12'
_cell_volume   453.40960239
_cell_formula_units_Z   2
loop_
 _symmetry_equiv_pos_site_id
 _symmetry_equiv_pos_as_xyz
  1  'x, y, z'
loop_
 _atom_site_type_symbol
 _atom_site_label
 _atom_site_symmetry_multiplicity
 _atom_site_fract_x
 _atom_site_fract_y
 _atom_site_fract_z
 _atom_site_occupancy
  Y  Y0  1  0.750000  0.415785  0.295395  1
  Y  Y1  1  0.250000  0.584215  0.704605  1
  Ho  Ho2  1  0.250000  0.915874  0.204614  1
  Ho  Ho3  1  0.750000  0.084126  0.795386  1
  Co  Co4  1  0.250000  0.093162  0.988865  1
  Co  Co5  1  0.750000  0.906838  0.011135  1
  Co  Co6  1  0.750000  0.593250  0.510859  1
  Co  Co7  1  0.250000  0.406750  0.489141  1
  Co  Co8  1  0.250000  0.277816  0.676581  1
  Co  Co9  1  0.750000  0.722184  0.323419  1
  Co  Co10  1  0.750000  0.778147  0.823523  1
  Co  Co11  1  0.250000  0.221853  0.176477  1
  Co  Co12  1  0.250000  0.614570  0.202234  1
  Co  Co13  1  0.750000  0.385430  0.797766  1
  Co  Co14  1  0.750000  0.114110  0.297606  1
  Co  Co15  1  0.250000  0.885890  0.702394  1
  Co  Co16  1  0.250000  0.035869  0.431541  1
  Co  Co17  1  0.750000  0.964131  0.568459  1
  Co  Co18  1  0.750000  0.536019  0.068335  1
  Co  Co19  1  0.250000  0.463981  0.931665  1
  Tc  Tc20  1  0.250000  0.789402  0.489472  1
  Tc  Tc21  1  0.750000  0.210598  0.510528  1
  Tc  Tc22  1  0.750000  0.289208  0.010481  1
  Tc  Tc23  1  0.250000  0.710792  0.989519  1
  P  P24  1  0.250000  0.079267  0.613175  1
  P  P25  1  0.750000  0.920733  0.386825  1
  P  P26  1  0.750000  0.579265  0.887173  1
  P  P27  1  0.250000  0.420735  0.112827  1
  P  P28  1  0.250000  0.229925  0.365616  1
  P  P29  1  0.750000  0.770075  0.634384  1
  P  P30  1  0.750000  0.730324  0.134546  1
  P  P31  1  0.250000  0.269676  0.865454  1
  P  P32  1  0.250000  0.903456  0.890955  1
  P  P33  1  0.750000  0.096544  0.109045  1
  P  P34  1  0.750000  0.403152  0.608848  1
  P  P35  1  0.250000  0.596848  0.391152  1
