# generated using pymatgen
data_Dy4AlGa3Au4
_symmetry_space_group_name_H-M   'P 1'
_cell_length_a   4.50953700
_cell_length_b   7.16819842
_cell_length_c   7.78676890
_cell_angle_alpha   90.20245901
_cell_angle_beta   90.00000000
_cell_angle_gamma   90.00000000
_symmetry_Int_Tables_number   1
_chemical_formula_structural   Dy4AlGa3Au4
_chemical_formula_sum   'Dy4 Al1 Ga3 Au4'
_cell_volume   251.70772678
_cell_formula_units_Z   1
loop_
 _symmetry_equiv_pos_site_id
 _symmetry_equiv_pos_as_xyz
  1  'x, y, z'
loop_
 _atom_site_type_symbol
 _atom_site_label
 _atom_site_symmetry_multiplicity
 _atom_site_fract_x
 _atom_site_fract_y
 _atom_site_fract_z
 _atom_site_occupancy
  Dy  Dy0  1  0.250000  0.002074  0.289446  1
  Dy  Dy1  1  0.250000  0.504503  0.203260  1
  Dy  Dy2  1  0.750000  0.995351  0.710484  1
  Dy  Dy3  1  0.750000  0.497492  0.795731  1
  Al  Al4  1  0.750000  0.315477  0.418878  1
  Ga  Ga5  1  0.250000  0.188916  0.914429  1
  Ga  Ga6  1  0.250000  0.685760  0.582574  1
  Ga  Ga7  1  0.750000  0.813671  0.085109  1
  Au  Au8  1  0.250000  0.285207  0.582564  1
  Au  Au9  1  0.250000  0.787857  0.912084  1
  Au  Au10  1  0.750000  0.708201  0.412592  1
  Au  Au11  1  0.750000  0.215490  0.092849  1
