# generated using pymatgen
data_Rb12Na8Hf3ZrP12
_symmetry_space_group_name_H-M   'P 1'
_cell_length_a   10.75487760
_cell_length_b   10.75487952
_cell_length_c   15.56072291
_cell_angle_alpha   90.01248678
_cell_angle_beta   90.01248515
_cell_angle_gamma   142.75919282
_symmetry_Int_Tables_number   1
_chemical_formula_structural   Rb12Na8Hf3ZrP12
_chemical_formula_sum   'Rb12 Na8 Hf3 Zr1 P12'
_cell_volume   1089.21948166
_cell_formula_units_Z   1
loop_
 _symmetry_equiv_pos_site_id
 _symmetry_equiv_pos_as_xyz
  1  'x, y, z'
loop_
 _atom_site_type_symbol
 _atom_site_label
 _atom_site_symmetry_multiplicity
 _atom_site_fract_x
 _atom_site_fract_y
 _atom_site_fract_z
 _atom_site_occupancy
  Rb  Rb0  1  0.947412  0.607359  0.822806  1
  Rb  Rb1  1  0.552576  0.892529  0.322554  1
  Rb  Rb2  1  0.392641  0.052588  0.177194  1
  Rb  Rb3  1  0.052547  0.392545  0.177329  1
  Rb  Rb4  1  0.892549  0.552382  0.322408  1
  Rb  Rb5  1  0.447618  0.107451  0.677592  1
  Rb  Rb6  1  0.607455  0.947453  0.822671  1
  Rb  Rb7  1  0.279049  0.279226  0.314867  1
  Rb  Rb8  1  0.779092  0.779151  0.185051  1
  Rb  Rb9  1  0.220849  0.220908  0.814949  1
  Rb  Rb10  1  0.720774  0.720951  0.685133  1
  Rb  Rb11  1  0.107471  0.447424  0.677446  1
  Na  Na12  1  0.919559  0.080441  0.000000  1
  Na  Na13  1  0.580217  0.419783  0.500000  1
  Na  Na14  1  0.080424  0.919576  0.000000  1
  Na  Na15  1  0.419418  0.580582  0.500000  1
  Na  Na16  1  0.755096  0.244904  0.000000  1
  Na  Na17  1  0.745057  0.254943  0.500000  1
  Na  Na18  1  0.244906  0.755094  0.000000  1
  Na  Na19  1  0.255488  0.744512  0.500000  1
  Hf  Hf20  1  0.585318  0.414682  0.000000  1
  Hf  Hf21  1  0.914269  0.085731  0.500000  1
  Hf  Hf22  1  0.414663  0.585337  0.000000  1
  Zr  Zr23  1  0.085885  0.914115  0.500000  1
  P  P24  1  0.868290  0.557757  0.094845  1
  P  P25  1  0.442243  0.131710  0.905155  1
  P  P26  1  0.631552  0.942362  0.594880  1
  P  P27  1  0.940867  0.628588  0.595685  1
  P  P28  1  0.131674  0.442227  0.905216  1
  P  P29  1  0.557773  0.868326  0.094784  1
  P  P30  1  0.371412  0.059133  0.404315  1
  P  P31  1  0.197982  0.199770  0.586059  1
  P  P32  1  0.697934  0.697927  0.914351  1
  P  P33  1  0.302073  0.302066  0.085649  1
  P  P34  1  0.057638  0.368448  0.405120  1
  P  P35  1  0.800230  0.802018  0.413941  1
