# generated using pymatgen
data_Hf2Fe7(P2Os)3
_symmetry_space_group_name_H-M   'P 1'
_cell_length_a   3.70978400
_cell_length_b   10.22965700
_cell_length_c   11.77531300
_cell_angle_alpha   90.00000000
_cell_angle_beta   90.00000000
_cell_angle_gamma   90.00000000
_symmetry_Int_Tables_number   1
_chemical_formula_structural   Hf2Fe7(P2Os)3
_chemical_formula_sum   'Hf4 Fe14 P12 Os6'
_cell_volume   446.87098364
_cell_formula_units_Z   2
loop_
 _symmetry_equiv_pos_site_id
 _symmetry_equiv_pos_as_xyz
  1  'x, y, z'
loop_
 _atom_site_type_symbol
 _atom_site_label
 _atom_site_symmetry_multiplicity
 _atom_site_fract_x
 _atom_site_fract_y
 _atom_site_fract_z
 _atom_site_occupancy
  Hf  Hf0  1  0.250000  0.581781  0.705660  1
  Hf  Hf1  1  0.250000  0.918219  0.205660  1
  Hf  Hf2  1  0.750000  0.419717  0.290286  1
  Hf  Hf3  1  0.750000  0.080283  0.790286  1
  Fe  Fe4  1  0.750000  0.597425  0.519867  1
  Fe  Fe5  1  0.750000  0.902575  0.019867  1
  Fe  Fe6  1  0.250000  0.227980  0.175591  1
  Fe  Fe7  1  0.250000  0.272020  0.675591  1
  Fe  Fe8  1  0.750000  0.774008  0.825649  1
  Fe  Fe9  1  0.750000  0.725992  0.325649  1
  Fe  Fe10  1  0.250000  0.881418  0.701114  1
  Fe  Fe11  1  0.250000  0.618582  0.201114  1
  Fe  Fe12  1  0.750000  0.115813  0.298350  1
  Fe  Fe13  1  0.750000  0.384187  0.798350  1
  Fe  Fe14  1  0.250000  0.463748  0.933805  1
  Fe  Fe15  1  0.250000  0.036252  0.433805  1
  Fe  Fe16  1  0.750000  0.540176  0.065928  1
  Fe  Fe17  1  0.750000  0.959824  0.565928  1
  P  P18  1  0.250000  0.426355  0.116552  1
  P  P19  1  0.250000  0.073645  0.616552  1
  P  P20  1  0.750000  0.575950  0.883011  1
  P  P21  1  0.750000  0.924050  0.383011  1
  P  P22  1  0.250000  0.270221  0.859120  1
  P  P23  1  0.250000  0.229779  0.359120  1
  P  P24  1  0.750000  0.735498  0.138963  1
  P  P25  1  0.750000  0.764502  0.638963  1
  P  P26  1  0.250000  0.602340  0.384800  1
  P  P27  1  0.250000  0.897660  0.884800  1
  P  P28  1  0.750000  0.404070  0.614657  1
  P  P29  1  0.750000  0.095930  0.114657  1
  Os  Os30  1  0.250000  0.709671  0.989979  1
  Os  Os31  1  0.250000  0.790329  0.489979  1
  Os  Os32  1  0.750000  0.294875  0.014547  1
  Os  Os33  1  0.750000  0.205125  0.514547  1
  Os  Os34  1  0.250000  0.406997  0.482122  1
  Os  Os35  1  0.250000  0.093003  0.982122  1
