# generated using pymatgen
data_CeDyBIr6
_symmetry_space_group_name_H-M   'P 1'
_cell_length_a   5.86054401
_cell_length_b   5.86054379
_cell_length_c   5.86054400
_cell_angle_alpha   59.99999883
_cell_angle_beta   60.00000008
_cell_angle_gamma   60.00000206
_symmetry_Int_Tables_number   1
_chemical_formula_structural   CeDyBIr6
_chemical_formula_sum   'Ce1 Dy1 B1 Ir6'
_cell_volume   142.33076503
_cell_formula_units_Z   1
loop_
 _symmetry_equiv_pos_site_id
 _symmetry_equiv_pos_as_xyz
  1  'x, y, z'
loop_
 _atom_site_type_symbol
 _atom_site_label
 _atom_site_symmetry_multiplicity
 _atom_site_fract_x
 _atom_site_fract_y
 _atom_site_fract_z
 _atom_site_occupancy
  Ce  Ce0  1  0.750000  0.750000  0.750000  1
  Dy  Dy1  1  0.250000  0.250000  0.250000  1
  B  B2  1  0.000000  0.000000  0.000000  1
  Ir  Ir3  1  0.742014  0.742014  0.257986  1
  Ir  Ir4  1  0.257986  0.742014  0.257986  1
  Ir  Ir5  1  0.742014  0.257986  0.257986  1
  Ir  Ir6  1  0.257986  0.257986  0.742014  1
  Ir  Ir7  1  0.742014  0.257986  0.742014  1
  Ir  Ir8  1  0.257986  0.742014  0.742014  1
