# generated using pymatgen
data_LaTbCe2(Zn4Ru)2
_symmetry_space_group_name_H-M   'P 1'
_cell_length_a   7.21994500
_cell_length_b   7.21994500
_cell_length_c   5.17048500
_cell_angle_alpha   90.00000000
_cell_angle_beta   90.00000000
_cell_angle_gamma   90.00000000
_symmetry_Int_Tables_number   1
_chemical_formula_structural   LaTbCe2(Zn4Ru)2
_chemical_formula_sum   'La1 Tb1 Ce2 Zn8 Ru2'
_cell_volume   269.52500389
_cell_formula_units_Z   1
loop_
 _symmetry_equiv_pos_site_id
 _symmetry_equiv_pos_as_xyz
  1  'x, y, z'
loop_
 _atom_site_type_symbol
 _atom_site_label
 _atom_site_symmetry_multiplicity
 _atom_site_fract_x
 _atom_site_fract_y
 _atom_site_fract_z
 _atom_site_occupancy
  La  La0  1  0.000000  0.500000  0.771001  1
  Tb  Tb1  1  0.500000  0.000000  0.220899  1
  Ce  Ce2  1  0.000000  0.000000  0.998318  1
  Ce  Ce3  1  0.500000  0.500000  0.998318  1
  Zn  Zn4  1  0.189369  0.689369  0.288691  1
  Zn  Zn5  1  0.810631  0.689369  0.288691  1
  Zn  Zn6  1  0.810631  0.310631  0.288691  1
  Zn  Zn7  1  0.319349  0.180651  0.708930  1
  Zn  Zn8  1  0.189369  0.310631  0.288691  1
  Zn  Zn9  1  0.680651  0.180651  0.708930  1
  Zn  Zn10  1  0.680651  0.819349  0.708930  1
  Zn  Zn11  1  0.319349  0.819349  0.708930  1
  Ru  Ru12  1  0.500000  0.500000  0.510490  1
  Ru  Ru13  1  0.000000  0.000000  0.510490  1
