# generated using pymatgen
data_Mn4Nb4SiOs3
_symmetry_space_group_name_H-M   'P 1'
_cell_length_a   4.90550412
_cell_length_b   4.97502827
_cell_length_c   8.18944300
_cell_angle_alpha   90.00000000
_cell_angle_beta   90.00000000
_cell_angle_gamma   119.51301316
_symmetry_Int_Tables_number   1
_chemical_formula_structural   Mn4Nb4SiOs3
_chemical_formula_sum   'Mn4 Nb4 Si1 Os3'
_cell_volume   173.93000801
_cell_formula_units_Z   1
loop_
 _symmetry_equiv_pos_site_id
 _symmetry_equiv_pos_as_xyz
  1  'x, y, z'
loop_
 _atom_site_type_symbol
 _atom_site_label
 _atom_site_symmetry_multiplicity
 _atom_site_fract_x
 _atom_site_fract_y
 _atom_site_fract_z
 _atom_site_occupancy
  Mn  Mn0  1  0.341486  0.167329  0.250000  1
  Mn  Mn1  1  0.646403  0.836112  0.750000  1
  Mn  Mn2  1  0.825668  0.650623  0.250000  1
  Mn  Mn3  1  0.175027  0.836536  0.750000  1
  Nb  Nb4  1  0.337585  0.668034  0.427496  1
  Nb  Nb5  1  0.668381  0.333000  0.939606  1
  Nb  Nb6  1  0.668381  0.333000  0.560394  1
  Nb  Nb7  1  0.337585  0.668034  0.072504  1
  Si  Si8  1  0.829037  0.172170  0.250000  1
  Os  Os9  1  0.176991  0.357391  0.750000  1
  Os  Os10  1  0.996728  0.988886  0.999933  1
  Os  Os11  1  0.996728  0.988886  0.500067  1
