# generated using pymatgen
data_Tb2Yb3Lu(Si3Ru)8
_symmetry_space_group_name_H-M   'P 1'
_cell_length_a   10.14296966
_cell_length_b   10.14296886
_cell_length_c   8.12851915
_cell_angle_alpha   89.99285418
_cell_angle_beta   89.99286121
_cell_angle_gamma   132.71744960
_symmetry_Int_Tables_number   1
_chemical_formula_structural   Tb2Yb3Lu(Si3Ru)8
_chemical_formula_sum   'Tb2 Yb3 Lu1 Si24 Ru8'
_cell_volume   614.40736733
_cell_formula_units_Z   1
loop_
 _symmetry_equiv_pos_site_id
 _symmetry_equiv_pos_as_xyz
  1  'x, y, z'
loop_
 _atom_site_type_symbol
 _atom_site_label
 _atom_site_symmetry_multiplicity
 _atom_site_fract_x
 _atom_site_fract_y
 _atom_site_fract_z
 _atom_site_occupancy
  Tb  Tb0  1  0.498430  0.998449  0.250257  1
  Tb  Tb1  1  0.001551  0.501570  0.749743  1
  Yb  Yb2  1  0.499982  0.500018  0.500000  1
  Yb  Yb3  1  0.501313  0.001248  0.749751  1
  Yb  Yb4  1  0.998752  0.498687  0.250249  1
  Lu  Lu5  1  0.000067  0.999933  0.000000  1
  Si  Si6  1  0.795254  0.204746  0.500000  1
  Si  Si7  1  0.294404  0.705596  0.000000  1
  Si  Si8  1  0.205211  0.794789  0.500000  1
  Si  Si9  1  0.705171  0.294829  0.000000  1
  Si  Si10  1  0.331225  0.336960  0.831613  1
  Si  Si11  1  0.663040  0.668775  0.168387  1
  Si  Si12  1  0.170582  0.164835  0.333544  1
  Si  Si13  1  0.835165  0.829418  0.666456  1
  Si  Si14  1  0.123662  0.890587  0.728878  1
  Si  Si15  1  0.109413  0.876338  0.271122  1
  Si  Si16  1  0.609757  0.377014  0.229456  1
  Si  Si17  1  0.622986  0.390243  0.770544  1
  Si  Si18  1  0.876425  0.109307  0.271332  1
  Si  Si19  1  0.890693  0.123575  0.728668  1
  Si  Si20  1  0.390207  0.623300  0.770125  1
  Si  Si21  1  0.376700  0.609793  0.229875  1
  Si  Si22  1  0.346559  0.113364  0.505851  1
  Si  Si23  1  0.886636  0.653441  0.494149  1
  Si  Si24  1  0.388087  0.155184  0.005772  1
  Si  Si25  1  0.844816  0.611913  0.994228  1
  Si  Si26  1  0.653866  0.886367  0.493743  1
  Si  Si27  1  0.113633  0.346134  0.506257  1
  Si  Si28  1  0.611692  0.845174  0.994889  1
  Si  Si29  1  0.154826  0.388308  0.005111  1
  Ru  Ru30  1  0.670852  0.329148  0.500000  1
  Ru  Ru31  1  0.168613  0.831387  0.000000  1
  Ru  Ru32  1  0.329885  0.670115  0.500000  1
  Ru  Ru33  1  0.830594  0.169406  0.000000  1
  Ru  Ru34  1  0.124472  0.125425  0.627809  1
  Ru  Ru35  1  0.874575  0.875528  0.372191  1
  Ru  Ru36  1  0.372070  0.371164  0.124503  1
  Ru  Ru37  1  0.628836  0.627930  0.875497  1
