# generated using pymatgen
data_Er10Si16Pd
_symmetry_space_group_name_H-M   'P 1'
_cell_length_a   11.03017281
_cell_length_b   11.04137088
_cell_length_c   11.03017280
_cell_angle_alpha   144.76583681
_cell_angle_beta   136.45410155
_cell_angle_gamma   57.18673135
_symmetry_Int_Tables_number   1
_chemical_formula_structural   Er10Si16Pd
_chemical_formula_sum   'Er10 Si16 Pd1'
_cell_volume   529.66199299
_cell_formula_units_Z   1
loop_
 _symmetry_equiv_pos_site_id
 _symmetry_equiv_pos_as_xyz
  1  'x, y, z'
loop_
 _atom_site_type_symbol
 _atom_site_label
 _atom_site_symmetry_multiplicity
 _atom_site_fract_x
 _atom_site_fract_y
 _atom_site_fract_z
 _atom_site_occupancy
  Er  Er0  1  0.051893  0.563544  0.016186  1
  Er  Er1  1  0.352007  0.371275  0.521663  1
  Er  Er2  1  0.151923  0.166440  0.520595  1
  Er  Er3  1  0.451530  0.963065  0.014819  1
  Er  Er4  1  0.645846  0.166440  0.014519  1
  Er  Er5  1  0.948245  0.963065  0.511534  1
  Er  Er6  1  0.849611  0.371275  0.019268  1
  Er  Er7  1  0.547358  0.563544  0.511651  1
  Er  Er8  1  0.249122  0.763320  0.010848  1
  Er  Er9  1  0.752472  0.763320  0.514198  1
  Si  Si10  1  0.118327  0.079169  0.960840  1
  Si  Si11  1  0.798157  0.182350  0.384194  1
  Si  Si12  1  0.300467  0.899142  0.598676  1
  Si  Si13  1  0.399916  0.501185  0.101269  1
  Si  Si14  1  0.884324  0.847738  0.963414  1
  Si  Si15  1  0.104253  0.709110  0.604857  1
  Si  Si16  1  0.200488  0.584564  0.384074  1
  Si  Si17  1  0.698027  0.293428  0.595403  1
  Si  Si18  1  0.999843  0.433413  0.433570  1
  Si  Si19  1  0.714296  0.668178  0.953882  1
  Si  Si20  1  0.600617  0.702118  0.101500  1
  Si  Si21  1  0.000358  0.084970  0.084612  1
  Si  Si22  1  0.501027  0.391745  0.890719  1
  Si  Si23  1  0.285483  0.240903  0.955419  1
  Si  Si24  1  0.582921  0.040634  0.457712  1
  Si  Si25  1  0.415423  0.872304  0.456881  1
  Pd  Pd26  1  0.896064  0.502679  0.606616  1
