# generated using pymatgen
data_Sr6TmV(BO3)6
_symmetry_space_group_name_H-M   'P 1'
_cell_length_a   7.79112898
_cell_length_b   7.79112964
_cell_length_c   7.79112905
_cell_angle_alpha   105.32659872
_cell_angle_beta   105.32659687
_cell_angle_gamma   105.32660380
_symmetry_Int_Tables_number   1
_chemical_formula_structural   Sr6TmV(BO3)6
_chemical_formula_sum   'Sr6 Tm1 V1 B6 O18'
_cell_volume   410.51981003
_cell_formula_units_Z   1
loop_
 _symmetry_equiv_pos_site_id
 _symmetry_equiv_pos_as_xyz
  1  'x, y, z'
loop_
 _atom_site_type_symbol
 _atom_site_label
 _atom_site_symmetry_multiplicity
 _atom_site_fract_x
 _atom_site_fract_y
 _atom_site_fract_z
 _atom_site_occupancy
  Sr  Sr0  1  0.351850  0.732140  0.840337  1
  Sr  Sr1  1  0.840337  0.351850  0.732140  1
  Sr  Sr2  1  0.732140  0.840337  0.351850  1
  Sr  Sr3  1  0.648150  0.267860  0.159663  1
  Sr  Sr4  1  0.159663  0.648150  0.267860  1
  Sr  Sr5  1  0.267860  0.159663  0.648150  1
  Tm  Tm6  1  0.000000  0.000000  0.000000  1
  V  V7  1  0.500000  0.500000  0.500000  1
  B  B8  1  0.709331  0.618895  0.953175  1
  B  B9  1  0.953175  0.709331  0.618895  1
  B  B10  1  0.618895  0.953175  0.709331  1
  B  B11  1  0.046825  0.290669  0.381105  1
  B  B12  1  0.381105  0.046825  0.290669  1
  B  B13  1  0.290669  0.381105  0.046825  1
  O  O14  1  0.064716  0.808420  0.541259  1
  O  O15  1  0.541259  0.064716  0.808420  1
  O  O16  1  0.428250  0.499905  0.226509  1
  O  O17  1  0.499905  0.226509  0.428250  1
  O  O18  1  0.226509  0.428250  0.499905  1
  O  O19  1  0.773491  0.571750  0.500095  1
  O  O20  1  0.571750  0.500095  0.773491  1
  O  O21  1  0.500095  0.773491  0.571750  1
  O  O22  1  0.264555  0.187973  0.982029  1
  O  O23  1  0.187973  0.982029  0.264555  1
  O  O24  1  0.982029  0.264555  0.187973  1
  O  O25  1  0.735445  0.812027  0.017971  1
  O  O26  1  0.812027  0.017971  0.735445  1
  O  O27  1  0.017971  0.735445  0.812027  1
  O  O28  1  0.191580  0.458741  0.935284  1
  O  O29  1  0.458741  0.935284  0.191580  1
  O  O30  1  0.935284  0.191580  0.458741  1
  O  O31  1  0.808420  0.541259  0.064716  1
