# generated using pymatgen
data_LiTb2Yb6(Si4Pd)3
_symmetry_space_group_name_H-M   'P 1'
_cell_length_a   8.27225700
_cell_length_b   8.27225664
_cell_length_c   8.13746600
_cell_angle_alpha   90.00000000
_cell_angle_beta   90.00000000
_cell_angle_gamma   120.00000545
_symmetry_Int_Tables_number   1
_chemical_formula_structural   LiTb2Yb6(Si4Pd)3
_chemical_formula_sum   'Li1 Tb2 Yb6 Si12 Pd3'
_cell_volume   482.24508798
_cell_formula_units_Z   1
loop_
 _symmetry_equiv_pos_site_id
 _symmetry_equiv_pos_as_xyz
  1  'x, y, z'
loop_
 _atom_site_type_symbol
 _atom_site_label
 _atom_site_symmetry_multiplicity
 _atom_site_fract_x
 _atom_site_fract_y
 _atom_site_fract_z
 _atom_site_occupancy
  Li  Li0  1  0.333333  0.666667  0.004932  1
  Tb  Tb1  1  0.000000  0.000000  0.250072  1
  Tb  Tb2  1  0.000000  0.000000  0.749941  1
  Yb  Yb3  1  0.504693  0.009387  0.253490  1
  Yb  Yb4  1  0.502215  0.004432  0.746486  1
  Yb  Yb5  1  0.990613  0.495307  0.253490  1
  Yb  Yb6  1  0.995568  0.497785  0.746486  1
  Yb  Yb7  1  0.504693  0.495307  0.253490  1
  Yb  Yb8  1  0.502215  0.497785  0.746486  1
  Si  Si9  1  0.161870  0.323740  0.000662  1
  Si  Si10  1  0.835367  0.670733  0.998737  1
  Si  Si11  1  0.676260  0.838130  0.000662  1
  Si  Si12  1  0.836865  0.673728  0.501216  1
  Si  Si13  1  0.329267  0.164633  0.998737  1
  Si  Si14  1  0.165070  0.330138  0.498583  1
  Si  Si15  1  0.161870  0.838130  0.000662  1
  Si  Si16  1  0.326272  0.163135  0.501216  1
  Si  Si17  1  0.835367  0.164633  0.998737  1
  Si  Si18  1  0.669862  0.834930  0.498583  1
  Si  Si19  1  0.836865  0.163135  0.501216  1
  Si  Si20  1  0.165070  0.834930  0.498583  1
  Pd  Pd21  1  0.666667  0.333333  0.997582  1
  Pd  Pd22  1  0.666667  0.333333  0.502341  1
  Pd  Pd23  1  0.333333  0.666667  0.497615  1
