# generated using pymatgen
data_Tb10Zn3CuB16
_symmetry_space_group_name_H-M   'P 1'
_cell_length_a   7.18074608
_cell_length_b   7.18074608
_cell_length_c   8.51204900
_cell_angle_alpha   90.00000000
_cell_angle_beta   90.00000000
_cell_angle_gamma   89.98286093
_symmetry_Int_Tables_number   1
_chemical_formula_structural   Tb10Zn3CuB16
_chemical_formula_sum   'Tb10 Zn3 Cu1 B16'
_cell_volume   438.90773562
_cell_formula_units_Z   1
loop_
 _symmetry_equiv_pos_site_id
 _symmetry_equiv_pos_as_xyz
  1  'x, y, z'
loop_
 _atom_site_type_symbol
 _atom_site_label
 _atom_site_symmetry_multiplicity
 _atom_site_fract_x
 _atom_site_fract_y
 _atom_site_fract_z
 _atom_site_occupancy
  Tb  Tb0  1  0.681636  0.181636  0.212144  1
  Tb  Tb1  1  0.317440  0.817440  0.788358  1
  Tb  Tb2  1  0.317440  0.817440  0.211642  1
  Tb  Tb3  1  0.818124  0.681475  0.212452  1
  Tb  Tb4  1  0.818124  0.681475  0.787548  1
  Tb  Tb5  1  0.681636  0.181636  0.787856  1
  Tb  Tb6  1  0.181475  0.318124  0.787548  1
  Tb  Tb7  1  0.181475  0.318124  0.212452  1
  Tb  Tb8  1  0.001396  0.992299  0.500000  1
  Tb  Tb9  1  0.492299  0.501396  0.500000  1
  Zn  Zn10  1  0.889652  0.389652  0.500000  1
  Zn  Zn11  1  0.381333  0.117387  0.500000  1
  Zn  Zn12  1  0.617387  0.881333  0.500000  1
  Cu  Cu13  1  0.124296  0.624296  0.500000  1
  B  B14  1  0.171749  0.040413  0.000000  1
  B  B15  1  0.827723  0.959060  0.000000  1
  B  B16  1  0.958987  0.172003  0.000000  1
  B  B17  1  0.327576  0.540539  0.000000  1
  B  B18  1  0.040539  0.827576  0.000000  1
  B  B19  1  0.672003  0.458987  0.000000  1
  B  B20  1  0.540413  0.671749  0.000000  1
  B  B21  1  0.459060  0.327723  0.000000  1
  B  B22  1  0.090398  0.590398  0.000000  1
  B  B23  1  0.909233  0.409233  0.000000  1
  B  B24  1  0.409239  0.090338  0.000000  1
  B  B25  1  0.590338  0.909239  0.000000  1
  B  B26  1  0.999722  0.999793  0.154653  1
  B  B27  1  0.999722  0.999793  0.845347  1
  B  B28  1  0.499793  0.499722  0.845347  1
  B  B29  1  0.499793  0.499722  0.154653  1
