# generated using pymatgen
data_Y4Al2OsRu5
_symmetry_space_group_name_H-M   'P 1'
_cell_length_a   5.31283943
_cell_length_b   5.36363387
_cell_length_c   8.93434600
_cell_angle_alpha   90.00000000
_cell_angle_beta   90.00000000
_cell_angle_gamma   120.76900774
_symmetry_Int_Tables_number   1
_chemical_formula_structural   Y4Al2OsRu5
_chemical_formula_sum   'Y4 Al2 Os1 Ru5'
_cell_volume   218.75672992
_cell_formula_units_Z   1
loop_
 _symmetry_equiv_pos_site_id
 _symmetry_equiv_pos_as_xyz
  1  'x, y, z'
loop_
 _atom_site_type_symbol
 _atom_site_label
 _atom_site_symmetry_multiplicity
 _atom_site_fract_x
 _atom_site_fract_y
 _atom_site_fract_z
 _atom_site_occupancy
  Y  Y0  1  0.338458  0.668960  0.436638  1
  Y  Y1  1  0.666646  0.334539  0.562183  1
  Y  Y2  1  0.666646  0.334539  0.937817  1
  Y  Y3  1  0.338458  0.668960  0.063362  1
  Al  Al4  1  0.162447  0.331034  0.750000  1
  Al  Al5  1  0.333012  0.167826  0.250000  1
  Os  Os6  1  0.173253  0.828996  0.750000  1
  Ru  Ru7  1  0.835334  0.665548  0.250000  1
  Ru  Ru8  1  0.653068  0.832283  0.750000  1
  Ru  Ru9  1  0.999868  0.992730  0.999047  1
  Ru  Ru10  1  0.832942  0.181855  0.250000  1
  Ru  Ru11  1  0.999868  0.992730  0.500953  1
