# generated using pymatgen
data_Tb2Tm3SiBi2
_symmetry_space_group_name_H-M   'P 1'
_cell_length_a   12.05635200
_cell_length_b   9.09076700
_cell_length_c   8.04446600
_cell_angle_alpha   90.00000000
_cell_angle_beta   90.00000000
_cell_angle_gamma   90.00000000
_symmetry_Int_Tables_number   1
_chemical_formula_structural   Tb2Tm3SiBi2
_chemical_formula_sum   'Tb8 Tm12 Si4 Bi8'
_cell_volume   881.68543493
_cell_formula_units_Z   4
loop_
 _symmetry_equiv_pos_site_id
 _symmetry_equiv_pos_as_xyz
  1  'x, y, z'
loop_
 _atom_site_type_symbol
 _atom_site_label
 _atom_site_symmetry_multiplicity
 _atom_site_fract_x
 _atom_site_fract_y
 _atom_site_fract_z
 _atom_site_occupancy
  Tb  Tb0  1  0.211672  0.750000  0.164190  1
  Tb  Tb1  1  0.711672  0.750000  0.335810  1
  Tb  Tb2  1  0.788328  0.250000  0.835810  1
  Tb  Tb3  1  0.288328  0.250000  0.664190  1
  Tb  Tb4  1  0.294925  0.750000  0.637331  1
  Tb  Tb5  1  0.794925  0.750000  0.862669  1
  Tb  Tb6  1  0.705075  0.250000  0.362669  1
  Tb  Tb7  1  0.205075  0.250000  0.137331  1
  Tm  Tm8  1  0.063089  0.552887  0.820077  1
  Tm  Tm9  1  0.563089  0.947113  0.679923  1
  Tm  Tm10  1  0.936911  0.052887  0.179923  1
  Tm  Tm11  1  0.436911  0.447113  0.320077  1
  Tm  Tm12  1  0.936911  0.447113  0.179923  1
  Tm  Tm13  1  0.436911  0.052887  0.320077  1
  Tm  Tm14  1  0.063089  0.947113  0.820077  1
  Tm  Tm15  1  0.563089  0.552887  0.679923  1
  Tm  Tm16  1  0.000876  0.750000  0.460146  1
  Tm  Tm17  1  0.500876  0.750000  0.039854  1
  Tm  Tm18  1  0.999124  0.250000  0.539854  1
  Tm  Tm19  1  0.499124  0.250000  0.960146  1
  Si  Si20  1  0.479338  0.750000  0.412893  1
  Si  Si21  1  0.979338  0.750000  0.087107  1
  Si  Si22  1  0.520662  0.250000  0.587107  1
  Si  Si23  1  0.020662  0.250000  0.912893  1
  Bi  Bi24  1  0.327425  0.510667  0.932313  1
  Bi  Bi25  1  0.827425  0.989333  0.567687  1
  Bi  Bi26  1  0.672575  0.010667  0.067687  1
  Bi  Bi27  1  0.172575  0.489333  0.432313  1
  Bi  Bi28  1  0.672575  0.489333  0.067687  1
  Bi  Bi29  1  0.172575  0.010667  0.432313  1
  Bi  Bi30  1  0.327425  0.989333  0.932313  1
  Bi  Bi31  1  0.827425  0.510667  0.567687  1
