# generated using pymatgen
data_Tm6Zn20Ag3P
_symmetry_space_group_name_H-M   'P 1'
_cell_length_a   9.08644703
_cell_length_b   9.08644759
_cell_length_c   9.08357800
_cell_angle_alpha   60.01044636
_cell_angle_beta   60.01044431
_cell_angle_gamma   60.01855553
_symmetry_Int_Tables_number   1
_chemical_formula_structural   Tm6Zn20Ag3P
_chemical_formula_sum   'Tm6 Zn20 Ag3 P1'
_cell_volume   530.46851326
_cell_formula_units_Z   1
loop_
 _symmetry_equiv_pos_site_id
 _symmetry_equiv_pos_as_xyz
  1  'x, y, z'
loop_
 _atom_site_type_symbol
 _atom_site_label
 _atom_site_symmetry_multiplicity
 _atom_site_fract_x
 _atom_site_fract_y
 _atom_site_fract_z
 _atom_site_occupancy
  Tm  Tm0  1  0.710270  0.289676  0.289840  1
  Tm  Tm1  1  0.710270  0.289676  0.710215  1
  Tm  Tm2  1  0.708816  0.708816  0.291184  1
  Tm  Tm3  1  0.289676  0.710270  0.710215  1
  Tm  Tm4  1  0.289676  0.710270  0.289840  1
  Tm  Tm5  1  0.288549  0.288549  0.711451  1
  Zn  Zn6  1  0.125946  0.125946  0.621947  1
  Zn  Zn7  1  0.125946  0.125946  0.126163  1
  Zn  Zn8  1  0.376343  0.872686  0.875485  1
  Zn  Zn9  1  0.872686  0.376343  0.875485  1
  Zn  Zn10  1  0.874698  0.874698  0.373182  1
  Zn  Zn11  1  0.874698  0.874698  0.877421  1
  Zn  Zn12  1  0.497280  0.998613  0.999337  1
  Zn  Zn13  1  0.497280  0.998613  0.504771  1
  Zn  Zn14  1  0.501330  0.501330  0.998670  1
  Zn  Zn15  1  0.998613  0.497280  0.504771  1
  Zn  Zn16  1  0.998613  0.497280  0.999337  1
  Zn  Zn17  1  0.999357  0.999357  0.500643  1
  Zn  Zn18  1  0.004909  0.330915  0.332087  1
  Zn  Zn19  1  0.330915  0.004909  0.332087  1
  Zn  Zn20  1  0.331578  0.331578  0.003917  1
  Zn  Zn21  1  0.331578  0.331578  0.332925  1
  Zn  Zn22  1  0.993404  0.668587  0.669006  1
  Zn  Zn23  1  0.668587  0.993404  0.669006  1
  Zn  Zn24  1  0.668507  0.668507  0.994613  1
  Zn  Zn25  1  0.668507  0.668507  0.668374  1
  Ag  Ag26  1  0.631103  0.121978  0.123460  1
  Ag  Ag27  1  0.121978  0.631103  0.123460  1
  Ag  Ag28  1  0.009918  0.009918  0.990082  1
  P  P29  1  0.498970  0.498970  0.501030  1
