# generated using pymatgen
data_Eu10ZnCd3
_symmetry_space_group_name_H-M   'P 1'
_cell_length_a   10.30482400
_cell_length_b   10.30482405
_cell_length_c   10.78484400
_cell_angle_alpha   90.00000000
_cell_angle_beta   90.00000000
_cell_angle_gamma   119.99999342
_symmetry_Int_Tables_number   1
_chemical_formula_structural   Eu10ZnCd3
_chemical_formula_sum   'Eu20 Zn2 Cd6'
_cell_volume   991.80361634
_cell_formula_units_Z   2
loop_
 _symmetry_equiv_pos_site_id
 _symmetry_equiv_pos_as_xyz
  1  'x, y, z'
loop_
 _atom_site_type_symbol
 _atom_site_label
 _atom_site_symmetry_multiplicity
 _atom_site_fract_x
 _atom_site_fract_y
 _atom_site_fract_z
 _atom_site_occupancy
  Eu  Eu0  1  0.205033  0.794967  0.946798  1
  Eu  Eu1  1  0.205033  0.410068  0.946798  1
  Eu  Eu2  1  0.589932  0.794967  0.946798  1
  Eu  Eu3  1  0.794967  0.205033  0.053202  1
  Eu  Eu4  1  0.794967  0.589932  0.053202  1
  Eu  Eu5  1  0.410068  0.205033  0.053202  1
  Eu  Eu6  1  0.794967  0.205033  0.446798  1
  Eu  Eu7  1  0.794967  0.589932  0.446798  1
  Eu  Eu8  1  0.410068  0.205033  0.446798  1
  Eu  Eu9  1  0.205033  0.794967  0.553202  1
  Eu  Eu10  1  0.205033  0.410068  0.553202  1
  Eu  Eu11  1  0.589932  0.794967  0.553202  1
  Eu  Eu12  1  0.539550  0.460450  0.750000  1
  Eu  Eu13  1  0.539550  0.079101  0.750000  1
  Eu  Eu14  1  0.920899  0.460450  0.750000  1
  Eu  Eu15  1  0.460450  0.539550  0.250000  1
  Eu  Eu16  1  0.460450  0.920899  0.250000  1
  Eu  Eu17  1  0.079101  0.539550  0.250000  1
  Eu  Eu18  1  0.000000  0.000000  0.000000  1
  Eu  Eu19  1  0.000000  0.000000  0.500000  1
  Zn  Zn20  1  0.333333  0.666667  0.750000  1
  Zn  Zn21  1  0.666667  0.333333  0.250000  1
  Cd  Cd22  1  0.887986  0.112014  0.750000  1
  Cd  Cd23  1  0.887986  0.775973  0.750000  1
  Cd  Cd24  1  0.224027  0.112014  0.750000  1
  Cd  Cd25  1  0.112014  0.887986  0.250000  1
  Cd  Cd26  1  0.112014  0.224027  0.250000  1
  Cd  Cd27  1  0.775973  0.887986  0.250000  1
