# generated using pymatgen
data_Li4La4Ir3Rh
_symmetry_space_group_name_H-M   'P 1'
_cell_length_a   4.06860200
_cell_length_b   7.16694954
_cell_length_c   8.67679718
_cell_angle_alpha   89.74822308
_cell_angle_beta   90.00000000
_cell_angle_gamma   90.00000000
_symmetry_Int_Tables_number   1
_chemical_formula_structural   Li4La4Ir3Rh
_chemical_formula_sum   'Li4 La4 Ir3 Rh1'
_cell_volume   253.00832283
_cell_formula_units_Z   1
loop_
 _symmetry_equiv_pos_site_id
 _symmetry_equiv_pos_as_xyz
  1  'x, y, z'
loop_
 _atom_site_type_symbol
 _atom_site_label
 _atom_site_symmetry_multiplicity
 _atom_site_fract_x
 _atom_site_fract_y
 _atom_site_fract_z
 _atom_site_occupancy
  Li  Li0  1  0.250000  0.622811  0.550542  1
  Li  Li1  1  0.750000  0.380762  0.449125  1
  Li  Li2  1  0.750000  0.877579  0.048642  1
  Li  Li3  1  0.250000  0.120372  0.952882  1
  La  La4  1  0.250000  0.549559  0.179675  1
  La  La5  1  0.750000  0.453343  0.824869  1
  La  La6  1  0.750000  0.950671  0.677000  1
  La  La7  1  0.250000  0.048069  0.320118  1
  Ir  Ir8  1  0.250000  0.740866  0.867384  1
  Ir  Ir9  1  0.750000  0.259904  0.130091  1
  Ir  Ir10  1  0.750000  0.760456  0.369479  1
  Rh  Rh11  1  0.250000  0.235608  0.630192  1
