# generated using pymatgen
data_Nd8Dy11LuSi16
_symmetry_space_group_name_H-M   'P 1'
_cell_length_a   7.74445500
_cell_length_b   7.74445508
_cell_length_c   14.49487500
_cell_angle_alpha   90.00041430
_cell_angle_beta   89.99958570
_cell_angle_gamma   89.99199505
_symmetry_Int_Tables_number   1
_chemical_formula_structural   Nd8Dy11LuSi16
_chemical_formula_sum   'Nd8 Dy11 Lu1 Si16'
_cell_volume   869.35307709
_cell_formula_units_Z   1
loop_
 _symmetry_equiv_pos_site_id
 _symmetry_equiv_pos_as_xyz
  1  'x, y, z'
loop_
 _atom_site_type_symbol
 _atom_site_label
 _atom_site_symmetry_multiplicity
 _atom_site_fract_x
 _atom_site_fract_y
 _atom_site_fract_z
 _atom_site_occupancy
  Nd  Nd0  1  0.635265  0.990050  0.454986  1
  Nd  Nd1  1  0.364718  0.010043  0.954967  1
  Nd  Nd2  1  0.990050  0.635265  0.545014  1
  Nd  Nd3  1  0.490064  0.864606  0.204940  1
  Nd  Nd4  1  0.509994  0.135039  0.704920  1
  Nd  Nd5  1  0.864606  0.490064  0.795060  1
  Nd  Nd6  1  0.135039  0.509994  0.295080  1
  Nd  Nd7  1  0.010043  0.364718  0.045033  1
  Dy  Dy8  1  0.488958  0.364948  0.124591  1
  Dy  Dy9  1  0.988717  0.135189  0.625069  1
  Dy  Dy10  1  0.864503  0.011310  0.875296  1
  Dy  Dy11  1  0.135189  0.988717  0.374931  1
  Dy  Dy12  1  0.511776  0.635240  0.625157  1
  Dy  Dy13  1  0.364948  0.488958  0.875409  1
  Dy  Dy14  1  0.635240  0.511776  0.374843  1
  Dy  Dy15  1  0.011310  0.864503  0.124704  1
  Dy  Dy16  1  0.314238  0.314238  0.500000  1
  Dy  Dy17  1  0.185293  0.813958  0.750106  1
  Dy  Dy18  1  0.813958  0.185293  0.249894  1
  Lu  Lu19  1  0.685559  0.685559  0.000000  1
  Si  Si20  1  0.287746  0.931485  0.561271  1
  Si  Si21  1  0.711330  0.066876  0.061204  1
  Si  Si22  1  0.931485  0.287746  0.438729  1
  Si  Si23  1  0.431572  0.212599  0.311060  1
  Si  Si24  1  0.569480  0.787090  0.812914  1
  Si  Si25  1  0.212599  0.431572  0.688940  1
  Si  Si26  1  0.787090  0.569480  0.187086  1
  Si  Si27  1  0.066876  0.711330  0.938796  1
  Si  Si28  1  0.800789  0.840634  0.693814  1
  Si  Si29  1  0.199560  0.158985  0.193230  1
  Si  Si30  1  0.840634  0.800789  0.306186  1
  Si  Si31  1  0.341229  0.699753  0.443243  1
  Si  Si32  1  0.659718  0.301686  0.943549  1
  Si  Si33  1  0.699753  0.341229  0.556757  1
  Si  Si34  1  0.301686  0.659718  0.056451  1
  Si  Si35  1  0.158985  0.199560  0.806770  1
