# generated using pymatgen
data_Ba5Ac(BiPb4)2
_symmetry_space_group_name_H-M   'P 1'
_cell_length_a   9.48629186
_cell_length_b   9.48629184
_cell_length_c   9.48629200
_cell_angle_alpha   120.86909576
_cell_angle_beta   120.86910273
_cell_angle_gamma   88.50115927
_symmetry_Int_Tables_number   1
_chemical_formula_structural   Ba5Ac(BiPb4)2
_chemical_formula_sum   'Ba5 Ac1 Bi2 Pb8'
_cell_volume   595.48432271
_cell_formula_units_Z   1
loop_
 _symmetry_equiv_pos_site_id
 _symmetry_equiv_pos_as_xyz
  1  'x, y, z'
loop_
 _atom_site_type_symbol
 _atom_site_label
 _atom_site_symmetry_multiplicity
 _atom_site_fract_x
 _atom_site_fract_y
 _atom_site_fract_z
 _atom_site_occupancy
  Ba  Ba0  1  0.750000  0.750000  0.000000  1
  Ba  Ba1  1  0.161779  0.661779  0.823560  1
  Ba  Ba2  1  0.838221  0.338221  0.176440  1
  Ba  Ba3  1  0.661779  0.838221  0.500000  1
  Ba  Ba4  1  0.338221  0.161779  0.500000  1
  Ac  Ac5  1  0.250000  0.250000  0.000000  1
  Bi  Bi6  1  0.005264  0.005264  0.000000  1
  Bi  Bi7  1  0.494736  0.494736  0.000000  1
  Pb  Pb8  1  0.832799  0.327974  0.786115  1
  Pb  Pb9  1  0.172026  0.667201  0.213885  1
  Pb  Pb10  1  0.541860  0.046686  0.213885  1
  Pb  Pb11  1  0.327974  0.541860  0.495174  1
  Pb  Pb12  1  0.958140  0.172026  0.504826  1
  Pb  Pb13  1  0.453314  0.958140  0.786115  1
  Pb  Pb14  1  0.667201  0.453314  0.495174  1
  Pb  Pb15  1  0.046686  0.832799  0.504826  1
