# generated using pymatgen
data_Li4LaPr3Pd4
_symmetry_space_group_name_H-M   'P 1'
_cell_length_a   7.39491683
_cell_length_b   4.14984000
_cell_length_c   8.70165065
_cell_angle_alpha   90.00000000
_cell_angle_beta   90.10561313
_cell_angle_gamma   90.00000000
_symmetry_Int_Tables_number   1
_chemical_formula_structural   Li4LaPr3Pd4
_chemical_formula_sum   'Li4 La1 Pr3 Pd4'
_cell_volume   267.03337964
_cell_formula_units_Z   1
loop_
 _symmetry_equiv_pos_site_id
 _symmetry_equiv_pos_as_xyz
  1  'x, y, z'
loop_
 _atom_site_type_symbol
 _atom_site_label
 _atom_site_symmetry_multiplicity
 _atom_site_fract_x
 _atom_site_fract_y
 _atom_site_fract_z
 _atom_site_occupancy
  Li  Li0  1  0.634592  0.250000  0.553990  1
  Li  Li1  1  0.127582  0.250000  0.944965  1
  Li  Li2  1  0.368245  0.750000  0.443229  1
  Li  Li3  1  0.869074  0.750000  0.055820  1
  La  La4  1  0.458360  0.750000  0.810860  1
  Pr  Pr5  1  0.043083  0.250000  0.312228  1
  Pr  Pr6  1  0.541557  0.250000  0.190612  1
  Pr  Pr7  1  0.958190  0.750000  0.687085  1
  Pd  Pd8  1  0.250958  0.250000  0.617339  1
  Pd  Pd9  1  0.746754  0.250000  0.883854  1
  Pd  Pd10  1  0.751672  0.750000  0.383908  1
  Pd  Pd11  1  0.249933  0.750000  0.116109  1
