# generated using pymatgen
data_Y3Tm17Pt16
_symmetry_space_group_name_H-M   'P 1'
_cell_length_a   7.40799094
_cell_length_b   7.49660095
_cell_length_c   14.59942303
_cell_angle_alpha   90.00518628
_cell_angle_beta   90.00578215
_cell_angle_gamma   89.94259825
_symmetry_Int_Tables_number   1
_chemical_formula_structural   Y3Tm17Pt16
_chemical_formula_sum   'Y3 Tm17 Pt16'
_cell_volume   810.77492167
_cell_formula_units_Z   1
loop_
 _symmetry_equiv_pos_site_id
 _symmetry_equiv_pos_as_xyz
  1  'x, y, z'
loop_
 _atom_site_type_symbol
 _atom_site_label
 _atom_site_symmetry_multiplicity
 _atom_site_fract_x
 _atom_site_fract_y
 _atom_site_fract_z
 _atom_site_occupancy
  Y  Y0  1  0.500956  0.320902  0.907407  1
  Y  Y1  1  0.498845  0.679229  0.407541  1
  Y  Y2  1  0.998957  0.820827  0.092509  1
  Tm  Tm3  1  0.681113  0.989623  0.250055  1
  Tm  Tm4  1  0.181128  0.510450  0.249984  1
  Tm  Tm5  1  0.819011  0.489249  0.749675  1
  Tm  Tm6  1  0.318584  0.010536  0.749787  1
  Tm  Tm7  1  0.656682  0.832952  0.622423  1
  Tm  Tm8  1  0.156157  0.667451  0.877338  1
  Tm  Tm9  1  0.844338  0.332201  0.377699  1
  Tm  Tm10  1  0.343853  0.167445  0.122533  1
  Tm  Tm11  1  0.343744  0.167641  0.377832  1
  Tm  Tm12  1  0.843892  0.332235  0.122259  1
  Tm  Tm13  1  0.155976  0.667789  0.622195  1
  Tm  Tm14  1  0.656136  0.832214  0.877718  1
  Tm  Tm15  1  0.997769  0.820101  0.407006  1
  Tm  Tm16  1  0.497477  0.680408  0.093188  1
  Tm  Tm17  1  0.502512  0.319372  0.593170  1
  Tm  Tm18  1  0.002371  0.180537  0.906939  1
  Tm  Tm19  1  0.002172  0.179994  0.592849  1
  Pt  Pt20  1  0.816641  0.642501  0.250649  1
  Pt  Pt21  1  0.316642  0.857434  0.249489  1
  Pt  Pt22  1  0.683909  0.142644  0.749022  1
  Pt  Pt23  1  0.182187  0.356524  0.749601  1
  Pt  Pt24  1  0.546081  0.385996  0.249566  1
  Pt  Pt25  1  0.046036  0.114003  0.250490  1
  Pt  Pt26  1  0.954190  0.886746  0.749964  1
  Pt  Pt27  1  0.453804  0.613854  0.749471  1
  Pt  Pt28  1  0.816627  0.531646  0.542475  1
  Pt  Pt29  1  0.316020  0.966605  0.957989  1
  Pt  Pt30  1  0.684534  0.033799  0.458403  1
  Pt  Pt31  1  0.184023  0.466656  0.042032  1
  Pt  Pt32  1  0.181994  0.466252  0.458322  1
  Pt  Pt33  1  0.682286  0.032891  0.042058  1
  Pt  Pt34  1  0.315585  0.968535  0.542434  1
  Pt  Pt35  1  0.817769  0.532759  0.957929  1
