# generated using pymatgen
data_SmZn3CdRu
_symmetry_space_group_name_H-M   'P 1'
_cell_length_a   5.29736092
_cell_length_b   5.29736155
_cell_length_c   5.27534200
_cell_angle_alpha   59.86183350
_cell_angle_beta   59.86184200
_cell_angle_gamma   60.00000352
_symmetry_Int_Tables_number   1
_chemical_formula_structural   SmZn3CdRu
_chemical_formula_sum   'Sm1 Zn3 Cd1 Ru1'
_cell_volume   104.45872046
_cell_formula_units_Z   1
loop_
 _symmetry_equiv_pos_site_id
 _symmetry_equiv_pos_as_xyz
  1  'x, y, z'
loop_
 _atom_site_type_symbol
 _atom_site_label
 _atom_site_symmetry_multiplicity
 _atom_site_fract_x
 _atom_site_fract_y
 _atom_site_fract_z
 _atom_site_occupancy
  Sm  Sm0  1  0.749042  0.749042  0.752877  1
  Zn  Zn1  1  0.373209  0.875990  0.377592  1
  Zn  Zn2  1  0.373209  0.373209  0.377592  1
  Zn  Zn3  1  0.875990  0.373209  0.377592  1
  Cd  Cd4  1  0.005144  0.005144  0.984568  1
  Ru  Ru5  1  0.373407  0.373407  0.879778  1
