# generated using pymatgen
data_Ca3(LuSi2)2
_symmetry_space_group_name_H-M   'P 1'
_cell_length_a   7.32797800
_cell_length_b   7.76582200
_cell_length_c   14.96076400
_cell_angle_alpha   90.00000000
_cell_angle_beta   90.00000000
_cell_angle_gamma   90.00000000
_symmetry_Int_Tables_number   1
_chemical_formula_structural   Ca3(LuSi2)2
_chemical_formula_sum   'Ca12 Lu8 Si16'
_cell_volume   851.38375815
_cell_formula_units_Z   4
loop_
 _symmetry_equiv_pos_site_id
 _symmetry_equiv_pos_as_xyz
  1  'x, y, z'
loop_
 _atom_site_type_symbol
 _atom_site_label
 _atom_site_symmetry_multiplicity
 _atom_site_fract_x
 _atom_site_fract_y
 _atom_site_fract_z
 _atom_site_occupancy
  Ca  Ca0  1  0.975222  0.817732  0.405106  1
  Ca  Ca1  1  0.475222  0.682268  0.094894  1
  Ca  Ca2  1  0.524778  0.317732  0.594894  1
  Ca  Ca3  1  0.024778  0.182268  0.905106  1
  Ca  Ca4  1  0.024778  0.182268  0.594894  1
  Ca  Ca5  1  0.524778  0.317732  0.905106  1
  Ca  Ca6  1  0.475222  0.682268  0.405106  1
  Ca  Ca7  1  0.975222  0.817732  0.094894  1
  Ca  Ca8  1  0.351368  0.018514  0.750000  1
  Ca  Ca9  1  0.851368  0.481486  0.750000  1
  Ca  Ca10  1  0.148632  0.518514  0.250000  1
  Ca  Ca11  1  0.648632  0.981486  0.250000  1
  Lu  Lu12  1  0.315009  0.176241  0.121233  1
  Lu  Lu13  1  0.815009  0.323759  0.378767  1
  Lu  Lu14  1  0.184991  0.676241  0.878767  1
  Lu  Lu15  1  0.684991  0.823759  0.621233  1
  Lu  Lu16  1  0.315009  0.176241  0.378767  1
  Lu  Lu17  1  0.815009  0.323759  0.121233  1
  Lu  Lu18  1  0.184991  0.676241  0.621233  1
  Lu  Lu19  1  0.684991  0.823759  0.878767  1
  Si  Si20  1  0.856251  0.535132  0.538174  1
  Si  Si21  1  0.356251  0.964868  0.961826  1
  Si  Si22  1  0.643749  0.035132  0.461826  1
  Si  Si23  1  0.143749  0.464868  0.038174  1
  Si  Si24  1  0.143749  0.464868  0.461826  1
  Si  Si25  1  0.643749  0.035132  0.038174  1
  Si  Si26  1  0.356251  0.964868  0.538174  1
  Si  Si27  1  0.856251  0.535132  0.961826  1
  Si  Si28  1  0.976695  0.877091  0.750000  1
  Si  Si29  1  0.476695  0.622909  0.750000  1
  Si  Si30  1  0.523305  0.377091  0.250000  1
  Si  Si31  1  0.023305  0.122909  0.250000  1
  Si  Si32  1  0.247827  0.397420  0.750000  1
  Si  Si33  1  0.747827  0.102580  0.750000  1
  Si  Si34  1  0.252173  0.897420  0.250000  1
  Si  Si35  1  0.752173  0.602580  0.250000  1
