# generated using pymatgen
data_Ca3(HoSi2)2
_symmetry_space_group_name_H-M   'P 1'
_cell_length_a   7.43881400
_cell_length_b   7.82485000
_cell_length_c   15.18756400
_cell_angle_alpha   90.00000000
_cell_angle_beta   90.00000000
_cell_angle_gamma   90.00000000
_symmetry_Int_Tables_number   1
_chemical_formula_structural   Ca3(HoSi2)2
_chemical_formula_sum   'Ca12 Ho8 Si16'
_cell_volume   884.03170690
_cell_formula_units_Z   4
loop_
 _symmetry_equiv_pos_site_id
 _symmetry_equiv_pos_as_xyz
  1  'x, y, z'
loop_
 _atom_site_type_symbol
 _atom_site_label
 _atom_site_symmetry_multiplicity
 _atom_site_fract_x
 _atom_site_fract_y
 _atom_site_fract_z
 _atom_site_occupancy
  Ca  Ca0  1  0.649303  0.980970  0.250000  1
  Ca  Ca1  1  0.149303  0.519030  0.250000  1
  Ca  Ca2  1  0.850697  0.480970  0.750000  1
  Ca  Ca3  1  0.350697  0.019030  0.750000  1
  Ca  Ca4  1  0.974732  0.816826  0.095426  1
  Ca  Ca5  1  0.474732  0.683174  0.404574  1
  Ca  Ca6  1  0.525268  0.316826  0.904574  1
  Ca  Ca7  1  0.025268  0.183174  0.595426  1
  Ca  Ca8  1  0.025268  0.183174  0.904574  1
  Ca  Ca9  1  0.525268  0.316826  0.595426  1
  Ca  Ca10  1  0.474732  0.683174  0.095426  1
  Ca  Ca11  1  0.974732  0.816826  0.404574  1
  Ho  Ho12  1  0.683753  0.822684  0.878659  1
  Ho  Ho13  1  0.183753  0.677316  0.621341  1
  Ho  Ho14  1  0.816247  0.322684  0.121341  1
  Ho  Ho15  1  0.316247  0.177316  0.378659  1
  Ho  Ho16  1  0.316247  0.177316  0.121341  1
  Ho  Ho17  1  0.816247  0.322684  0.378659  1
  Ho  Ho18  1  0.183753  0.677316  0.878659  1
  Ho  Ho19  1  0.683753  0.822684  0.621341  1
  Si  Si20  1  0.754499  0.604156  0.250000  1
  Si  Si21  1  0.254499  0.895844  0.250000  1
  Si  Si22  1  0.745501  0.104156  0.750000  1
  Si  Si23  1  0.245501  0.395844  0.750000  1
  Si  Si24  1  0.025363  0.117332  0.250000  1
  Si  Si25  1  0.525363  0.382668  0.250000  1
  Si  Si26  1  0.474637  0.617332  0.750000  1
  Si  Si27  1  0.974637  0.882668  0.750000  1
  Si  Si28  1  0.858174  0.535309  0.962343  1
  Si  Si29  1  0.358174  0.964691  0.537657  1
  Si  Si30  1  0.641826  0.035309  0.037657  1
  Si  Si31  1  0.141826  0.464691  0.462343  1
  Si  Si32  1  0.141826  0.464691  0.037657  1
  Si  Si33  1  0.641826  0.035309  0.462343  1
  Si  Si34  1  0.358174  0.964691  0.962343  1
  Si  Si35  1  0.858174  0.535309  0.537657  1
