# generated using pymatgen
data_Nd6ZnSnI6
_symmetry_space_group_name_H-M   'P 1'
_cell_length_a   10.99921985
_cell_length_b   10.99921958
_cell_length_c   10.92369111
_cell_angle_alpha   109.47445982
_cell_angle_beta   109.47445702
_cell_angle_gamma   109.74321691
_symmetry_Int_Tables_number   1
_chemical_formula_structural   Nd6ZnSnI6
_chemical_formula_sum   'Nd12 Zn2 Sn2 I12'
_cell_volume   1013.83508033
_cell_formula_units_Z   2
loop_
 _symmetry_equiv_pos_site_id
 _symmetry_equiv_pos_as_xyz
  1  'x, y, z'
loop_
 _atom_site_type_symbol
 _atom_site_label
 _atom_site_symmetry_multiplicity
 _atom_site_fract_x
 _atom_site_fract_y
 _atom_site_fract_z
 _atom_site_occupancy
  Nd  Nd0  1  0.761790  0.242685  0.267030  1
  Nd  Nd1  1  0.481254  0.738770  0.004999  1
  Nd  Nd2  1  0.023746  0.266229  0.004999  1
  Nd  Nd3  1  0.258421  0.008421  0.016844  1
  Nd  Nd4  1  0.233801  0.266199  0.750000  1
  Nd  Nd5  1  0.257315  0.738210  0.232970  1
  Nd  Nd6  1  0.233771  0.476254  0.495001  1
  Nd  Nd7  1  0.475653  0.494760  0.232970  1
  Nd  Nd8  1  0.761230  0.018746  0.495001  1
  Nd  Nd9  1  0.491579  0.241579  0.483156  1
  Nd  Nd10  1  0.005240  0.024347  0.267030  1
  Nd  Nd11  1  0.016199  0.483801  0.750000  1
  Zn  Zn12  1  0.999549  0.249549  0.499098  1
  Zn  Zn13  1  0.250451  0.500451  0.000902  1
  Sn  Sn14  1  0.500418  0.999582  0.250000  1
  Sn  Sn15  1  0.249582  0.250418  0.250000  1
  I  I16  1  0.757341  0.742659  0.250000  1
  I  I17  1  0.506640  0.249979  0.993786  1
  I  I18  1  0.250021  0.993360  0.506214  1
  I  I19  1  0.516157  0.507758  0.758247  1
  I  I20  1  0.506966  0.756966  0.513933  1
  I  I21  1  0.756193  0.512855  0.506214  1
  I  I22  1  0.742090  0.250489  0.758247  1
  I  I23  1  0.249511  0.757910  0.741753  1
  I  I24  1  0.987145  0.743807  0.993786  1
  I  I25  1  0.992659  0.507341  0.250000  1
  I  I26  1  0.992242  0.983843  0.741753  1
  I  I27  1  0.743034  0.993034  0.986067  1
