# generated using pymatgen
data_La2Pr3Dy3(CdPt)2
_symmetry_space_group_name_H-M   'P 1'
_cell_length_a   9.98212143
_cell_length_b   9.98212199
_cell_length_c   9.98212200
_cell_angle_alpha   59.99999333
_cell_angle_beta   59.99999148
_cell_angle_gamma   59.99999617
_symmetry_Int_Tables_number   1
_chemical_formula_structural   La2Pr3Dy3(CdPt)2
_chemical_formula_sum   'La4 Pr6 Dy6 Cd4 Pt4'
_cell_volume   703.32091861
_cell_formula_units_Z   2
loop_
 _symmetry_equiv_pos_site_id
 _symmetry_equiv_pos_as_xyz
  1  'x, y, z'
loop_
 _atom_site_type_symbol
 _atom_site_label
 _atom_site_symmetry_multiplicity
 _atom_site_fract_x
 _atom_site_fract_y
 _atom_site_fract_z
 _atom_site_occupancy
  La  La0  1  0.351827  0.351827  0.351827  1
  La  La1  1  0.351827  0.351827  0.944519  1
  La  La2  1  0.351827  0.944519  0.351827  1
  La  La3  1  0.944519  0.351827  0.351827  1
  Pr  Pr4  1  0.935565  0.564435  0.564435  1
  Pr  Pr5  1  0.564435  0.935565  0.935565  1
  Pr  Pr6  1  0.564435  0.935565  0.564435  1
  Pr  Pr7  1  0.935565  0.564435  0.935565  1
  Pr  Pr8  1  0.564435  0.564435  0.935565  1
  Pr  Pr9  1  0.935565  0.935565  0.564435  1
  Dy  Dy10  1  0.813843  0.186157  0.186157  1
  Dy  Dy11  1  0.186157  0.813843  0.813843  1
  Dy  Dy12  1  0.186157  0.813843  0.186157  1
  Dy  Dy13  1  0.813843  0.186157  0.813843  1
  Dy  Dy14  1  0.186157  0.186157  0.813843  1
  Dy  Dy15  1  0.813843  0.813843  0.186157  1
  Cd  Cd16  1  0.580649  0.580649  0.580649  1
  Cd  Cd17  1  0.580649  0.580649  0.258052  1
  Cd  Cd18  1  0.580649  0.258052  0.580649  1
  Cd  Cd19  1  0.258052  0.580649  0.580649  1
  Pt  Pt20  1  0.139880  0.139880  0.139880  1
  Pt  Pt21  1  0.139880  0.139880  0.580360  1
  Pt  Pt22  1  0.139880  0.580360  0.139880  1
  Pt  Pt23  1  0.580360  0.139880  0.139880  1
