# generated using pymatgen
data_YHo15In4IrRu3
_symmetry_space_group_name_H-M   'P 1'
_cell_length_a   9.63085441
_cell_length_b   9.63085516
_cell_length_c   9.61559022
_cell_angle_alpha   59.90072821
_cell_angle_beta   59.90072998
_cell_angle_gamma   59.93893184
_symmetry_Int_Tables_number   1
_chemical_formula_structural   YHo15In4IrRu3
_chemical_formula_sum   'Y1 Ho15 In4 Ir1 Ru3'
_cell_volume   629.41501945
_cell_formula_units_Z   1
loop_
 _symmetry_equiv_pos_site_id
 _symmetry_equiv_pos_as_xyz
  1  'x, y, z'
loop_
 _atom_site_type_symbol
 _atom_site_label
 _atom_site_symmetry_multiplicity
 _atom_site_fract_x
 _atom_site_fract_y
 _atom_site_fract_z
 _atom_site_occupancy
  Y  Y0  1  0.441168  0.441168  0.059594  1
  Ho  Ho1  1  0.652511  0.652511  0.042353  1
  Ho  Ho2  1  0.193778  0.808541  0.191317  1
  Ho  Ho3  1  0.056595  0.442496  0.057872  1
  Ho  Ho4  1  0.191590  0.808099  0.808793  1
  Ho  Ho5  1  0.058827  0.439834  0.442631  1
  Ho  Ho6  1  0.808541  0.193778  0.191317  1
  Ho  Ho7  1  0.651760  0.651760  0.652261  1
  Ho  Ho8  1  0.808099  0.191590  0.808793  1
  Ho  Ho9  1  0.191862  0.191862  0.809780  1
  Ho  Ho10  1  0.043680  0.651960  0.652016  1
  Ho  Ho11  1  0.442496  0.056595  0.057872  1
  Ho  Ho12  1  0.059216  0.059216  0.441879  1
  Ho  Ho13  1  0.651960  0.043680  0.652016  1
  Ho  Ho14  1  0.807894  0.807894  0.191019  1
  Ho  Ho15  1  0.439834  0.058827  0.442631  1
  In  In16  1  0.417275  0.417275  0.418368  1
  In  In17  1  0.417102  0.417102  0.748438  1
  In  In18  1  0.417231  0.747695  0.418052  1
  In  In19  1  0.747695  0.417231  0.418052  1
  Ir  Ir20  1  0.859566  0.859566  0.419966  1
  Ru  Ru21  1  0.417462  0.861979  0.858048  1
  Ru  Ru22  1  0.861880  0.861880  0.858886  1
  Ru  Ru23  1  0.861979  0.417462  0.858048  1
