# generated using pymatgen
data_Y3Ge2P4Rh9
_symmetry_space_group_name_H-M   'P 1'
_cell_length_a   3.96383600
_cell_length_b   11.40117500
_cell_length_c   12.88525500
_cell_angle_alpha   90.00000000
_cell_angle_beta   90.00000000
_cell_angle_gamma   90.00000000
_symmetry_Int_Tables_number   1
_chemical_formula_structural   Y3Ge2P4Rh9
_chemical_formula_sum   'Y6 Ge4 P8 Rh18'
_cell_volume   582.31544224
_cell_formula_units_Z   2
loop_
 _symmetry_equiv_pos_site_id
 _symmetry_equiv_pos_as_xyz
  1  'x, y, z'
loop_
 _atom_site_type_symbol
 _atom_site_label
 _atom_site_symmetry_multiplicity
 _atom_site_fract_x
 _atom_site_fract_y
 _atom_site_fract_z
 _atom_site_occupancy
  Y  Y0  1  0.000000  0.500000  0.525251  1
  Y  Y1  1  0.500000  0.000000  0.474749  1
  Y  Y2  1  0.500000  0.813469  0.207283  1
  Y  Y3  1  0.500000  0.186531  0.207283  1
  Y  Y4  1  0.000000  0.686531  0.792717  1
  Y  Y5  1  0.000000  0.313469  0.792717  1
  Ge  Ge6  1  0.500000  0.500000  0.876697  1
  Ge  Ge7  1  0.000000  0.000000  0.123303  1
  Ge  Ge8  1  0.500000  0.500000  0.348756  1
  Ge  Ge9  1  0.000000  0.000000  0.651244  1
  P  P10  1  0.500000  0.310950  0.618637  1
  P  P11  1  0.500000  0.689050  0.618637  1
  P  P12  1  0.000000  0.189050  0.381363  1
  P  P13  1  0.000000  0.810950  0.381363  1
  P  P14  1  0.500000  0.844635  0.893860  1
  P  P15  1  0.500000  0.155365  0.893860  1
  P  P16  1  0.000000  0.655365  0.106140  1
  P  P17  1  0.000000  0.344635  0.106140  1
  Rh  Rh18  1  0.500000  0.500000  0.158518  1
  Rh  Rh19  1  0.000000  0.000000  0.841482  1
  Rh  Rh20  1  0.500000  0.500000  0.689396  1
  Rh  Rh21  1  0.000000  0.000000  0.310604  1
  Rh  Rh22  1  0.000000  0.500000  0.991939  1
  Rh  Rh23  1  0.500000  0.000000  0.008061  1
  Rh  Rh24  1  0.500000  0.330550  0.995675  1
  Rh  Rh25  1  0.500000  0.669450  0.995675  1
  Rh  Rh26  1  0.000000  0.169450  0.004325  1
  Rh  Rh27  1  0.000000  0.830550  0.004325  1
  Rh  Rh28  1  0.500000  0.289158  0.431324  1
  Rh  Rh29  1  0.500000  0.710842  0.431324  1
  Rh  Rh30  1  0.000000  0.210842  0.568676  1
  Rh  Rh31  1  0.000000  0.789158  0.568676  1
  Rh  Rh32  1  0.500000  0.870066  0.713890  1
  Rh  Rh33  1  0.500000  0.129934  0.713890  1
  Rh  Rh34  1  0.000000  0.629934  0.286110  1
  Rh  Rh35  1  0.000000  0.370066  0.286110  1
