# generated using pymatgen
data_La9NdTh2(Si7Br3)2
_symmetry_space_group_name_H-M   'P 1'
_cell_length_a   4.14955900
_cell_length_b   11.90438890
_cell_length_c   16.79759604
_cell_angle_alpha   89.80496665
_cell_angle_beta   90.00000000
_cell_angle_gamma   90.00000000
_symmetry_Int_Tables_number   1
_chemical_formula_structural   La9NdTh2(Si7Br3)2
_chemical_formula_sum   'La9 Nd1 Th2 Si14 Br6'
_cell_volume   829.76223891
_cell_formula_units_Z   1
loop_
 _symmetry_equiv_pos_site_id
 _symmetry_equiv_pos_as_xyz
  1  'x, y, z'
loop_
 _atom_site_type_symbol
 _atom_site_label
 _atom_site_symmetry_multiplicity
 _atom_site_fract_x
 _atom_site_fract_y
 _atom_site_fract_z
 _atom_site_occupancy
  La  La0  1  0.500000  0.340626  0.503219  1
  La  La1  1  0.000000  0.658222  0.999520  1
  La  La2  1  0.000000  0.642395  0.745077  1
  La  La3  1  0.500000  0.357851  0.244522  1
  La  La4  1  0.000000  0.639848  0.255950  1
  La  La5  1  0.500000  0.068725  0.878149  1
  La  La6  1  0.000000  0.934505  0.619744  1
  La  La7  1  0.500000  0.066360  0.118123  1
  La  La8  1  0.000000  0.931375  0.380105  1
  Nd  Nd9  1  0.500000  0.362659  0.758112  1
  Th  Th10  1  0.500000  0.356050  0.998976  1
  Th  Th11  1  0.000000  0.642452  0.501590  1
  Si  Si12  1  0.000000  0.155335  0.998345  1
  Si  Si13  1  0.500000  0.845051  0.500312  1
  Si  Si14  1  0.500000  0.564157  0.878198  1
  Si  Si15  1  0.000000  0.434417  0.624460  1
  Si  Si16  1  0.500000  0.563189  0.121360  1
  Si  Si17  1  0.000000  0.435006  0.380186  1
  Si  Si18  1  0.000000  0.256804  0.873286  1
  Si  Si19  1  0.500000  0.744973  0.625345  1
  Si  Si20  1  0.000000  0.254781  0.123865  1
  Si  Si21  1  0.500000  0.742750  0.376202  1
  Si  Si22  1  0.000000  0.459493  0.877301  1
  Si  Si23  1  0.500000  0.540965  0.624588  1
  Si  Si24  1  0.500000  0.540143  0.378404  1
  Si  Si25  1  0.000000  0.457657  0.122241  1
  Br  Br26  1  0.500000  0.115009  0.691032  1
  Br  Br27  1  0.000000  0.892707  0.806705  1
  Br  Br28  1  0.000000  0.137079  0.498686  1
  Br  Br29  1  0.500000  0.862575  0.998313  1
  Br  Br30  1  0.500000  0.107092  0.306603  1
  Br  Br31  1  0.000000  0.889752  0.191479  1
