# generated using pymatgen
data_Th2Si3(PRu3)4
_symmetry_space_group_name_H-M   'P 1'
_cell_length_a   9.56721074
_cell_length_b   9.52029754
_cell_length_c   3.98973700
_cell_angle_alpha   90.00000000
_cell_angle_beta   90.00000000
_cell_angle_gamma   119.95493170
_symmetry_Int_Tables_number   1
_chemical_formula_structural   Th2Si3(PRu3)4
_chemical_formula_sum   'Th2 Si3 P4 Ru12'
_cell_volume   314.85298324
_cell_formula_units_Z   1
loop_
 _symmetry_equiv_pos_site_id
 _symmetry_equiv_pos_as_xyz
  1  'x, y, z'
loop_
 _atom_site_type_symbol
 _atom_site_label
 _atom_site_symmetry_multiplicity
 _atom_site_fract_x
 _atom_site_fract_y
 _atom_site_fract_z
 _atom_site_occupancy
  Th  Th0  1  0.664593  0.333695  0.500000  1
  Th  Th1  1  0.333504  0.666139  0.000000  1
  Si  Si2  1  0.610641  0.715672  0.500000  1
  Si  Si3  1  0.001717  0.999759  0.000000  1
  Si  Si4  1  0.285252  0.893889  0.500000  1
  P  P5  1  0.106743  0.389707  0.500000  1
  P  P6  1  0.893205  0.583441  0.000000  1
  P  P7  1  0.414875  0.311117  0.000000  1
  P  P8  1  0.686692  0.105906  0.000000  1
  Ru  Ru9  1  0.563155  0.953985  0.500000  1
  Ru  Ru10  1  0.387879  0.439408  0.500000  1
  Ru  Ru11  1  0.910079  0.117223  0.500000  1
  Ru  Ru12  1  0.205610  0.094061  0.500000  1
  Ru  Ru13  1  0.889111  0.790882  0.500000  1
  Ru  Ru14  1  0.726366  0.886935  0.000000  1
  Ru  Ru15  1  0.115937  0.837374  0.000000  1
  Ru  Ru16  1  0.159388  0.278599  0.000000  1
  Ru  Ru17  1  0.425079  0.070140  0.000000  1
  Ru  Ru18  1  0.927979  0.355233  0.000000  1
  Ru  Ru19  1  0.642964  0.573347  0.000000  1
  Ru  Ru20  1  0.049231  0.603486  0.500000  1
