# generated using pymatgen
data_Nd4Te7Pd
_symmetry_space_group_name_H-M   'P 1'
_cell_length_a   4.31790849
_cell_length_b   8.84447900
_cell_length_c   9.40747354
_cell_angle_alpha   90.00000000
_cell_angle_beta   90.02315775
_cell_angle_gamma   90.00000000
_symmetry_Int_Tables_number   1
_chemical_formula_structural   Nd4Te7Pd
_chemical_formula_sum   'Nd4 Te7 Pd1'
_cell_volume   359.26810171
_cell_formula_units_Z   1
loop_
 _symmetry_equiv_pos_site_id
 _symmetry_equiv_pos_as_xyz
  1  'x, y, z'
loop_
 _atom_site_type_symbol
 _atom_site_label
 _atom_site_symmetry_multiplicity
 _atom_site_fract_x
 _atom_site_fract_y
 _atom_site_fract_z
 _atom_site_occupancy
  Nd  Nd0  1  0.000806  0.750000  0.712009  1
  Nd  Nd1  1  0.002798  0.250000  0.742711  1
  Nd  Nd2  1  0.499270  0.003313  0.267822  1
  Nd  Nd3  1  0.499270  0.496687  0.267822  1
  Te  Te4  1  0.997525  0.943006  0.000620  1
  Te  Te5  1  0.997525  0.556994  0.000620  1
  Te  Te6  1  0.503113  0.250000  0.000936  1
  Te  Te7  1  0.999610  0.750000  0.368885  1
  Te  Te8  1  0.999903  0.250000  0.375684  1
  Te  Te9  1  0.501375  0.002825  0.627715  1
  Te  Te10  1  0.501375  0.497175  0.627715  1
  Pd  Pd11  1  0.497431  0.750000  0.008386  1
