# generated using pymatgen
data_ErZrReB6
_symmetry_space_group_name_H-M   'P 1'
_cell_length_a   3.60080000
_cell_length_b   9.01904900
_cell_length_c   11.39241900
_cell_angle_alpha   90.00000000
_cell_angle_beta   90.00000000
_cell_angle_gamma   90.00000000
_symmetry_Int_Tables_number   1
_chemical_formula_structural   ErZrReB6
_chemical_formula_sum   'Er4 Zr4 Re4 B24'
_cell_volume   369.97782571
_cell_formula_units_Z   4
loop_
 _symmetry_equiv_pos_site_id
 _symmetry_equiv_pos_as_xyz
  1  'x, y, z'
loop_
 _atom_site_type_symbol
 _atom_site_label
 _atom_site_symmetry_multiplicity
 _atom_site_fract_x
 _atom_site_fract_y
 _atom_site_fract_z
 _atom_site_occupancy
  Er  Er0  1  0.000000  0.322537  0.413788  1
  Er  Er1  1  0.000000  0.677463  0.586212  1
  Er  Er2  1  0.000000  0.822537  0.086212  1
  Er  Er3  1  0.000000  0.177463  0.913788  1
  Zr  Zr4  1  0.000000  0.944702  0.372311  1
  Zr  Zr5  1  0.000000  0.055298  0.627689  1
  Zr  Zr6  1  0.000000  0.444702  0.127689  1
  Zr  Zr7  1  0.000000  0.555298  0.872311  1
  Re  Re8  1  0.000000  0.639733  0.318703  1
  Re  Re9  1  0.000000  0.360267  0.681297  1
  Re  Re10  1  0.000000  0.139733  0.181297  1
  Re  Re11  1  0.000000  0.860267  0.818703  1
  B  B12  1  0.500000  0.553967  0.433774  1
  B  B13  1  0.500000  0.446033  0.566226  1
  B  B14  1  0.500000  0.053967  0.066226  1
  B  B15  1  0.500000  0.946033  0.933774  1
  B  B16  1  0.500000  0.751411  0.418693  1
  B  B17  1  0.500000  0.248589  0.581307  1
  B  B18  1  0.500000  0.251411  0.081307  1
  B  B19  1  0.500000  0.748589  0.918693  1
  B  B20  1  0.500000  0.794305  0.264191  1
  B  B21  1  0.500000  0.205695  0.735809  1
  B  B22  1  0.500000  0.294305  0.235809  1
  B  B23  1  0.500000  0.705695  0.764191  1
  B  B24  1  0.500000  0.630628  0.183556  1
  B  B25  1  0.500000  0.369372  0.816444  1
  B  B26  1  0.500000  0.130628  0.316444  1
  B  B27  1  0.500000  0.869372  0.683556  1
  B  B28  1  0.500000  0.981699  0.212836  1
  B  B29  1  0.500000  0.018301  0.787164  1
  B  B30  1  0.500000  0.481699  0.287164  1
  B  B31  1  0.500000  0.518301  0.712836  1
  B  B32  1  0.500000  0.601167  0.027249  1
  B  B33  1  0.500000  0.398833  0.972751  1
  B  B34  1  0.500000  0.101167  0.472751  1
  B  B35  1  0.500000  0.898833  0.527249  1
