# generated using pymatgen
data_Nb4Zn5Ga3
_symmetry_space_group_name_H-M   'P 1'
_cell_length_a   5.05366411
_cell_length_b   5.05366406
_cell_length_c   8.36103100
_cell_angle_alpha   90.00000000
_cell_angle_beta   90.00000000
_cell_angle_gamma   120.47512646
_symmetry_Int_Tables_number   1
_chemical_formula_structural   Nb4Zn5Ga3
_chemical_formula_sum   'Nb4 Zn5 Ga3'
_cell_volume   184.03650085
_cell_formula_units_Z   1
loop_
 _symmetry_equiv_pos_site_id
 _symmetry_equiv_pos_as_xyz
  1  'x, y, z'
loop_
 _atom_site_type_symbol
 _atom_site_label
 _atom_site_symmetry_multiplicity
 _atom_site_fract_x
 _atom_site_fract_y
 _atom_site_fract_z
 _atom_site_occupancy
  Nb  Nb0  1  0.332001  0.667999  0.433944  1
  Nb  Nb1  1  0.668971  0.331029  0.563918  1
  Nb  Nb2  1  0.668971  0.331029  0.936082  1
  Nb  Nb3  1  0.332001  0.667999  0.066056  1
  Zn  Zn4  1  0.824701  0.660161  0.250000  1
  Zn  Zn5  1  0.339839  0.175299  0.250000  1
  Zn  Zn6  1  0.174510  0.825490  0.750000  1
  Zn  Zn7  1  0.173943  0.344833  0.750000  1
  Zn  Zn8  1  0.655167  0.826057  0.750000  1
  Ga  Ga9  1  0.003228  0.996772  0.503418  1
  Ga  Ga10  1  0.003228  0.996772  0.996582  1
  Ga  Ga11  1  0.823440  0.176560  0.250000  1
