# generated using pymatgen
data_Y6Zn4IrPt12
_symmetry_space_group_name_H-M   'P 1'
_cell_length_a   8.27662825
_cell_length_b   8.26979613
_cell_length_c   8.26979700
_cell_angle_alpha   109.42090008
_cell_angle_beta   109.47964947
_cell_angle_gamma   109.47963753
_symmetry_Int_Tables_number   1
_chemical_formula_structural   Y6Zn4IrPt12
_chemical_formula_sum   'Y6 Zn4 Ir1 Pt12'
_cell_volume   435.91356511
_cell_formula_units_Z   1
loop_
 _symmetry_equiv_pos_site_id
 _symmetry_equiv_pos_as_xyz
  1  'x, y, z'
loop_
 _atom_site_type_symbol
 _atom_site_label
 _atom_site_symmetry_multiplicity
 _atom_site_fract_x
 _atom_site_fract_y
 _atom_site_fract_z
 _atom_site_occupancy
  Y  Y0  1  0.698485  0.700364  0.998135  1
  Y  Y1  1  0.300193  0.999562  0.300622  1
  Y  Y2  1  0.002777  0.303189  0.303189  1
  Y  Y3  1  0.300193  0.300622  0.999562  1
  Y  Y4  1  0.698485  0.998135  0.700364  1
  Y  Y5  1  0.002806  0.699600  0.699600  1
  Zn  Zn6  1  0.001719  0.000859  0.500860  1
  Zn  Zn7  1  0.001719  0.500860  0.000859  1
  Zn  Zn8  1  0.499403  0.996595  0.996595  1
  Zn  Zn9  1  0.499403  0.502808  0.502808  1
  Ir  Ir10  1  0.323105  0.661542  0.661542  1
  Pt  Pt11  1  0.334382  0.335139  0.667321  1
  Pt  Pt12  1  0.667072  0.999997  0.333299  1
  Pt  Pt13  1  0.000769  0.667267  0.333505  1
  Pt  Pt14  1  0.667072  0.333299  0.999997  1
  Pt  Pt15  1  0.334382  0.667321  0.335139  1
  Pt  Pt16  1  0.000769  0.333505  0.667267  1
  Pt  Pt17  1  0.334371  0.667062  0.999245  1
  Pt  Pt18  1  0.334371  0.999245  0.667062  1
  Pt  Pt19  1  0.663659  0.331839  0.331839  1
  Pt  Pt20  1  0.667059  0.667061  0.333759  1
  Pt  Pt21  1  0.667059  0.333759  0.667061  1
  Pt  Pt22  1  0.000745  0.000374  0.000374  1
