# generated using pymatgen
data_Dy11Ho(TcRh)2
_symmetry_space_group_name_H-M   'P 1'
_cell_length_a   6.32290879
_cell_length_b   7.32374815
_cell_length_c   9.25669217
_cell_angle_alpha   90.01653481
_cell_angle_beta   89.94494034
_cell_angle_gamma   89.98420855
_symmetry_Int_Tables_number   1
_chemical_formula_structural   Dy11Ho(TcRh)2
_chemical_formula_sum   'Dy11 Ho1 Tc2 Rh2'
_cell_volume   428.65303624
_cell_formula_units_Z   1
loop_
 _symmetry_equiv_pos_site_id
 _symmetry_equiv_pos_as_xyz
  1  'x, y, z'
loop_
 _atom_site_type_symbol
 _atom_site_label
 _atom_site_symmetry_multiplicity
 _atom_site_fract_x
 _atom_site_fract_y
 _atom_site_fract_z
 _atom_site_occupancy
  Dy  Dy0  1  0.172170  0.178268  0.432308  1
  Dy  Dy1  1  0.665788  0.322436  0.560247  1
  Dy  Dy2  1  0.834137  0.822293  0.939879  1
  Dy  Dy3  1  0.665689  0.322617  0.939903  1
  Dy  Dy4  1  0.834085  0.822324  0.560249  1
  Dy  Dy5  1  0.327894  0.678307  0.432105  1
  Dy  Dy6  1  0.172335  0.178326  0.067610  1
  Dy  Dy7  1  0.870712  0.537610  0.249824  1
  Dy  Dy8  1  0.629275  0.037263  0.249888  1
  Dy  Dy9  1  0.138103  0.459301  0.750150  1
  Dy  Dy10  1  0.362033  0.959041  0.750110  1
  Ho  Ho11  1  0.327944  0.678286  0.067804  1
  Tc  Tc12  1  0.037533  0.886612  0.249844  1
  Tc  Tc13  1  0.462511  0.387033  0.249872  1
  Rh  Rh14  1  0.950391  0.115081  0.749960  1
  Rh  Rh15  1  0.549398  0.615200  0.750247  1
