# generated using pymatgen
data_TbYbAlIr2
_symmetry_space_group_name_H-M   'P 1'
_cell_length_a   5.59740625
_cell_length_b   5.59740489
_cell_length_c   5.59740512
_cell_angle_alpha   137.82756154
_cell_angle_beta   117.41161238
_cell_angle_gamma   78.37488939
_symmetry_Int_Tables_number   1
_chemical_formula_structural   TbYbAlIr2
_chemical_formula_sum   'Tb1 Yb1 Al1 Ir2'
_cell_volume   101.60742870
_cell_formula_units_Z   1
loop_
 _symmetry_equiv_pos_site_id
 _symmetry_equiv_pos_as_xyz
  1  'x, y, z'
loop_
 _atom_site_type_symbol
 _atom_site_label
 _atom_site_symmetry_multiplicity
 _atom_site_fract_x
 _atom_site_fract_y
 _atom_site_fract_z
 _atom_site_occupancy
  Tb  Tb0  1  0.700513  0.200514  0.499999  1
  Yb  Yb1  1  0.297311  0.797312  0.500001  1
  Al  Al2  1  0.000200  0.000200  0.000000  1
  Ir  Ir3  1  0.736073  0.500987  0.235085  1
  Ir  Ir4  1  0.265901  0.500988  0.764915  1
