# generated using pymatgen
data_Yb2Er(BiRh)3
_symmetry_space_group_name_H-M   'P 1'
_cell_length_a   7.53434507
_cell_length_b   7.53434447
_cell_length_c   4.07956700
_cell_angle_alpha   90.00000000
_cell_angle_beta   90.00000000
_cell_angle_gamma   118.55614632
_symmetry_Int_Tables_number   1
_chemical_formula_structural   Yb2Er(BiRh)3
_chemical_formula_sum   'Yb2 Er1 Bi3 Rh3'
_cell_volume   203.40995877
_cell_formula_units_Z   1
loop_
 _symmetry_equiv_pos_site_id
 _symmetry_equiv_pos_as_xyz
  1  'x, y, z'
loop_
 _atom_site_type_symbol
 _atom_site_label
 _atom_site_symmetry_multiplicity
 _atom_site_fract_x
 _atom_site_fract_y
 _atom_site_fract_z
 _atom_site_occupancy
  Yb  Yb0  1  0.600170  0.000934  0.000000  1
  Yb  Yb1  1  0.000934  0.600170  0.000000  1
  Er  Er2  1  0.399797  0.399797  0.000000  1
  Bi  Bi3  1  0.266791  0.994339  0.500000  1
  Bi  Bi4  1  0.994339  0.266791  0.500000  1
  Bi  Bi5  1  0.740375  0.740375  0.500000  1
  Rh  Rh6  1  0.335604  0.650226  0.500000  1
  Rh  Rh7  1  0.650226  0.335604  0.500000  1
  Rh  Rh8  1  0.011765  0.011765  0.000000  1
