# generated using pymatgen
data_HfMn2Rh3
_symmetry_space_group_name_H-M   'P 1'
_cell_length_a   7.64869700
_cell_length_b   7.64869733
_cell_length_c   5.43304300
_cell_angle_alpha   90.00000000
_cell_angle_beta   90.00000000
_cell_angle_gamma   120.00000290
_symmetry_Int_Tables_number   1
_chemical_formula_structural   HfMn2Rh3
_chemical_formula_sum   'Hf3 Mn6 Rh9'
_cell_volume   275.26354189
_cell_formula_units_Z   3
loop_
 _symmetry_equiv_pos_site_id
 _symmetry_equiv_pos_as_xyz
  1  'x, y, z'
loop_
 _atom_site_type_symbol
 _atom_site_label
 _atom_site_symmetry_multiplicity
 _atom_site_fract_x
 _atom_site_fract_y
 _atom_site_fract_z
 _atom_site_occupancy
  Hf  Hf0  1  0.333781  0.000000  0.891993  1
  Hf  Hf1  1  0.000000  0.333781  0.891993  1
  Hf  Hf2  1  0.666219  0.666219  0.891993  1
  Mn  Mn3  1  0.667160  0.000000  0.231991  1
  Mn  Mn4  1  0.332839  0.332840  0.231991  1
  Mn  Mn5  1  0.000000  0.667160  0.231991  1
  Mn  Mn6  1  0.000000  0.000000  0.551699  1
  Mn  Mn7  1  0.666666  0.333333  0.552617  1
  Mn  Mn8  1  0.333334  0.666667  0.552617  1
  Rh  Rh9  1  0.000000  0.000000  0.064356  1
  Rh  Rh10  1  0.666666  0.333333  0.065424  1
  Rh  Rh11  1  0.333334  0.666667  0.065424  1
  Rh  Rh12  1  0.333634  0.000000  0.391979  1
  Rh  Rh13  1  0.000000  0.333634  0.391979  1
  Rh  Rh14  1  0.666367  0.666366  0.391979  1
  Rh  Rh15  1  0.667003  0.000000  0.719277  1
  Rh  Rh16  1  0.332998  0.332998  0.719277  1
  Rh  Rh17  1  0.000000  0.667002  0.719277  1
