# generated using pymatgen
data_Ce7Th3(SiPb3)2
_symmetry_space_group_name_H-M   'P 1'
_cell_length_a   9.71955000
_cell_length_b   9.71577542
_cell_length_c   6.52701600
_cell_angle_alpha   90.00000000
_cell_angle_beta   90.00000000
_cell_angle_gamma   120.01284550
_symmetry_Int_Tables_number   1
_chemical_formula_structural   Ce7Th3(SiPb3)2
_chemical_formula_sum   'Ce7 Th3 Si2 Pb6'
_cell_volume   533.71905116
_cell_formula_units_Z   1
loop_
 _symmetry_equiv_pos_site_id
 _symmetry_equiv_pos_as_xyz
  1  'x, y, z'
loop_
 _atom_site_type_symbol
 _atom_site_label
 _atom_site_symmetry_multiplicity
 _atom_site_fract_x
 _atom_site_fract_y
 _atom_site_fract_z
 _atom_site_occupancy
  Ce  Ce0  1  0.000739  0.250956  0.250000  1
  Ce  Ce1  1  0.749783  0.749044  0.250000  1
  Ce  Ce2  1  0.748773  0.000000  0.750000  1
  Ce  Ce3  1  0.333407  0.666762  0.999297  1
  Ce  Ce4  1  0.666644  0.333238  0.500703  1
  Ce  Ce5  1  0.666644  0.333238  0.999297  1
  Ce  Ce6  1  0.333407  0.666762  0.500703  1
  Th  Th7  1  0.249829  0.000000  0.250000  1
  Th  Th8  1  0.251519  0.250338  0.750000  1
  Th  Th9  1  0.001181  0.749662  0.750000  1
  Si  Si10  1  0.996636  0.000000  0.000424  1
  Si  Si11  1  0.996636  0.000000  0.499576  1
  Pb  Pb12  1  0.613792  0.000000  0.250000  1
  Pb  Pb13  1  0.611925  0.612632  0.750000  1
  Pb  Pb14  1  0.999293  0.387368  0.750000  1
  Pb  Pb15  1  0.998963  0.609658  0.250000  1
  Pb  Pb16  1  0.389305  0.390342  0.250000  1
  Pb  Pb17  1  0.391526  0.000000  0.750000  1
