# generated using pymatgen
data_YLu3Ni2C5
_symmetry_space_group_name_H-M   'P 1'
_cell_length_a   3.54622800
_cell_length_b   3.66527700
_cell_length_c   11.46128800
_cell_angle_alpha   90.00000000
_cell_angle_beta   90.00000000
_cell_angle_gamma   90.00000000
_symmetry_Int_Tables_number   1
_chemical_formula_structural   YLu3Ni2C5
_chemical_formula_sum   'Y1 Lu3 Ni2 C5'
_cell_volume   148.97276613
_cell_formula_units_Z   1
loop_
 _symmetry_equiv_pos_site_id
 _symmetry_equiv_pos_as_xyz
  1  'x, y, z'
loop_
 _atom_site_type_symbol
 _atom_site_label
 _atom_site_symmetry_multiplicity
 _atom_site_fract_x
 _atom_site_fract_y
 _atom_site_fract_z
 _atom_site_occupancy
  Y  Y0  1  0.000000  0.998557  0.000000  1
  Lu  Lu1  1  0.500000  0.501620  0.203283  1
  Lu  Lu2  1  0.500000  0.501620  0.796717  1
  Lu  Lu3  1  0.500000  0.210551  0.500000  1
  Ni  Ni4  1  0.000000  0.698267  0.385001  1
  Ni  Ni5  1  0.000000  0.698267  0.614999  1
  C  C6  1  0.000000  0.999487  0.229292  1
  C  C7  1  0.000000  0.999487  0.770708  1
  C  C8  1  0.000000  0.200079  0.332793  1
  C  C9  1  0.000000  0.200079  0.667207  1
  C  C10  1  0.500000  0.493487  0.000000  1
