# generated using pymatgen
data_TbYb2Lu(Rh2O7)2
_symmetry_space_group_name_H-M   'P 1'
_cell_length_a   7.17525080
_cell_length_b   7.20093549
_cell_length_c   7.20093383
_cell_angle_alpha   60.03241738
_cell_angle_beta   59.96127711
_cell_angle_gamma   59.96127123
_symmetry_Int_Tables_number   1
_chemical_formula_structural   TbYb2Lu(Rh2O7)2
_chemical_formula_sum   'Tb1 Yb2 Lu1 Rh4 O14'
_cell_volume   262.99744640
_cell_formula_units_Z   1
loop_
 _symmetry_equiv_pos_site_id
 _symmetry_equiv_pos_as_xyz
  1  'x, y, z'
loop_
 _atom_site_type_symbol
 _atom_site_label
 _atom_site_symmetry_multiplicity
 _atom_site_fract_x
 _atom_site_fract_y
 _atom_site_fract_z
 _atom_site_occupancy
  Tb  Tb0  1  0.625000  0.625000  0.625000  1
  Yb  Yb1  1  0.625000  0.625000  0.125000  1
  Yb  Yb2  1  0.625000  0.125000  0.625000  1
  Lu  Lu3  1  0.125000  0.625000  0.625000  1
  Rh  Rh4  1  0.125000  0.125000  0.125000  1
  Rh  Rh5  1  0.625000  0.125000  0.125000  1
  Rh  Rh6  1  0.125000  0.125000  0.625000  1
  Rh  Rh7  1  0.125000  0.625000  0.125000  1
  O  O8  1  0.046978  0.458291  0.458291  1
  O  O9  1  0.793341  0.792146  0.210013  1
  O  O10  1  0.794871  0.205456  0.205456  1
  O  O11  1  0.456659  0.039987  0.457854  1
  O  O12  1  0.761641  0.744070  0.744070  1
  O  O13  1  0.052990  0.456825  0.034027  1
  O  O14  1  0.052990  0.034027  0.456825  1
  O  O15  1  0.197010  0.793175  0.215973  1
  O  O16  1  0.197010  0.215973  0.793175  1
  O  O17  1  0.793341  0.210013  0.792146  1
  O  O18  1  0.488359  0.505930  0.505930  1
  O  O19  1  0.455129  0.044544  0.044544  1
  O  O20  1  0.456659  0.457854  0.039987  1
  O  O21  1  0.203022  0.791709  0.791709  1
