# generated using pymatgen
data_La2HoNiSn3Pt2
_symmetry_space_group_name_H-M   'P 1'
_cell_length_a   7.65641309
_cell_length_b   7.65441712
_cell_length_c   4.05384100
_cell_angle_alpha   90.00000000
_cell_angle_beta   90.00000000
_cell_angle_gamma   119.99136683
_symmetry_Int_Tables_number   1
_chemical_formula_structural   La2HoNiSn3Pt2
_chemical_formula_sum   'La2 Ho1 Ni1 Sn3 Pt2'
_cell_volume   205.76551834
_cell_formula_units_Z   1
loop_
 _symmetry_equiv_pos_site_id
 _symmetry_equiv_pos_as_xyz
  1  'x, y, z'
loop_
 _atom_site_type_symbol
 _atom_site_label
 _atom_site_symmetry_multiplicity
 _atom_site_fract_x
 _atom_site_fract_y
 _atom_site_fract_z
 _atom_site_occupancy
  La  La0  1  0.411983  0.411943  0.500000  1
  La  La1  1  0.588017  0.999960  0.500000  1
  Ho  Ho2  1  0.000000  0.593709  0.500000  1
  Ni  Ni3  1  0.000000  0.992461  0.500000  1
  Sn  Sn4  1  0.762093  0.757098  0.000000  1
  Sn  Sn5  1  0.237907  0.995005  0.000000  1
  Sn  Sn6  1  0.000000  0.243480  0.000000  1
  Pt  Pt7  1  0.680985  0.343664  0.000000  1
  Pt  Pt8  1  0.319015  0.662680  0.000000  1
