# generated using pymatgen
data_Tb5Ho(Si2Ni)2
_symmetry_space_group_name_H-M   'P 1'
_cell_length_a   4.13333000
_cell_length_b   11.28283700
_cell_length_c   11.32244100
_cell_angle_alpha   90.00000000
_cell_angle_beta   90.00000000
_cell_angle_gamma   90.00000000
_symmetry_Int_Tables_number   1
_chemical_formula_structural   Tb5Ho(Si2Ni)2
_chemical_formula_sum   'Tb10 Ho2 Si8 Ni4'
_cell_volume   528.02983332
_cell_formula_units_Z   2
loop_
 _symmetry_equiv_pos_site_id
 _symmetry_equiv_pos_as_xyz
  1  'x, y, z'
loop_
 _atom_site_type_symbol
 _atom_site_label
 _atom_site_symmetry_multiplicity
 _atom_site_fract_x
 _atom_site_fract_y
 _atom_site_fract_z
 _atom_site_occupancy
  Tb  Tb0  1  0.750000  0.940524  0.117460  1
  Tb  Tb1  1  0.750000  0.559476  0.617460  1
  Tb  Tb2  1  0.250000  0.125495  0.558157  1
  Tb  Tb3  1  0.250000  0.374505  0.058157  1
  Tb  Tb4  1  0.750000  0.875365  0.442132  1
  Tb  Tb5  1  0.750000  0.624635  0.942132  1
  Tb  Tb6  1  0.250000  0.804641  0.714105  1
  Tb  Tb7  1  0.250000  0.695359  0.214105  1
  Tb  Tb8  1  0.750000  0.196375  0.285402  1
  Tb  Tb9  1  0.750000  0.303625  0.785402  1
  Ho  Ho10  1  0.250000  0.058606  0.883138  1
  Ho  Ho11  1  0.250000  0.441394  0.383138  1
  Si  Si12  1  0.250000  0.813751  0.974513  1
  Si  Si13  1  0.250000  0.686249  0.474513  1
  Si  Si14  1  0.750000  0.185733  0.024376  1
  Si  Si15  1  0.750000  0.314267  0.524376  1
  Si  Si16  1  0.250000  0.494857  0.803458  1
  Si  Si17  1  0.250000  0.005143  0.303458  1
  Si  Si18  1  0.750000  0.503784  0.197918  1
  Si  Si19  1  0.750000  0.996216  0.697918  1
  Ni  Ni20  1  0.250000  0.366999  0.629210  1
  Ni  Ni21  1  0.250000  0.133001  0.129210  1
  Ni  Ni22  1  0.750000  0.633515  0.370131  1
  Ni  Ni23  1  0.750000  0.866485  0.870131  1
