# generated using pymatgen
data_La3Pr2In3
_symmetry_space_group_name_H-M   'P 1'
_cell_length_a   6.23314477
_cell_length_b   9.61469564
_cell_length_c   9.65908135
_cell_angle_alpha   84.07516701
_cell_angle_beta   71.17630553
_cell_angle_gamma   71.08610953
_symmetry_Int_Tables_number   1
_chemical_formula_structural   La3Pr2In3
_chemical_formula_sum   'La6 Pr4 In6'
_cell_volume   518.32272589
_cell_formula_units_Z   2
loop_
 _symmetry_equiv_pos_site_id
 _symmetry_equiv_pos_as_xyz
  1  'x, y, z'
loop_
 _atom_site_type_symbol
 _atom_site_label
 _atom_site_symmetry_multiplicity
 _atom_site_fract_x
 _atom_site_fract_y
 _atom_site_fract_z
 _atom_site_occupancy
  La  La0  1  0.721060  0.866612  0.691269  1
  La  La1  1  0.278940  0.133388  0.308731  1
  La  La2  1  0.778524  0.309742  0.133210  1
  La  La3  1  0.221476  0.690258  0.866790  1
  La  La4  1  0.585677  0.692145  0.136502  1
  La  La5  1  0.414323  0.307855  0.863498  1
  Pr  Pr6  1  0.084388  0.132524  0.698700  1
  Pr  Pr7  1  0.915612  0.867476  0.301300  1
  Pr  Pr8  1  0.750097  0.500000  0.500000  1
  Pr  Pr9  1  0.249903  0.500000  0.500000  1
  In  In10  1  0.159340  0.500067  0.181254  1
  In  In11  1  0.840660  0.499933  0.818746  1
  In  In12  1  0.338812  0.821528  0.500848  1
  In  In13  1  0.661188  0.178472  0.499152  1
  In  In14  1  0.250207  0.000000  0.000000  1
  In  In15  1  0.749793  0.000000  0.000000  1
