# generated using pymatgen
data_YInNi3Pt
_symmetry_space_group_name_H-M   'P 1'
_cell_length_a   5.19181002
_cell_length_b   5.19180903
_cell_length_c   5.19181000
_cell_angle_alpha   57.86070017
_cell_angle_beta   57.86070701
_cell_angle_gamma   57.86070257
_symmetry_Int_Tables_number   1
_chemical_formula_structural   YInNi3Pt
_chemical_formula_sum   'Y1 In1 Ni3 Pt1'
_cell_volume   94.09612325
_cell_formula_units_Z   1
loop_
 _symmetry_equiv_pos_site_id
 _symmetry_equiv_pos_as_xyz
  1  'x, y, z'
loop_
 _atom_site_type_symbol
 _atom_site_label
 _atom_site_symmetry_multiplicity
 _atom_site_fract_x
 _atom_site_fract_y
 _atom_site_fract_z
 _atom_site_occupancy
  Y  Y0  1  0.003106  0.003106  0.003106  1
  In  In1  1  0.244336  0.244336  0.244336  1
  Ni  Ni2  1  0.625141  0.625141  0.127656  1
  Ni  Ni3  1  0.625141  0.127656  0.625141  1
  Ni  Ni4  1  0.127656  0.625141  0.625141  1
  Pt  Pt5  1  0.624620  0.624620  0.624620  1
