# generated using pymatgen
data_Tb3Nd17(SnSb)8
_symmetry_space_group_name_H-M   'P 1'
_cell_length_a   8.33064262
_cell_length_b   8.39771568
_cell_length_c   15.92724600
_cell_angle_alpha   90.00000000
_cell_angle_beta   90.00000000
_cell_angle_gamma   89.92806182
_symmetry_Int_Tables_number   1
_chemical_formula_structural   Tb3Nd17(SnSb)8
_chemical_formula_sum   'Tb3 Nd17 Sn8 Sb8'
_cell_volume   1114.24326066
_cell_formula_units_Z   1
loop_
 _symmetry_equiv_pos_site_id
 _symmetry_equiv_pos_as_xyz
  1  'x, y, z'
loop_
 _atom_site_type_symbol
 _atom_site_label
 _atom_site_symmetry_multiplicity
 _atom_site_fract_x
 _atom_site_fract_y
 _atom_site_fract_z
 _atom_site_occupancy
  Tb  Tb0  1  0.724743  0.002770  0.750000  1
  Tb  Tb1  1  0.775525  0.501893  0.250000  1
  Tb  Tb2  1  0.275638  0.997180  0.250000  1
  Nd  Nd3  1  0.397128  0.835985  0.884033  1
  Nd  Nd4  1  0.896363  0.664357  0.616810  1
  Nd  Nd5  1  0.604331  0.162893  0.383780  1
  Nd  Nd6  1  0.103535  0.335630  0.117683  1
  Nd  Nd7  1  0.604331  0.162893  0.116220  1
  Nd  Nd8  1  0.103535  0.335630  0.382317  1
  Nd  Nd9  1  0.397128  0.835985  0.615967  1
  Nd  Nd10  1  0.896363  0.664357  0.883190  1
  Nd  Nd11  1  0.555709  0.330104  0.891493  1
  Nd  Nd12  1  0.056921  0.171462  0.608325  1
  Nd  Nd13  1  0.442477  0.669033  0.390203  1
  Nd  Nd14  1  0.943371  0.829476  0.107854  1
  Nd  Nd15  1  0.442477  0.669033  0.109797  1
  Nd  Nd16  1  0.943371  0.829476  0.392146  1
  Nd  Nd17  1  0.555709  0.330104  0.608507  1
  Nd  Nd18  1  0.056921  0.171462  0.891675  1
  Nd  Nd19  1  0.223551  0.497286  0.750000  1
  Sn  Sn20  1  0.594929  0.628338  0.750000  1
  Sn  Sn21  1  0.092853  0.875211  0.750000  1
  Sn  Sn22  1  0.408126  0.370990  0.250000  1
  Sn  Sn23  1  0.906520  0.126052  0.250000  1
  Sn  Sn24  1  0.358958  0.134236  0.750000  1
  Sn  Sn25  1  0.855221  0.362102  0.750000  1
  Sn  Sn26  1  0.642452  0.862231  0.250000  1
  Sn  Sn27  1  0.140309  0.638368  0.250000  1
  Sb  Sb28  1  0.265381  0.013113  0.050230  1
  Sb  Sb29  1  0.765031  0.486395  0.450292  1
  Sb  Sb30  1  0.735440  0.987831  0.550266  1
  Sb  Sb31  1  0.234899  0.515393  0.953200  1
  Sb  Sb32  1  0.735440  0.987831  0.949734  1
  Sb  Sb33  1  0.234899  0.515393  0.546800  1
  Sb  Sb34  1  0.265381  0.013113  0.449770  1
  Sb  Sb35  1  0.765031  0.486395  0.049708  1
