# generated using pymatgen
data_Tm5Sb2Os
_symmetry_space_group_name_H-M   'P 1'
_cell_length_a   7.74112800
_cell_length_b   8.86870200
_cell_length_c   12.10931800
_cell_angle_alpha   90.00000000
_cell_angle_beta   90.00000000
_cell_angle_gamma   90.00000000
_symmetry_Int_Tables_number   1
_chemical_formula_structural   Tm5Sb2Os
_chemical_formula_sum   'Tm20 Sb8 Os4'
_cell_volume   831.35017996
_cell_formula_units_Z   4
loop_
 _symmetry_equiv_pos_site_id
 _symmetry_equiv_pos_as_xyz
  1  'x, y, z'
loop_
 _atom_site_type_symbol
 _atom_site_label
 _atom_site_symmetry_multiplicity
 _atom_site_fract_x
 _atom_site_fract_y
 _atom_site_fract_z
 _atom_site_occupancy
  Tm  Tm0  1  0.323862  0.541855  0.434503  1
  Tm  Tm1  1  0.873335  0.250000  0.803760  1
  Tm  Tm2  1  0.176138  0.541855  0.934503  1
  Tm  Tm3  1  0.323862  0.958145  0.434503  1
  Tm  Tm4  1  0.126665  0.750000  0.196240  1
  Tm  Tm5  1  0.837541  0.750000  0.787076  1
  Tm  Tm6  1  0.373335  0.750000  0.696240  1
  Tm  Tm7  1  0.946073  0.750000  0.503526  1
  Tm  Tm8  1  0.446073  0.250000  0.996474  1
  Tm  Tm9  1  0.676138  0.458145  0.565497  1
  Tm  Tm10  1  0.823862  0.041855  0.065497  1
  Tm  Tm11  1  0.662459  0.750000  0.287076  1
  Tm  Tm12  1  0.553927  0.750000  0.003526  1
  Tm  Tm13  1  0.053927  0.250000  0.496474  1
  Tm  Tm14  1  0.676138  0.041855  0.565497  1
  Tm  Tm15  1  0.176138  0.958145  0.934503  1
  Tm  Tm16  1  0.626665  0.250000  0.303760  1
  Tm  Tm17  1  0.337541  0.250000  0.712924  1
  Tm  Tm18  1  0.823862  0.458145  0.065497  1
  Tm  Tm19  1  0.162459  0.250000  0.212924  1
  Sb  Sb20  1  0.931852  0.492363  0.329384  1
  Sb  Sb21  1  0.431852  0.507637  0.170616  1
  Sb  Sb22  1  0.431852  0.992363  0.170616  1
  Sb  Sb23  1  0.568148  0.492363  0.829384  1
  Sb  Sb24  1  0.068148  0.507637  0.670616  1
  Sb  Sb25  1  0.568148  0.007637  0.829384  1
  Sb  Sb26  1  0.931852  0.007637  0.329384  1
  Sb  Sb27  1  0.068148  0.992363  0.670616  1
  Os  Os28  1  0.924067  0.750000  0.010821  1
  Os  Os29  1  0.575933  0.750000  0.510821  1
  Os  Os30  1  0.075933  0.250000  0.989179  1
  Os  Os31  1  0.424067  0.250000  0.489179  1
