# generated using pymatgen
data_Ca2Cd2RuRh3O14
_symmetry_space_group_name_H-M   'P 1'
_cell_length_a   7.23317033
_cell_length_b   7.23316899
_cell_length_c   7.34145814
_cell_angle_alpha   59.89926553
_cell_angle_beta   59.89926950
_cell_angle_gamma   59.40644811
_symmetry_Int_Tables_number   1
_chemical_formula_structural   Ca2Cd2RuRh3O14
_chemical_formula_sum   'Ca2 Cd2 Ru1 Rh3 O14'
_cell_volume   269.94886768
_cell_formula_units_Z   1
loop_
 _symmetry_equiv_pos_site_id
 _symmetry_equiv_pos_as_xyz
  1  'x, y, z'
loop_
 _atom_site_type_symbol
 _atom_site_label
 _atom_site_symmetry_multiplicity
 _atom_site_fract_x
 _atom_site_fract_y
 _atom_site_fract_z
 _atom_site_occupancy
  Ca  Ca0  1  0.625000  0.625000  0.125000  1
  Ca  Ca1  1  0.625000  0.625000  0.625000  1
  Cd  Cd2  1  0.625000  0.125000  0.625000  1
  Cd  Cd3  1  0.125000  0.625000  0.625000  1
  Ru  Ru4  1  0.125000  0.125000  0.625000  1
  Rh  Rh5  1  0.625000  0.125000  0.125000  1
  Rh  Rh6  1  0.125000  0.625000  0.125000  1
  Rh  Rh7  1  0.125000  0.125000  0.125000  1
  O  O8  1  0.191327  0.191327  0.804431  1
  O  O9  1  0.197702  0.797707  0.204894  1
  O  O10  1  0.452293  0.052298  0.045106  1
  O  O11  1  0.194751  0.808769  0.802256  1
  O  O12  1  0.055249  0.441231  0.447744  1
  O  O13  1  0.793707  0.793707  0.212103  1
  O  O14  1  0.456293  0.456293  0.037897  1
  O  O15  1  0.488732  0.488732  0.512396  1
  O  O16  1  0.058673  0.058673  0.445569  1
  O  O17  1  0.441231  0.055249  0.447744  1
  O  O18  1  0.052298  0.452293  0.045106  1
  O  O19  1  0.761268  0.761268  0.737604  1
  O  O20  1  0.808769  0.194751  0.802256  1
  O  O21  1  0.797707  0.197702  0.204894  1
