# generated using pymatgen
data_Er6Al24FeCoRu6
_symmetry_space_group_name_H-M   'P 1'
_cell_length_a   8.74260400
_cell_length_b   8.74260559
_cell_length_c   9.49684500
_cell_angle_alpha   90.00000000
_cell_angle_beta   90.00000000
_cell_angle_gamma   119.99999397
_symmetry_Int_Tables_number   1
_chemical_formula_structural   Er6Al24FeCoRu6
_chemical_formula_sum   'Er6 Al24 Fe1 Co1 Ru6'
_cell_volume   628.62507681
_cell_formula_units_Z   1
loop_
 _symmetry_equiv_pos_site_id
 _symmetry_equiv_pos_as_xyz
  1  'x, y, z'
loop_
 _atom_site_type_symbol
 _atom_site_label
 _atom_site_symmetry_multiplicity
 _atom_site_fract_x
 _atom_site_fract_y
 _atom_site_fract_z
 _atom_site_occupancy
  Er  Er0  1  0.193966  0.387933  0.249982  1
  Er  Er1  1  0.806034  0.612067  0.750018  1
  Er  Er2  1  0.612067  0.806034  0.249982  1
  Er  Er3  1  0.387933  0.193966  0.750018  1
  Er  Er4  1  0.193966  0.806034  0.249982  1
  Er  Er5  1  0.806034  0.193966  0.750018  1
  Al  Al6  1  0.333333  0.666667  0.016677  1
  Al  Al7  1  0.666667  0.333333  0.983323  1
  Al  Al8  1  0.666667  0.333333  0.516607  1
  Al  Al9  1  0.333333  0.666667  0.483393  1
  Al  Al10  1  0.159698  0.319395  0.576757  1
  Al  Al11  1  0.840302  0.680605  0.423243  1
  Al  Al12  1  0.680605  0.840302  0.576757  1
  Al  Al13  1  0.840773  0.681547  0.076600  1
  Al  Al14  1  0.319395  0.159698  0.423243  1
  Al  Al15  1  0.159227  0.318453  0.923400  1
  Al  Al16  1  0.159698  0.840302  0.576757  1
  Al  Al17  1  0.318453  0.159227  0.076600  1
  Al  Al18  1  0.840302  0.159698  0.423243  1
  Al  Al19  1  0.681547  0.840773  0.923400  1
  Al  Al20  1  0.840773  0.159227  0.076600  1
  Al  Al21  1  0.159227  0.840773  0.923400  1
  Al  Al22  1  0.561140  0.122281  0.250032  1
  Al  Al23  1  0.438860  0.877719  0.749968  1
  Al  Al24  1  0.877719  0.438860  0.250032  1
  Al  Al25  1  0.122281  0.561140  0.749968  1
  Al  Al26  1  0.561140  0.438860  0.250032  1
  Al  Al27  1  0.438860  0.561140  0.749968  1
  Al  Al28  1  0.000000  0.000000  0.250045  1
  Al  Al29  1  0.000000  0.000000  0.749955  1
  Fe  Fe30  1  0.000000  0.000000  0.000000  1
  Co  Co31  1  0.000000  0.000000  0.500000  1
  Ru  Ru32  1  0.500000  0.000000  0.000000  1
  Ru  Ru33  1  0.000000  0.500000  0.000000  1
  Ru  Ru34  1  0.500000  0.000000  0.500000  1
  Ru  Ru35  1  0.500000  0.500000  0.000000  1
  Ru  Ru36  1  0.000000  0.500000  0.500000  1
  Ru  Ru37  1  0.500000  0.500000  0.500000  1
