# generated using pymatgen
data_Ac12CoNi5Sn
_symmetry_space_group_name_H-M   'P 1'
_cell_length_a   9.21722793
_cell_length_b   9.21722927
_cell_length_c   9.21722842
_cell_angle_alpha   109.25239068
_cell_angle_beta   109.61689219
_cell_angle_gamma   109.54461706
_symmetry_Int_Tables_number   1
_chemical_formula_structural   Ac12CoNi5Sn
_chemical_formula_sum   'Ac12 Co1 Ni5 Sn1'
_cell_volume   602.80133865
_cell_formula_units_Z   1
loop_
 _symmetry_equiv_pos_site_id
 _symmetry_equiv_pos_as_xyz
  1  'x, y, z'
loop_
 _atom_site_type_symbol
 _atom_site_label
 _atom_site_symmetry_multiplicity
 _atom_site_fract_x
 _atom_site_fract_y
 _atom_site_fract_z
 _atom_site_occupancy
  Ac  Ac0  1  0.308928  0.492149  0.180688  1
  Ac  Ac1  1  0.816374  0.690747  0.507121  1
  Ac  Ac2  1  0.126208  0.817050  0.309160  1
  Ac  Ac3  1  0.816374  0.309253  0.125626  1
  Ac  Ac4  1  0.873618  0.182956  0.690661  1
  Ac  Ac5  1  0.187928  0.312917  0.500843  1
  Ac  Ac6  1  0.492109  0.182950  0.309160  1
  Ac  Ac7  1  0.507706  0.817044  0.690661  1
  Ac  Ac8  1  0.187928  0.687083  0.875012  1
  Ac  Ac9  1  0.308928  0.128239  0.816778  1
  Ac  Ac10  1  0.688538  0.871761  0.180688  1
  Ac  Ac11  1  0.688538  0.507851  0.816778  1
  Co  Co12  1  0.381684  0.500000  0.881684  1
  Ni  Ni13  1  0.616655  0.500000  0.116655  1
  Ni  Ni14  1  0.116349  0.617246  0.499104  1
  Ni  Ni15  1  0.500246  0.882889  0.383135  1
  Ni  Ni16  1  0.881858  0.382754  0.499104  1
  Ni  Ni17  1  0.500246  0.117111  0.617357  1
  Sn  Sn18  1  0.999785  0.000000  0.999785  1
