# generated using pymatgen
data_TbTmP7Ru12
_symmetry_space_group_name_H-M   'P 1'
_cell_length_a   9.40622000
_cell_length_b   9.40621959
_cell_length_c   3.95391700
_cell_angle_alpha   90.00000000
_cell_angle_beta   90.00000000
_cell_angle_gamma   120.00000144
_symmetry_Int_Tables_number   1
_chemical_formula_structural   TbTmP7Ru12
_chemical_formula_sum   'Tb1 Tm1 P7 Ru12'
_cell_volume   302.96218142
_cell_formula_units_Z   1
loop_
 _symmetry_equiv_pos_site_id
 _symmetry_equiv_pos_as_xyz
  1  'x, y, z'
loop_
 _atom_site_type_symbol
 _atom_site_label
 _atom_site_symmetry_multiplicity
 _atom_site_fract_x
 _atom_site_fract_y
 _atom_site_fract_z
 _atom_site_occupancy
  Tb  Tb0  1  0.333333  0.666667  0.000000  1
  Tm  Tm1  1  0.666667  0.333333  0.500000  1
  P  P2  1  0.601168  0.718711  0.500000  1
  P  P3  1  0.000000  0.000000  0.000000  1
  P  P4  1  0.281289  0.882458  0.500000  1
  P  P5  1  0.117542  0.398832  0.500000  1
  P  P6  1  0.884773  0.572867  0.000000  1
  P  P7  1  0.427133  0.311906  0.000000  1
  P  P8  1  0.688094  0.115227  0.000000  1
  Ru  Ru9  1  0.557023  0.951311  0.500000  1
  Ru  Ru10  1  0.394290  0.442977  0.500000  1
  Ru  Ru11  1  0.914659  0.121435  0.500000  1
  Ru  Ru12  1  0.206776  0.085341  0.500000  1
  Ru  Ru13  1  0.878565  0.793224  0.500000  1
  Ru  Ru14  1  0.727688  0.892273  0.000000  1
  Ru  Ru15  1  0.107727  0.835414  0.000000  1
  Ru  Ru16  1  0.164586  0.272312  0.000000  1
  Ru  Ru17  1  0.423906  0.067641  0.000000  1
  Ru  Ru18  1  0.932359  0.356267  0.000000  1
  Ru  Ru19  1  0.643733  0.576094  0.000000  1
  Ru  Ru20  1  0.048689  0.605710  0.500000  1
