# generated using pymatgen
data_LiMn3(SiTc)6
_symmetry_space_group_name_H-M   'P 1'
_cell_length_a   6.97437700
_cell_length_b   6.97437755
_cell_length_c   4.77764400
_cell_angle_alpha   90.00000000
_cell_angle_beta   90.00000000
_cell_angle_gamma   120.00000215
_symmetry_Int_Tables_number   1
_chemical_formula_structural   LiMn3(SiTc)6
_chemical_formula_sum   'Li1 Mn3 Si6 Tc6'
_cell_volume   201.25898633
_cell_formula_units_Z   1
loop_
 _symmetry_equiv_pos_site_id
 _symmetry_equiv_pos_as_xyz
  1  'x, y, z'
loop_
 _atom_site_type_symbol
 _atom_site_label
 _atom_site_symmetry_multiplicity
 _atom_site_fract_x
 _atom_site_fract_y
 _atom_site_fract_z
 _atom_site_occupancy
  Li  Li0  1  0.333333  0.666667  0.500000  1
  Mn  Mn1  1  0.666667  0.333333  0.000000  1
  Mn  Mn2  1  0.666667  0.333333  0.500000  1
  Mn  Mn3  1  0.333333  0.666667  0.000000  1
  Si  Si4  1  0.400366  0.996997  0.758429  1
  Si  Si5  1  0.400366  0.403369  0.241571  1
  Si  Si6  1  0.003003  0.599634  0.241571  1
  Si  Si7  1  0.003003  0.403369  0.758429  1
  Si  Si8  1  0.596631  0.599634  0.758429  1
  Si  Si9  1  0.596631  0.996997  0.241571  1
  Tc  Tc10  1  0.999128  0.756289  0.745017  1
  Tc  Tc11  1  0.999128  0.242839  0.254983  1
  Tc  Tc12  1  0.757161  0.756289  0.254983  1
  Tc  Tc13  1  0.757161  0.000872  0.745017  1
  Tc  Tc14  1  0.243711  0.242839  0.745017  1
  Tc  Tc15  1  0.243711  0.000872  0.254983  1
