# generated using pymatgen
data_NaP12Ir3Ru
_symmetry_space_group_name_H-M   'P 1'
_cell_length_a   7.03140125
_cell_length_b   7.03140278
_cell_length_c   7.03140200
_cell_angle_alpha   109.52689942
_cell_angle_beta   109.52692114
_cell_angle_gamma   109.52691021
_symmetry_Int_Tables_number   1
_chemical_formula_structural   NaP12Ir3Ru
_chemical_formula_sum   'Na1 P12 Ir3 Ru1'
_cell_volume   267.05776022
_cell_formula_units_Z   1
loop_
 _symmetry_equiv_pos_site_id
 _symmetry_equiv_pos_as_xyz
  1  'x, y, z'
loop_
 _atom_site_type_symbol
 _atom_site_label
 _atom_site_symmetry_multiplicity
 _atom_site_fract_x
 _atom_site_fract_y
 _atom_site_fract_z
 _atom_site_occupancy
  Na  Na0  1  0.000000  0.000000  0.000000  1
  P  P1  1  0.139848  0.783269  0.642856  1
  P  P2  1  0.143413  0.496580  0.357716  1
  P  P3  1  0.856587  0.503420  0.642284  1
  P  P4  1  0.357716  0.143413  0.496580  1
  P  P5  1  0.783269  0.642856  0.139848  1
  P  P6  1  0.860152  0.216731  0.357144  1
  P  P7  1  0.642856  0.139848  0.783269  1
  P  P8  1  0.503420  0.642284  0.856587  1
  P  P9  1  0.642284  0.856587  0.503420  1
  P  P10  1  0.496580  0.357716  0.143413  1
  P  P11  1  0.357144  0.860152  0.216731  1
  P  P12  1  0.216731  0.357144  0.860152  1
  Ir  Ir13  1  0.500000  0.000000  0.000000  1
  Ir  Ir14  1  0.000000  0.500000  0.000000  1
  Ir  Ir15  1  0.000000  0.000000  0.500000  1
  Ru  Ru16  1  0.500000  0.500000  0.500000  1
