# generated using pymatgen
data_CaTbY2Tm4(B6Os)4
_symmetry_space_group_name_H-M   'P 1'
_cell_length_a   3.63553300
_cell_length_b   9.11938105
_cell_length_c   11.51872109
_cell_angle_alpha   89.93119645
_cell_angle_beta   90.00000000
_cell_angle_gamma   90.00000000
_symmetry_Int_Tables_number   1
_chemical_formula_structural   CaTbY2Tm4(B6Os)4
_chemical_formula_sum   'Ca1 Tb1 Y2 Tm4 B24 Os4'
_cell_volume   381.88922367
_cell_formula_units_Z   1
loop_
 _symmetry_equiv_pos_site_id
 _symmetry_equiv_pos_as_xyz
  1  'x, y, z'
loop_
 _atom_site_type_symbol
 _atom_site_label
 _atom_site_symmetry_multiplicity
 _atom_site_fract_x
 _atom_site_fract_y
 _atom_site_fract_z
 _atom_site_occupancy
  Ca  Ca0  1  0.000000  0.321968  0.413792  1
  Tb  Tb1  1  0.000000  0.676706  0.585278  1
  Y  Y2  1  0.000000  0.821734  0.086489  1
  Y  Y3  1  0.000000  0.178879  0.914443  1
  Tm  Tm4  1  0.000000  0.944301  0.371914  1
  Tm  Tm5  1  0.000000  0.057471  0.627332  1
  Tm  Tm6  1  0.000000  0.443404  0.128632  1
  Tm  Tm7  1  0.000000  0.555808  0.872750  1
  B  B8  1  0.500000  0.554238  0.432257  1
  B  B9  1  0.500000  0.445832  0.567796  1
  B  B10  1  0.500000  0.053664  0.066972  1
  B  B11  1  0.500000  0.945632  0.932325  1
  B  B12  1  0.500000  0.749190  0.418732  1
  B  B13  1  0.500000  0.251243  0.581369  1
  B  B14  1  0.500000  0.248596  0.081041  1
  B  B15  1  0.500000  0.750826  0.919103  1
  B  B16  1  0.500000  0.791755  0.266114  1
  B  B17  1  0.500000  0.209180  0.734052  1
  B  B18  1  0.500000  0.290701  0.233479  1
  B  B19  1  0.500000  0.708797  0.766446  1
  B  B20  1  0.500000  0.631198  0.185567  1
  B  B21  1  0.500000  0.369157  0.815350  1
  B  B22  1  0.500000  0.130581  0.314303  1
  B  B23  1  0.500000  0.869249  0.684937  1
  B  B24  1  0.500000  0.982871  0.212652  1
  B  B25  1  0.500000  0.017117  0.786579  1
  B  B26  1  0.500000  0.483303  0.286877  1
  B  B27  1  0.500000  0.516735  0.713395  1
  B  B28  1  0.500000  0.605331  0.029182  1
  B  B29  1  0.500000  0.394857  0.971347  1
  B  B30  1  0.500000  0.102316  0.471728  1
  B  B31  1  0.500000  0.896782  0.528437  1
  Os  Os32  1  0.000000  0.639847  0.319803  1
  Os  Os33  1  0.000000  0.361811  0.681025  1
  Os  Os34  1  0.000000  0.137070  0.178003  1
  Os  Os35  1  0.000000  0.861852  0.820495  1
