# generated using pymatgen
data_Hf18Mo8PtSe
_symmetry_space_group_name_H-M   'P 1'
_cell_length_a   8.72964300
_cell_length_b   8.72964173
_cell_length_c   8.61179800
_cell_angle_alpha   90.00000000
_cell_angle_beta   90.00000000
_cell_angle_gamma   119.99999346
_symmetry_Int_Tables_number   1
_chemical_formula_structural   Hf18Mo8PtSe
_chemical_formula_sum   'Hf18 Mo8 Pt1 Se1'
_cell_volume   568.35200766
_cell_formula_units_Z   1
loop_
 _symmetry_equiv_pos_site_id
 _symmetry_equiv_pos_as_xyz
  1  'x, y, z'
loop_
 _atom_site_type_symbol
 _atom_site_label
 _atom_site_symmetry_multiplicity
 _atom_site_fract_x
 _atom_site_fract_y
 _atom_site_fract_z
 _atom_site_occupancy
  Hf  Hf0  1  0.542264  0.084528  0.250000  1
  Hf  Hf1  1  0.456421  0.912842  0.750000  1
  Hf  Hf2  1  0.915472  0.457736  0.250000  1
  Hf  Hf3  1  0.087158  0.543579  0.750000  1
  Hf  Hf4  1  0.542264  0.457736  0.250000  1
  Hf  Hf5  1  0.456421  0.543579  0.750000  1
  Hf  Hf6  1  0.196810  0.393619  0.050292  1
  Hf  Hf7  1  0.805661  0.611323  0.954700  1
  Hf  Hf8  1  0.606381  0.803190  0.050292  1
  Hf  Hf9  1  0.805661  0.611323  0.545300  1
  Hf  Hf10  1  0.388677  0.194339  0.954700  1
  Hf  Hf11  1  0.196810  0.393619  0.449708  1
  Hf  Hf12  1  0.196810  0.803190  0.050292  1
  Hf  Hf13  1  0.388677  0.194339  0.545300  1
  Hf  Hf14  1  0.805661  0.194339  0.954700  1
  Hf  Hf15  1  0.606381  0.803190  0.449708  1
  Hf  Hf16  1  0.805661  0.194339  0.545300  1
  Hf  Hf17  1  0.196810  0.803190  0.449708  1
  Mo  Mo18  1  0.000000  0.000000  0.001839  1
  Mo  Mo19  1  0.000000  0.000000  0.498161  1
  Mo  Mo20  1  0.888531  0.777062  0.250000  1
  Mo  Mo21  1  0.110327  0.220652  0.750000  1
  Mo  Mo22  1  0.222938  0.111469  0.250000  1
  Mo  Mo23  1  0.779348  0.889673  0.750000  1
  Mo  Mo24  1  0.888531  0.111469  0.250000  1
  Mo  Mo25  1  0.110327  0.889673  0.750000  1
  Pt  Pt26  1  0.333333  0.666667  0.250000  1
  Se  Se27  1  0.666667  0.333333  0.750000  1
