# generated using pymatgen
data_K2Cu7F18
_symmetry_space_group_name_H-M   'P 1'
_cell_length_a   7.00926410
_cell_length_b   7.35718166
_cell_length_c   7.62708918
_cell_angle_alpha   93.61700671
_cell_angle_beta   92.70871011
_cell_angle_gamma   116.12200704
_symmetry_Int_Tables_number   1
_chemical_formula_structural   K2Cu7F18
_chemical_formula_sum   'K2 Cu7 F18'
_cell_volume   351.20177502
_cell_formula_units_Z   1
loop_
 _symmetry_equiv_pos_site_id
 _symmetry_equiv_pos_as_xyz
  1  'x, y, z'
loop_
 _atom_site_type_symbol
 _atom_site_label
 _atom_site_symmetry_multiplicity
 _atom_site_fract_x
 _atom_site_fract_y
 _atom_site_fract_z
 _atom_site_occupancy
  K  K0  1  0.685746  0.312495  0.375275  1
  K  K1  1  0.314254  0.687505  0.624725  1
  Cu  Cu2  1  0.396286  0.276521  0.882451  1
  Cu  Cu3  1  0.603714  0.723479  0.117549  1
  Cu  Cu4  1  0.172762  0.381859  0.193144  1
  Cu  Cu5  1  0.827238  0.618141  0.806856  1
  Cu  Cu6  1  0.811160  0.125277  0.819138  1
  Cu  Cu7  1  0.188840  0.874723  0.180862  1
  Cu  Cu8  1  0.000000  0.000000  0.500000  1
  F  F9  1  0.309100  0.489881  0.971107  1
  F  F10  1  0.690900  0.510119  0.028893  1
  F  F11  1  0.509941  0.089720  0.823692  1
  F  F12  1  0.490059  0.910280  0.176308  1
  F  F13  1  0.902967  0.392905  0.735297  1
  F  F14  1  0.097033  0.607095  0.264703  1
  F  F15  1  0.283260  0.159691  0.106121  1
  F  F16  1  0.716740  0.840309  0.893879  1
  F  F17  1  0.101099  0.131163  0.752331  1
  F  F18  1  0.463778  0.550891  0.305441  1
  F  F19  1  0.536222  0.449109  0.694559  1
  F  F20  1  0.102371  0.772878  0.933745  1
  F  F21  1  0.897629  0.227122  0.066255  1
  F  F22  1  0.735038  0.997018  0.571351  1
  F  F23  1  0.264962  0.002982  0.428649  1
  F  F24  1  0.924776  0.730237  0.587123  1
  F  F25  1  0.075224  0.269763  0.412877  1
  F  F26  1  0.898901  0.868837  0.247669  1
