# generated using pymatgen
data_Yb4ScFe3O10
_symmetry_space_group_name_H-M   'P 1'
_cell_length_a   5.50117600
_cell_length_b   5.73607467
_cell_length_c   16.00048200
_cell_angle_alpha   68.95886954
_cell_angle_beta   90.00000000
_cell_angle_gamma   90.00000000
_symmetry_Int_Tables_number   1
_chemical_formula_structural   Yb4ScFe3O10
_chemical_formula_sum   'Yb8 Sc2 Fe6 O20'
_cell_volume   471.23260898
_cell_formula_units_Z   2
loop_
 _symmetry_equiv_pos_site_id
 _symmetry_equiv_pos_as_xyz
  1  'x, y, z'
loop_
 _atom_site_type_symbol
 _atom_site_label
 _atom_site_symmetry_multiplicity
 _atom_site_fract_x
 _atom_site_fract_y
 _atom_site_fract_z
 _atom_site_occupancy
  Yb  Yb0  1  0.039989  0.630527  0.890076  1
  Yb  Yb1  1  0.539989  0.369473  0.609924  1
  Yb  Yb2  1  0.966632  0.083506  0.389246  1
  Yb  Yb3  1  0.466632  0.916494  0.110754  1
  Yb  Yb4  1  0.960011  0.369473  0.109924  1
  Yb  Yb5  1  0.460011  0.630527  0.390076  1
  Yb  Yb6  1  0.033368  0.916494  0.610754  1
  Yb  Yb7  1  0.533368  0.083506  0.889246  1
  Sc  Sc8  1  0.500000  0.000000  0.500000  1
  Sc  Sc9  1  0.000000  0.000000  0.000000  1
  Fe  Fe10  1  0.549521  0.687034  0.750434  1
  Fe  Fe11  1  0.049521  0.312966  0.749566  1
  Fe  Fe12  1  0.450479  0.312966  0.249566  1
  Fe  Fe13  1  0.950479  0.687034  0.250434  1
  Fe  Fe14  1  0.500000  0.500000  0.000000  1
  Fe  Fe15  1  0.000000  0.500000  0.500000  1
  O  O16  1  0.212274  0.685798  0.018815  1
  O  O17  1  0.712274  0.314202  0.481185  1
  O  O18  1  0.795976  0.764920  0.520042  1
  O  O19  1  0.295976  0.235080  0.979958  1
  O  O20  1  0.787726  0.314202  0.981185  1
  O  O21  1  0.287726  0.685798  0.518815  1
  O  O22  1  0.204024  0.235080  0.479958  1
  O  O23  1  0.704024  0.764920  0.020042  1
  O  O24  1  0.901311  0.623051  0.749884  1
  O  O25  1  0.401311  0.376949  0.750116  1
  O  O26  1  0.098689  0.376949  0.250116  1
  O  O27  1  0.598689  0.623051  0.249884  1
  O  O28  1  0.459155  0.728677  0.857559  1
  O  O29  1  0.959155  0.271323  0.642441  1
  O  O30  1  0.539119  0.056942  0.357652  1
  O  O31  1  0.039119  0.943058  0.142348  1
  O  O32  1  0.540845  0.271323  0.142441  1
  O  O33  1  0.040845  0.728677  0.357559  1
  O  O34  1  0.460881  0.943058  0.642348  1
  O  O35  1  0.960881  0.056942  0.857652  1
