# generated using pymatgen
data_Nd11Er(SiBr3)4
_symmetry_space_group_name_H-M   'P 1'
_cell_length_a   10.43639927
_cell_length_b   10.44067455
_cell_length_c   10.40458074
_cell_angle_alpha   109.65394033
_cell_angle_beta   109.60707284
_cell_angle_gamma   109.28727923
_symmetry_Int_Tables_number   1
_chemical_formula_structural   Nd11Er(SiBr3)4
_chemical_formula_sum   'Nd11 Er1 Si4 Br12'
_cell_volume   871.27308762
_cell_formula_units_Z   1
loop_
 _symmetry_equiv_pos_site_id
 _symmetry_equiv_pos_as_xyz
  1  'x, y, z'
loop_
 _atom_site_type_symbol
 _atom_site_label
 _atom_site_symmetry_multiplicity
 _atom_site_fract_x
 _atom_site_fract_y
 _atom_site_fract_z
 _atom_site_occupancy
  Nd  Nd0  1  0.262075  0.012102  0.024138  1
  Nd  Nd1  1  0.023444  0.263896  0.011435  1
  Nd  Nd2  1  0.487899  0.747591  0.011546  1
  Nd  Nd3  1  0.750372  0.237750  0.264022  1
  Nd  Nd4  1  0.013634  0.026255  0.264047  1
  Nd  Nd5  1  0.013246  0.489942  0.752258  1
  Nd  Nd6  1  0.239010  0.262196  0.752303  1
  Nd  Nd7  1  0.260999  0.747393  0.236617  1
  Nd  Nd8  1  0.238759  0.477542  0.490334  1
  Nd  Nd9  1  0.475671  0.489266  0.236659  1
  Nd  Nd10  1  0.751543  0.012854  0.490253  1
  Er  Er11  1  0.482035  0.231962  0.463762  1
  Si  Si12  1  0.000828  0.250769  0.501522  1
  Si  Si13  1  0.250059  0.500032  0.000185  1
  Si  Si14  1  0.499849  0.001122  0.252145  1
  Si  Si15  1  0.252276  0.251093  0.252201  1
  Br  Br16  1  0.756111  0.746545  0.251530  1
  Br  Br17  1  0.505252  0.249581  0.997145  1
  Br  Br18  1  0.266878  0.010932  0.507308  1
  Br  Br19  1  0.506815  0.492348  0.744266  1
  Br  Br20  1  0.995865  0.991656  0.747175  1
  Br  Br21  1  0.746388  0.996279  0.992697  1
  Br  Br22  1  0.504513  0.754428  0.508919  1
  Br  Br23  1  0.740462  0.496303  0.507289  1
  Br  Br24  1  0.995304  0.505099  0.251529  1
  Br  Br25  1  0.992048  0.747630  0.997153  1
  Br  Br26  1  0.251200  0.755453  0.747166  1
  Br  Br27  1  0.737467  0.251979  0.744397  1
