# generated using pymatgen
data_DyHo(Th2Fe)6
_symmetry_space_group_name_H-M   'P 1'
_cell_length_a   9.68305900
_cell_length_b   9.68305918
_cell_length_c   6.20057700
_cell_angle_alpha   90.00000000
_cell_angle_beta   90.00000000
_cell_angle_gamma   120.00000280
_symmetry_Int_Tables_number   1
_chemical_formula_structural   DyHo(Th2Fe)6
_chemical_formula_sum   'Dy1 Ho1 Th12 Fe6'
_cell_volume   503.48656771
_cell_formula_units_Z   1
loop_
 _symmetry_equiv_pos_site_id
 _symmetry_equiv_pos_as_xyz
  1  'x, y, z'
loop_
 _atom_site_type_symbol
 _atom_site_label
 _atom_site_symmetry_multiplicity
 _atom_site_fract_x
 _atom_site_fract_y
 _atom_site_fract_z
 _atom_site_occupancy
  Dy  Dy0  1  0.333333  0.666667  0.035789  1
  Ho  Ho1  1  0.666667  0.333333  0.535763  1
  Th  Th2  1  0.125888  0.874112  0.250036  1
  Th  Th3  1  0.251816  0.125908  0.750020  1
  Th  Th4  1  0.874092  0.748184  0.750020  1
  Th  Th5  1  0.125888  0.251776  0.250036  1
  Th  Th6  1  0.748224  0.874112  0.250036  1
  Th  Th7  1  0.874092  0.125908  0.750020  1
  Th  Th8  1  0.541164  0.458836  0.067922  1
  Th  Th9  1  0.082298  0.541149  0.567892  1
  Th  Th10  1  0.458851  0.917702  0.567892  1
  Th  Th11  1  0.541164  0.082327  0.067922  1
  Th  Th12  1  0.917673  0.458836  0.067922  1
  Th  Th13  1  0.458851  0.541149  0.567892  1
  Fe  Fe14  1  0.819764  0.180236  0.280141  1
  Fe  Fe15  1  0.639542  0.819772  0.780136  1
  Fe  Fe16  1  0.180228  0.360458  0.780136  1
  Fe  Fe17  1  0.819764  0.639526  0.280141  1
  Fe  Fe18  1  0.360474  0.180236  0.280141  1
  Fe  Fe19  1  0.180228  0.819772  0.780136  1
