# generated using pymatgen
data_YbHo4Be3P9Ir19
_symmetry_space_group_name_H-M   'P 1'
_cell_length_a   12.60800600
_cell_length_b   12.60800558
_cell_length_c   3.94324900
_cell_angle_alpha   90.00000000
_cell_angle_beta   90.00000000
_cell_angle_gamma   120.00000111
_symmetry_Int_Tables_number   1
_chemical_formula_structural   YbHo4Be3P9Ir19
_chemical_formula_sum   'Yb1 Ho4 Be3 P9 Ir19'
_cell_volume   542.84723217
_cell_formula_units_Z   1
loop_
 _symmetry_equiv_pos_site_id
 _symmetry_equiv_pos_as_xyz
  1  'x, y, z'
loop_
 _atom_site_type_symbol
 _atom_site_label
 _atom_site_symmetry_multiplicity
 _atom_site_fract_x
 _atom_site_fract_y
 _atom_site_fract_z
 _atom_site_occupancy
  Yb  Yb0  1  0.333333  0.666667  0.000000  1
  Ho  Ho1  1  0.666667  0.333333  0.000000  1
  Ho  Ho2  1  0.815211  0.808682  0.500000  1
  Ho  Ho3  1  0.191318  0.006529  0.500000  1
  Ho  Ho4  1  0.993471  0.184789  0.500000  1
  Be  Be5  1  0.683252  0.162330  0.500000  1
  Be  Be6  1  0.837670  0.520922  0.500000  1
  Be  Be7  1  0.479078  0.316748  0.500000  1
  P  P8  1  0.179627  0.695877  0.500000  1
  P  P9  1  0.516250  0.820373  0.500000  1
  P  P10  1  0.304123  0.483750  0.500000  1
  P  P11  1  0.638416  0.626318  0.000000  1
  P  P12  1  0.373682  0.012098  0.000000  1
  P  P13  1  0.987902  0.361584  0.000000  1
  P  P14  1  0.179429  0.182210  0.000000  1
  P  P15  1  0.817790  0.997219  0.000000  1
  P  P16  1  0.002781  0.820571  0.000000  1
  Ir  Ir17  1  0.801989  0.175916  0.000000  1
  Ir  Ir18  1  0.824084  0.626073  0.000000  1
  Ir  Ir19  1  0.373927  0.198011  0.000000  1
  Ir  Ir20  1  0.190172  0.813216  0.000000  1
  Ir  Ir21  1  0.623044  0.809828  0.000000  1
  Ir  Ir22  1  0.186784  0.376956  0.000000  1
  Ir  Ir23  1  0.454407  0.445911  0.000000  1
  Ir  Ir24  1  0.554089  0.008497  0.000000  1
  Ir  Ir25  1  0.991503  0.545593  0.000000  1
  Ir  Ir26  1  0.280232  0.288268  0.500000  1
  Ir  Ir27  1  0.711732  0.991964  0.500000  1
  Ir  Ir28  1  0.008036  0.719768  0.500000  1
  Ir  Ir29  1  0.870101  0.354246  0.500000  1
  Ir  Ir30  1  0.645754  0.515856  0.500000  1
  Ir  Ir31  1  0.484144  0.129899  0.500000  1
  Ir  Ir32  1  0.369236  0.872833  0.500000  1
  Ir  Ir33  1  0.503599  0.630764  0.500000  1
  Ir  Ir34  1  0.127167  0.496401  0.500000  1
  Ir  Ir35  1  0.000000  0.000000  0.000000  1
