# generated using pymatgen
data_Ba4ScAuO8
_symmetry_space_group_name_H-M   'P 1'
_cell_length_a   7.38878502
_cell_length_b   7.38878447
_cell_length_c   5.88031200
_cell_angle_alpha   90.00000000
_cell_angle_beta   90.00000000
_cell_angle_gamma   133.07825326
_symmetry_Int_Tables_number   1
_chemical_formula_structural   Ba4ScAuO8
_chemical_formula_sum   'Ba4 Sc1 Au1 O8'
_cell_volume   234.48765545
_cell_formula_units_Z   1
loop_
 _symmetry_equiv_pos_site_id
 _symmetry_equiv_pos_as_xyz
  1  'x, y, z'
loop_
 _atom_site_type_symbol
 _atom_site_label
 _atom_site_symmetry_multiplicity
 _atom_site_fract_x
 _atom_site_fract_y
 _atom_site_fract_z
 _atom_site_occupancy
  Ba  Ba0  1  0.353784  0.646216  0.000000  1
  Ba  Ba1  1  0.855350  0.144650  0.500000  1
  Ba  Ba2  1  0.144650  0.855350  0.500000  1
  Ba  Ba3  1  0.646216  0.353784  0.000000  1
  Sc  Sc4  1  0.000000  0.000000  0.000000  1
  Au  Au5  1  0.500000  0.500000  0.500000  1
  O  O6  1  0.253177  0.253177  0.742299  1
  O  O7  1  0.746823  0.746823  0.257701  1
  O  O8  1  0.746823  0.746823  0.742299  1
  O  O9  1  0.253177  0.253177  0.257701  1
  O  O10  1  0.156774  0.843226  0.000000  1
  O  O11  1  0.654652  0.345348  0.500000  1
  O  O12  1  0.345348  0.654652  0.500000  1
  O  O13  1  0.843226  0.156774  0.000000  1
