# generated using pymatgen
data_Y4Al13Si5(Os2Rh)2
_symmetry_space_group_name_H-M   'P 1'
_cell_length_a   7.48978732
_cell_length_b   7.45246907
_cell_length_c   9.45663586
_cell_angle_alpha   90.02557071
_cell_angle_beta   90.02318217
_cell_angle_gamma   119.84152876
_symmetry_Int_Tables_number   1
_chemical_formula_structural   Y4Al13Si5(Os2Rh)2
_chemical_formula_sum   'Y4 Al13 Si5 Os4 Rh2'
_cell_volume   457.85515112
_cell_formula_units_Z   1
loop_
 _symmetry_equiv_pos_site_id
 _symmetry_equiv_pos_as_xyz
  1  'x, y, z'
loop_
 _atom_site_type_symbol
 _atom_site_label
 _atom_site_symmetry_multiplicity
 _atom_site_fract_x
 _atom_site_fract_y
 _atom_site_fract_z
 _atom_site_occupancy
  Y  Y0  1  0.001791  0.664425  0.253570  1
  Y  Y1  1  0.004523  0.339322  0.749057  1
  Y  Y2  1  0.674411  0.008259  0.252260  1
  Y  Y3  1  0.321372  0.991295  0.745857  1
  Al  Al4  1  0.128458  0.126961  0.251043  1
  Al  Al5  1  0.873549  0.871817  0.750524  1
  Al  Al6  1  0.664666  0.994830  0.577858  1
  Al  Al7  1  0.660998  0.995762  0.923531  1
  Al  Al8  1  0.339303  0.005900  0.070833  1
  Al  Al9  1  0.337600  0.336234  0.555387  1
  Al  Al10  1  0.662205  0.666154  0.444348  1
  Al  Al11  1  0.662719  0.667191  0.054812  1
  Al  Al12  1  0.338026  0.334361  0.943456  1
  Al  Al13  1  0.336888  0.546885  0.250151  1
  Al  Al14  1  0.660616  0.448607  0.749857  1
  Al  Al15  1  0.546352  0.342498  0.249513  1
  Al  Al16  1  0.452436  0.658399  0.748860  1
  Si  Si17  1  0.003495  0.330546  0.065724  1
  Si  Si18  1  0.995775  0.668401  0.933682  1
  Si  Si19  1  0.988831  0.662939  0.570412  1
  Si  Si20  1  0.342766  0.008241  0.427387  1
  Si  Si21  1  0.003822  0.330736  0.432856  1
  Os  Os22  1  0.689120  0.336360  0.002902  1
  Os  Os23  1  0.310843  0.664099  0.998555  1
  Os  Os24  1  0.310573  0.672820  0.499361  1
  Os  Os25  1  0.681528  0.328569  0.497133  1
  Rh  Rh26  1  0.000337  0.000003  0.001331  1
  Rh  Rh27  1  0.006996  0.998385  0.499739  1
