# generated using pymatgen
data_La2Yb(BPt2)3
_symmetry_space_group_name_H-M   'P 1'
_cell_length_a   5.60311400
_cell_length_b   5.54579072
_cell_length_c   7.76648700
_cell_angle_alpha   90.00000000
_cell_angle_beta   90.00000000
_cell_angle_gamma   120.34250515
_symmetry_Int_Tables_number   1
_chemical_formula_structural   La2Yb(BPt2)3
_chemical_formula_sum   'La2 Yb1 B3 Pt6'
_cell_volume   208.27585784
_cell_formula_units_Z   1
loop_
 _symmetry_equiv_pos_site_id
 _symmetry_equiv_pos_as_xyz
  1  'x, y, z'
loop_
 _atom_site_type_symbol
 _atom_site_label
 _atom_site_symmetry_multiplicity
 _atom_site_fract_x
 _atom_site_fract_y
 _atom_site_fract_z
 _atom_site_occupancy
  La  La0  1  0.500000  0.500000  0.326479  1
  La  La1  1  0.000000  0.500000  0.673521  1
  Yb  Yb2  1  0.500000  0.000000  0.000000  1
  B  B3  1  0.000000  0.500000  0.157330  1
  B  B4  1  0.500000  0.500000  0.842670  1
  B  B5  1  0.500000  0.000000  0.500000  1
  Pt  Pt6  1  0.306580  0.152331  0.670364  1
  Pt  Pt7  1  0.154250  0.847669  0.329636  1
  Pt  Pt8  1  0.855539  0.711079  0.000000  1
  Pt  Pt9  1  0.845750  0.152331  0.329636  1
  Pt  Pt10  1  0.144461  0.288921  0.000000  1
  Pt  Pt11  1  0.693420  0.847669  0.670364  1
