# generated using pymatgen
data_Ho12ErLuRh6
_symmetry_space_group_name_H-M   'P 1'
_cell_length_a   9.75447400
_cell_length_b   9.75447375
_cell_length_c   6.14580300
_cell_angle_alpha   90.00000000
_cell_angle_beta   90.00000000
_cell_angle_gamma   120.00000084
_symmetry_Int_Tables_number   1
_chemical_formula_structural   Ho12ErLuRh6
_chemical_formula_sum   'Ho12 Er1 Lu1 Rh6'
_cell_volume   506.42712969
_cell_formula_units_Z   1
loop_
 _symmetry_equiv_pos_site_id
 _symmetry_equiv_pos_as_xyz
  1  'x, y, z'
loop_
 _atom_site_type_symbol
 _atom_site_label
 _atom_site_symmetry_multiplicity
 _atom_site_fract_x
 _atom_site_fract_y
 _atom_site_fract_z
 _atom_site_occupancy
  Ho  Ho0  1  0.752768  0.876384  0.992205  1
  Ho  Ho1  1  0.875792  0.124208  0.492021  1
  Ho  Ho2  1  0.541425  0.458575  0.796761  1
  Ho  Ho3  1  0.081478  0.540738  0.297005  1
  Ho  Ho4  1  0.459262  0.918522  0.297005  1
  Ho  Ho5  1  0.541425  0.082850  0.796761  1
  Ho  Ho6  1  0.917150  0.458575  0.796761  1
  Ho  Ho7  1  0.459262  0.540738  0.297005  1
  Ho  Ho8  1  0.123616  0.247232  0.992205  1
  Ho  Ho9  1  0.875792  0.751584  0.492021  1
  Ho  Ho10  1  0.248416  0.124208  0.492021  1
  Ho  Ho11  1  0.123616  0.876384  0.992205  1
  Er  Er12  1  0.333333  0.666667  0.786041  1
  Lu  Lu13  1  0.666667  0.333333  0.283457  1
  Rh  Rh14  1  0.189984  0.810016  0.562708  1
  Rh  Rh15  1  0.381409  0.190704  0.064135  1
  Rh  Rh16  1  0.809296  0.618591  0.064135  1
  Rh  Rh17  1  0.189984  0.379968  0.562708  1
  Rh  Rh18  1  0.620032  0.810016  0.562708  1
  Rh  Rh19  1  0.809296  0.190704  0.064135  1
