# generated using pymatgen
data_TbHo2Tm3FeBi2
_symmetry_space_group_name_H-M   'P 1'
_cell_length_a   8.24422800
_cell_length_b   8.23943685
_cell_length_c   4.16702800
_cell_angle_alpha   90.00000000
_cell_angle_beta   90.00000000
_cell_angle_gamma   120.01923741
_symmetry_Int_Tables_number   1
_chemical_formula_structural   TbHo2Tm3FeBi2
_chemical_formula_sum   'Tb1 Ho2 Tm3 Fe1 Bi2'
_cell_volume   245.08704387
_cell_formula_units_Z   1
loop_
 _symmetry_equiv_pos_site_id
 _symmetry_equiv_pos_as_xyz
  1  'x, y, z'
loop_
 _atom_site_type_symbol
 _atom_site_label
 _atom_site_symmetry_multiplicity
 _atom_site_fract_x
 _atom_site_fract_y
 _atom_site_fract_z
 _atom_site_occupancy
  Tb  Tb0  1  0.610066  0.000000  0.000000  1
  Ho  Ho1  1  0.999772  0.611302  0.000000  1
  Ho  Ho2  1  0.388471  0.388698  0.000000  1
  Tm  Tm3  1  0.229474  0.000000  0.500000  1
  Tm  Tm4  1  0.000394  0.229109  0.500000  1
  Tm  Tm5  1  0.771285  0.770891  0.500000  1
  Fe  Fe6  1  0.001502  0.000000  0.000000  1
  Bi  Bi7  1  0.332331  0.665628  0.500000  1
  Bi  Bi8  1  0.666704  0.334372  0.500000  1
