# generated using pymatgen
data_Gd7AlI12
_symmetry_space_group_name_H-M   'P 1'
_cell_length_a   9.99465406
_cell_length_b   9.99465530
_cell_length_c   9.99465500
_cell_angle_alpha   107.12999917
_cell_angle_beta   107.12998937
_cell_angle_gamma   107.12998913
_symmetry_Int_Tables_number   1
_chemical_formula_structural   Gd7AlI12
_chemical_formula_sum   'Gd7 Al1 I12'
_cell_volume   828.50868725
_cell_formula_units_Z   1
loop_
 _symmetry_equiv_pos_site_id
 _symmetry_equiv_pos_as_xyz
  1  'x, y, z'
loop_
 _atom_site_type_symbol
 _atom_site_label
 _atom_site_symmetry_multiplicity
 _atom_site_fract_x
 _atom_site_fract_y
 _atom_site_fract_z
 _atom_site_occupancy
  Gd  Gd0  1  0.000000  0.000000  0.000000  1
  Gd  Gd1  1  0.810620  0.526157  0.600249  1
  Gd  Gd2  1  0.526157  0.600249  0.810620  1
  Gd  Gd3  1  0.189380  0.473843  0.399751  1
  Gd  Gd4  1  0.473843  0.399751  0.189380  1
  Gd  Gd5  1  0.600249  0.810620  0.526157  1
  Gd  Gd6  1  0.399751  0.189380  0.473843  1
  Al  Al7  1  0.500000  0.500000  0.500000  1
  I  I8  1  0.726210  0.183483  0.573979  1
  I  I9  1  0.960938  0.883203  0.657587  1
  I  I10  1  0.573979  0.726210  0.183483  1
  I  I11  1  0.116797  0.342413  0.039062  1
  I  I12  1  0.657587  0.960938  0.883203  1
  I  I13  1  0.883203  0.657587  0.960938  1
  I  I14  1  0.039062  0.116797  0.342413  1
  I  I15  1  0.816517  0.426021  0.273790  1
  I  I16  1  0.342413  0.039062  0.116797  1
  I  I17  1  0.273790  0.816517  0.426021  1
  I  I18  1  0.183483  0.573979  0.726210  1
  I  I19  1  0.426021  0.273790  0.816517  1
