# generated using pymatgen
data_Ho19ErSn16
_symmetry_space_group_name_H-M   'P 1'
_cell_length_a   8.03344501
_cell_length_b   8.14257050
_cell_length_c   15.42067300
_cell_angle_alpha   90.01275730
_cell_angle_beta   89.82608925
_cell_angle_gamma   89.90889439
_symmetry_Int_Tables_number   1
_chemical_formula_structural   Ho19ErSn16
_chemical_formula_sum   'Ho19 Er1 Sn16'
_cell_volume   1008.70487507
_cell_formula_units_Z   1
loop_
 _symmetry_equiv_pos_site_id
 _symmetry_equiv_pos_as_xyz
  1  'x, y, z'
loop_
 _atom_site_type_symbol
 _atom_site_label
 _atom_site_symmetry_multiplicity
 _atom_site_fract_x
 _atom_site_fract_y
 _atom_site_fract_z
 _atom_site_occupancy
  Ho  Ho0  1  0.020642  0.178740  0.903632  1
  Ho  Ho1  1  0.368153  0.837552  0.877285  1
  Ho  Ho2  1  0.869027  0.662037  0.621947  1
  Ho  Ho3  1  0.630361  0.162171  0.377336  1
  Ho  Ho4  1  0.132089  0.337688  0.122667  1
  Ho  Ho5  1  0.631603  0.162643  0.123016  1
  Ho  Ho6  1  0.130773  0.337921  0.377578  1
  Ho  Ho7  1  0.369603  0.837683  0.622309  1
  Ho  Ho8  1  0.868419  0.662119  0.877570  1
  Ho  Ho9  1  0.521954  0.321845  0.903207  1
  Ho  Ho10  1  0.022401  0.178739  0.597045  1
  Ho  Ho11  1  0.477314  0.678552  0.402527  1
  Ho  Ho12  1  0.978734  0.821109  0.096872  1
  Ho  Ho13  1  0.478286  0.678557  0.097086  1
  Ho  Ho14  1  0.977738  0.821545  0.402764  1
  Ho  Ho15  1  0.522463  0.321572  0.596906  1
  Ho  Ho16  1  0.199932  0.503785  0.749703  1
  Ho  Ho17  1  0.699921  0.996290  0.749773  1
  Ho  Ho18  1  0.800034  0.496292  0.250156  1
  Er  Er19  1  0.299996  0.003755  0.250390  1
  Sn  Sn20  1  0.293041  0.036834  0.042193  1
  Sn  Sn21  1  0.791044  0.462847  0.458149  1
  Sn  Sn22  1  0.708559  0.963524  0.541221  1
  Sn  Sn23  1  0.207721  0.537383  0.958744  1
  Sn  Sn24  1  0.706601  0.961897  0.958859  1
  Sn  Sn25  1  0.208842  0.537087  0.541204  1
  Sn  Sn26  1  0.291338  0.036814  0.458132  1
  Sn  Sn27  1  0.792643  0.462566  0.041880  1
  Sn  Sn28  1  0.566841  0.617733  0.749673  1
  Sn  Sn29  1  0.066311  0.882157  0.749624  1
  Sn  Sn30  1  0.433260  0.382157  0.250409  1
  Sn  Sn31  1  0.934204  0.117704  0.250199  1
  Sn  Sn32  1  0.332924  0.149288  0.750188  1
  Sn  Sn33  1  0.832476  0.350658  0.750098  1
  Sn  Sn34  1  0.667383  0.851055  0.249804  1
  Sn  Sn35  1  0.167372  0.649702  0.249849  1
