# generated using pymatgen
data_Sr(AcAl6)2
_symmetry_space_group_name_H-M   'P 1'
_cell_length_a   8.96392719
_cell_length_b   8.96392601
_cell_length_c   8.96392525
_cell_angle_alpha   150.25445412
_cell_angle_beta   105.10325132
_cell_angle_gamma   82.59993053
_symmetry_Int_Tables_number   1
_chemical_formula_structural   Sr(AcAl6)2
_chemical_formula_sum   'Sr1 Ac2 Al12'
_cell_volume   337.80452906
_cell_formula_units_Z   1
loop_
 _symmetry_equiv_pos_site_id
 _symmetry_equiv_pos_as_xyz
  1  'x, y, z'
loop_
 _atom_site_type_symbol
 _atom_site_label
 _atom_site_symmetry_multiplicity
 _atom_site_fract_x
 _atom_site_fract_y
 _atom_site_fract_z
 _atom_site_occupancy
  Sr  Sr0  1  0.000294  0.000000  0.000294  1
  Ac  Ac1  1  0.334170  0.333204  0.000966  1
  Ac  Ac2  1  0.667761  0.666796  0.000966  1
  Al  Al3  1  0.621694  0.000000  0.621694  1
  Al  Al4  1  0.380584  0.000000  0.380584  1
  Al  Al5  1  0.252428  0.500000  0.752428  1
  Al  Al6  1  0.749659  0.500000  0.249659  1
  Al  Al7  1  0.584831  0.832874  0.751957  1
  Al  Al8  1  0.919084  0.167126  0.751957  1
  Al  Al9  1  0.286505  0.666000  0.620505  1
  Al  Al10  1  0.954505  0.334000  0.620505  1
  Al  Al11  1  0.047056  0.666518  0.380537  1
  Al  Al12  1  0.714017  0.333482  0.380537  1
  Al  Al13  1  0.082712  0.833507  0.249207  1
  Al  Al14  1  0.415699  0.166493  0.249207  1
