# generated using pymatgen
data_Nd4Cu5Ni11(SnPd)4
_symmetry_space_group_name_H-M   'P 1'
_cell_length_a   5.00780110
_cell_length_b   5.00780017
_cell_length_c   20.34144416
_cell_angle_alpha   89.96574869
_cell_angle_beta   90.03425264
_cell_angle_gamma   119.59123571
_symmetry_Int_Tables_number   1
_chemical_formula_structural   Nd4Cu5Ni11(SnPd)4
_chemical_formula_sum   'Nd4 Cu5 Ni11 Sn4 Pd4'
_cell_volume   443.58875291
_cell_formula_units_Z   1
loop_
 _symmetry_equiv_pos_site_id
 _symmetry_equiv_pos_as_xyz
  1  'x, y, z'
loop_
 _atom_site_type_symbol
 _atom_site_label
 _atom_site_symmetry_multiplicity
 _atom_site_fract_x
 _atom_site_fract_y
 _atom_site_fract_z
 _atom_site_occupancy
  Nd  Nd0  1  0.334004  0.665996  0.249548  1
  Nd  Nd1  1  0.666631  0.333369  0.750187  1
  Nd  Nd2  1  0.000352  0.999648  0.502166  1
  Nd  Nd3  1  0.999987  0.000013  0.999655  1
  Cu  Cu4  1  0.002523  0.997477  0.249236  1
  Cu  Cu5  1  0.000218  0.999782  0.750052  1
  Cu  Cu6  1  0.332840  0.667160  0.750085  1
  Cu  Cu7  1  0.665411  0.334589  0.248734  1
  Cu  Cu8  1  0.834322  0.165678  0.350364  1
  Ni  Ni9  1  0.832862  0.668070  0.351429  1
  Ni  Ni10  1  0.331930  0.167138  0.351429  1
  Ni  Ni11  1  0.165154  0.834846  0.648803  1
  Ni  Ni12  1  0.165759  0.330613  0.648788  1
  Ni  Ni13  1  0.669387  0.834241  0.648788  1
  Ni  Ni14  1  0.165157  0.834843  0.851482  1
  Ni  Ni15  1  0.165090  0.330638  0.851458  1
  Ni  Ni16  1  0.669362  0.834910  0.851458  1
  Ni  Ni17  1  0.834436  0.165564  0.148215  1
  Ni  Ni18  1  0.834562  0.669131  0.147921  1
  Ni  Ni19  1  0.330869  0.165438  0.147921  1
  Sn  Sn20  1  0.331700  0.668300  0.407481  1
  Sn  Sn21  1  0.667200  0.332800  0.594454  1
  Sn  Sn22  1  0.666323  0.333677  0.905872  1
  Sn  Sn23  1  0.333437  0.666563  0.093520  1
  Pd  Pd24  1  0.334387  0.665613  0.960463  1
  Pd  Pd25  1  0.665717  0.334283  0.038836  1
  Pd  Pd26  1  0.666386  0.333614  0.461739  1
  Pd  Pd27  1  0.333995  0.666005  0.539916  1
