# generated using pymatgen
data_Y3Ho2Bi3C
_symmetry_space_group_name_H-M   'P 1'
_cell_length_a   9.14748523
_cell_length_b   9.14748670
_cell_length_c   6.50726300
_cell_angle_alpha   89.99986141
_cell_angle_beta   89.99986306
_cell_angle_gamma   120.02196952
_symmetry_Int_Tables_number   1
_chemical_formula_structural   Y3Ho2Bi3C
_chemical_formula_sum   'Y6 Ho4 Bi6 C2'
_cell_volume   471.45072542
_cell_formula_units_Z   2
loop_
 _symmetry_equiv_pos_site_id
 _symmetry_equiv_pos_as_xyz
  1  'x, y, z'
loop_
 _atom_site_type_symbol
 _atom_site_label
 _atom_site_symmetry_multiplicity
 _atom_site_fract_x
 _atom_site_fract_y
 _atom_site_fract_z
 _atom_site_occupancy
  Y  Y0  1  0.666552  0.333382  0.500107  1
  Y  Y1  1  0.333382  0.666552  0.500107  1
  Y  Y2  1  0.333387  0.666555  0.999896  1
  Y  Y3  1  0.666555  0.333387  0.999896  1
  Y  Y4  1  0.790657  0.000113  0.749999  1
  Y  Y5  1  0.000113  0.790657  0.749999  1
  Ho  Ho6  1  0.793919  0.793919  0.250006  1
  Ho  Ho7  1  0.206220  0.000297  0.249995  1
  Ho  Ho8  1  0.000297  0.206220  0.249995  1
  Ho  Ho9  1  0.206305  0.206305  0.749999  1
  Bi  Bi10  1  0.401564  0.401564  0.250003  1
  Bi  Bi11  1  0.598407  0.999947  0.250001  1
  Bi  Bi12  1  0.999947  0.598407  0.250001  1
  Bi  Bi13  1  0.597883  0.597883  0.750005  1
  Bi  Bi14  1  0.401692  0.000397  0.750002  1
  Bi  Bi15  1  0.000397  0.401692  0.750002  1
  C  C16  1  0.001362  0.001362  0.497542  1
  C  C17  1  0.001362  0.001362  0.002443  1
