# generated using pymatgen
data_Tb7Dy3InSb5
_symmetry_space_group_name_H-M   'P 1'
_cell_length_a   6.40050104
_cell_length_b   9.03533591
_cell_length_c   9.00831502
_cell_angle_alpha   119.93623116
_cell_angle_beta   89.99247743
_cell_angle_gamma   89.99547969
_symmetry_Int_Tables_number   1
_chemical_formula_structural   Tb7Dy3InSb5
_chemical_formula_sum   'Tb7 Dy3 In1 Sb5'
_cell_volume   451.45157409
_cell_formula_units_Z   1
loop_
 _symmetry_equiv_pos_site_id
 _symmetry_equiv_pos_as_xyz
  1  'x, y, z'
loop_
 _atom_site_type_symbol
 _atom_site_label
 _atom_site_symmetry_multiplicity
 _atom_site_fract_x
 _atom_site_fract_y
 _atom_site_fract_z
 _atom_site_occupancy
  Tb  Tb0  1  0.498209  0.335039  0.668933  1
  Tb  Tb1  1  0.750007  0.244715  0.999909  1
  Tb  Tb2  1  0.749998  0.753012  0.756405  1
  Tb  Tb3  1  0.750061  0.996498  0.242354  1
  Tb  Tb4  1  0.249903  0.756691  0.000307  1
  Tb  Tb5  1  0.249976  0.246816  0.245164  1
  Tb  Tb6  1  0.249997  0.001739  0.754898  1
  Dy  Dy7  1  0.498818  0.666171  0.331121  1
  Dy  Dy8  1  0.001245  0.666200  0.331197  1
  Dy  Dy9  1  0.001755  0.335080  0.668940  1
  In  In10  1  0.750317  0.606766  0.000833  1
  Sb  Sb11  1  0.750261  0.388144  0.388835  1
  Sb  Sb12  1  0.750188  0.998918  0.609840  1
  Sb  Sb13  1  0.249751  0.390881  0.000511  1
  Sb  Sb14  1  0.249790  0.611980  0.610832  1
  Sb  Sb15  1  0.249728  0.001348  0.389923  1
