# generated using pymatgen
data_YTm2ScPa(FeB3)2
_symmetry_space_group_name_H-M   'P 1'
_cell_length_a   5.38386443
_cell_length_b   5.38386221
_cell_length_c   7.82482070
_cell_angle_alpha   69.87773483
_cell_angle_beta   69.87773268
_cell_angle_gamma   60.00000202
_symmetry_Int_Tables_number   1
_chemical_formula_structural   YTm2ScPa(FeB3)2
_chemical_formula_sum   'Y1 Tm2 Sc1 Pa1 Fe2 B6'
_cell_volume   180.26013632
_cell_formula_units_Z   1
loop_
 _symmetry_equiv_pos_site_id
 _symmetry_equiv_pos_as_xyz
  1  'x, y, z'
loop_
 _atom_site_type_symbol
 _atom_site_label
 _atom_site_symmetry_multiplicity
 _atom_site_fract_x
 _atom_site_fract_y
 _atom_site_fract_z
 _atom_site_occupancy
  Y  Y0  1  0.410610  0.410610  0.768167  1
  Tm  Tm1  1  0.252868  0.252868  0.241397  1
  Tm  Tm2  1  0.588427  0.588427  0.234721  1
  Sc  Sc3  1  0.750789  0.750789  0.747634  1
  Pa  Pa4  1  0.000568  0.000568  0.998294  1
  Fe  Fe5  1  0.891811  0.891811  0.324566  1
  Fe  Fe6  1  0.107708  0.107708  0.676875  1
  B  B7  1  0.500398  0.166620  0.501391  1
  B  B8  1  0.831590  0.500398  0.501391  1
  B  B9  1  0.166620  0.831590  0.501391  1
  B  B10  1  0.166620  0.500398  0.501391  1
  B  B11  1  0.831590  0.166620  0.501391  1
  B  B12  1  0.500398  0.831590  0.501391  1
