# generated using pymatgen
data_Tb4Lu4Re3B24Ru
_symmetry_space_group_name_H-M   'P 1'
_cell_length_a   3.64710600
_cell_length_b   9.10778525
_cell_length_c   11.50659115
_cell_angle_alpha   90.08851298
_cell_angle_beta   90.00000000
_cell_angle_gamma   90.00000000
_symmetry_Int_Tables_number   1
_chemical_formula_structural   Tb4Lu4Re3B24Ru
_chemical_formula_sum   'Tb4 Lu4 Re3 B24 Ru1'
_cell_volume   382.21465219
_cell_formula_units_Z   1
loop_
 _symmetry_equiv_pos_site_id
 _symmetry_equiv_pos_as_xyz
  1  'x, y, z'
loop_
 _atom_site_type_symbol
 _atom_site_label
 _atom_site_symmetry_multiplicity
 _atom_site_fract_x
 _atom_site_fract_y
 _atom_site_fract_z
 _atom_site_occupancy
  Tb  Tb0  1  0.000000  0.321298  0.414371  1
  Tb  Tb1  1  0.000000  0.677777  0.587227  1
  Tb  Tb2  1  0.000000  0.823877  0.084349  1
  Tb  Tb3  1  0.000000  0.177672  0.913990  1
  Lu  Lu4  1  0.000000  0.942213  0.369914  1
  Lu  Lu5  1  0.000000  0.056112  0.629217  1
  Lu  Lu6  1  0.000000  0.443366  0.130230  1
  Lu  Lu7  1  0.000000  0.556634  0.871032  1
  Re  Re8  1  0.000000  0.361323  0.679424  1
  Re  Re9  1  0.000000  0.139168  0.180810  1
  Re  Re10  1  0.000000  0.860818  0.819690  1
  B  B11  1  0.500000  0.554567  0.432053  1
  B  B12  1  0.500000  0.446483  0.567276  1
  B  B13  1  0.500000  0.053846  0.067391  1
  B  B14  1  0.500000  0.946497  0.932318  1
  B  B15  1  0.500000  0.750182  0.417758  1
  B  B16  1  0.500000  0.248725  0.581692  1
  B  B17  1  0.500000  0.251243  0.081997  1
  B  B18  1  0.500000  0.749474  0.918245  1
  B  B19  1  0.500000  0.791678  0.265269  1
  B  B20  1  0.500000  0.207134  0.734453  1
  B  B21  1  0.500000  0.292798  0.235190  1
  B  B22  1  0.500000  0.707059  0.765614  1
  B  B23  1  0.500000  0.630417  0.185017  1
  B  B24  1  0.500000  0.370359  0.814934  1
  B  B25  1  0.500000  0.129973  0.315740  1
  B  B26  1  0.500000  0.869714  0.684646  1
  B  B27  1  0.500000  0.981931  0.212755  1
  B  B28  1  0.500000  0.018045  0.786754  1
  B  B29  1  0.500000  0.483337  0.287370  1
  B  B30  1  0.500000  0.518437  0.712890  1
  B  B31  1  0.500000  0.599129  0.027904  1
  B  B32  1  0.500000  0.401488  0.973235  1
  B  B33  1  0.500000  0.097654  0.472511  1
  B  B34  1  0.500000  0.900241  0.527008  1
  Ru  Ru35  1  0.000000  0.639333  0.319724  1
