# generated using pymatgen
data_Lu20Sn12P
_symmetry_space_group_name_H-M   'P 1'
_cell_length_a   6.47291200
_cell_length_b   8.70593342
_cell_length_c   15.14184300
_cell_angle_alpha   90.00000658
_cell_angle_beta   90.00000000
_cell_angle_gamma   89.94229574
_symmetry_Int_Tables_number   1
_chemical_formula_structural   Lu20Sn12P
_chemical_formula_sum   'Lu20 Sn12 P1'
_cell_volume   853.28392220
_cell_formula_units_Z   1
loop_
 _symmetry_equiv_pos_site_id
 _symmetry_equiv_pos_as_xyz
  1  'x, y, z'
loop_
 _atom_site_type_symbol
 _atom_site_label
 _atom_site_symmetry_multiplicity
 _atom_site_fract_x
 _atom_site_fract_y
 _atom_site_fract_z
 _atom_site_occupancy
  Lu  Lu0  1  0.500002  0.000001  0.334702  1
  Lu  Lu1  1  0.500001  0.500001  0.830857  1
  Lu  Lu2  1  0.500001  0.500001  0.169143  1
  Lu  Lu3  1  0.500002  0.000001  0.665298  1
  Lu  Lu4  1  0.000003  0.500003  0.165481  1
  Lu  Lu5  1  0.000001  0.000002  0.666237  1
  Lu  Lu6  1  0.000001  0.000002  0.333763  1
  Lu  Lu7  1  0.000003  0.500003  0.834519  1
  Lu  Lu8  1  0.748084  0.244058  0.000000  1
  Lu  Lu9  1  0.749140  0.738604  0.500000  1
  Lu  Lu10  1  0.751423  0.381012  0.382869  1
  Lu  Lu11  1  0.748014  0.876631  0.876727  1
  Lu  Lu12  1  0.748014  0.876631  0.123273  1
  Lu  Lu13  1  0.751423  0.381012  0.617131  1
  Lu  Lu14  1  0.251914  0.755937  0.000000  1
  Lu  Lu15  1  0.250858  0.261400  0.500000  1
  Lu  Lu16  1  0.251985  0.123365  0.123274  1
  Lu  Lu17  1  0.248573  0.618992  0.617131  1
  Lu  Lu18  1  0.248573  0.618992  0.382869  1
  Lu  Lu19  1  0.251985  0.123365  0.876726  1
  Sn  Sn20  1  0.746064  0.603823  0.000000  1
  Sn  Sn21  1  0.750462  0.104345  0.500000  1
  Sn  Sn22  1  0.749458  0.198511  0.199607  1
  Sn  Sn23  1  0.753087  0.696301  0.696035  1
  Sn  Sn24  1  0.753087  0.696301  0.303965  1
  Sn  Sn25  1  0.749458  0.198511  0.800393  1
  Sn  Sn26  1  0.253921  0.396166  0.000000  1
  Sn  Sn27  1  0.249549  0.895647  0.500000  1
  Sn  Sn28  1  0.246917  0.303701  0.303966  1
  Sn  Sn29  1  0.250538  0.801496  0.800394  1
  Sn  Sn30  1  0.250538  0.801496  0.199606  1
  Sn  Sn31  1  0.246917  0.303701  0.696034  1
  P  P32  1  0.500000  0.999996  0.000000  1
