# generated using pymatgen
data_La3Nd2Ir2Ru
_symmetry_space_group_name_H-M   'P 1'
_cell_length_a   11.32093000
_cell_length_b   11.32093000
_cell_length_c   6.65413400
_cell_angle_alpha   90.00000000
_cell_angle_beta   90.00000000
_cell_angle_gamma   90.00000000
_symmetry_Int_Tables_number   1
_chemical_formula_structural   La3Nd2Ir2Ru
_chemical_formula_sum   'La12 Nd8 Ir8 Ru4'
_cell_volume   852.81681056
_cell_formula_units_Z   4
loop_
 _symmetry_equiv_pos_site_id
 _symmetry_equiv_pos_as_xyz
  1  'x, y, z'
loop_
 _atom_site_type_symbol
 _atom_site_label
 _atom_site_symmetry_multiplicity
 _atom_site_fract_x
 _atom_site_fract_y
 _atom_site_fract_z
 _atom_site_occupancy
  La  La0  1  0.089159  0.293592  0.113723  1
  La  La1  1  0.793592  0.410841  0.113723  1
  La  La2  1  0.206408  0.589159  0.113723  1
  La  La3  1  0.910841  0.706408  0.113723  1
  La  La4  1  0.410117  0.793017  0.386684  1
  La  La5  1  0.589883  0.206983  0.386684  1
  La  La6  1  0.293017  0.089883  0.386684  1
  La  La7  1  0.706983  0.910117  0.386684  1
  La  La8  1  0.410070  0.207438  0.885756  1
  La  La9  1  0.707438  0.089930  0.885756  1
  La  La10  1  0.292562  0.910070  0.885756  1
  La  La11  1  0.589930  0.792562  0.885756  1
  Nd  Nd12  1  0.087542  0.705152  0.614040  1
  Nd  Nd13  1  0.912458  0.294848  0.614040  1
  Nd  Nd14  1  0.205152  0.412458  0.614040  1
  Nd  Nd15  1  0.794848  0.587542  0.614040  1
  Nd  Nd16  1  0.000000  0.000000  0.999708  1
  Nd  Nd17  1  0.500000  0.500000  0.999708  1
  Nd  Nd18  1  0.500000  0.500000  0.501150  1
  Nd  Nd19  1  0.000000  0.000000  0.501150  1
  Ir  Ir20  1  0.153080  0.847566  0.249874  1
  Ir  Ir21  1  0.347566  0.346920  0.249874  1
  Ir  Ir22  1  0.652434  0.653080  0.249874  1
  Ir  Ir23  1  0.846920  0.152434  0.249874  1
  Ir  Ir24  1  0.346471  0.652034  0.748991  1
  Ir  Ir25  1  0.152034  0.153529  0.748991  1
  Ir  Ir26  1  0.847966  0.846471  0.748991  1
  Ir  Ir27  1  0.653529  0.347966  0.748991  1
  Ru  Ru28  1  0.000000  0.500000  0.377103  1
  Ru  Ru29  1  0.500000  0.000000  0.120909  1
  Ru  Ru30  1  0.500000  0.000000  0.621257  1
  Ru  Ru31  1  0.000000  0.500000  0.882745  1
