# generated using pymatgen
data_Hf2MgZr5(Co4P3)4
_symmetry_space_group_name_H-M   'P 1'
_cell_length_a   12.06336310
_cell_length_b   12.06336435
_cell_length_c   3.65019100
_cell_angle_alpha   90.00000000
_cell_angle_beta   90.00000000
_cell_angle_gamma   120.19712823
_symmetry_Int_Tables_number   1
_chemical_formula_structural   Hf2MgZr5(Co4P3)4
_chemical_formula_sum   'Hf2 Mg1 Zr5 Co16 P12'
_cell_volume   459.11021369
_cell_formula_units_Z   1
loop_
 _symmetry_equiv_pos_site_id
 _symmetry_equiv_pos_as_xyz
  1  'x, y, z'
loop_
 _atom_site_type_symbol
 _atom_site_label
 _atom_site_symmetry_multiplicity
 _atom_site_fract_x
 _atom_site_fract_y
 _atom_site_fract_z
 _atom_site_occupancy
  Hf  Hf0  1  0.554959  0.998809  0.000000  1
  Hf  Hf1  1  0.998809  0.554959  0.000000  1
  Mg  Mg2  1  0.443577  0.443577  0.000000  1
  Zr  Zr3  1  0.665928  0.332023  0.000000  1
  Zr  Zr4  1  0.332023  0.665928  0.000000  1
  Zr  Zr5  1  0.818784  0.818784  0.500000  1
  Zr  Zr6  1  0.176511  0.000648  0.500000  1
  Zr  Zr7  1  0.000648  0.176511  0.500000  1
  Co  Co8  1  0.198382  0.375405  0.000000  1
  Co  Co9  1  0.178014  0.806449  0.000000  1
  Co  Co10  1  0.821657  0.628848  0.000000  1
  Co  Co11  1  0.806449  0.178014  0.000000  1
  Co  Co12  1  0.375405  0.198382  0.000000  1
  Co  Co13  1  0.125449  0.478444  0.500000  1
  Co  Co14  1  0.354962  0.873895  0.500000  1
  Co  Co15  1  0.517934  0.644656  0.500000  1
  Co  Co16  1  0.644656  0.517934  0.500000  1
  Co  Co17  1  0.873895  0.354962  0.500000  1
  Co  Co18  1  0.478444  0.125449  0.500000  1
  Co  Co19  1  0.000464  0.000464  0.000000  1
  Co  Co20  1  0.721376  0.000610  0.500000  1
  Co  Co21  1  0.000610  0.721376  0.500000  1
  Co  Co22  1  0.628848  0.821657  0.000000  1
  Co  Co23  1  0.282153  0.282153  0.500000  1
  P  P24  1  0.645682  0.645682  0.000000  1
  P  P25  1  0.346761  0.003170  0.000000  1
  P  P26  1  0.003170  0.346761  0.000000  1
  P  P27  1  0.482990  0.313027  0.500000  1
  P  P28  1  0.690166  0.172910  0.500000  1
  P  P29  1  0.826084  0.518295  0.500000  1
  P  P30  1  0.518295  0.826084  0.500000  1
  P  P31  1  0.172910  0.690166  0.500000  1
  P  P32  1  0.824834  0.998959  0.000000  1
  P  P33  1  0.998959  0.824834  0.000000  1
  P  P34  1  0.313027  0.482990  0.500000  1
  P  P35  1  0.177182  0.177182  0.000000  1
