# generated using pymatgen
data_Tb4Y3Tm13Pt16
_symmetry_space_group_name_H-M   'P 1'
_cell_length_a   7.44421401
_cell_length_b   7.51528490
_cell_length_c   14.62708206
_cell_angle_alpha   90.00160609
_cell_angle_beta   89.99247658
_cell_angle_gamma   89.95955748
_symmetry_Int_Tables_number   1
_chemical_formula_structural   Tb4Y3Tm13Pt16
_chemical_formula_sum   'Tb4 Y3 Tm13 Pt16'
_cell_volume   818.31758593
_cell_formula_units_Z   1
loop_
 _symmetry_equiv_pos_site_id
 _symmetry_equiv_pos_as_xyz
  1  'x, y, z'
loop_
 _atom_site_type_symbol
 _atom_site_label
 _atom_site_symmetry_multiplicity
 _atom_site_fract_x
 _atom_site_fract_y
 _atom_site_fract_z
 _atom_site_occupancy
  Tb  Tb0  1  0.498767  0.679332  0.093113  1
  Tb  Tb1  1  0.501460  0.320660  0.592956  1
  Tb  Tb2  1  0.001318  0.179377  0.907098  1
  Tb  Tb3  1  0.000978  0.178501  0.592658  1
  Y  Y4  1  0.501273  0.320758  0.907035  1
  Y  Y5  1  0.498739  0.679639  0.407046  1
  Y  Y6  1  0.998959  0.820540  0.092941  1
  Tm  Tm7  1  0.681186  0.989886  0.250373  1
  Tm  Tm8  1  0.180812  0.510311  0.250369  1
  Tm  Tm9  1  0.818990  0.489912  0.749881  1
  Tm  Tm10  1  0.319166  0.009957  0.749982  1
  Tm  Tm11  1  0.656082  0.832573  0.622428  1
  Tm  Tm12  1  0.156150  0.667466  0.877387  1
  Tm  Tm13  1  0.843944  0.332453  0.377465  1
  Tm  Tm14  1  0.343799  0.167485  0.122705  1
  Tm  Tm15  1  0.343198  0.167082  0.377620  1
  Tm  Tm16  1  0.843981  0.332384  0.122793  1
  Tm  Tm17  1  0.155538  0.668016  0.622234  1
  Tm  Tm18  1  0.656090  0.832367  0.877452  1
  Tm  Tm19  1  0.997625  0.819597  0.406695  1
  Pt  Pt20  1  0.817741  0.642571  0.251306  1
  Pt  Pt21  1  0.315735  0.858386  0.250442  1
  Pt  Pt22  1  0.683564  0.141652  0.749788  1
  Pt  Pt23  1  0.183471  0.358398  0.749847  1
  Pt  Pt24  1  0.546619  0.384399  0.250103  1
  Pt  Pt25  1  0.045935  0.114989  0.250632  1
  Pt  Pt26  1  0.953780  0.884119  0.749956  1
  Pt  Pt27  1  0.453724  0.616011  0.749851  1
  Pt  Pt28  1  0.818223  0.535234  0.541508  1
  Pt  Pt29  1  0.317869  0.965840  0.958021  1
  Pt  Pt30  1  0.684764  0.032411  0.457500  1
  Pt  Pt31  1  0.181955  0.466016  0.042057  1
  Pt  Pt32  1  0.181230  0.467991  0.457290  1
  Pt  Pt33  1  0.682055  0.034251  0.042036  1
  Pt  Pt34  1  0.317446  0.965346  0.541469  1
  Pt  Pt35  1  0.817838  0.534089  0.957964  1
