# generated using pymatgen
data_Ce(YRh)4
_symmetry_space_group_name_H-M   'P 1'
_cell_length_a   7.39308691
_cell_length_b   7.49241019
_cell_length_c   14.60937007
_cell_angle_alpha   90.22758033
_cell_angle_beta   90.02979165
_cell_angle_gamma   89.88519497
_symmetry_Int_Tables_number   1
_chemical_formula_structural   Ce(YRh)4
_chemical_formula_sum   'Ce4 Y16 Rh16'
_cell_volume   809.23469250
_cell_formula_units_Z   4
loop_
 _symmetry_equiv_pos_site_id
 _symmetry_equiv_pos_as_xyz
  1  'x, y, z'
loop_
 _atom_site_type_symbol
 _atom_site_label
 _atom_site_symmetry_multiplicity
 _atom_site_fract_x
 _atom_site_fract_y
 _atom_site_fract_z
 _atom_site_occupancy
  Ce  Ce0  1  0.663901  0.338314  0.120360  1
  Ce  Ce1  1  0.164887  0.162375  0.118679  1
  Ce  Ce2  1  0.665887  0.337085  0.380078  1
  Ce  Ce3  1  0.312399  0.516927  0.251498  1
  Y  Y4  1  0.008718  0.684218  0.089094  1
  Y  Y5  1  0.835963  0.833502  0.622305  1
  Y  Y6  1  0.993434  0.318321  0.594318  1
  Y  Y7  1  0.174323  0.007003  0.750126  1
  Y  Y8  1  0.507318  0.819227  0.411111  1
  Y  Y9  1  0.490031  0.177901  0.595499  1
  Y  Y10  1  0.163494  0.162631  0.378755  1
  Y  Y11  1  0.337058  0.665642  0.878282  1
  Y  Y12  1  0.675137  0.491549  0.749624  1
  Y  Y13  1  0.336333  0.664028  0.622808  1
  Y  Y14  1  0.008800  0.687353  0.412313  1
  Y  Y15  1  0.493201  0.178991  0.902891  1
  Y  Y16  1  0.823292  0.981812  0.250578  1
  Y  Y17  1  0.509683  0.816434  0.089546  1
  Y  Y18  1  0.992015  0.321606  0.902990  1
  Y  Y19  1  0.836062  0.834689  0.878628  1
  Rh  Rh20  1  0.039409  0.606191  0.750897  1
  Rh  Rh21  1  0.813965  0.043103  0.456959  1
  Rh  Rh22  1  0.463837  0.123209  0.246800  1
  Rh  Rh23  1  0.180219  0.974229  0.965255  1
  Rh  Rh24  1  0.678884  0.631553  0.250490  1
  Rh  Rh25  1  0.305025  0.354424  0.749876  1
  Rh  Rh26  1  0.968506  0.390961  0.245721  1
  Rh  Rh27  1  0.683161  0.525375  0.534733  1
  Rh  Rh28  1  0.319789  0.456986  0.043346  1
  Rh  Rh29  1  0.324757  0.468877  0.455528  1
  Rh  Rh30  1  0.539846  0.892308  0.750537  1
  Rh  Rh31  1  0.680834  0.526284  0.964667  1
  Rh  Rh32  1  0.820664  0.044106  0.045266  1
  Rh  Rh33  1  0.804709  0.144821  0.749648  1
  Rh  Rh34  1  0.174028  0.967258  0.541540  1
  Rh  Rh35  1  0.210431  0.850704  0.249256  1
