# generated using pymatgen
data_Y2LuHf(Co4P3)2
_symmetry_space_group_name_H-M   'P 1'
_cell_length_a   3.71458900
_cell_length_b   10.67539300
_cell_length_c   12.36657200
_cell_angle_alpha   90.00000000
_cell_angle_beta   90.00000000
_cell_angle_gamma   90.00000000
_symmetry_Int_Tables_number   1
_chemical_formula_structural   Y2LuHf(Co4P3)2
_chemical_formula_sum   'Y4 Lu2 Hf2 Co16 P12'
_cell_volume   490.39267064
_cell_formula_units_Z   2
loop_
 _symmetry_equiv_pos_site_id
 _symmetry_equiv_pos_as_xyz
  1  'x, y, z'
loop_
 _atom_site_type_symbol
 _atom_site_label
 _atom_site_symmetry_multiplicity
 _atom_site_fract_x
 _atom_site_fract_y
 _atom_site_fract_z
 _atom_site_occupancy
  Y  Y0  1  0.000000  0.500000  0.528328  1
  Y  Y1  1  0.500000  0.000000  0.470650  1
  Y  Y2  1  0.000000  0.678436  0.795622  1
  Y  Y3  1  0.000000  0.321564  0.795622  1
  Lu  Lu4  1  0.500000  0.822707  0.204186  1
  Lu  Lu5  1  0.500000  0.177293  0.204186  1
  Hf  Hf6  1  0.500000  0.500000  0.157331  1
  Hf  Hf7  1  0.000000  0.000000  0.843021  1
  Co  Co8  1  0.500000  0.500000  0.703592  1
  Co  Co9  1  0.000000  0.000000  0.294771  1
  Co  Co10  1  0.000000  0.500000  0.988382  1
  Co  Co11  1  0.500000  0.000000  0.014788  1
  Co  Co12  1  0.500000  0.331233  0.995193  1
  Co  Co13  1  0.500000  0.668767  0.995193  1
  Co  Co14  1  0.000000  0.167423  0.008429  1
  Co  Co15  1  0.000000  0.832577  0.008429  1
  Co  Co16  1  0.500000  0.294587  0.431365  1
  Co  Co17  1  0.500000  0.705413  0.431365  1
  Co  Co18  1  0.000000  0.204477  0.565627  1
  Co  Co19  1  0.000000  0.795523  0.565627  1
  Co  Co20  1  0.500000  0.878092  0.702621  1
  Co  Co21  1  0.500000  0.121908  0.702621  1
  Co  Co22  1  0.000000  0.623337  0.295662  1
  Co  Co23  1  0.000000  0.376663  0.295662  1
  P  P24  1  0.500000  0.500000  0.884876  1
  P  P25  1  0.000000  0.000000  0.118004  1
  P  P26  1  0.500000  0.500000  0.361297  1
  P  P27  1  0.000000  0.000000  0.638255  1
  P  P28  1  0.500000  0.309551  0.614868  1
  P  P29  1  0.500000  0.690449  0.614868  1
  P  P30  1  0.000000  0.189124  0.381880  1
  P  P31  1  0.000000  0.810876  0.381880  1
  P  P32  1  0.500000  0.839011  0.894051  1
  P  P33  1  0.500000  0.160989  0.894051  1
  P  P34  1  0.000000  0.662790  0.108848  1
  P  P35  1  0.000000  0.337210  0.108848  1
