# generated using pymatgen
data_Lu(ThH5)3
_symmetry_space_group_name_H-M   'P 1'
_cell_length_a   7.79171744
_cell_length_b   7.78498264
_cell_length_c   7.73745771
_cell_angle_alpha   109.44549288
_cell_angle_beta   109.48087512
_cell_angle_gamma   109.75216407
_symmetry_Int_Tables_number   1
_chemical_formula_structural   Lu(ThH5)3
_chemical_formula_sum   'Lu2 Th6 H30'
_cell_volume   360.11120881
_cell_formula_units_Z   2
loop_
 _symmetry_equiv_pos_site_id
 _symmetry_equiv_pos_as_xyz
  1  'x, y, z'
loop_
 _atom_site_type_symbol
 _atom_site_label
 _atom_site_symmetry_multiplicity
 _atom_site_fract_x
 _atom_site_fract_y
 _atom_site_fract_z
 _atom_site_occupancy
  Lu  Lu0  1  0.911641  0.913450  0.914010  1
  Lu  Lu1  1  0.497631  0.999440  0.085990  1
  Th  Th2  1  0.992031  0.078779  0.492998  1
  Th  Th3  1  0.086278  0.506433  0.001598  1
  Th  Th4  1  0.999033  0.585781  0.507002  1
  Th  Th5  1  0.584679  0.504834  0.998402  1
  Th  Th6  1  0.505729  0.998137  0.589848  1
  Th  Th7  1  0.415881  0.408289  0.410152  1
  H  H8  1  0.648164  0.964004  0.366442  1
  H  H9  1  0.218123  0.316626  0.846096  1
  H  H10  1  0.186338  0.403574  0.533895  1
  H  H11  1  0.093839  0.275556  0.121810  1
  H  H12  1  0.281000  0.117762  0.090602  1
  H  H13  1  0.120823  0.089971  0.270929  1
  H  H14  1  0.472029  0.153746  0.878190  1
  H  H15  1  0.720038  0.351050  0.813681  1
  H  H16  1  0.627135  0.377789  0.249932  1
  H  H17  1  0.250780  0.624092  0.376875  1
  H  H18  1  0.748985  0.873492  0.124195  1
  H  H19  1  0.124791  0.749297  0.875805  1
  H  H20  1  0.373905  0.247217  0.623125  1
  H  H21  1  0.877202  0.127856  0.750068  1
  H  H22  1  0.781722  0.597562  0.633558  1
  H  H23  1  0.320186  0.851602  0.220992  1
  H  H24  1  0.376184  0.663634  0.968702  1
  H  H25  1  0.962987  0.368224  0.650404  1
  H  H26  1  0.536524  0.182993  0.402868  1
  H  H27  1  0.406357  0.537369  0.186319  1
  H  H28  1  0.835374  0.214989  0.308440  1
  H  H29  1  0.907482  0.694932  0.031298  1
  H  H30  1  0.812583  0.717820  0.349596  1
  H  H31  1  0.152443  0.869679  0.466105  1
  H  H32  1  0.690398  0.027160  0.909398  1
  H  H33  1  0.349894  0.819042  0.729071  1
  H  H34  1  0.872028  0.470531  0.153904  1
  H  H35  1  0.633656  0.780125  0.597132  1
  H  H36  1  0.599195  0.630610  0.779008  1
  H  H37  1  0.026934  0.906549  0.691560  1
