# generated using pymatgen
data_Sm3IrI3
_symmetry_space_group_name_H-M   'P 1'
_cell_length_a   4.34742200
_cell_length_b   9.02541814
_cell_length_c   12.52755273
_cell_angle_alpha   86.31225523
_cell_angle_beta   90.00000000
_cell_angle_gamma   90.00000000
_symmetry_Int_Tables_number   1
_chemical_formula_structural   Sm3IrI3
_chemical_formula_sum   'Sm6 Ir2 I6'
_cell_volume   490.52956344
_cell_formula_units_Z   2
loop_
 _symmetry_equiv_pos_site_id
 _symmetry_equiv_pos_as_xyz
  1  'x, y, z'
loop_
 _atom_site_type_symbol
 _atom_site_label
 _atom_site_symmetry_multiplicity
 _atom_site_fract_x
 _atom_site_fract_y
 _atom_site_fract_z
 _atom_site_occupancy
  Sm  Sm0  1  0.750000  0.141028  0.129187  1
  Sm  Sm1  1  0.250000  0.858972  0.870813  1
  Sm  Sm2  1  0.750000  0.096535  0.680576  1
  Sm  Sm3  1  0.250000  0.903465  0.319424  1
  Sm  Sm4  1  0.250000  0.252578  0.900867  1
  Sm  Sm5  1  0.750000  0.747422  0.099133  1
  Ir  Ir6  1  0.750000  0.048418  0.906554  1
  Ir  Ir7  1  0.250000  0.951582  0.093446  1
  I  I8  1  0.250000  0.430013  0.132854  1
  I  I9  1  0.750000  0.569987  0.867146  1
  I  I10  1  0.250000  0.350411  0.640460  1
  I  I11  1  0.750000  0.649589  0.359540  1
  I  I12  1  0.750000  0.143005  0.394243  1
  I  I13  1  0.250000  0.856995  0.605757  1
