# generated using pymatgen
data_Rb2VAuSe4
_symmetry_space_group_name_H-M   'P 1'
_cell_length_a   14.32146464
_cell_length_b   12.75721797
_cell_length_c   7.72739688
_cell_angle_alpha   84.95003871
_cell_angle_beta   62.53818366
_cell_angle_gamma   32.51178322
_symmetry_Int_Tables_number   1
_chemical_formula_structural   Rb2VAuSe4
_chemical_formula_sum   'Rb4 V2 Au2 Se8'
_cell_volume   522.41902097
_cell_formula_units_Z   2
loop_
 _symmetry_equiv_pos_site_id
 _symmetry_equiv_pos_as_xyz
  1  'x, y, z'
loop_
 _atom_site_type_symbol
 _atom_site_label
 _atom_site_symmetry_multiplicity
 _atom_site_fract_x
 _atom_site_fract_y
 _atom_site_fract_z
 _atom_site_occupancy
  Rb  Rb0  1  0.179503  0.179503  0.820497  1
  Rb  Rb1  1  0.429503  0.429503  0.070497  1
  Rb  Rb2  1  0.820497  0.820497  0.179503  1
  Rb  Rb3  1  0.070497  0.070497  0.429503  1
  V  V4  1  0.000000  0.000000  0.000000  1
  V  V5  1  0.250000  0.250000  0.250000  1
  Au  Au6  1  0.500000  0.500000  0.500000  1
  Au  Au7  1  0.750000  0.750000  0.750000  1
  Se  Se8  1  0.746870  0.365052  0.056686  1
  Se  Se9  1  0.365052  0.746870  0.831391  1
  Se  Se10  1  0.056686  0.831391  0.746870  1
  Se  Se11  1  0.831391  0.056686  0.365052  1
  Se  Se12  1  0.193314  0.418609  0.503130  1
  Se  Se13  1  0.418609  0.193314  0.884948  1
  Se  Se14  1  0.884948  0.503130  0.418609  1
  Se  Se15  1  0.503130  0.884948  0.193314  1
