# generated using pymatgen
data_Nd3Tm(Ni5Sn)4
_symmetry_space_group_name_H-M   'P 1'
_cell_length_a   4.89457900
_cell_length_b   4.89457860
_cell_length_c   19.74481400
_cell_angle_alpha   90.00000000
_cell_angle_beta   90.00000000
_cell_angle_gamma   120.00000949
_symmetry_Int_Tables_number   1
_chemical_formula_structural   Nd3Tm(Ni5Sn)4
_chemical_formula_sum   'Nd3 Tm1 Ni20 Sn4'
_cell_volume   409.65125190
_cell_formula_units_Z   1
loop_
 _symmetry_equiv_pos_site_id
 _symmetry_equiv_pos_as_xyz
  1  'x, y, z'
loop_
 _atom_site_type_symbol
 _atom_site_label
 _atom_site_symmetry_multiplicity
 _atom_site_fract_x
 _atom_site_fract_y
 _atom_site_fract_z
 _atom_site_occupancy
  Nd  Nd0  1  0.666667  0.333333  0.750000  1
  Nd  Nd1  1  0.000000  0.000000  0.499679  1
  Nd  Nd2  1  0.000000  0.000000  0.000321  1
  Tm  Tm3  1  0.333333  0.666667  0.250000  1
  Ni  Ni4  1  0.000000  0.000000  0.250000  1
  Ni  Ni5  1  0.000000  0.000000  0.750000  1
  Ni  Ni6  1  0.333333  0.666667  0.750000  1
  Ni  Ni7  1  0.666667  0.333333  0.250000  1
  Ni  Ni8  1  0.333333  0.666667  0.957188  1
  Ni  Ni9  1  0.666667  0.333333  0.043915  1
  Ni  Ni10  1  0.666667  0.333333  0.456085  1
  Ni  Ni11  1  0.333333  0.666667  0.542812  1
  Ni  Ni12  1  0.833756  0.166244  0.352334  1
  Ni  Ni13  1  0.833756  0.667512  0.352334  1
  Ni  Ni14  1  0.332488  0.166244  0.352334  1
  Ni  Ni15  1  0.166213  0.833787  0.646039  1
  Ni  Ni16  1  0.166213  0.332425  0.646039  1
  Ni  Ni17  1  0.667575  0.833787  0.646039  1
  Ni  Ni18  1  0.166213  0.833787  0.853961  1
  Ni  Ni19  1  0.166213  0.332425  0.853961  1
  Ni  Ni20  1  0.667575  0.833787  0.853961  1
  Ni  Ni21  1  0.833756  0.166244  0.147666  1
  Ni  Ni22  1  0.833756  0.667512  0.147666  1
  Ni  Ni23  1  0.332488  0.166244  0.147666  1
  Sn  Sn24  1  0.333333  0.666667  0.411009  1
  Sn  Sn25  1  0.666667  0.333333  0.587062  1
  Sn  Sn26  1  0.666667  0.333333  0.912938  1
  Sn  Sn27  1  0.333333  0.666667  0.088991  1
