# generated using pymatgen
data_ScPaS6
_symmetry_space_group_name_H-M   'P 1'
_cell_length_a   9.31743500
_cell_length_b   9.31743410
_cell_length_c   3.89718400
_cell_angle_alpha   90.00000000
_cell_angle_beta   90.00000000
_cell_angle_gamma   147.26635435
_symmetry_Int_Tables_number   1
_chemical_formula_structural   ScPaS6
_chemical_formula_sum   'Sc1 Pa1 S6'
_cell_volume   182.94797196
_cell_formula_units_Z   1
loop_
 _symmetry_equiv_pos_site_id
 _symmetry_equiv_pos_as_xyz
  1  'x, y, z'
loop_
 _atom_site_type_symbol
 _atom_site_label
 _atom_site_symmetry_multiplicity
 _atom_site_fract_x
 _atom_site_fract_y
 _atom_site_fract_z
 _atom_site_occupancy
  Sc  Sc0  1  0.671731  0.328267  0.749999  1
  Pa  Pa1  1  0.319257  0.680741  0.249999  1
  S  S2  1  0.781703  0.218296  0.249999  1
  S  S3  1  0.394472  0.211066  0.249999  1
  S  S4  1  0.788932  0.605526  0.249999  1
  S  S5  1  0.215384  0.390335  0.749999  1
  S  S6  1  0.609663  0.784614  0.749999  1
  S  S7  1  0.218850  0.781149  0.749999  1
