# generated using pymatgen
data_KTb(ReH9)2
_symmetry_space_group_name_H-M   'P 1'
_cell_length_a   5.27461939
_cell_length_b   5.27462716
_cell_length_c   8.98687221
_cell_angle_alpha   93.42765414
_cell_angle_beta   86.56530660
_cell_angle_gamma   125.50171581
_symmetry_Int_Tables_number   1
_chemical_formula_structural   KTb(ReH9)2
_chemical_formula_sum   'K1 Tb1 Re2 H18'
_cell_volume   203.08687387
_cell_formula_units_Z   1
loop_
 _symmetry_equiv_pos_site_id
 _symmetry_equiv_pos_as_xyz
  1  'x, y, z'
loop_
 _atom_site_type_symbol
 _atom_site_label
 _atom_site_symmetry_multiplicity
 _atom_site_fract_x
 _atom_site_fract_y
 _atom_site_fract_z
 _atom_site_occupancy
  K  K0  1  0.000000  0.000000  0.000000  1
  Tb  Tb1  1  0.000000  0.000000  0.500000  1
  Re  Re2  1  0.336315  0.663848  0.713376  1
  Re  Re3  1  0.663685  0.336152  0.286624  1
  H  H4  1  0.388319  0.611270  0.526315  1
  H  H5  1  0.611681  0.388730  0.473685  1
  H  H6  1  0.412796  0.586888  0.874968  1
  H  H7  1  0.587204  0.413112  0.125032  1
  H  H8  1  0.469032  0.958806  0.841350  1
  H  H9  1  0.959220  0.469421  0.158623  1
  H  H10  1  0.593371  0.017005  0.642246  1
  H  H11  1  0.017369  0.593749  0.357715  1
  H  H12  1  0.530968  0.041194  0.158650  1
  H  H13  1  0.040780  0.530579  0.841377  1
  H  H14  1  0.406629  0.982995  0.357754  1
  H  H15  1  0.982631  0.406251  0.642285  1
  H  H16  1  0.696356  0.729650  0.709064  1
  H  H17  1  0.730027  0.696749  0.290879  1
  H  H18  1  0.303644  0.270350  0.290936  1
  H  H19  1  0.269973  0.303251  0.709121  1
  H  H20  1  0.156685  0.843010  0.687903  1
  H  H21  1  0.843315  0.156990  0.312097  1
