# generated using pymatgen
data_Li8Zr(MnBr8)3
_symmetry_space_group_name_H-M   'P 1'
_cell_length_a   6.60222900
_cell_length_b   6.60222922
_cell_length_c   26.80673500
_cell_angle_alpha   90.00000000
_cell_angle_beta   90.00000000
_cell_angle_gamma   120.00000391
_symmetry_Int_Tables_number   1
_chemical_formula_structural   Li8Zr(MnBr8)3
_chemical_formula_sum   'Li8 Zr1 Mn3 Br24'
_cell_volume   1011.94222474
_cell_formula_units_Z   1
loop_
 _symmetry_equiv_pos_site_id
 _symmetry_equiv_pos_as_xyz
  1  'x, y, z'
loop_
 _atom_site_type_symbol
 _atom_site_label
 _atom_site_symmetry_multiplicity
 _atom_site_fract_x
 _atom_site_fract_y
 _atom_site_fract_z
 _atom_site_occupancy
  Li  Li0  1  0.000000  0.000000  0.250000  1
  Li  Li1  1  0.000000  0.000000  0.750000  1
  Li  Li2  1  0.333333  0.666667  0.999909  1
  Li  Li3  1  0.333333  0.666667  0.500091  1
  Li  Li4  1  0.333333  0.666667  0.250000  1
  Li  Li5  1  0.666667  0.333333  0.750000  1
  Li  Li6  1  0.666667  0.333333  0.000073  1
  Li  Li7  1  0.666667  0.333333  0.499927  1
  Zr  Zr8  1  0.666667  0.333333  0.250000  1
  Mn  Mn9  1  0.000000  0.000000  0.999978  1
  Mn  Mn10  1  0.000000  0.000000  0.500022  1
  Mn  Mn11  1  0.333333  0.666667  0.750000  1
  Br  Br12  1  0.341112  0.007470  0.307557  1
  Br  Br13  1  0.333510  0.970649  0.803643  1
  Br  Br14  1  0.000540  0.304058  0.053579  1
  Br  Br15  1  0.999497  0.303372  0.553611  1
  Br  Br16  1  0.992530  0.333642  0.307557  1
  Br  Br17  1  0.029351  0.362861  0.803643  1
  Br  Br18  1  0.341112  0.333642  0.192443  1
  Br  Br19  1  0.333510  0.362861  0.696357  1
  Br  Br20  1  0.303518  0.304058  0.446421  1
  Br  Br21  1  0.303876  0.303372  0.946389  1
  Br  Br22  1  0.695942  0.999460  0.446421  1
  Br  Br23  1  0.303518  0.999460  0.053579  1
  Br  Br24  1  0.303876  0.000503  0.553611  1
  Br  Br25  1  0.695942  0.696482  0.053579  1
  Br  Br26  1  0.696628  0.696124  0.553611  1
  Br  Br27  1  0.666358  0.658888  0.307557  1
  Br  Br28  1  0.637139  0.666490  0.803643  1
  Br  Br29  1  0.992530  0.658888  0.192443  1
  Br  Br30  1  0.029351  0.666490  0.696357  1
  Br  Br31  1  0.000540  0.696482  0.446421  1
  Br  Br32  1  0.999497  0.696124  0.946389  1
  Br  Br33  1  0.696628  0.000503  0.946389  1
  Br  Br34  1  0.666358  0.007470  0.192443  1
  Br  Br35  1  0.637139  0.970649  0.696357  1
