# generated using pymatgen
data_CaS2(O3F)2
_symmetry_space_group_name_H-M   'P 1'
_cell_length_a   7.10120562
_cell_length_b   7.10120559
_cell_length_c   9.18371323
_cell_angle_alpha   113.13645744
_cell_angle_beta   102.89850287
_cell_angle_gamma   101.72186483
_symmetry_Int_Tables_number   1
_chemical_formula_structural   CaS2(O3F)2
_chemical_formula_sum   'Ca2 S4 O12 F4'
_cell_volume   392.65185573
_cell_formula_units_Z   2
loop_
 _symmetry_equiv_pos_site_id
 _symmetry_equiv_pos_as_xyz
  1  'x, y, z'
loop_
 _atom_site_type_symbol
 _atom_site_label
 _atom_site_symmetry_multiplicity
 _atom_site_fract_x
 _atom_site_fract_y
 _atom_site_fract_z
 _atom_site_occupancy
  Ca  Ca0  1  0.677479  0.427479  0.750000  1
  Ca  Ca1  1  0.322521  0.572521  0.250000  1
  S  S2  1  0.163541  0.349813  0.781686  1
  S  S3  1  0.568126  0.881855  0.718314  1
  S  S4  1  0.836459  0.650187  0.218314  1
  S  S5  1  0.431874  0.118145  0.281686  1
  O  O6  1  0.331756  0.387009  0.720279  1
  O  O7  1  0.666730  0.111478  0.779721  1
  O  O8  1  0.668244  0.612991  0.279721  1
  O  O9  1  0.333270  0.888522  0.220279  1
  O  O10  1  0.998604  0.422838  0.723975  1
  O  O11  1  0.698863  0.774629  0.776025  1
  O  O12  1  0.001396  0.577162  0.276025  1
  O  O13  1  0.301137  0.225371  0.223975  1
  O  O14  1  0.223961  0.404757  0.958880  1
  O  O15  1  0.445878  0.765082  0.541120  1
  O  O16  1  0.776039  0.595243  0.041120  1
  O  O17  1  0.554122  0.234918  0.458880  1
  F  F18  1  0.065530  0.092041  0.690065  1
  F  F19  1  0.401976  0.875464  0.809935  1
  F  F20  1  0.934470  0.907959  0.309935  1
  F  F21  1  0.598024  0.124536  0.190065  1
