# generated using pymatgen
data_Dy12Tc2RuRh
_symmetry_space_group_name_H-M   'P 1'
_cell_length_a   6.31445175
_cell_length_b   7.37004307
_cell_length_c   9.19584800
_cell_angle_alpha   90.00000000
_cell_angle_beta   90.00000000
_cell_angle_gamma   90.05085487
_symmetry_Int_Tables_number   1
_chemical_formula_structural   Dy12Tc2RuRh
_chemical_formula_sum   'Dy12 Tc2 Ru1 Rh1'
_cell_volume   427.95419555
_cell_formula_units_Z   1
loop_
 _symmetry_equiv_pos_site_id
 _symmetry_equiv_pos_as_xyz
  1  'x, y, z'
loop_
 _atom_site_type_symbol
 _atom_site_label
 _atom_site_symmetry_multiplicity
 _atom_site_fract_x
 _atom_site_fract_y
 _atom_site_fract_z
 _atom_site_occupancy
  Dy  Dy0  1  0.334661  0.675148  0.062981  1
  Dy  Dy1  1  0.164483  0.178788  0.438270  1
  Dy  Dy2  1  0.664378  0.323230  0.563772  1
  Dy  Dy3  1  0.831264  0.823150  0.933917  1
  Dy  Dy4  1  0.664378  0.323230  0.936228  1
  Dy  Dy5  1  0.831264  0.823150  0.566083  1
  Dy  Dy6  1  0.334661  0.675148  0.437019  1
  Dy  Dy7  1  0.164483  0.178788  0.061730  1
  Dy  Dy8  1  0.870686  0.540922  0.250000  1
  Dy  Dy9  1  0.630667  0.041750  0.250000  1
  Dy  Dy10  1  0.131298  0.459822  0.750000  1
  Dy  Dy11  1  0.371436  0.956703  0.750000  1
  Tc  Tc12  1  0.461870  0.386839  0.250000  1
  Tc  Tc13  1  0.964331  0.112447  0.750000  1
  Ru  Ru14  1  0.539420  0.615781  0.750000  1
  Rh  Rh15  1  0.040723  0.885105  0.250000  1
