# generated using pymatgen
data_TbTm2Hf(Al8Pt3)3
_symmetry_space_group_name_H-M   'P 1'
_cell_length_a   7.51059649
_cell_length_b   7.51863444
_cell_length_c   13.07434305
_cell_angle_alpha   84.54895273
_cell_angle_beta   79.02204131
_cell_angle_gamma   59.90040759
_symmetry_Int_Tables_number   1
_chemical_formula_structural   TbTm2Hf(Al8Pt3)3
_chemical_formula_sum   'Tb1 Tm2 Hf1 Al24 Pt9'
_cell_volume   627.05571813
_cell_formula_units_Z   1
loop_
 _symmetry_equiv_pos_site_id
 _symmetry_equiv_pos_as_xyz
  1  'x, y, z'
loop_
 _atom_site_type_symbol
 _atom_site_label
 _atom_site_symmetry_multiplicity
 _atom_site_fract_x
 _atom_site_fract_y
 _atom_site_fract_z
 _atom_site_occupancy
  Tb  Tb0  1  0.606533  0.831885  0.191449  1
  Tm  Tm1  1  0.734102  0.498694  0.807168  1
  Tm  Tm2  1  0.266569  0.501085  0.192456  1
  Hf  Hf3  1  0.393631  0.168526  0.807777  1
  Al  Al4  1  0.681616  0.836500  0.940807  1
  Al  Al5  1  0.316363  0.167018  0.053962  1
  Al  Al6  1  0.146392  0.832697  0.562682  1
  Al  Al7  1  0.853015  0.167234  0.438272  1
  Al  Al8  1  0.479876  0.166748  0.560582  1
  Al  Al9  1  0.519354  0.833874  0.441509  1
  Al  Al10  1  0.216903  0.165920  0.329391  1
  Al  Al11  1  0.779606  0.836353  0.674273  1
  Al  Al12  1  0.435644  0.504770  0.674730  1
  Al  Al13  1  0.562641  0.493228  0.328539  1
  Al  Al14  1  0.110315  0.159620  0.673577  1
  Al  Al15  1  0.890899  0.839836  0.329782  1
  Al  Al16  1  0.354823  0.496013  0.941104  1
  Al  Al17  1  0.647216  0.499973  0.055357  1
  Al  Al18  1  0.019295  0.168656  0.948847  1
  Al  Al19  1  0.985107  0.832243  0.046910  1
  Al  Al20  1  0.186762  0.499207  0.441391  1
  Al  Al21  1  0.813747  0.500279  0.559141  1
  Al  Al22  1  0.733554  0.164622  0.183316  1
  Al  Al23  1  0.266559  0.841078  0.816676  1
  Al  Al24  1  0.065816  0.626269  0.815366  1
  Al  Al25  1  0.939928  0.368141  0.184181  1
  Al  Al26  1  0.850155  0.042227  0.815883  1
  Al  Al27  1  0.144543  0.958110  0.183610  1
  Pt  Pt28  1  0.119941  0.489570  0.640322  1
  Pt  Pt29  1  0.879717  0.508623  0.361216  1
  Pt  Pt30  1  0.657227  0.172128  0.998634  1
  Pt  Pt31  1  0.343969  0.827547  0.999144  1
  Pt  Pt32  1  0.536881  0.167198  0.361562  1
  Pt  Pt33  1  0.463787  0.832974  0.640086  1
  Pt  Pt34  1  0.776888  0.176874  0.638613  1
  Pt  Pt35  1  0.220742  0.824212  0.363034  1
  Pt  Pt36  1  0.999884  0.500063  0.998646  1
