# generated using pymatgen
data_YbPrB4Ir5
_symmetry_space_group_name_H-M   'P 1'
_cell_length_a   7.55591615
_cell_length_b   6.33327278
_cell_length_c   5.68491237
_cell_angle_alpha   77.70263407
_cell_angle_beta   54.98035085
_cell_angle_gamma   47.31698520
_symmetry_Int_Tables_number   1
_chemical_formula_structural   YbPrB4Ir5
_chemical_formula_sum   'Yb1 Pr1 B4 Ir5'
_cell_volume   156.61806075
_cell_formula_units_Z   1
loop_
 _symmetry_equiv_pos_site_id
 _symmetry_equiv_pos_as_xyz
  1  'x, y, z'
loop_
 _atom_site_type_symbol
 _atom_site_label
 _atom_site_symmetry_multiplicity
 _atom_site_fract_x
 _atom_site_fract_y
 _atom_site_fract_z
 _atom_site_occupancy
  Yb  Yb0  1  0.357224  0.357225  0.642776  1
  Pr  Pr1  1  0.638014  0.638015  0.361986  1
  B  B2  1  0.291332  0.972528  0.027472  1
  B  B3  1  0.027471  0.711491  0.288509  1
  B  B4  1  0.972528  0.291332  0.708668  1
  B  B5  1  0.711491  0.027471  0.972529  1
  Ir  Ir6  1  0.000282  0.000282  0.999718  1
  Ir  Ir7  1  0.499273  0.499273  0.000727  1
  Ir  Ir8  1  0.251555  0.251555  0.248446  1
  Ir  Ir9  1  0.999273  0.999273  0.500727  1
  Ir  Ir10  1  0.751554  0.751555  0.748446  1
