# generated using pymatgen
data_Hf4Mn3Re5
_symmetry_space_group_name_H-M   'P 1'
_cell_length_a   5.17990800
_cell_length_b   5.17033019
_cell_length_c   8.49927300
_cell_angle_alpha   90.00000000
_cell_angle_beta   90.00000000
_cell_angle_gamma   120.06129769
_symmetry_Int_Tables_number   1
_chemical_formula_structural   Hf4Mn3Re5
_chemical_formula_sum   'Hf4 Mn3 Re5'
_cell_volume   197.00813129
_cell_formula_units_Z   1
loop_
 _symmetry_equiv_pos_site_id
 _symmetry_equiv_pos_as_xyz
  1  'x, y, z'
loop_
 _atom_site_type_symbol
 _atom_site_label
 _atom_site_symmetry_multiplicity
 _atom_site_fract_x
 _atom_site_fract_y
 _atom_site_fract_z
 _atom_site_occupancy
  Hf  Hf0  1  0.334590  0.669181  0.059902  1
  Hf  Hf1  1  0.667199  0.334397  0.562743  1
  Hf  Hf2  1  0.667199  0.334397  0.937257  1
  Hf  Hf3  1  0.334590  0.669181  0.440098  1
  Mn  Mn4  1  0.828207  0.656416  0.250000  1
  Mn  Mn5  1  0.170062  0.824759  0.750000  1
  Mn  Mn6  1  0.654697  0.824759  0.750000  1
  Re  Re7  1  0.999567  0.999133  0.994592  1
  Re  Re8  1  0.999567  0.999133  0.505408  1
  Re  Re9  1  0.342038  0.170379  0.250000  1
  Re  Re10  1  0.828340  0.170379  0.250000  1
  Re  Re11  1  0.173944  0.347887  0.750000  1
