# generated using pymatgen
data_Dy16CdCo4AgHg2
_symmetry_space_group_name_H-M   'P 1'
_cell_length_a   9.44470647
_cell_length_b   9.45681273
_cell_length_c   9.41748600
_cell_angle_alpha   60.13747599
_cell_angle_beta   60.09529996
_cell_angle_gamma   60.03866808
_symmetry_Int_Tables_number   1
_chemical_formula_structural   Dy16CdCo4AgHg2
_chemical_formula_sum   'Dy16 Cd1 Co4 Ag1 Hg2'
_cell_volume   595.99428866
_cell_formula_units_Z   1
loop_
 _symmetry_equiv_pos_site_id
 _symmetry_equiv_pos_as_xyz
  1  'x, y, z'
loop_
 _atom_site_type_symbol
 _atom_site_label
 _atom_site_symmetry_multiplicity
 _atom_site_fract_x
 _atom_site_fract_y
 _atom_site_fract_z
 _atom_site_occupancy
  Dy  Dy0  1  0.152692  0.542323  0.152492  1
  Dy  Dy1  1  0.689601  0.312258  0.688005  1
  Dy  Dy2  1  0.689601  0.312258  0.310136  1
  Dy  Dy3  1  0.938730  0.559043  0.563047  1
  Dy  Dy4  1  0.542769  0.150732  0.153249  1
  Dy  Dy5  1  0.153826  0.152327  0.538849  1
  Dy  Dy6  1  0.937243  0.936700  0.563029  1
  Dy  Dy7  1  0.312280  0.689709  0.310374  1
  Dy  Dy8  1  0.562811  0.936637  0.937941  1
  Dy  Dy9  1  0.562811  0.936637  0.562611  1
  Dy  Dy10  1  0.689251  0.689978  0.310385  1
  Dy  Dy11  1  0.563224  0.559299  0.938738  1
  Dy  Dy12  1  0.938730  0.559043  0.939180  1
  Dy  Dy13  1  0.312280  0.689709  0.687636  1
  Dy  Dy14  1  0.153826  0.152327  0.154997  1
  Dy  Dy15  1  0.313322  0.312336  0.687170  1
  Cd  Cd16  1  0.237215  0.923301  0.919742  1
  Co  Co17  1  0.359013  0.359346  0.922545  1
  Co  Co18  1  0.359200  0.922134  0.359334  1
  Co  Co19  1  0.922846  0.359286  0.358935  1
  Co  Co20  1  0.359013  0.359346  0.359097  1
  Ag  Ag21  1  0.917587  0.248739  0.916837  1
  Hg  Hg22  1  0.916063  0.918266  0.914448  1
  Hg  Hg23  1  0.916063  0.918266  0.251222  1
