# generated using pymatgen
data_Yb2Al4Ge2Ir
_symmetry_space_group_name_H-M   'P 1'
_cell_length_a   4.23898811
_cell_length_b   4.23900268
_cell_length_c   10.53205100
_cell_angle_alpha   101.58705974
_cell_angle_beta   101.58721049
_cell_angle_gamma   89.99411000
_symmetry_Int_Tables_number   1
_chemical_formula_structural   Yb2Al4Ge2Ir
_chemical_formula_sum   'Yb2 Al4 Ge2 Ir1'
_cell_volume   181.45640444
_cell_formula_units_Z   1
loop_
 _symmetry_equiv_pos_site_id
 _symmetry_equiv_pos_as_xyz
  1  'x, y, z'
loop_
 _atom_site_type_symbol
 _atom_site_label
 _atom_site_symmetry_multiplicity
 _atom_site_fract_x
 _atom_site_fract_y
 _atom_site_fract_z
 _atom_site_occupancy
  Yb  Yb0  1  0.186677  0.186677  0.373667  1
  Yb  Yb1  1  0.813325  0.813325  0.626333  1
  Al  Al2  1  0.568318  0.068795  0.137254  1
  Al  Al3  1  0.068796  0.568318  0.137254  1
  Al  Al4  1  0.931204  0.431682  0.862744  1
  Al  Al5  1  0.431682  0.931205  0.862745  1
  Ge  Ge6  1  0.657284  0.657284  0.314733  1
  Ge  Ge7  1  0.342718  0.342718  0.685268  1
  Ir  Ir8  1  0.000000  0.000000  0.000002  1
