# generated using pymatgen
data_Th2AlPt6
_symmetry_space_group_name_H-M   'P 1'
_cell_length_a   6.90656405
_cell_length_b   6.90656381
_cell_length_c   6.90656523
_cell_angle_alpha   49.14135221
_cell_angle_beta   49.14135620
_cell_angle_gamma   49.14134921
_symmetry_Int_Tables_number   1
_chemical_formula_structural   Th2AlPt6
_chemical_formula_sum   'Th2 Al1 Pt6'
_cell_volume   173.08997980
_cell_formula_units_Z   1
loop_
 _symmetry_equiv_pos_site_id
 _symmetry_equiv_pos_as_xyz
  1  'x, y, z'
loop_
 _atom_site_type_symbol
 _atom_site_label
 _atom_site_symmetry_multiplicity
 _atom_site_fract_x
 _atom_site_fract_y
 _atom_site_fract_z
 _atom_site_occupancy
  Th  Th0  1  0.224598  0.224598  0.224598  1
  Th  Th1  1  0.775402  0.775402  0.775402  1
  Al  Al2  1  0.500000  0.500000  0.500000  1
  Pt  Pt3  1  0.737098  0.228689  0.228690  1
  Pt  Pt4  1  0.228689  0.737098  0.228690  1
  Pt  Pt5  1  0.771311  0.771311  0.262901  1
  Pt  Pt6  1  0.228689  0.228689  0.737099  1
  Pt  Pt7  1  0.771311  0.262902  0.771310  1
  Pt  Pt8  1  0.262902  0.771311  0.771310  1
