# generated using pymatgen
data_K11RbLi4Si15Sn
_symmetry_space_group_name_H-M   'P 1'
_cell_length_a   7.72472481
_cell_length_b   9.83561000
_cell_length_c   12.43335577
_cell_angle_alpha   90.00000000
_cell_angle_beta   89.75553450
_cell_angle_gamma   90.00000000
_symmetry_Int_Tables_number   1
_chemical_formula_structural   K11RbLi4Si15Sn
_chemical_formula_sum   'K11 Rb1 Li4 Si15 Sn1'
_cell_volume   944.64520462
_cell_formula_units_Z   1
loop_
 _symmetry_equiv_pos_site_id
 _symmetry_equiv_pos_as_xyz
  1  'x, y, z'
loop_
 _atom_site_type_symbol
 _atom_site_label
 _atom_site_symmetry_multiplicity
 _atom_site_fract_x
 _atom_site_fract_y
 _atom_site_fract_z
 _atom_site_occupancy
  K  K0  1  0.155286  0.250000  0.100014  1
  K  K1  1  0.343113  0.750000  0.590976  1
  K  K2  1  0.852131  0.750000  0.901067  1
  K  K3  1  0.654020  0.446661  0.694363  1
  K  K4  1  0.151406  0.061253  0.805328  1
  K  K5  1  0.344346  0.947045  0.308798  1
  K  K6  1  0.842764  0.553901  0.194370  1
  K  K7  1  0.344346  0.552955  0.308798  1
  K  K8  1  0.842764  0.946099  0.194370  1
  K  K9  1  0.654020  0.053339  0.694363  1
  K  K10  1  0.151406  0.438747  0.805328  1
  Rb  Rb11  1  0.655078  0.250000  0.399610  1
  Li  Li12  1  0.500408  0.497092  0.003026  1
  Li  Li13  1  0.999959  0.999737  0.500265  1
  Li  Li14  1  0.500408  0.002908  0.003026  1
  Li  Li15  1  0.999959  0.500263  0.500265  1
  Si  Si16  1  0.861812  0.750000  0.598373  1
  Si  Si17  1  0.637548  0.250000  0.098750  1
  Si  Si18  1  0.138860  0.250000  0.401392  1
  Si  Si19  1  0.716728  0.629072  0.451671  1
  Si  Si20  1  0.215638  0.871423  0.054039  1
  Si  Si21  1  0.282902  0.128992  0.548302  1
  Si  Si22  1  0.784287  0.371232  0.952226  1
  Si  Si23  1  0.011911  0.250000  0.582582  1
  Si  Si24  1  0.513808  0.250000  0.916737  1
  Si  Si25  1  0.987861  0.750000  0.416115  1
  Si  Si26  1  0.487136  0.750000  0.088267  1
  Si  Si27  1  0.215638  0.628577  0.054039  1
  Si  Si28  1  0.716728  0.870928  0.451671  1
  Si  Si29  1  0.784287  0.128768  0.952226  1
  Si  Si30  1  0.282902  0.371008  0.548302  1
  Sn  Sn31  1  0.370534  0.750000  0.881341  1
