# generated using pymatgen
data_YLu7(C2Cl3)2
_symmetry_space_group_name_H-M   'P 1'
_cell_length_a   3.58673700
_cell_length_b   10.20152700
_cell_length_c   19.31174500
_cell_angle_alpha   90.00000000
_cell_angle_beta   90.00000000
_cell_angle_gamma   90.00000000
_symmetry_Int_Tables_number   1
_chemical_formula_structural   YLu7(C2Cl3)2
_chemical_formula_sum   'Y2 Lu14 C8 Cl12'
_cell_volume   706.62050274
_cell_formula_units_Z   2
loop_
 _symmetry_equiv_pos_site_id
 _symmetry_equiv_pos_as_xyz
  1  'x, y, z'
loop_
 _atom_site_type_symbol
 _atom_site_label
 _atom_site_symmetry_multiplicity
 _atom_site_fract_x
 _atom_site_fract_y
 _atom_site_fract_z
 _atom_site_occupancy
  Y  Y0  1  0.250000  0.137868  0.573446  1
  Y  Y1  1  0.250000  0.637868  0.926554  1
  Lu  Lu2  1  0.750000  0.861585  0.424343  1
  Lu  Lu3  1  0.750000  0.361585  0.075657  1
  Lu  Lu4  1  0.250000  0.636728  0.756368  1
  Lu  Lu5  1  0.250000  0.136728  0.743632  1
  Lu  Lu6  1  0.750000  0.363281  0.243124  1
  Lu  Lu7  1  0.750000  0.863281  0.256876  1
  Lu  Lu8  1  0.250000  0.100089  0.330327  1
  Lu  Lu9  1  0.250000  0.600089  0.169673  1
  Lu  Lu10  1  0.750000  0.899485  0.669975  1
  Lu  Lu11  1  0.750000  0.399485  0.830025  1
  Lu  Lu12  1  0.250000  0.126521  0.165937  1
  Lu  Lu13  1  0.250000  0.626521  0.334063  1
  Lu  Lu14  1  0.750000  0.873782  0.833887  1
  Lu  Lu15  1  0.750000  0.373782  0.666113  1
  C  C16  1  0.250000  0.864865  0.347274  1
  C  C17  1  0.250000  0.364865  0.152726  1
  C  C18  1  0.750000  0.135153  0.655068  1
  C  C19  1  0.750000  0.635153  0.844932  1
  C  C20  1  0.250000  0.386916  0.749876  1
  C  C21  1  0.250000  0.886916  0.750124  1
  C  C22  1  0.750000  0.613078  0.250292  1
  C  C23  1  0.750000  0.113078  0.249708  1
  Cl  Cl24  1  0.250000  0.372160  0.953650  1
  Cl  Cl25  1  0.250000  0.872160  0.546350  1
  Cl  Cl26  1  0.750000  0.622124  0.049765  1
  Cl  Cl27  1  0.750000  0.122124  0.450235  1
  Cl  Cl28  1  0.250000  0.893442  0.943407  1
  Cl  Cl29  1  0.250000  0.393442  0.556593  1
  Cl  Cl30  1  0.750000  0.112610  0.056303  1
  Cl  Cl31  1  0.750000  0.612610  0.443697  1
  Cl  Cl32  1  0.250000  0.361442  0.353029  1
  Cl  Cl33  1  0.250000  0.861442  0.146971  1
  Cl  Cl34  1  0.750000  0.638869  0.646617  1
  Cl  Cl35  1  0.750000  0.138869  0.853383  1
