# generated using pymatgen
data_Cs4NdSm3(SiSe4)4
_symmetry_space_group_name_H-M   'P 1'
_cell_length_a   7.12520338
_cell_length_b   9.93662798
_cell_length_c   13.54807312
_cell_angle_alpha   71.39705355
_cell_angle_beta   89.96949422
_cell_angle_gamma   89.96954540
_symmetry_Int_Tables_number   1
_chemical_formula_structural   Cs4NdSm3(SiSe4)4
_chemical_formula_sum   'Cs4 Nd1 Sm3 Si4 Se16'
_cell_volume   909.09327932
_cell_formula_units_Z   1
loop_
 _symmetry_equiv_pos_site_id
 _symmetry_equiv_pos_as_xyz
  1  'x, y, z'
loop_
 _atom_site_type_symbol
 _atom_site_label
 _atom_site_symmetry_multiplicity
 _atom_site_fract_x
 _atom_site_fract_y
 _atom_site_fract_z
 _atom_site_occupancy
  Cs  Cs0  1  0.254245  0.434733  0.386400  1
  Cs  Cs1  1  0.754253  0.565251  0.113623  1
  Cs  Cs2  1  0.745893  0.565373  0.613426  1
  Cs  Cs3  1  0.245736  0.434713  0.886462  1
  Nd  Nd4  1  0.303849  0.953671  0.865353  1
  Sm  Sm5  1  0.194436  0.953486  0.365531  1
  Sm  Sm6  1  0.694457  0.046567  0.134550  1
  Sm  Sm7  1  0.805447  0.046638  0.634116  1
  Si  Si8  1  0.743666  0.165361  0.354729  1
  Si  Si9  1  0.243670  0.834433  0.145643  1
  Si  Si10  1  0.256372  0.834378  0.645053  1
  Si  Si11  1  0.756216  0.165726  0.854633  1
  Se  Se12  1  0.027576  0.196774  0.757462  1
  Se  Se13  1  0.777946  0.933313  0.455639  1
  Se  Se14  1  0.526435  0.207312  0.729415  1
  Se  Se15  1  0.724311  0.933513  0.955856  1
  Se  Se16  1  0.758815  0.311195  0.453864  1
  Se  Se17  1  0.971212  0.804931  0.241768  1
  Se  Se18  1  0.258502  0.686577  0.047999  1
  Se  Se19  1  0.222154  0.066671  0.544594  1
  Se  Se20  1  0.741121  0.311245  0.953950  1
  Se  Se21  1  0.475026  0.794255  0.269862  1
  Se  Se22  1  0.023633  0.793181  0.768895  1
  Se  Se23  1  0.241195  0.688708  0.545967  1
  Se  Se24  1  0.471441  0.195138  0.258395  1
  Se  Se25  1  0.974807  0.205672  0.230238  1
  Se  Se26  1  0.529708  0.803966  0.740655  1
  Se  Se27  1  0.277879  0.067219  0.045922  1
