# generated using pymatgen
data_Mn3Al3(Pd2Pt3)2
_symmetry_space_group_name_H-M   'P 1'
_cell_length_a   4.05715300
_cell_length_b   5.47489104
_cell_length_c   10.79213150
_cell_angle_alpha   89.50499528
_cell_angle_beta   90.00000000
_cell_angle_gamma   90.00000000
_symmetry_Int_Tables_number   1
_chemical_formula_structural   Mn3Al3(Pd2Pt3)2
_chemical_formula_sum   'Mn3 Al3 Pd4 Pt6'
_cell_volume   239.71095746
_cell_formula_units_Z   1
loop_
 _symmetry_equiv_pos_site_id
 _symmetry_equiv_pos_as_xyz
  1  'x, y, z'
loop_
 _atom_site_type_symbol
 _atom_site_label
 _atom_site_symmetry_multiplicity
 _atom_site_fract_x
 _atom_site_fract_y
 _atom_site_fract_z
 _atom_site_occupancy
  Mn  Mn0  1  0.500000  0.194721  0.637760  1
  Mn  Mn1  1  0.500000  0.811715  0.363301  1
  Mn  Mn2  1  0.500000  0.688162  0.861999  1
  Al  Al3  1  0.500000  0.318755  0.140914  1
  Al  Al4  1  0.000000  0.499294  0.500765  1
  Al  Al5  1  0.000000  0.982665  0.995882  1
  Pd  Pd6  1  0.000000  0.442620  0.743375  1
  Pd  Pd7  1  0.000000  0.568205  0.261546  1
  Pd  Pd8  1  0.000000  0.942876  0.757358  1
  Pd  Pd9  1  0.000000  0.069895  0.233149  1
  Pt  Pt10  1  0.500000  0.301602  0.388519  1
  Pt  Pt11  1  0.500000  0.700365  0.608855  1
  Pt  Pt12  1  0.500000  0.799280  0.108879  1
  Pt  Pt13  1  0.500000  0.193476  0.894967  1
  Pt  Pt14  1  0.000000  0.484627  0.004952  1
  Pt  Pt15  1  0.000000  0.001740  0.497776  1
