# generated using pymatgen
data_TlTcRuF12
_symmetry_space_group_name_H-M   'P 1'
_cell_length_a   5.60952392
_cell_length_b   5.57517681
_cell_length_c   10.09890100
_cell_angle_alpha   96.50115917
_cell_angle_beta   95.52252346
_cell_angle_gamma   119.12995647
_symmetry_Int_Tables_number   1
_chemical_formula_structural   TlTcRuF12
_chemical_formula_sum   'Tl1 Tc1 Ru1 F12'
_cell_volume   269.91216381
_cell_formula_units_Z   1
loop_
 _symmetry_equiv_pos_site_id
 _symmetry_equiv_pos_as_xyz
  1  'x, y, z'
loop_
 _atom_site_type_symbol
 _atom_site_label
 _atom_site_symmetry_multiplicity
 _atom_site_fract_x
 _atom_site_fract_y
 _atom_site_fract_z
 _atom_site_occupancy
  Tl  Tl0  1  0.982946  0.959901  0.905083  1
  Tc  Tc1  1  0.208388  0.499313  0.587919  1
  Ru  Ru2  1  0.387636  0.694203  0.138136  1
  F  F3  1  0.328246  0.958428  0.236630  1
  F  F4  1  0.504528  0.526120  0.708224  1
  F  F5  1  0.060126  0.575421  0.006691  1
  F  F6  1  0.170087  0.417340  0.232090  1
  F  F7  1  0.445989  0.430690  0.027137  1
  F  F8  1  0.187421  0.190082  0.486372  1
  F  F9  1  0.712196  0.800817  0.256837  1
  F  F10  1  0.243025  0.815420  0.699217  1
  F  F11  1  0.907785  0.466834  0.476903  1
  F  F12  1  0.957439  0.266608  0.691268  1
  F  F13  1  0.462228  0.745881  0.495808  1
  F  F14  1  0.589957  0.962946  0.029682  1
