# generated using pymatgen
data_HfMg2Zr(NiSb)4
_symmetry_space_group_name_H-M   'P 1'
_cell_length_a   6.11292076
_cell_length_b   6.11292098
_cell_length_c   7.49473201
_cell_angle_alpha   65.93237618
_cell_angle_beta   65.93237409
_cell_angle_gamma   89.99999560
_symmetry_Int_Tables_number   1
_chemical_formula_structural   HfMg2Zr(NiSb)4
_chemical_formula_sum   'Hf1 Mg2 Zr1 Ni4 Sb4'
_cell_volume   228.79075573
_cell_formula_units_Z   1
loop_
 _symmetry_equiv_pos_site_id
 _symmetry_equiv_pos_as_xyz
  1  'x, y, z'
loop_
 _atom_site_type_symbol
 _atom_site_label
 _atom_site_symmetry_multiplicity
 _atom_site_fract_x
 _atom_site_fract_y
 _atom_site_fract_z
 _atom_site_occupancy
  Hf  Hf0  1  0.750001  0.249999  0.500000  1
  Mg  Mg1  1  0.000000  0.000000  0.000000  1
  Mg  Mg2  1  0.250001  0.750001  0.500000  1
  Zr  Zr3  1  0.500000  0.500000  0.000000  1
  Ni  Ni4  1  0.123449  0.135328  0.250967  1
  Ni  Ni5  1  0.625585  0.613705  0.250967  1
  Ni  Ni6  1  0.864673  0.374415  0.749031  1
  Ni  Ni7  1  0.386292  0.876551  0.749033  1
  Sb  Sb8  1  0.496382  0.996382  0.007238  1
  Sb  Sb9  1  0.754010  0.754010  0.491982  1
  Sb  Sb10  1  0.245990  0.245990  0.508019  1
  Sb  Sb11  1  0.003621  0.503620  0.992760  1
