# generated using pymatgen
data_CeNd2Rh9
_symmetry_space_group_name_H-M   'P 1'
_cell_length_a   5.32889966
_cell_length_b   5.32616127
_cell_length_c   17.67792253
_cell_angle_alpha   89.99372626
_cell_angle_beta   89.96231542
_cell_angle_gamma   119.97409226
_symmetry_Int_Tables_number   1
_chemical_formula_structural   CeNd2Rh9
_chemical_formula_sum   'Ce2 Nd4 Rh18'
_cell_volume   434.63718905
_cell_formula_units_Z   2
loop_
 _symmetry_equiv_pos_site_id
 _symmetry_equiv_pos_as_xyz
  1  'x, y, z'
loop_
 _atom_site_type_symbol
 _atom_site_label
 _atom_site_symmetry_multiplicity
 _atom_site_fract_x
 _atom_site_fract_y
 _atom_site_fract_z
 _atom_site_occupancy
  Ce  Ce0  1  0.666716  0.333331  0.046943  1
  Ce  Ce1  1  0.666649  0.333341  0.251191  1
  Nd  Nd2  1  0.666729  0.333359  0.456927  1
  Nd  Nd3  1  0.333283  0.666650  0.541888  1
  Nd  Nd4  1  0.333282  0.666631  0.750000  1
  Nd  Nd5  1  0.333399  0.666694  0.959053  1
  Rh  Rh6  1  0.999976  0.000007  0.999939  1
  Rh  Rh7  1  0.167140  0.334248  0.125648  1
  Rh  Rh8  1  0.167163  0.832921  0.125644  1
  Rh  Rh9  1  0.665881  0.832903  0.125714  1
  Rh  Rh10  1  0.999961  0.999988  0.249545  1
  Rh  Rh11  1  0.333402  0.666692  0.249581  1
  Rh  Rh12  1  0.166750  0.833291  0.372192  1
  Rh  Rh13  1  0.666551  0.833280  0.372167  1
  Rh  Rh14  1  0.166737  0.333435  0.372181  1
  Rh  Rh15  1  0.999977  0.999988  0.499064  1
  Rh  Rh16  1  0.833422  0.666899  0.627177  1
  Rh  Rh17  1  0.333125  0.166551  0.627199  1
  Rh  Rh18  1  0.833418  0.166531  0.627169  1
  Rh  Rh19  1  0.999925  0.999952  0.750156  1
  Rh  Rh20  1  0.666681  0.333362  0.750231  1
  Rh  Rh21  1  0.333549  0.166790  0.873422  1
  Rh  Rh22  1  0.833143  0.166865  0.873483  1
  Rh  Rh23  1  0.833147  0.666296  0.873488  1
