# generated using pymatgen
data_Cs4Li2ScAlSb4
_symmetry_space_group_name_H-M   'P 1'
_cell_length_a   10.22679479
_cell_length_b   10.22679435
_cell_length_c   10.22679473
_cell_angle_alpha   139.43487750
_cell_angle_beta   58.45823915
_cell_angle_gamma   139.76952481
_symmetry_Int_Tables_number   1
_chemical_formula_structural   Cs4Li2ScAlSb4
_chemical_formula_sum   'Cs4 Li2 Sc1 Al1 Sb4'
_cell_volume   445.10877053
_cell_formula_units_Z   1
loop_
 _symmetry_equiv_pos_site_id
 _symmetry_equiv_pos_as_xyz
  1  'x, y, z'
loop_
 _atom_site_type_symbol
 _atom_site_label
 _atom_site_symmetry_multiplicity
 _atom_site_fract_x
 _atom_site_fract_y
 _atom_site_fract_z
 _atom_site_occupancy
  Cs  Cs0  1  0.828719  0.269444  0.099376  1
  Cs  Cs1  1  0.671283  0.770658  0.440724  1
  Cs  Cs2  1  0.329933  0.230557  0.559275  1
  Cs  Cs3  1  0.170067  0.729341  0.900623  1
  Li  Li4  1  0.750001  0.250000  0.500000  1
  Li  Li5  1  0.250000  0.750000  0.499999  1
  Sc  Sc6  1  0.250000  0.250000  0.000000  1
  Al  Al7  1  0.750000  0.750000  0.000000  1
  Sb  Sb8  1  0.425631  0.741783  0.148712  1
  Sb  Sb9  1  0.074370  0.223082  0.316152  1
  Sb  Sb10  1  0.906930  0.758217  0.683847  1
  Sb  Sb11  1  0.593071  0.276918  0.851288  1
