# generated using pymatgen
data_TbY15(ErSn4)4
_symmetry_space_group_name_H-M   'P 1'
_cell_length_a   8.04039576
_cell_length_b   8.18021132
_cell_length_c   15.48960100
_cell_angle_alpha   89.97248052
_cell_angle_beta   89.87623571
_cell_angle_gamma   90.15862739
_symmetry_Int_Tables_number   1
_chemical_formula_structural   TbY15(ErSn4)4
_chemical_formula_sum   'Tb1 Y15 Er4 Sn16'
_cell_volume   1018.77774771
_cell_formula_units_Z   1
loop_
 _symmetry_equiv_pos_site_id
 _symmetry_equiv_pos_as_xyz
  1  'x, y, z'
loop_
 _atom_site_type_symbol
 _atom_site_label
 _atom_site_symmetry_multiplicity
 _atom_site_fract_x
 _atom_site_fract_y
 _atom_site_fract_z
 _atom_site_occupancy
  Tb  Tb0  1  0.019952  0.179266  0.902622  1
  Y  Y1  1  0.366964  0.837120  0.877555  1
  Y  Y2  1  0.867288  0.662838  0.622150  1
  Y  Y3  1  0.632659  0.162686  0.377747  1
  Y  Y4  1  0.133105  0.337110  0.122434  1
  Y  Y5  1  0.633057  0.162747  0.122531  1
  Y  Y6  1  0.132694  0.337297  0.377746  1
  Y  Y7  1  0.367320  0.837262  0.622200  1
  Y  Y8  1  0.866879  0.662900  0.877560  1
  Y  Y9  1  0.520434  0.321011  0.902557  1
  Y  Y10  1  0.020965  0.179035  0.597580  1
  Y  Y11  1  0.479116  0.678993  0.402597  1
  Y  Y12  1  0.979590  0.820938  0.097459  1
  Y  Y13  1  0.479657  0.679024  0.097364  1
  Y  Y14  1  0.979077  0.821092  0.402561  1
  Y  Y15  1  0.520770  0.321018  0.597337  1
  Er  Er16  1  0.198679  0.502603  0.749904  1
  Er  Er17  1  0.698777  0.997186  0.749863  1
  Er  Er18  1  0.801385  0.497267  0.250081  1
  Er  Er19  1  0.301302  0.002786  0.250051  1
  Sn  Sn20  1  0.293779  0.036118  0.042110  1
  Sn  Sn21  1  0.792601  0.464046  0.457880  1
  Sn  Sn22  1  0.707417  0.964157  0.542101  1
  Sn  Sn23  1  0.206665  0.536346  0.957779  1
  Sn  Sn24  1  0.706457  0.963666  0.958178  1
  Sn  Sn25  1  0.207299  0.536038  0.542110  1
  Sn  Sn26  1  0.292631  0.036255  0.457933  1
  Sn  Sn27  1  0.793534  0.463550  0.042010  1
  Sn  Sn28  1  0.564233  0.618687  0.749912  1
  Sn  Sn29  1  0.064711  0.880877  0.749842  1
  Sn  Sn30  1  0.435670  0.381416  0.250072  1
  Sn  Sn31  1  0.935486  0.118565  0.250220  1
  Sn  Sn32  1  0.329940  0.147966  0.749947  1
  Sn  Sn33  1  0.829739  0.352184  0.749877  1
  Sn  Sn34  1  0.670069  0.851914  0.250052  1
  Sn  Sn35  1  0.170096  0.648037  0.250073  1
