# generated using pymatgen
data_Th3Cd2HgIrAu2
_symmetry_space_group_name_H-M   'P 1'
_cell_length_a   7.94968085
_cell_length_b   7.89722584
_cell_length_c   3.99422600
_cell_angle_alpha   90.00000000
_cell_angle_beta   90.00000000
_cell_angle_gamma   120.15712864
_symmetry_Int_Tables_number   1
_chemical_formula_structural   Th3Cd2HgIrAu2
_chemical_formula_sum   'Th3 Cd2 Hg1 Ir1 Au2'
_cell_volume   216.81918387
_cell_formula_units_Z   1
loop_
 _symmetry_equiv_pos_site_id
 _symmetry_equiv_pos_as_xyz
  1  'x, y, z'
loop_
 _atom_site_type_symbol
 _atom_site_label
 _atom_site_symmetry_multiplicity
 _atom_site_fract_x
 _atom_site_fract_y
 _atom_site_fract_z
 _atom_site_occupancy
  Th  Th0  1  0.423879  0.020312  0.000000  1
  Th  Th1  1  0.601549  0.582628  0.000000  1
  Th  Th2  1  0.977818  0.397300  0.000000  1
  Cd  Cd3  1  0.257687  0.260402  0.500000  1
  Cd  Cd4  1  0.006283  0.744228  0.500000  1
  Hg  Hg5  1  0.734726  0.994698  0.500000  1
  Ir  Ir6  1  0.665434  0.339600  0.500000  1
  Au  Au7  1  0.325666  0.660488  0.500000  1
  Au  Au8  1  0.006957  0.000345  0.000000  1
