# generated using pymatgen
data_Zr7ScFe3Co13P12
_symmetry_space_group_name_H-M   'P 1'
_cell_length_a   12.13124961
_cell_length_b   12.08485923
_cell_length_c   3.66795300
_cell_angle_alpha   90.00000000
_cell_angle_beta   90.00000000
_cell_angle_gamma   120.06435326
_symmetry_Int_Tables_number   1
_chemical_formula_structural   Zr7ScFe3Co13P12
_chemical_formula_sum   'Zr7 Sc1 Fe3 Co13 P12'
_cell_volume   465.39266919
_cell_formula_units_Z   1
loop_
 _symmetry_equiv_pos_site_id
 _symmetry_equiv_pos_as_xyz
  1  'x, y, z'
loop_
 _atom_site_type_symbol
 _atom_site_label
 _atom_site_symmetry_multiplicity
 _atom_site_fract_x
 _atom_site_fract_y
 _atom_site_fract_z
 _atom_site_occupancy
  Zr  Zr0  1  0.556060  0.999972  0.000000  1
  Zr  Zr1  1  0.998986  0.555896  0.000000  1
  Zr  Zr2  1  0.666156  0.334259  0.000000  1
  Zr  Zr3  1  0.331509  0.665509  0.000000  1
  Zr  Zr4  1  0.818866  0.817951  0.500000  1
  Zr  Zr5  1  0.179660  0.999798  0.500000  1
  Zr  Zr6  1  0.000398  0.179807  0.500000  1
  Sc  Sc7  1  0.442050  0.443156  0.000000  1
  Fe  Fe8  1  0.195721  0.372727  0.000000  1
  Fe  Fe9  1  0.178340  0.805682  0.000000  1
  Fe  Fe10  1  0.821048  0.627435  0.000000  1
  Co  Co11  1  0.807658  0.178461  0.000000  1
  Co  Co12  1  0.372777  0.193978  0.000000  1
  Co  Co13  1  0.124818  0.479284  0.500000  1
  Co  Co14  1  0.355671  0.875276  0.500000  1
  Co  Co15  1  0.518047  0.644931  0.500000  1
  Co  Co16  1  0.643996  0.519709  0.500000  1
  Co  Co17  1  0.872431  0.354526  0.500000  1
  Co  Co18  1  0.481083  0.127608  0.500000  1
  Co  Co19  1  0.000674  0.000265  0.000000  1
  Co  Co20  1  0.723503  0.000403  0.500000  1
  Co  Co21  1  0.000191  0.723467  0.500000  1
  Co  Co22  1  0.629339  0.821798  0.000000  1
  Co  Co23  1  0.280071  0.277374  0.500000  1
  P  P24  1  0.651305  0.649237  0.000000  1
  P  P25  1  0.344904  0.998917  0.000000  1
  P  P26  1  0.003777  0.347488  0.000000  1
  P  P27  1  0.482558  0.311080  0.500000  1
  P  P28  1  0.691924  0.174341  0.500000  1
  P  P29  1  0.825527  0.520756  0.500000  1
  P  P30  1  0.517703  0.825311  0.500000  1
  P  P31  1  0.173648  0.693438  0.500000  1
  P  P32  1  0.825067  0.999257  0.000000  1
  P  P33  1  0.999746  0.822985  0.000000  1
  P  P34  1  0.308025  0.480144  0.500000  1
  P  P35  1  0.176763  0.177777  0.000000  1
