# generated using pymatgen
data_Lu4HgBiC2
_symmetry_space_group_name_H-M   'P 1'
_cell_length_a   3.55424300
_cell_length_b   3.55424298
_cell_length_c   15.42450000
_cell_angle_alpha   90.00000000
_cell_angle_beta   90.00000000
_cell_angle_gamma   119.99999084
_symmetry_Int_Tables_number   1
_chemical_formula_structural   Lu4HgBiC2
_chemical_formula_sum   'Lu4 Hg1 Bi1 C2'
_cell_volume   168.74697577
_cell_formula_units_Z   1
loop_
 _symmetry_equiv_pos_site_id
 _symmetry_equiv_pos_as_xyz
  1  'x, y, z'
loop_
 _atom_site_type_symbol
 _atom_site_label
 _atom_site_symmetry_multiplicity
 _atom_site_fract_x
 _atom_site_fract_y
 _atom_site_fract_z
 _atom_site_occupancy
  Lu  Lu0  1  0.666667  0.333333  0.082115  1
  Lu  Lu1  1  0.666667  0.333333  0.417885  1
  Lu  Lu2  1  0.333333  0.666666  0.585441  1
  Lu  Lu3  1  0.333333  0.666666  0.914558  1
  Hg  Hg4  1  0.666667  0.333333  0.750000  1
  Bi  Bi5  1  0.333333  0.666666  0.250000  1
  C  C6  1  0.000000  0.000000  0.002210  1
  C  C7  1  0.000000  0.000000  0.497790  1
