# generated using pymatgen
data_Tb15Lu(In3Os)2
_symmetry_space_group_name_H-M   'P 1'
_cell_length_a   10.43620400
_cell_length_b   10.43620332
_cell_length_c   7.09572500
_cell_angle_alpha   90.00000000
_cell_angle_beta   90.00000000
_cell_angle_gamma   120.00000215
_symmetry_Int_Tables_number   1
_chemical_formula_structural   Tb15Lu(In3Os)2
_chemical_formula_sum   'Tb15 Lu1 In6 Os2'
_cell_volume   669.28715402
_cell_formula_units_Z   1
loop_
 _symmetry_equiv_pos_site_id
 _symmetry_equiv_pos_as_xyz
  1  'x, y, z'
loop_
 _atom_site_type_symbol
 _atom_site_label
 _atom_site_symmetry_multiplicity
 _atom_site_fract_x
 _atom_site_fract_y
 _atom_site_fract_z
 _atom_site_occupancy
  Tb  Tb0  1  0.533044  0.066088  0.523402  1
  Tb  Tb1  1  0.933912  0.466956  0.523402  1
  Tb  Tb2  1  0.533044  0.466956  0.523402  1
  Tb  Tb3  1  0.466945  0.933890  0.023424  1
  Tb  Tb4  1  0.066110  0.533055  0.023424  1
  Tb  Tb5  1  0.466945  0.533055  0.023424  1
  Tb  Tb6  1  0.176842  0.353683  0.729871  1
  Tb  Tb7  1  0.646317  0.823158  0.729871  1
  Tb  Tb8  1  0.176842  0.823158  0.729871  1
  Tb  Tb9  1  0.823200  0.646402  0.228821  1
  Tb  Tb10  1  0.353598  0.176800  0.228821  1
  Tb  Tb11  1  0.823200  0.176800  0.228821  1
  Tb  Tb12  1  0.666667  0.333333  0.900998  1
  Tb  Tb13  1  0.333333  0.666667  0.400820  1
  Tb  Tb14  1  0.000000  0.000000  0.507685  1
  Lu  Lu15  1  0.000000  0.000000  0.006779  1
  In  In16  1  0.837135  0.674270  0.771119  1
  In  In17  1  0.325730  0.162865  0.771119  1
  In  In18  1  0.837135  0.162865  0.771119  1
  In  In19  1  0.162898  0.325797  0.269924  1
  In  In20  1  0.674203  0.837102  0.269924  1
  In  In21  1  0.162898  0.837102  0.269924  1
  Os  Os22  1  0.666667  0.333333  0.300200  1
  Os  Os23  1  0.333333  0.666667  0.799512  1
