# generated using pymatgen
data_Na4Li3Sc(P3Ir4)4
_symmetry_space_group_name_H-M   'P 1'
_cell_length_a   12.65965000
_cell_length_b   12.65964956
_cell_length_c   3.91857000
_cell_angle_alpha   90.00000000
_cell_angle_beta   90.00000000
_cell_angle_gamma   120.00000114
_symmetry_Int_Tables_number   1
_chemical_formula_structural   Na4Li3Sc(P3Ir4)4
_chemical_formula_sum   'Na4 Li3 Sc1 P12 Ir16'
_cell_volume   543.87815916
_cell_formula_units_Z   1
loop_
 _symmetry_equiv_pos_site_id
 _symmetry_equiv_pos_as_xyz
  1  'x, y, z'
loop_
 _atom_site_type_symbol
 _atom_site_label
 _atom_site_symmetry_multiplicity
 _atom_site_fract_x
 _atom_site_fract_y
 _atom_site_fract_z
 _atom_site_occupancy
  Na  Na0  1  0.333333  0.666667  0.000000  1
  Na  Na1  1  0.814596  0.000273  0.500000  1
  Na  Na2  1  0.999727  0.814324  0.500000  1
  Na  Na3  1  0.185676  0.185404  0.500000  1
  Li  Li4  1  0.441223  0.001004  0.000000  1
  Li  Li5  1  0.998996  0.440219  0.000000  1
  Li  Li6  1  0.559781  0.558777  0.000000  1
  Sc  Sc7  1  0.666667  0.333333  0.000000  1
  P  P8  1  0.179397  0.999743  0.000000  1
  P  P9  1  0.000257  0.179654  0.000000  1
  P  P10  1  0.820346  0.820603  0.000000  1
  P  P11  1  0.174072  0.483962  0.500000  1
  P  P12  1  0.516038  0.690110  0.500000  1
  P  P13  1  0.309890  0.825928  0.500000  1
  P  P14  1  0.692719  0.518830  0.500000  1
  P  P15  1  0.826110  0.307281  0.500000  1
  P  P16  1  0.481170  0.173890  0.500000  1
  P  P17  1  0.628505  0.999306  0.000000  1
  P  P18  1  0.000694  0.629198  0.000000  1
  P  P19  1  0.370802  0.371495  0.000000  1
  Ir  Ir20  1  0.362241  0.487416  0.500000  1
  Ir  Ir21  1  0.512584  0.874825  0.500000  1
  Ir  Ir22  1  0.125175  0.637759  0.500000  1
  Ir  Ir23  1  0.865537  0.501434  0.500000  1
  Ir  Ir24  1  0.635897  0.134463  0.500000  1
  Ir  Ir25  1  0.498566  0.364103  0.500000  1
  Ir  Ir26  1  0.180273  0.377250  0.000000  1
  Ir  Ir27  1  0.622750  0.803024  0.000000  1
  Ir  Ir28  1  0.196976  0.819727  0.000000  1
  Ir  Ir29  1  0.806371  0.624027  0.000000  1
  Ir  Ir30  1  0.817657  0.193629  0.000000  1
  Ir  Ir31  1  0.375973  0.182343  0.000000  1
  Ir  Ir32  1  0.279497  0.999977  0.500000  1
  Ir  Ir33  1  0.000023  0.279520  0.500000  1
  Ir  Ir34  1  0.720480  0.720503  0.500000  1
  Ir  Ir35  1  0.000000  0.000000  0.000000  1
