# generated using pymatgen
data_Nb3Al2AuC
_symmetry_space_group_name_H-M   'P 1'
_cell_length_a   8.46886865
_cell_length_b   8.46886880
_cell_length_c   8.46886700
_cell_angle_alpha   59.99999533
_cell_angle_beta   59.99999472
_cell_angle_gamma   59.99999483
_symmetry_Int_Tables_number   1
_chemical_formula_structural   Nb3Al2AuC
_chemical_formula_sum   'Nb12 Al8 Au4 C4'
_cell_volume   429.49792207
_cell_formula_units_Z   4
loop_
 _symmetry_equiv_pos_site_id
 _symmetry_equiv_pos_as_xyz
  1  'x, y, z'
loop_
 _atom_site_type_symbol
 _atom_site_label
 _atom_site_symmetry_multiplicity
 _atom_site_fract_x
 _atom_site_fract_y
 _atom_site_fract_z
 _atom_site_occupancy
  Nb  Nb0  1  0.570069  0.929931  0.570069  1
  Nb  Nb1  1  0.320069  0.679931  0.679931  1
  Nb  Nb2  1  0.679931  0.320069  0.320069  1
  Nb  Nb3  1  0.320069  0.679931  0.320069  1
  Nb  Nb4  1  0.679931  0.679931  0.320069  1
  Nb  Nb5  1  0.320069  0.320069  0.679931  1
  Nb  Nb6  1  0.570069  0.570069  0.929931  1
  Nb  Nb7  1  0.929931  0.570069  0.570069  1
  Nb  Nb8  1  0.570069  0.929931  0.929931  1
  Nb  Nb9  1  0.929931  0.929931  0.570069  1
  Nb  Nb10  1  0.679931  0.320069  0.679931  1
  Nb  Nb11  1  0.929931  0.570069  0.929931  1
  Al  Al12  1  0.914036  0.914036  0.914036  1
  Al  Al13  1  0.992107  0.335964  0.335964  1
  Al  Al14  1  0.335964  0.992107  0.335964  1
  Al  Al15  1  0.335964  0.335964  0.992107  1
  Al  Al16  1  0.914036  0.257893  0.914036  1
  Al  Al17  1  0.914036  0.914036  0.257893  1
  Al  Al18  1  0.257893  0.914036  0.914036  1
  Al  Al19  1  0.335964  0.335964  0.335964  1
  Au  Au20  1  0.125000  0.125000  0.125000  1
  Au  Au21  1  0.625000  0.125000  0.125000  1
  Au  Au22  1  0.125000  0.625000  0.125000  1
  Au  Au23  1  0.125000  0.125000  0.625000  1
  C  C24  1  0.625000  0.625000  0.625000  1
  C  C25  1  0.125000  0.625000  0.625000  1
  C  C26  1  0.625000  0.125000  0.625000  1
  C  C27  1  0.625000  0.625000  0.125000  1
