# generated using pymatgen
data_CeY(AlIr)2
_symmetry_space_group_name_H-M   'P 1'
_cell_length_a   6.86537700
_cell_length_b   4.32290900
_cell_length_c   7.94030700
_cell_angle_alpha   90.00000000
_cell_angle_beta   90.00000000
_cell_angle_gamma   90.00000000
_symmetry_Int_Tables_number   1
_chemical_formula_structural   CeY(AlIr)2
_chemical_formula_sum   'Ce2 Y2 Al4 Ir4'
_cell_volume   235.65560744
_cell_formula_units_Z   2
loop_
 _symmetry_equiv_pos_site_id
 _symmetry_equiv_pos_as_xyz
  1  'x, y, z'
loop_
 _atom_site_type_symbol
 _atom_site_label
 _atom_site_symmetry_multiplicity
 _atom_site_fract_x
 _atom_site_fract_y
 _atom_site_fract_z
 _atom_site_occupancy
  Ce  Ce0  1  0.034228  0.750000  0.821647  1
  Ce  Ce1  1  0.534228  0.750000  0.678353  1
  Y  Y2  1  0.965408  0.250000  0.185334  1
  Y  Y3  1  0.465408  0.250000  0.314666  1
  Al  Al4  1  0.862776  0.250000  0.558356  1
  Al  Al5  1  0.362776  0.250000  0.941644  1
  Al  Al6  1  0.138105  0.750000  0.434065  1
  Al  Al7  1  0.638105  0.750000  0.065935  1
  Ir  Ir8  1  0.737078  0.250000  0.877121  1
  Ir  Ir9  1  0.237078  0.250000  0.622879  1
  Ir  Ir10  1  0.262406  0.750000  0.113079  1
  Ir  Ir11  1  0.762406  0.750000  0.386921  1
