# generated using pymatgen
data_La2YbTl(Ir2O7)2
_symmetry_space_group_name_H-M   'P 1'
_cell_length_a   7.40357372
_cell_length_b   7.40357253
_cell_length_c   7.31323900
_cell_angle_alpha   59.71444661
_cell_angle_beta   59.71444304
_cell_angle_gamma   60.42966783
_symmetry_Int_Tables_number   1
_chemical_formula_structural   La2YbTl(Ir2O7)2
_chemical_formula_sum   'La2 Yb1 Tl1 Ir4 O14'
_cell_volume   283.11800032
_cell_formula_units_Z   1
loop_
 _symmetry_equiv_pos_site_id
 _symmetry_equiv_pos_as_xyz
  1  'x, y, z'
loop_
 _atom_site_type_symbol
 _atom_site_label
 _atom_site_symmetry_multiplicity
 _atom_site_fract_x
 _atom_site_fract_y
 _atom_site_fract_z
 _atom_site_occupancy
  La  La0  1  0.625000  0.125000  0.125000  1
  La  La1  1  0.125000  0.625000  0.125000  1
  Yb  Yb2  1  0.125000  0.125000  0.125000  1
  Tl  Tl3  1  0.125000  0.125000  0.625000  1
  Ir  Ir4  1  0.625000  0.625000  0.625000  1
  Ir  Ir5  1  0.125000  0.625000  0.625000  1
  Ir  Ir6  1  0.625000  0.125000  0.625000  1
  Ir  Ir7  1  0.625000  0.625000  0.125000  1
  O  O8  1  0.950304  0.541270  0.558049  1
  O  O9  1  0.300152  0.300152  0.693609  1
  O  O10  1  0.953885  0.541486  0.953742  1
  O  O11  1  0.708514  0.296115  0.296258  1
  O  O12  1  0.544063  0.544063  0.956480  1
  O  O13  1  0.541270  0.950304  0.558049  1
  O  O14  1  0.541486  0.953885  0.953742  1
  O  O15  1  0.247426  0.247426  0.247784  1
  O  O16  1  0.299696  0.708730  0.691951  1
  O  O17  1  0.708730  0.299696  0.691951  1
  O  O18  1  0.002574  0.002574  0.002216  1
  O  O19  1  0.949848  0.949848  0.556391  1
  O  O20  1  0.296115  0.708514  0.296258  1
  O  O21  1  0.705937  0.705937  0.293520  1
