# generated using pymatgen
data_Na3Pr3ThAu10
_symmetry_space_group_name_H-M   'P 1'
_cell_length_a   8.88058400
_cell_length_b   8.88058523
_cell_length_c   10.52544300
_cell_angle_alpha   90.00000000
_cell_angle_beta   90.00000000
_cell_angle_gamma   107.90476883
_symmetry_Int_Tables_number   1
_chemical_formula_structural   Na3Pr3ThAu10
_chemical_formula_sum   'Na6 Pr6 Th2 Au20'
_cell_volume   789.88469628
_cell_formula_units_Z   2
loop_
 _symmetry_equiv_pos_site_id
 _symmetry_equiv_pos_as_xyz
  1  'x, y, z'
loop_
 _atom_site_type_symbol
 _atom_site_label
 _atom_site_symmetry_multiplicity
 _atom_site_fract_x
 _atom_site_fract_y
 _atom_site_fract_z
 _atom_site_occupancy
  Na  Na0  1  0.512734  0.012933  0.250997  1
  Na  Na1  1  0.987067  0.487266  0.749003  1
  Na  Na2  1  0.001796  0.998204  0.000000  1
  Na  Na3  1  0.012734  0.512933  0.249003  1
  Na  Na4  1  0.487067  0.987266  0.750997  1
  Na  Na5  1  0.501796  0.498204  0.500000  1
  Pr  Pr6  1  0.802521  0.803702  0.297699  1
  Pr  Pr7  1  0.302521  0.303702  0.202301  1
  Pr  Pr8  1  0.799851  0.200149  0.500000  1
  Pr  Pr9  1  0.299851  0.700149  0.000000  1
  Pr  Pr10  1  0.696298  0.697479  0.797699  1
  Pr  Pr11  1  0.196298  0.197479  0.702301  1
  Th  Th12  1  0.699717  0.300283  0.000000  1
  Th  Th13  1  0.199717  0.800283  0.500000  1
  Au  Au14  1  0.150829  0.433743  0.487463  1
  Au  Au15  1  0.902654  0.903630  0.595368  1
  Au  Au16  1  0.566257  0.849171  0.512537  1
  Au  Au17  1  0.879725  0.160834  0.207973  1
  Au  Au18  1  0.379725  0.660834  0.292027  1
  Au  Au19  1  0.659116  0.377356  0.286853  1
  Au  Au20  1  0.402654  0.403630  0.904632  1
  Au  Au21  1  0.927985  0.644730  0.008264  1
  Au  Au22  1  0.339166  0.620275  0.707973  1
  Au  Au23  1  0.355270  0.072015  0.991736  1
  Au  Au24  1  0.596370  0.597346  0.095368  1
  Au  Au25  1  0.650829  0.933743  0.012537  1
  Au  Au26  1  0.096370  0.097346  0.404632  1
  Au  Au27  1  0.622644  0.340884  0.713147  1
  Au  Au28  1  0.122644  0.840884  0.786853  1
  Au  Au29  1  0.066257  0.349171  0.987463  1
  Au  Au30  1  0.855270  0.572015  0.508264  1
  Au  Au31  1  0.159116  0.877356  0.213147  1
  Au  Au32  1  0.427985  0.144730  0.491736  1
  Au  Au33  1  0.839166  0.120275  0.792027  1
