# generated using pymatgen
data_K2Rh3O8
_symmetry_space_group_name_H-M   'P 1'
_cell_length_a   6.98779544
_cell_length_b   6.98784074
_cell_length_c   5.24391006
_cell_angle_alpha   106.83814610
_cell_angle_beta   106.83822123
_cell_angle_gamma   52.47795160
_symmetry_Int_Tables_number   1
_chemical_formula_structural   K2Rh3O8
_chemical_formula_sum   'K2 Rh3 O8'
_cell_volume   192.20264388
_cell_formula_units_Z   1
loop_
 _symmetry_equiv_pos_site_id
 _symmetry_equiv_pos_as_xyz
  1  'x, y, z'
loop_
 _atom_site_type_symbol
 _atom_site_label
 _atom_site_symmetry_multiplicity
 _atom_site_fract_x
 _atom_site_fract_y
 _atom_site_fract_z
 _atom_site_occupancy
  K  K0  1  0.728639  0.728502  0.175249  1
  K  K1  1  0.271481  0.271377  0.824774  1
  Rh  Rh2  1  0.000034  0.999982  0.000159  1
  Rh  Rh3  1  0.741452  0.258579  0.500000  1
  Rh  Rh4  1  0.258425  0.741509  0.499867  1
  O  O5  1  0.696876  0.133485  0.122738  1
  O  O6  1  0.133715  0.696617  0.122700  1
  O  O7  1  0.087436  0.087513  0.400535  1
  O  O8  1  0.594597  0.595005  0.472469  1
  O  O9  1  0.404990  0.405440  0.527572  1
  O  O10  1  0.912471  0.912560  0.599390  1
  O  O11  1  0.866505  0.303132  0.877245  1
  O  O12  1  0.303380  0.866301  0.877305  1
