# generated using pymatgen
data_Hf8In4CuPd6Au
_symmetry_space_group_name_H-M   'P 1'
_cell_length_a   7.47100586
_cell_length_b   7.46309719
_cell_length_c   6.87877344
_cell_angle_alpha   89.88671333
_cell_angle_beta   90.18350675
_cell_angle_gamma   89.55574343
_symmetry_Int_Tables_number   1
_chemical_formula_structural   Hf8In4CuPd6Au
_chemical_formula_sum   'Hf8 In4 Cu1 Pd6 Au1'
_cell_volume   383.52442467
_cell_formula_units_Z   1
loop_
 _symmetry_equiv_pos_site_id
 _symmetry_equiv_pos_as_xyz
  1  'x, y, z'
loop_
 _atom_site_type_symbol
 _atom_site_label
 _atom_site_symmetry_multiplicity
 _atom_site_fract_x
 _atom_site_fract_y
 _atom_site_fract_z
 _atom_site_occupancy
  Hf  Hf0  1  0.143826  0.147082  0.997739  1
  Hf  Hf1  1  0.848184  0.852147  0.002012  1
  Hf  Hf2  1  0.653963  0.349629  0.505431  1
  Hf  Hf3  1  0.351173  0.651756  0.506608  1
  Hf  Hf4  1  0.692441  0.312229  0.996626  1
  Hf  Hf5  1  0.313762  0.690778  0.995129  1
  Hf  Hf6  1  0.814793  0.815094  0.498334  1
  Hf  Hf7  1  0.182379  0.182852  0.501950  1
  In  In8  1  0.501297  0.995899  0.249670  1
  In  In9  1  0.503466  0.003494  0.749124  1
  In  In10  1  0.995927  0.501062  0.250478  1
  In  In11  1  0.000261  0.496960  0.748007  1
  Cu  Cu12  1  0.870999  0.126910  0.709099  1
  Pd  Pd13  1  0.631934  0.631382  0.784728  1
  Pd  Pd14  1  0.631088  0.630589  0.216579  1
  Pd  Pd15  1  0.869318  0.130224  0.289038  1
  Pd  Pd16  1  0.369875  0.369474  0.785586  1
  Pd  Pd17  1  0.131584  0.868104  0.285701  1
  Pd  Pd18  1  0.123320  0.874893  0.716703  1
  Au  Au19  1  0.370415  0.369444  0.211458  1
