# generated using pymatgen
data_U(PPt4)2
_symmetry_space_group_name_H-M   'P 1'
_cell_length_a   6.33232593
_cell_length_b   6.33232647
_cell_length_c   9.57776178
_cell_angle_alpha   54.36368756
_cell_angle_beta   54.36368396
_cell_angle_gamma   37.53906241
_symmetry_Int_Tables_number   1
_chemical_formula_structural   U(PPt4)2
_chemical_formula_sum   'U1 P2 Pt8'
_cell_volume   184.45224953
_cell_formula_units_Z   1
loop_
 _symmetry_equiv_pos_site_id
 _symmetry_equiv_pos_as_xyz
  1  'x, y, z'
loop_
 _atom_site_type_symbol
 _atom_site_label
 _atom_site_symmetry_multiplicity
 _atom_site_fract_x
 _atom_site_fract_y
 _atom_site_fract_z
 _atom_site_occupancy
  U  U0  1  0.500000  0.500000  0.500000  1
  P  P1  1  0.058589  0.058589  0.713359  1
  P  P2  1  0.941411  0.941411  0.286641  1
  Pt  Pt3  1  0.209399  0.209399  0.417835  1
  Pt  Pt4  1  0.820744  0.820744  0.849719  1
  Pt  Pt5  1  0.179256  0.179256  0.150281  1
  Pt  Pt6  1  0.167689  0.167689  0.846268  1
  Pt  Pt7  1  0.478350  0.478350  0.867357  1
  Pt  Pt8  1  0.521650  0.521650  0.132643  1
  Pt  Pt9  1  0.790601  0.790601  0.582165  1
  Pt  Pt10  1  0.832311  0.832311  0.153732  1
