# generated using pymatgen
data_Th4Co3Sn2Au
_symmetry_space_group_name_H-M   'P 1'
_cell_length_a   7.70167429
_cell_length_b   7.70167429
_cell_length_c   3.75298000
_cell_angle_alpha   90.00000000
_cell_angle_beta   90.00000000
_cell_angle_gamma   90.79703320
_symmetry_Int_Tables_number   1
_chemical_formula_structural   Th4Co3Sn2Au
_chemical_formula_sum   'Th4 Co3 Sn2 Au1'
_cell_volume   222.58942351
_cell_formula_units_Z   1
loop_
 _symmetry_equiv_pos_site_id
 _symmetry_equiv_pos_as_xyz
  1  'x, y, z'
loop_
 _atom_site_type_symbol
 _atom_site_label
 _atom_site_symmetry_multiplicity
 _atom_site_fract_x
 _atom_site_fract_y
 _atom_site_fract_z
 _atom_site_occupancy
  Th  Th0  1  0.694782  0.173760  0.500000  1
  Th  Th1  1  0.326240  0.805218  0.500000  1
  Th  Th2  1  0.150048  0.349952  0.500000  1
  Th  Th3  1  0.820436  0.679564  0.500000  1
  Co  Co4  1  0.128725  0.632419  0.000000  1
  Co  Co5  1  0.867581  0.371275  0.000000  1
  Co  Co6  1  0.633209  0.866791  0.000000  1
  Sn  Sn7  1  0.505179  0.501919  0.000000  1
  Sn  Sn8  1  0.998081  0.994821  0.000000  1
  Au  Au9  1  0.375720  0.124280  0.000000  1
