# generated using pymatgen
data_Nd4Gd8Os2I17
_symmetry_space_group_name_H-M   'P 1'
_cell_length_a   9.87435536
_cell_length_b   11.92755374
_cell_length_c   11.86786800
_cell_angle_alpha   74.18157909
_cell_angle_beta   75.11233008
_cell_angle_gamma   65.52154189
_symmetry_Int_Tables_number   1
_chemical_formula_structural   Nd4Gd8Os2I17
_chemical_formula_sum   'Nd4 Gd8 Os2 I17'
_cell_volume   1207.29307067
_cell_formula_units_Z   1
loop_
 _symmetry_equiv_pos_site_id
 _symmetry_equiv_pos_as_xyz
  1  'x, y, z'
loop_
 _atom_site_type_symbol
 _atom_site_label
 _atom_site_symmetry_multiplicity
 _atom_site_fract_x
 _atom_site_fract_y
 _atom_site_fract_z
 _atom_site_occupancy
  Nd  Nd0  1  0.592427  0.760368  0.281150  1
  Nd  Nd1  1  0.827209  0.186810  0.577795  1
  Nd  Nd2  1  0.171048  0.811967  0.425522  1
  Nd  Nd3  1  0.137866  0.713860  0.148536  1
  Gd  Gd4  1  0.454554  0.482528  0.326939  1
  Gd  Gd5  1  0.558971  0.670169  0.003457  1
  Gd  Gd6  1  0.269394  0.997561  0.100170  1
  Gd  Gd7  1  0.871626  0.292001  0.852959  1
  Gd  Gd8  1  0.398367  0.238977  0.717324  1
  Gd  Gd9  1  0.723584  0.013580  0.896374  1
  Gd  Gd10  1  0.547815  0.514542  0.677699  1
  Gd  Gd11  1  0.442638  0.332191  0.993742  1
  Os  Os12  1  0.365074  0.742270  0.214468  1
  Os  Os13  1  0.636077  0.268035  0.782937  1
  I  I14  1  0.053805  0.105228  0.321088  1
  I  I15  1  0.465845  0.946943  0.843137  1
  I  I16  1  0.430591  0.811016  0.541660  1
  I  I17  1  0.567260  0.182197  0.463114  1
  I  I18  1  0.843310  0.706992  0.042028  1
  I  I19  1  0.223376  0.415763  0.240954  1
  I  I20  1  0.686673  0.369221  0.099981  1
  I  I21  1  0.527980  0.053926  0.157332  1
  I  I22  1  0.740958  0.470257  0.417408  1
  I  I23  1  0.883719  0.785720  0.370308  1
  I  I24  1  0.945576  0.891545  0.680632  1
  I  I25  1  0.157985  0.292180  0.955365  1
  I  I26  1  0.321577  0.627758  0.893987  1
  I  I27  1  0.000206  0.002533  0.000329  1
  I  I28  1  0.114074  0.213202  0.634372  1
  I  I29  1  0.779178  0.576941  0.756616  1
  I  I30  1  0.261236  0.523719  0.582613  1
