# generated using pymatgen
data_Pr3Np5(TcB6)4
_symmetry_space_group_name_H-M   'P 1'
_cell_length_a   3.68775100
_cell_length_b   9.34178570
_cell_length_c   11.42998455
_cell_angle_alpha   90.10216407
_cell_angle_beta   90.00000000
_cell_angle_gamma   90.00000000
_symmetry_Int_Tables_number   1
_chemical_formula_structural   Pr3Np5(TcB6)4
_chemical_formula_sum   'Pr3 Np5 Tc4 B24'
_cell_volume   393.76439439
_cell_formula_units_Z   1
loop_
 _symmetry_equiv_pos_site_id
 _symmetry_equiv_pos_as_xyz
  1  'x, y, z'
loop_
 _atom_site_type_symbol
 _atom_site_label
 _atom_site_symmetry_multiplicity
 _atom_site_fract_x
 _atom_site_fract_y
 _atom_site_fract_z
 _atom_site_occupancy
  Pr  Pr0  1  0.000000  0.338127  0.407670  1
  Pr  Pr1  1  0.000000  0.661950  0.592672  1
  Pr  Pr2  1  0.000000  0.837816  0.092292  1
  Np  Np3  1  0.000000  0.162262  0.906069  1
  Np  Np4  1  0.000000  0.959568  0.400888  1
  Np  Np5  1  0.000000  0.040470  0.599524  1
  Np  Np6  1  0.000000  0.458352  0.098634  1
  Np  Np7  1  0.000000  0.538605  0.901264  1
  Tc  Tc8  1  0.000000  0.648831  0.317102  1
  Tc  Tc9  1  0.000000  0.348689  0.686408  1
  Tc  Tc10  1  0.000000  0.149660  0.180046  1
  Tc  Tc11  1  0.000000  0.856549  0.818239  1
  B  B12  1  0.500000  0.556702  0.427669  1
  B  B13  1  0.500000  0.442258  0.573705  1
  B  B14  1  0.500000  0.057255  0.068310  1
  B  B15  1  0.500000  0.949034  0.928646  1
  B  B16  1  0.500000  0.747483  0.420802  1
  B  B17  1  0.500000  0.252125  0.580414  1
  B  B18  1  0.500000  0.245061  0.076477  1
  B  B19  1  0.500000  0.754301  0.920725  1
  B  B20  1  0.500000  0.805193  0.275028  1
  B  B21  1  0.500000  0.193539  0.727520  1
  B  B22  1  0.500000  0.304405  0.223511  1
  B  B23  1  0.500000  0.696313  0.775783  1
  B  B24  1  0.500000  0.643563  0.187509  1
  B  B25  1  0.500000  0.353036  0.813413  1
  B  B26  1  0.500000  0.143833  0.311499  1
  B  B27  1  0.500000  0.857241  0.688556  1
  B  B28  1  0.500000  0.992828  0.221021  1
  B  B29  1  0.500000  0.011457  0.779791  1
  B  B30  1  0.500000  0.492145  0.277610  1
  B  B31  1  0.500000  0.507017  0.723034  1
  B  B32  1  0.500000  0.635490  0.036734  1
  B  B33  1  0.500000  0.358250  0.961309  1
  B  B34  1  0.500000  0.134919  0.462929  1
  B  B35  1  0.500000  0.865674  0.537194  1
