# generated using pymatgen
data_Zr2Mn3Si4
_symmetry_space_group_name_H-M   'P 1'
_cell_length_a   9.77459803
_cell_length_b   9.77459893
_cell_length_c   13.08729692
_cell_angle_alpha   53.68804882
_cell_angle_beta   53.68804419
_cell_angle_gamma   30.68009782
_symmetry_Int_Tables_number   1
_chemical_formula_structural   Zr2Mn3Si4
_chemical_formula_sum   'Zr8 Mn12 Si16'
_cell_volume   503.55424058
_cell_formula_units_Z   4
loop_
 _symmetry_equiv_pos_site_id
 _symmetry_equiv_pos_as_xyz
  1  'x, y, z'
loop_
 _atom_site_type_symbol
 _atom_site_label
 _atom_site_symmetry_multiplicity
 _atom_site_fract_x
 _atom_site_fract_y
 _atom_site_fract_z
 _atom_site_occupancy
  Zr  Zr0  1  0.035346  0.292002  0.643070  1
  Zr  Zr1  1  0.707998  0.964654  0.856930  1
  Zr  Zr2  1  0.964654  0.707998  0.356930  1
  Zr  Zr3  1  0.292002  0.035346  0.143070  1
  Zr  Zr4  1  0.294327  0.564470  0.642563  1
  Zr  Zr5  1  0.435530  0.705673  0.857437  1
  Zr  Zr6  1  0.705673  0.435530  0.357437  1
  Zr  Zr7  1  0.564470  0.294327  0.142563  1
  Mn  Mn8  1  0.893593  0.149262  0.583150  1
  Mn  Mn9  1  0.850738  0.106407  0.916850  1
  Mn  Mn10  1  0.106407  0.850738  0.416850  1
  Mn  Mn11  1  0.149262  0.893593  0.083150  1
  Mn  Mn12  1  0.837707  0.642753  0.774332  1
  Mn  Mn13  1  0.357247  0.162293  0.725668  1
  Mn  Mn14  1  0.162293  0.357247  0.225668  1
  Mn  Mn15  1  0.642753  0.837707  0.274332  1
  Mn  Mn16  1  0.244015  0.512756  0.938110  1
  Mn  Mn17  1  0.487244  0.755985  0.561890  1
  Mn  Mn18  1  0.755985  0.487244  0.061890  1
  Mn  Mn19  1  0.512756  0.244015  0.438110  1
  Si  Si20  1  0.966163  0.254784  0.898472  1
  Si  Si21  1  0.745216  0.033837  0.601528  1
  Si  Si22  1  0.033837  0.745216  0.101528  1
  Si  Si23  1  0.254784  0.966163  0.398472  1
  Si  Si24  1  0.137373  0.392201  0.897209  1
  Si  Si25  1  0.607799  0.862627  0.602791  1
  Si  Si26  1  0.862627  0.607799  0.102791  1
  Si  Si27  1  0.392201  0.137373  0.397209  1
  Si  Si28  1  0.087538  0.573129  0.563865  1
  Si  Si29  1  0.426871  0.912462  0.936135  1
  Si  Si30  1  0.912462  0.426871  0.436135  1
  Si  Si31  1  0.573129  0.087538  0.063865  1
  Si  Si32  1  0.614470  0.385530  0.750000  1
  Si  Si33  1  0.385530  0.614470  0.250000  1
  Si  Si34  1  0.119507  0.880493  0.750000  1
  Si  Si35  1  0.880493  0.119507  0.250000  1
