# generated using pymatgen
data_CaTbYZn11
_symmetry_space_group_name_H-M   'P 1'
_cell_length_a   8.19837593
_cell_length_b   8.19837504
_cell_length_c   8.19837517
_cell_angle_alpha   148.40501180
_cell_angle_beta   115.41097997
_cell_angle_gamma   73.68720495
_symmetry_Int_Tables_number   1
_chemical_formula_structural   CaTbYZn11
_chemical_formula_sum   'Ca1 Tb1 Y1 Zn11'
_cell_volume   256.56280004
_cell_formula_units_Z   1
loop_
 _symmetry_equiv_pos_site_id
 _symmetry_equiv_pos_as_xyz
  1  'x, y, z'
loop_
 _atom_site_type_symbol
 _atom_site_label
 _atom_site_symmetry_multiplicity
 _atom_site_fract_x
 _atom_site_fract_y
 _atom_site_fract_z
 _atom_site_occupancy
  Ca  Ca0  1  0.999989  0.999989  0.000000  1
  Tb  Tb1  1  0.702162  0.702162  0.000000  1
  Y  Y2  1  0.297816  0.297816  0.000000  1
  Zn  Zn3  1  0.500011  0.000011  0.500000  1
  Zn  Zn4  1  0.679619  0.500009  0.179610  1
  Zn  Zn5  1  0.320399  0.500009  0.820390  1
  Zn  Zn6  1  0.694557  0.338199  0.356358  1
  Zn  Zn7  1  0.305429  0.661814  0.643614  1
  Zn  Zn8  1  0.981842  0.338199  0.643642  1
  Zn  Zn9  1  0.018200  0.661814  0.356386  1
  Zn  Zn10  1  0.421635  0.137313  0.284320  1
  Zn  Zn11  1  0.578376  0.862675  0.715702  1
  Zn  Zn12  1  0.852993  0.137313  0.715680  1
  Zn  Zn13  1  0.146973  0.862675  0.284298  1
