# generated using pymatgen
data_Li2TmLu3(ZnPt2)2
_symmetry_space_group_name_H-M   'P 1'
_cell_length_a   3.99913600
_cell_length_b   6.90269212
_cell_length_c   8.24928015
_cell_angle_alpha   89.91848278
_cell_angle_beta   90.00000000
_cell_angle_gamma   90.00000000
_symmetry_Int_Tables_number   1
_chemical_formula_structural   Li2TmLu3(ZnPt2)2
_chemical_formula_sum   'Li2 Tm1 Lu3 Zn2 Pt4'
_cell_volume   227.71953571
_cell_formula_units_Z   1
loop_
 _symmetry_equiv_pos_site_id
 _symmetry_equiv_pos_as_xyz
  1  'x, y, z'
loop_
 _atom_site_type_symbol
 _atom_site_label
 _atom_site_symmetry_multiplicity
 _atom_site_fract_x
 _atom_site_fract_y
 _atom_site_fract_z
 _atom_site_occupancy
  Li  Li0  1  0.250000  0.630692  0.560508  1
  Li  Li1  1  0.250000  0.130011  0.939532  1
  Tm  Tm2  1  0.250000  0.544507  0.180028  1
  Lu  Lu3  1  0.750000  0.455139  0.814955  1
  Lu  Lu4  1  0.750000  0.955598  0.684741  1
  Lu  Lu5  1  0.250000  0.044688  0.320857  1
  Zn  Zn6  1  0.750000  0.370895  0.436627  1
  Zn  Zn7  1  0.750000  0.870736  0.063141  1
  Pt  Pt8  1  0.250000  0.746151  0.876437  1
  Pt  Pt9  1  0.750000  0.251151  0.122263  1
  Pt  Pt10  1  0.750000  0.754327  0.378466  1
  Pt  Pt11  1  0.250000  0.246107  0.622443  1
