# generated using pymatgen
data_TbTh2Cu3(Ni5B)2
_symmetry_space_group_name_H-M   'P 1'
_cell_length_a   5.04034400
_cell_length_b   5.04034441
_cell_length_c   10.89759700
_cell_angle_alpha   90.00000000
_cell_angle_beta   90.00000000
_cell_angle_gamma   119.99998418
_symmetry_Int_Tables_number   1
_chemical_formula_structural   TbTh2Cu3(Ni5B)2
_chemical_formula_sum   'Tb1 Th2 Cu3 Ni10 B2'
_cell_volume   239.76281851
_cell_formula_units_Z   1
loop_
 _symmetry_equiv_pos_site_id
 _symmetry_equiv_pos_as_xyz
  1  'x, y, z'
loop_
 _atom_site_type_symbol
 _atom_site_label
 _atom_site_symmetry_multiplicity
 _atom_site_fract_x
 _atom_site_fract_y
 _atom_site_fract_z
 _atom_site_occupancy
  Tb  Tb0  1  0.000000  0.000000  0.999831  1
  Th  Th1  1  0.000000  0.000000  0.332707  1
  Th  Th2  1  0.000000  0.000000  0.670196  1
  Cu  Cu3  1  0.333333  0.666667  0.316133  1
  Cu  Cu4  1  0.666667  0.333333  0.315828  1
  Cu  Cu5  1  0.666667  0.333333  0.683945  1
  Ni  Ni6  1  0.499529  0.999058  0.499882  1
  Ni  Ni7  1  0.499529  0.500471  0.499882  1
  Ni  Ni8  1  0.000942  0.500471  0.499882  1
  Ni  Ni9  1  0.333333  0.666667  0.682815  1
  Ni  Ni10  1  0.499948  0.999897  0.129528  1
  Ni  Ni11  1  0.499948  0.500052  0.129528  1
  Ni  Ni12  1  0.000103  0.500052  0.129528  1
  Ni  Ni13  1  0.499264  0.998527  0.870144  1
  Ni  Ni14  1  0.499264  0.500736  0.870144  1
  Ni  Ni15  1  0.001473  0.500736  0.870144  1
  B  B16  1  0.333333  0.666667  0.999967  1
  B  B17  1  0.666667  0.333333  0.999918  1
