# generated using pymatgen
data_Nd4MgMn3O12
_symmetry_space_group_name_H-M   'P 1'
_cell_length_a   5.46563221
_cell_length_b   5.61982544
_cell_length_c   7.85950878
_cell_angle_alpha   89.48615940
_cell_angle_beta   89.90405952
_cell_angle_gamma   89.33002053
_symmetry_Int_Tables_number   1
_chemical_formula_structural   Nd4MgMn3O12
_chemical_formula_sum   'Nd4 Mg1 Mn3 O12'
_cell_volume   241.38536825
_cell_formula_units_Z   1
loop_
 _symmetry_equiv_pos_site_id
 _symmetry_equiv_pos_as_xyz
  1  'x, y, z'
loop_
 _atom_site_type_symbol
 _atom_site_label
 _atom_site_symmetry_multiplicity
 _atom_site_fract_x
 _atom_site_fract_y
 _atom_site_fract_z
 _atom_site_occupancy
  Nd  Nd0  1  0.489163  0.551283  0.254015  1
  Nd  Nd1  1  0.983228  0.947015  0.746005  1
  Nd  Nd2  1  0.510837  0.448717  0.745985  1
  Nd  Nd3  1  0.016772  0.052985  0.253995  1
  Mg  Mg4  1  0.000000  0.500000  0.500000  1
  Mn  Mn5  1  0.000000  0.500000  0.000000  1
  Mn  Mn6  1  0.500000  0.000000  0.000000  1
  Mn  Mn7  1  0.500000  0.000000  0.500000  1
  O  O8  1  0.593614  0.974406  0.239610  1
  O  O9  1  0.084551  0.522910  0.761355  1
  O  O10  1  0.406386  0.025594  0.760390  1
  O  O11  1  0.915449  0.477090  0.238645  1
  O  O12  1  0.218036  0.798890  0.051546  1
  O  O13  1  0.704189  0.711212  0.948749  1
  O  O14  1  0.781964  0.201110  0.948454  1
  O  O15  1  0.295811  0.288788  0.051251  1
  O  O16  1  0.300328  0.285521  0.454994  1
  O  O17  1  0.783362  0.200924  0.544051  1
  O  O18  1  0.699672  0.714479  0.545006  1
  O  O19  1  0.216638  0.799076  0.455949  1
