# generated using pymatgen
data_Ho17Lu3(Bi2As)4
_symmetry_space_group_name_H-M   'P 1'
_cell_length_a   8.00708746
_cell_length_b   9.08136025
_cell_length_c   12.00287898
_cell_angle_alpha   89.97411485
_cell_angle_beta   89.96163024
_cell_angle_gamma   89.99294996
_symmetry_Int_Tables_number   1
_chemical_formula_structural   Ho17Lu3(Bi2As)4
_chemical_formula_sum   'Ho17 Lu3 Bi8 As4'
_cell_volume   872.79200397
_cell_formula_units_Z   1
loop_
 _symmetry_equiv_pos_site_id
 _symmetry_equiv_pos_as_xyz
  1  'x, y, z'
loop_
 _atom_site_type_symbol
 _atom_site_label
 _atom_site_symmetry_multiplicity
 _atom_site_fract_x
 _atom_site_fract_y
 _atom_site_fract_z
 _atom_site_occupancy
  Ho  Ho0  1  0.317299  0.443534  0.437170  1
  Ho  Ho1  1  0.182850  0.443562  0.937250  1
  Ho  Ho2  1  0.317015  0.056201  0.437196  1
  Ho  Ho3  1  0.816997  0.943434  0.062673  1
  Ho  Ho4  1  0.682957  0.556450  0.562839  1
  Ho  Ho5  1  0.156130  0.749672  0.210734  1
  Ho  Ho6  1  0.343712  0.750260  0.710781  1
  Ho  Ho7  1  0.843788  0.249562  0.789173  1
  Ho  Ho8  1  0.656179  0.249996  0.289055  1
  Ho  Ho9  1  0.464225  0.750017  0.000041  1
  Ho  Ho10  1  0.035549  0.750209  0.500073  1
  Ho  Ho11  1  0.535854  0.249876  0.999853  1
  Ho  Ho12  1  0.963681  0.249808  0.500047  1
  Ho  Ho13  1  0.634628  0.749700  0.292689  1
  Ho  Ho14  1  0.865401  0.750178  0.792745  1
  Ho  Ho15  1  0.365415  0.249624  0.707460  1
  Ho  Ho16  1  0.134428  0.249861  0.206973  1
  Lu  Lu17  1  0.818087  0.558019  0.062829  1
  Lu  Lu18  1  0.682025  0.942168  0.562890  1
  Lu  Lu19  1  0.181809  0.057823  0.936995  1
  Bi  Bi20  1  0.925018  0.509804  0.326425  1
  Bi  Bi21  1  0.574978  0.989829  0.826577  1
  Bi  Bi22  1  0.074851  0.009896  0.673533  1
  Bi  Bi23  1  0.425308  0.489720  0.173158  1
  Bi  Bi24  1  0.074516  0.490120  0.673443  1
  Bi  Bi25  1  0.425715  0.009608  0.173090  1
  Bi  Bi26  1  0.925581  0.990158  0.326738  1
  Bi  Bi27  1  0.574322  0.509693  0.826923  1
  As  As28  1  0.413538  0.751077  0.478919  1
  As  As29  1  0.087597  0.751309  0.978303  1
  As  As30  1  0.588194  0.247506  0.521878  1
  As  As31  1  0.912353  0.251329  0.021547  1
