# generated using pymatgen
data_BiIr2PbO7
_symmetry_space_group_name_H-M   'P 1'
_cell_length_a   7.35987686
_cell_length_b   7.37717945
_cell_length_c   7.37717959
_cell_angle_alpha   60.14632688
_cell_angle_beta   60.07754956
_cell_angle_gamma   60.07755021
_symmetry_Int_Tables_number   1
_chemical_formula_structural   BiIr2PbO7
_chemical_formula_sum   'Bi2 Ir4 Pb2 O14'
_cell_volume   283.87256530
_cell_formula_units_Z   2
loop_
 _symmetry_equiv_pos_site_id
 _symmetry_equiv_pos_as_xyz
  1  'x, y, z'
loop_
 _atom_site_type_symbol
 _atom_site_label
 _atom_site_symmetry_multiplicity
 _atom_site_fract_x
 _atom_site_fract_y
 _atom_site_fract_z
 _atom_site_occupancy
  Bi  Bi0  1  0.125000  0.625000  0.125000  1
  Bi  Bi1  1  0.125000  0.125000  0.625000  1
  Ir  Ir2  1  0.125000  0.625000  0.625000  1
  Ir  Ir3  1  0.625000  0.125000  0.625000  1
  Ir  Ir4  1  0.625000  0.625000  0.125000  1
  Ir  Ir5  1  0.625000  0.625000  0.625000  1
  Pb  Pb6  1  0.625000  0.125000  0.125000  1
  Pb  Pb7  1  0.125000  0.125000  0.125000  1
  O  O8  1  0.705700  0.702781  0.296054  1
  O  O9  1  0.295465  0.296054  0.702781  1
  O  O10  1  0.705700  0.296054  0.702781  1
  O  O11  1  0.295465  0.702781  0.296054  1
  O  O12  1  0.294742  0.705258  0.705258  1
  O  O13  1  0.703325  0.296675  0.296675  1
  O  O14  1  0.544300  0.547219  0.953946  1
  O  O15  1  0.954535  0.953946  0.547219  1
  O  O16  1  0.544300  0.953946  0.547219  1
  O  O17  1  0.954535  0.547219  0.953946  1
  O  O18  1  0.955258  0.544742  0.544742  1
  O  O19  1  0.546675  0.953325  0.953325  1
  O  O20  1  0.246578  0.253422  0.253422  1
  O  O21  1  0.003422  0.996578  0.996578  1
