# generated using pymatgen
data_K4UTe6Pb
_symmetry_space_group_name_H-M   'P 1'
_cell_length_a   8.23644731
_cell_length_b   8.23644739
_cell_length_c   8.50841826
_cell_angle_alpha   80.54270697
_cell_angle_beta   80.54270509
_cell_angle_gamma   120.01551284
_symmetry_Int_Tables_number   1
_chemical_formula_structural   K4UTe6Pb
_chemical_formula_sum   'K4 U1 Te6 Pb1'
_cell_volume   472.02270675
_cell_formula_units_Z   1
loop_
 _symmetry_equiv_pos_site_id
 _symmetry_equiv_pos_as_xyz
  1  'x, y, z'
loop_
 _atom_site_type_symbol
 _atom_site_label
 _atom_site_symmetry_multiplicity
 _atom_site_fract_x
 _atom_site_fract_y
 _atom_site_fract_z
 _atom_site_occupancy
  K  K0  1  0.342873  0.657127  0.500000  1
  K  K1  1  0.653390  0.346610  0.500000  1
  K  K2  1  0.003236  0.996764  0.500000  1
  K  K3  1  0.499997  0.500003  0.000000  1
  U  U4  1  0.832243  0.167757  0.000000  1
  Te  Te5  1  0.782119  0.809602  0.208734  1
  Te  Te6  1  0.456200  0.074794  0.213789  1
  Te  Te7  1  0.044484  0.399097  0.211594  1
  Te  Te8  1  0.600903  0.955516  0.788406  1
  Te  Te9  1  0.925206  0.543800  0.786211  1
  Te  Te10  1  0.190398  0.217881  0.791266  1
  Pb  Pb11  1  0.168950  0.831050  0.000000  1
