# generated using pymatgen
data_La4Cu3(BiSb3)2
_symmetry_space_group_name_H-M   'P 1'
_cell_length_a   11.10415515
_cell_length_b   11.10415494
_cell_length_c   11.10415627
_cell_angle_alpha   146.90795415
_cell_angle_beta   146.90794874
_cell_angle_gamma   47.50009104
_symmetry_Int_Tables_number   1
_chemical_formula_structural   La4Cu3(BiSb3)2
_chemical_formula_sum   'La4 Cu3 Bi2 Sb6'
_cell_volume   406.55652799
_cell_formula_units_Z   1
loop_
 _symmetry_equiv_pos_site_id
 _symmetry_equiv_pos_as_xyz
  1  'x, y, z'
loop_
 _atom_site_type_symbol
 _atom_site_label
 _atom_site_symmetry_multiplicity
 _atom_site_fract_x
 _atom_site_fract_y
 _atom_site_fract_z
 _atom_site_occupancy
  La  La0  1  0.634524  0.634524  0.500877  1
  La  La1  1  0.133646  0.133646  0.499123  1
  La  La2  1  0.365476  0.866354  0.000000  1
  La  La3  1  0.866354  0.365476  0.000000  1
  Cu  Cu4  1  0.000000  0.000000  0.000000  1
  Cu  Cu5  1  0.000000  0.500000  0.500000  1
  Cu  Cu6  1  0.500000  0.000000  0.500000  1
  Bi  Bi7  1  0.750000  0.250000  0.500000  1
  Bi  Bi8  1  0.250000  0.750000  0.500000  1
  Sb  Sb9  1  0.323305  0.323305  0.505256  1
  Sb  Sb10  1  0.818048  0.818048  0.494744  1
  Sb  Sb11  1  0.676695  0.181952  0.000000  1
  Sb  Sb12  1  0.181952  0.676695  0.000000  1
  Sb  Sb13  1  0.249983  0.249983  0.000000  1
  Sb  Sb14  1  0.750017  0.750017  0.000000  1
