# generated using pymatgen
data_Tm6Th2MgHgRh2
_symmetry_space_group_name_H-M   'P 1'
_cell_length_a   9.65015925
_cell_length_b   9.65015911
_cell_length_c   9.68266300
_cell_angle_alpha   59.88851396
_cell_angle_beta   59.88851442
_cell_angle_gamma   59.99996587
_symmetry_Int_Tables_number   1
_chemical_formula_structural   Tm6Th2MgHgRh2
_chemical_formula_sum   'Tm12 Th4 Mg2 Hg2 Rh4'
_cell_volume   636.52397981
_cell_formula_units_Z   2
loop_
 _symmetry_equiv_pos_site_id
 _symmetry_equiv_pos_as_xyz
  1  'x, y, z'
loop_
 _atom_site_type_symbol
 _atom_site_label
 _atom_site_symmetry_multiplicity
 _atom_site_fract_x
 _atom_site_fract_y
 _atom_site_fract_z
 _atom_site_occupancy
  Tm  Tm0  1  0.063455  0.435109  0.437605  1
  Tm  Tm1  1  0.435109  0.063455  0.063831  1
  Tm  Tm2  1  0.435109  0.063455  0.437605  1
  Tm  Tm3  1  0.063455  0.435109  0.063831  1
  Tm  Tm4  1  0.436811  0.436811  0.063189  1
  Tm  Tm5  1  0.062753  0.062753  0.437247  1
  Tm  Tm6  1  0.182578  0.816448  0.816108  1
  Tm  Tm7  1  0.816448  0.182578  0.184866  1
  Tm  Tm8  1  0.816448  0.182578  0.816108  1
  Tm  Tm9  1  0.182578  0.816448  0.184866  1
  Tm  Tm10  1  0.815869  0.815869  0.184131  1
  Tm  Tm11  1  0.183200  0.183200  0.816800  1
  Th  Th12  1  0.600429  0.600429  0.599759  1
  Th  Th13  1  0.600429  0.600429  0.199382  1
  Th  Th14  1  0.603087  0.195119  0.600896  1
  Th  Th15  1  0.195119  0.603087  0.600896  1
  Mg  Mg16  1  0.830223  0.512194  0.828792  1
  Mg  Mg17  1  0.512194  0.830223  0.828792  1
  Hg  Hg18  1  0.833835  0.833835  0.841029  1
  Hg  Hg19  1  0.833835  0.833835  0.491301  1
  Rh  Rh20  1  0.392820  0.392820  0.394621  1
  Rh  Rh21  1  0.392820  0.392820  0.819739  1
  Rh  Rh22  1  0.392557  0.818838  0.394302  1
  Rh  Rh23  1  0.818838  0.392557  0.394302  1
