# generated using pymatgen
data_Li6Zn12IrPt5
_symmetry_space_group_name_H-M   'P 1'
_cell_length_a   4.30931400
_cell_length_b   6.03392200
_cell_length_c   13.07477800
_cell_angle_alpha   90.00000000
_cell_angle_beta   90.00050240
_cell_angle_gamma   90.00000000
_symmetry_Int_Tables_number   1
_chemical_formula_structural   Li6Zn12IrPt5
_chemical_formula_sum   'Li6 Zn12 Ir1 Pt5'
_cell_volume   339.97122152
_cell_formula_units_Z   1
loop_
 _symmetry_equiv_pos_site_id
 _symmetry_equiv_pos_as_xyz
  1  'x, y, z'
loop_
 _atom_site_type_symbol
 _atom_site_label
 _atom_site_symmetry_multiplicity
 _atom_site_fract_x
 _atom_site_fract_y
 _atom_site_fract_z
 _atom_site_occupancy
  Li  Li0  1  0.999998  0.000000  0.999226  1
  Li  Li1  1  0.499669  0.500001  0.166565  1
  Li  Li2  1  0.999634  0.000000  0.333314  1
  Li  Li3  1  0.500001  0.500001  0.500116  1
  Li  Li4  1  0.000335  0.000000  0.667467  1
  Li  Li5  1  0.500371  0.500001  0.833312  1
  Zn  Zn6  1  0.500003  0.242508  0.997787  1
  Zn  Zn7  1  0.500003  0.757491  0.997787  1
  Zn  Zn8  1  0.999711  0.253558  0.167000  1
  Zn  Zn9  1  0.999711  0.746442  0.167000  1
  Zn  Zn10  1  0.499707  0.247572  0.333349  1
  Zn  Zn11  1  0.499707  0.752428  0.333349  1
  Zn  Zn12  1  0.000000  0.253583  0.499650  1
  Zn  Zn13  1  0.000000  0.746417  0.499650  1
  Zn  Zn14  1  0.500282  0.242533  0.668865  1
  Zn  Zn15  1  0.500282  0.757467  0.668865  1
  Zn  Zn16  1  0.000288  0.247431  0.833349  1
  Zn  Zn17  1  0.000288  0.752569  0.833349  1
  Ir  Ir18  1  0.500260  0.000000  0.833320  1
  Pt  Pt19  1  0.999997  0.500001  0.000114  1
  Pt  Pt20  1  0.499747  0.000000  0.166890  1
  Pt  Pt21  1  0.999747  0.500001  0.333313  1
  Pt  Pt22  1  0.500001  0.000000  0.499800  1
  Pt  Pt23  1  0.000258  0.500001  0.666567  1
