# generated using pymatgen
data_Tm12CdCo4Os
_symmetry_space_group_name_H-M   'P 1'
_cell_length_a   8.20085924
_cell_length_b   8.20085946
_cell_length_c   8.20085829
_cell_angle_alpha   110.60036895
_cell_angle_beta   111.70433578
_cell_angle_gamma   106.16085790
_symmetry_Int_Tables_number   1
_chemical_formula_structural   Tm12CdCo4Os
_chemical_formula_sum   'Tm12 Cd1 Co4 Os1'
_cell_volume   423.47981188
_cell_formula_units_Z   1
loop_
 _symmetry_equiv_pos_site_id
 _symmetry_equiv_pos_as_xyz
  1  'x, y, z'
loop_
 _atom_site_type_symbol
 _atom_site_label
 _atom_site_symmetry_multiplicity
 _atom_site_fract_x
 _atom_site_fract_y
 _atom_site_fract_z
 _atom_site_occupancy
  Tm  Tm0  1  0.280722  0.181509  0.462231  1
  Tm  Tm1  1  0.719278  0.818491  0.537769  1
  Tm  Tm2  1  0.280722  0.818491  0.099213  1
  Tm  Tm3  1  0.719278  0.181509  0.900787  1
  Tm  Tm4  1  0.620547  0.314110  0.306437  1
  Tm  Tm5  1  0.379453  0.685890  0.693563  1
  Tm  Tm6  1  0.007673  0.314110  0.693563  1
  Tm  Tm7  1  0.992327  0.685890  0.306437  1
  Tm  Tm8  1  0.219600  0.414314  0.194717  1
  Tm  Tm9  1  0.780400  0.585686  0.805283  1
  Tm  Tm10  1  0.219600  0.024883  0.805283  1
  Tm  Tm11  1  0.780400  0.975117  0.194717  1
  Cd  Cd12  1  0.500000  0.500000  0.000000  1
  Co  Co13  1  0.000000  0.375723  0.375723  1
  Co  Co14  1  0.000000  0.624277  0.624277  1
  Co  Co15  1  0.387833  0.887833  0.500000  1
  Co  Co16  1  0.612167  0.112167  0.500000  1
  Os  Os17  1  0.000000  0.000000  0.000000  1
