# generated using pymatgen
data_Th10CuBi6Au
_symmetry_space_group_name_H-M   'P 1'
_cell_length_a   9.65432400
_cell_length_b   9.65432500
_cell_length_c   6.64563200
_cell_angle_alpha   90.00000000
_cell_angle_beta   90.00000000
_cell_angle_gamma   119.99999656
_symmetry_Int_Tables_number   1
_chemical_formula_structural   Th10CuBi6Au
_chemical_formula_sum   'Th10 Cu1 Bi6 Au1'
_cell_volume   536.42711227
_cell_formula_units_Z   1
loop_
 _symmetry_equiv_pos_site_id
 _symmetry_equiv_pos_as_xyz
  1  'x, y, z'
loop_
 _atom_site_type_symbol
 _atom_site_label
 _atom_site_symmetry_multiplicity
 _atom_site_fract_x
 _atom_site_fract_y
 _atom_site_fract_z
 _atom_site_occupancy
  Th  Th0  1  0.666667  0.333333  0.000000  1
  Th  Th1  1  0.333333  0.666667  0.000000  1
  Th  Th2  1  0.333333  0.666667  0.500000  1
  Th  Th3  1  0.666667  0.333333  0.500000  1
  Th  Th4  1  0.739115  0.739115  0.741703  1
  Th  Th5  1  0.260885  0.000000  0.741703  1
  Th  Th6  1  0.000000  0.260885  0.741703  1
  Th  Th7  1  0.260885  0.260885  0.258297  1
  Th  Th8  1  0.739115  0.000000  0.258297  1
  Th  Th9  1  0.000000  0.739115  0.258297  1
  Cu  Cu10  1  0.000000  0.000000  0.500000  1
  Bi  Bi11  1  0.387077  0.387077  0.751381  1
  Bi  Bi12  1  0.612923  0.000000  0.751381  1
  Bi  Bi13  1  0.000000  0.612923  0.751381  1
  Bi  Bi14  1  0.612923  0.612923  0.248619  1
  Bi  Bi15  1  0.387077  0.000000  0.248619  1
  Bi  Bi16  1  0.000000  0.387077  0.248619  1
  Au  Au17  1  0.000000  0.000000  0.000000  1
