# generated using pymatgen
data_La10Nd6Cd4Co3Pd
_symmetry_space_group_name_H-M   'P 1'
_cell_length_a   9.98967828
_cell_length_b   10.01893063
_cell_length_c   10.01893000
_cell_angle_alpha   60.00000207
_cell_angle_beta   59.90308874
_cell_angle_gamma   59.90308704
_symmetry_Int_Tables_number   1
_chemical_formula_structural   La10Nd6Cd4Co3Pd
_chemical_formula_sum   'La10 Nd6 Cd4 Co3 Pd1'
_cell_volume   708.01343901
_cell_formula_units_Z   1
loop_
 _symmetry_equiv_pos_site_id
 _symmetry_equiv_pos_as_xyz
  1  'x, y, z'
loop_
 _atom_site_type_symbol
 _atom_site_label
 _atom_site_symmetry_multiplicity
 _atom_site_fract_x
 _atom_site_fract_y
 _atom_site_fract_z
 _atom_site_occupancy
  La  La0  1  0.586711  0.601769  0.601769  1
  La  La1  1  0.586711  0.601769  0.209750  1
  La  La2  1  0.586711  0.209750  0.601769  1
  La  La3  1  0.218361  0.593879  0.593879  1
  La  La4  1  0.071348  0.441495  0.441495  1
  La  La5  1  0.440265  0.059910  0.059910  1
  La  La6  1  0.440265  0.059910  0.439916  1
  La  La7  1  0.071348  0.441495  0.045661  1
  La  La8  1  0.440265  0.439916  0.059910  1
  La  La9  1  0.071348  0.045661  0.441495  1
  Nd  Nd10  1  0.182347  0.815761  0.815761  1
  Nd  Nd11  1  0.812370  0.186944  0.186944  1
  Nd  Nd12  1  0.812370  0.186944  0.813743  1
  Nd  Nd13  1  0.182347  0.815761  0.186133  1
  Nd  Nd14  1  0.812370  0.813743  0.186944  1
  Nd  Nd15  1  0.182347  0.186133  0.815761  1
  Cd  Cd16  1  0.829665  0.829679  0.829679  1
  Cd  Cd17  1  0.829665  0.829679  0.510974  1
  Cd  Cd18  1  0.829665  0.510974  0.829679  1
  Cd  Cd19  1  0.508803  0.830399  0.830399  1
  Co  Co20  1  0.391604  0.390246  0.390246  1
  Co  Co21  1  0.391604  0.390246  0.827905  1
  Co  Co22  1  0.391604  0.827905  0.390246  1
  Pd  Pd23  1  0.829905  0.390032  0.390032  1
