# generated using pymatgen
data_Ca2SnPd2Pb
_symmetry_space_group_name_H-M   'P 1'
_cell_length_a   4.65891700
_cell_length_b   7.42529638
_cell_length_c   8.26625645
_cell_angle_alpha   90.70969943
_cell_angle_beta   90.00000000
_cell_angle_gamma   90.00000000
_symmetry_Int_Tables_number   1
_chemical_formula_structural   Ca2SnPd2Pb
_chemical_formula_sum   'Ca4 Sn2 Pd4 Pb2'
_cell_volume   285.93961233
_cell_formula_units_Z   2
loop_
 _symmetry_equiv_pos_site_id
 _symmetry_equiv_pos_as_xyz
  1  'x, y, z'
loop_
 _atom_site_type_symbol
 _atom_site_label
 _atom_site_symmetry_multiplicity
 _atom_site_fract_x
 _atom_site_fract_y
 _atom_site_fract_z
 _atom_site_occupancy
  Ca  Ca0  1  0.750000  0.478034  0.815244  1
  Ca  Ca1  1  0.250000  0.521966  0.184756  1
  Ca  Ca2  1  0.250000  0.018039  0.309499  1
  Ca  Ca3  1  0.750000  0.981961  0.690501  1
  Sn  Sn4  1  0.750000  0.832450  0.069528  1
  Sn  Sn5  1  0.250000  0.167550  0.930472  1
  Pd  Pd6  1  0.750000  0.207931  0.100312  1
  Pd  Pd7  1  0.750000  0.722752  0.380961  1
  Pd  Pd8  1  0.250000  0.792069  0.899688  1
  Pd  Pd9  1  0.250000  0.277248  0.619039  1
  Pb  Pb10  1  0.750000  0.331030  0.426240  1
  Pb  Pb11  1  0.250000  0.668970  0.573760  1
