# generated using pymatgen
data_Ac5YbSn9Hg
_symmetry_space_group_name_H-M   'P 1'
_cell_length_a   6.85770239
_cell_length_b   6.85770256
_cell_length_c   10.86350675
_cell_angle_alpha   90.16431192
_cell_angle_beta   90.16431040
_cell_angle_gamma   102.05477245
_symmetry_Int_Tables_number   1
_chemical_formula_structural   Ac5YbSn9Hg
_chemical_formula_sum   'Ac5 Yb1 Sn9 Hg1'
_cell_volume   499.61876563
_cell_formula_units_Z   1
loop_
 _symmetry_equiv_pos_site_id
 _symmetry_equiv_pos_as_xyz
  1  'x, y, z'
loop_
 _atom_site_type_symbol
 _atom_site_label
 _atom_site_symmetry_multiplicity
 _atom_site_fract_x
 _atom_site_fract_y
 _atom_site_fract_z
 _atom_site_occupancy
  Ac  Ac0  1  0.132778  0.132778  0.251735  1
  Ac  Ac1  1  0.291958  0.700944  0.501089  1
  Ac  Ac2  1  0.296224  0.706404  0.999509  1
  Ac  Ac3  1  0.700944  0.291958  0.501089  1
  Ac  Ac4  1  0.706404  0.296224  0.999509  1
  Yb  Yb5  1  0.870273  0.870273  0.753035  1
  Sn  Sn6  1  0.983876  0.582934  0.248308  1
  Sn  Sn7  1  0.429768  0.010644  0.750316  1
  Sn  Sn8  1  0.010644  0.429768  0.750316  1
  Sn  Sn9  1  0.582934  0.983876  0.248308  1
  Sn  Sn10  1  0.185678  0.185678  0.948510  1
  Sn  Sn11  1  0.808945  0.808945  0.460740  1
  Sn  Sn12  1  0.184350  0.184350  0.555828  1
  Sn  Sn13  1  0.529927  0.529927  0.251705  1
  Sn  Sn14  1  0.478004  0.478004  0.751650  1
  Hg  Hg15  1  0.807295  0.807295  0.028353  1
