# generated using pymatgen
data_Y15Tm5Si15Pd
_symmetry_space_group_name_H-M   'P 1'
_cell_length_a   7.36947097
_cell_length_b   7.70945182
_cell_length_c   14.57604300
_cell_angle_alpha   90.02578122
_cell_angle_beta   90.02934190
_cell_angle_gamma   90.09695810
_symmetry_Int_Tables_number   1
_chemical_formula_structural   Y15Tm5Si15Pd
_chemical_formula_sum   'Y15 Tm5 Si15 Pd1'
_cell_volume   828.13040257
_cell_formula_units_Z   1
loop_
 _symmetry_equiv_pos_site_id
 _symmetry_equiv_pos_as_xyz
  1  'x, y, z'
loop_
 _atom_site_type_symbol
 _atom_site_label
 _atom_site_symmetry_multiplicity
 _atom_site_fract_x
 _atom_site_fract_y
 _atom_site_fract_z
 _atom_site_occupancy
  Y  Y0  1  0.186199  0.324107  0.876111  1
  Y  Y1  1  0.317766  0.820165  0.123686  1
  Y  Y2  1  0.817752  0.677627  0.376343  1
  Y  Y3  1  0.317985  0.820478  0.376866  1
  Y  Y4  1  0.817513  0.677442  0.123988  1
  Y  Y5  1  0.681573  0.177338  0.876737  1
  Y  Y6  1  0.186319  0.323848  0.623424  1
  Y  Y7  1  0.525205  0.682698  0.594132  1
  Y  Y8  1  0.026805  0.817756  0.903915  1
  Y  Y9  1  0.473535  0.316288  0.097470  1
  Y  Y10  1  0.972953  0.182544  0.402802  1
  Y  Y11  1  0.473912  0.316481  0.403099  1
  Y  Y12  1  0.972969  0.182582  0.097511  1
  Y  Y13  1  0.525185  0.683023  0.905512  1
  Y  Y14  1  0.026557  0.817831  0.595561  1
  Tm  Tm15  1  0.680761  0.177502  0.623811  1
  Tm  Tm16  1  0.845059  0.510876  0.749479  1
  Tm  Tm17  1  0.354613  0.982196  0.749697  1
  Tm  Tm18  1  0.148778  0.485632  0.250165  1
  Tm  Tm19  1  0.648258  0.013196  0.250276  1
  Si  Si20  1  0.648682  0.972509  0.460334  1
  Si  Si21  1  0.146469  0.527525  0.040581  1
  Si  Si22  1  0.351816  0.026912  0.959815  1
  Si  Si23  1  0.849603  0.470254  0.540571  1
  Si  Si24  1  0.353856  0.027098  0.540833  1
  Si  Si25  1  0.851389  0.472273  0.959414  1
  Si  Si26  1  0.646959  0.971678  0.040960  1
  Si  Si27  1  0.146379  0.527378  0.459452  1
  Si  Si28  1  0.980825  0.101813  0.748844  1
  Si  Si29  1  0.519609  0.602088  0.250267  1
  Si  Si30  1  0.019289  0.897134  0.250252  1
  Si  Si31  1  0.738143  0.874280  0.749036  1
  Si  Si32  1  0.226714  0.632496  0.749795  1
  Si  Si33  1  0.268101  0.129240  0.250278  1
  Si  Si34  1  0.768348  0.370281  0.250249  1
  Pd  Pd35  1  0.484122  0.407430  0.748731  1
