# generated using pymatgen
data_ErTm9(InSb)3
_symmetry_space_group_name_H-M   'P 1'
_cell_length_a   6.42262000
_cell_length_b   8.85248770
_cell_length_c   8.85248819
_cell_angle_alpha   59.97633638
_cell_angle_beta   90.00006715
_cell_angle_gamma   89.99993243
_symmetry_Int_Tables_number   1
_chemical_formula_structural   ErTm9(InSb)3
_chemical_formula_sum   'Er1 Tm9 In3 Sb3'
_cell_volume   435.78265468
_cell_formula_units_Z   1
loop_
 _symmetry_equiv_pos_site_id
 _symmetry_equiv_pos_as_xyz
  1  'x, y, z'
loop_
 _atom_site_type_symbol
 _atom_site_label
 _atom_site_symmetry_multiplicity
 _atom_site_fract_x
 _atom_site_fract_y
 _atom_site_fract_z
 _atom_site_occupancy
  Er  Er0  1  0.250031  0.762022  0.237978  1
  Tm  Tm1  1  0.503204  0.333290  0.333310  1
  Tm  Tm2  1  0.503204  0.666690  0.666710  1
  Tm  Tm3  1  0.996773  0.666626  0.666670  1
  Tm  Tm4  1  0.996773  0.333330  0.333374  1
  Tm  Tm5  1  0.749981  0.238269  0.761731  1
  Tm  Tm6  1  0.750022  0.761691  0.999950  1
  Tm  Tm7  1  0.750022  0.000050  0.238309  1
  Tm  Tm8  1  0.249996  0.238034  0.999913  1
  Tm  Tm9  1  0.249996  0.000087  0.761966  1
  In  In10  1  0.749894  0.605997  0.394003  1
  In  In11  1  0.750050  0.394028  0.999996  1
  In  In12  1  0.750050  0.000004  0.605972  1
  Sb  Sb13  1  0.250047  0.395278  0.604722  1
  Sb  Sb14  1  0.249978  0.604479  0.999875  1
  Sb  Sb15  1  0.249978  0.000125  0.395521  1
