# generated using pymatgen
data_Ta2TiC2
_symmetry_space_group_name_H-M   'P 1'
_cell_length_a   7.62079594
_cell_length_b   7.62079561
_cell_length_c   7.62079578
_cell_angle_alpha   23.61195564
_cell_angle_beta   23.61196467
_cell_angle_gamma   23.61194915
_symmetry_Int_Tables_number   1
_chemical_formula_structural   Ta2TiC2
_chemical_formula_sum   'Ta2 Ti1 C2'
_cell_volume   62.36256271
_cell_formula_units_Z   1
loop_
 _symmetry_equiv_pos_site_id
 _symmetry_equiv_pos_as_xyz
  1  'x, y, z'
loop_
 _atom_site_type_symbol
 _atom_site_label
 _atom_site_symmetry_multiplicity
 _atom_site_fract_x
 _atom_site_fract_y
 _atom_site_fract_z
 _atom_site_occupancy
  Ta  Ta0  1  0.778253  0.778253  0.778253  1
  Ta  Ta1  1  0.221747  0.221747  0.221747  1
  Ti  Ti2  1  0.000000  0.000000  0.000000  1
  C  C3  1  0.609163  0.609163  0.609163  1
  C  C4  1  0.390837  0.390837  0.390837  1
