# generated using pymatgen
data_CeEu5WO12
_symmetry_space_group_name_H-M   'P 1'
_cell_length_a   6.62302948
_cell_length_b   6.64173414
_cell_length_c   6.66609865
_cell_angle_alpha   98.11390323
_cell_angle_beta   98.70706256
_cell_angle_gamma   98.24237134
_symmetry_Int_Tables_number   1
_chemical_formula_structural   CeEu5WO12
_chemical_formula_sum   'Ce1 Eu5 W1 O12'
_cell_volume   282.85530550
_cell_formula_units_Z   1
loop_
 _symmetry_equiv_pos_site_id
 _symmetry_equiv_pos_as_xyz
  1  'x, y, z'
loop_
 _atom_site_type_symbol
 _atom_site_label
 _atom_site_symmetry_multiplicity
 _atom_site_fract_x
 _atom_site_fract_y
 _atom_site_fract_z
 _atom_site_occupancy
  Ce  Ce0  1  0.141225  0.306808  0.607605  1
  Eu  Eu1  1  0.393898  0.858132  0.696264  1
  Eu  Eu2  1  0.694709  0.393343  0.863619  1
  Eu  Eu3  1  0.306599  0.606210  0.143809  1
  Eu  Eu4  1  0.606257  0.138602  0.301259  1
  Eu  Eu5  1  0.858248  0.694525  0.393591  1
  W  W6  1  0.001471  0.000157  0.998324  1
  O  O7  1  0.070152  0.293032  0.960237  1
  O  O8  1  0.032648  0.935937  0.707174  1
  O  O9  1  0.397746  0.556751  0.820176  1
  O  O10  1  0.175529  0.583212  0.439623  1
  O  O11  1  0.709494  0.033446  0.931519  1
  O  O12  1  0.422209  0.181141  0.589711  1
  O  O13  1  0.564564  0.825018  0.408908  1
  O  O14  1  0.291855  0.968238  0.066729  1
  O  O15  1  0.833029  0.397729  0.568815  1
  O  O16  1  0.594907  0.436157  0.179665  1
  O  O17  1  0.977227  0.078584  0.291313  1
  O  O18  1  0.928232  0.712979  0.031659  1
