# generated using pymatgen
data_Sr2Pr(GaRu)4
_symmetry_space_group_name_H-M   'P 1'
_cell_length_a   6.75700498
_cell_length_b   6.75700424
_cell_length_c   6.75700514
_cell_angle_alpha   108.42406199
_cell_angle_beta   108.42406201
_cell_angle_gamma   111.58647350
_symmetry_Int_Tables_number   1
_chemical_formula_structural   Sr2Pr(GaRu)4
_chemical_formula_sum   'Sr2 Pr1 Ga4 Ru4'
_cell_volume   237.24375137
_cell_formula_units_Z   1
loop_
 _symmetry_equiv_pos_site_id
 _symmetry_equiv_pos_as_xyz
  1  'x, y, z'
loop_
 _atom_site_type_symbol
 _atom_site_label
 _atom_site_symmetry_multiplicity
 _atom_site_fract_x
 _atom_site_fract_y
 _atom_site_fract_z
 _atom_site_occupancy
  Sr  Sr0  1  0.500000  0.000000  0.500000  1
  Sr  Sr1  1  0.000000  0.500000  0.500000  1
  Pr  Pr2  1  0.500000  0.500000  0.000000  1
  Ga  Ga3  1  0.389299  0.999134  0.000000  1
  Ga  Ga4  1  0.999134  0.389299  0.000000  1
  Ga  Ga5  1  0.000866  0.000866  0.390164  1
  Ga  Ga6  1  0.610700  0.610700  0.609835  1
  Ru  Ru7  1  0.753658  0.991100  0.000000  1
  Ru  Ru8  1  0.991100  0.753658  0.000000  1
  Ru  Ru9  1  0.246342  0.246342  0.237442  1
  Ru  Ru10  1  0.008900  0.008900  0.762558  1
