# generated using pymatgen
data_Tb3Lu3Bi2Ru
_symmetry_space_group_name_H-M   'P 1'
_cell_length_a   8.27124000
_cell_length_b   8.27124053
_cell_length_c   4.19698100
_cell_angle_alpha   90.00000000
_cell_angle_beta   90.00000000
_cell_angle_gamma   120.00000586
_symmetry_Int_Tables_number   1
_chemical_formula_structural   Tb3Lu3Bi2Ru
_chemical_formula_sum   'Tb3 Lu3 Bi2 Ru1'
_cell_volume   248.66169082
_cell_formula_units_Z   1
loop_
 _symmetry_equiv_pos_site_id
 _symmetry_equiv_pos_as_xyz
  1  'x, y, z'
loop_
 _atom_site_type_symbol
 _atom_site_label
 _atom_site_symmetry_multiplicity
 _atom_site_fract_x
 _atom_site_fract_y
 _atom_site_fract_z
 _atom_site_occupancy
  Tb  Tb0  1  0.000000  0.610208  0.500000  1
  Tb  Tb1  1  0.389792  0.389792  0.500000  1
  Tb  Tb2  1  0.610208  0.000000  0.500000  1
  Lu  Lu3  1  0.229074  0.000000  0.000000  1
  Lu  Lu4  1  0.770926  0.770926  0.000000  1
  Lu  Lu5  1  0.000000  0.229074  0.000000  1
  Bi  Bi6  1  0.333333  0.666667  0.000000  1
  Bi  Bi7  1  0.666667  0.333333  0.000000  1
  Ru  Ru8  1  0.000000  0.000000  0.500000  1
