# generated using pymatgen
data_Pr2Th(ZnNi)3
_symmetry_space_group_name_H-M   'P 1'
_cell_length_a   7.32852200
_cell_length_b   7.35416498
_cell_length_c   3.79079100
_cell_angle_alpha   90.00000000
_cell_angle_beta   90.00000000
_cell_angle_gamma   119.88472231
_symmetry_Int_Tables_number   1
_chemical_formula_structural   Pr2Th(ZnNi)3
_chemical_formula_sum   'Pr2 Th1 Zn3 Ni3'
_cell_volume   177.13873893
_cell_formula_units_Z   1
loop_
 _symmetry_equiv_pos_site_id
 _symmetry_equiv_pos_as_xyz
  1  'x, y, z'
loop_
 _atom_site_type_symbol
 _atom_site_label
 _atom_site_symmetry_multiplicity
 _atom_site_fract_x
 _atom_site_fract_y
 _atom_site_fract_z
 _atom_site_occupancy
  Pr  Pr0  1  0.415186  0.413782  0.500000  1
  Pr  Pr1  1  0.001404  0.586218  0.500000  1
  Th  Th2  1  0.581430  0.000000  0.500000  1
  Zn  Zn3  1  0.227519  0.000000  0.000000  1
  Zn  Zn4  1  0.762610  0.763186  0.000000  1
  Zn  Zn5  1  0.999424  0.236814  0.000000  1
  Ni  Ni6  1  0.990233  0.000000  0.500000  1
  Ni  Ni7  1  0.356713  0.691234  0.000000  1
  Ni  Ni8  1  0.665480  0.308766  0.000000  1
