# generated using pymatgen
data_Y3In3CuAgRh
_symmetry_space_group_name_H-M   'P 1'
_cell_length_a   7.67677600
_cell_length_b   7.67677684
_cell_length_c   3.90698000
_cell_angle_alpha   90.00000000
_cell_angle_beta   90.00000000
_cell_angle_gamma   119.99999640
_symmetry_Int_Tables_number   1
_chemical_formula_structural   Y3In3CuAgRh
_chemical_formula_sum   'Y3 In3 Cu1 Ag1 Rh1'
_cell_volume   199.40205047
_cell_formula_units_Z   1
loop_
 _symmetry_equiv_pos_site_id
 _symmetry_equiv_pos_as_xyz
  1  'x, y, z'
loop_
 _atom_site_type_symbol
 _atom_site_label
 _atom_site_symmetry_multiplicity
 _atom_site_fract_x
 _atom_site_fract_y
 _atom_site_fract_z
 _atom_site_occupancy
  Y  Y0  1  0.396225  0.976510  0.500000  1
  Y  Y1  1  0.023490  0.419715  0.500000  1
  Y  Y2  1  0.580285  0.603775  0.500000  1
  In  In3  1  0.750786  0.999832  0.000000  1
  In  In4  1  0.000168  0.750953  0.000000  1
  In  In5  1  0.249047  0.249214  0.000000  1
  Cu  Cu6  1  0.000000  0.000000  0.500000  1
  Ag  Ag7  1  0.666667  0.333333  0.000000  1
  Rh  Rh8  1  0.333333  0.666667  0.000000  1
