# generated using pymatgen
data_NaPr8Y11Sn16
_symmetry_space_group_name_H-M   'P 1'
_cell_length_a   8.07140474
_cell_length_b   8.37845700
_cell_length_c   15.74173600
_cell_angle_alpha   90.00000000
_cell_angle_beta   90.00000000
_cell_angle_gamma   90.26428443
_symmetry_Int_Tables_number   1
_chemical_formula_structural   NaPr8Y11Sn16
_chemical_formula_sum   'Na1 Pr8 Y11 Sn16'
_cell_volume   1064.53801595
_cell_formula_units_Z   1
loop_
 _symmetry_equiv_pos_site_id
 _symmetry_equiv_pos_as_xyz
  1  'x, y, z'
loop_
 _atom_site_type_symbol
 _atom_site_label
 _atom_site_symmetry_multiplicity
 _atom_site_fract_x
 _atom_site_fract_y
 _atom_site_fract_z
 _atom_site_occupancy
  Na  Na0  1  0.183401  0.495029  0.750000  1
  Pr  Pr1  1  0.500784  0.323248  0.904642  1
  Pr  Pr2  1  0.007799  0.184407  0.597419  1
  Pr  Pr3  1  0.494014  0.678045  0.402033  1
  Pr  Pr4  1  0.992515  0.824680  0.096689  1
  Pr  Pr5  1  0.494014  0.678045  0.097967  1
  Pr  Pr6  1  0.992515  0.824680  0.403311  1
  Pr  Pr7  1  0.500784  0.323248  0.595358  1
  Pr  Pr8  1  0.007799  0.184407  0.902581  1
  Y  Y9  1  0.347956  0.827892  0.877174  1
  Y  Y10  1  0.855334  0.666880  0.625440  1
  Y  Y11  1  0.652894  0.165469  0.378007  1
  Y  Y12  1  0.151028  0.329660  0.126467  1
  Y  Y13  1  0.652894  0.165469  0.121993  1
  Y  Y14  1  0.151028  0.329660  0.373533  1
  Y  Y15  1  0.347956  0.827892  0.622826  1
  Y  Y16  1  0.855334  0.666880  0.874560  1
  Y  Y17  1  0.682291  0.999007  0.750000  1
  Y  Y18  1  0.816821  0.499425  0.250000  1
  Y  Y19  1  0.316349  0.998531  0.250000  1
  Sn  Sn20  1  0.312402  0.039747  0.040498  1
  Sn  Sn21  1  0.817612  0.461143  0.460271  1
  Sn  Sn22  1  0.688059  0.961531  0.543620  1
  Sn  Sn23  1  0.183472  0.543201  0.966118  1
  Sn  Sn24  1  0.688059  0.961531  0.956380  1
  Sn  Sn25  1  0.183472  0.543201  0.533882  1
  Sn  Sn26  1  0.312402  0.039747  0.459502  1
  Sn  Sn27  1  0.817612  0.461143  0.039729  1
  Sn  Sn28  1  0.550182  0.619911  0.750000  1
  Sn  Sn29  1  0.051221  0.888352  0.750000  1
  Sn  Sn30  1  0.454589  0.375588  0.250000  1
  Sn  Sn31  1  0.949443  0.119691  0.250000  1
  Sn  Sn32  1  0.316486  0.132439  0.750000  1
  Sn  Sn33  1  0.801564  0.359275  0.750000  1
  Sn  Sn34  1  0.685156  0.858864  0.250000  1
  Sn  Sn35  1  0.184757  0.642083  0.250000  1
