# generated using pymatgen
data_Dy2Ho2CdSnAu4
_symmetry_space_group_name_H-M   'P 1'
_cell_length_a   8.00103800
_cell_length_b   8.00103800
_cell_length_c   7.35247900
_cell_angle_alpha   90.00000000
_cell_angle_beta   90.00000000
_cell_angle_gamma   90.00000000
_symmetry_Int_Tables_number   1
_chemical_formula_structural   Dy2Ho2CdSnAu4
_chemical_formula_sum   'Dy4 Ho4 Cd2 Sn2 Au8'
_cell_volume   470.68077389
_cell_formula_units_Z   2
loop_
 _symmetry_equiv_pos_site_id
 _symmetry_equiv_pos_as_xyz
  1  'x, y, z'
loop_
 _atom_site_type_symbol
 _atom_site_label
 _atom_site_symmetry_multiplicity
 _atom_site_fract_x
 _atom_site_fract_y
 _atom_site_fract_z
 _atom_site_occupancy
  Dy  Dy0  1  0.840798  0.159202  0.500000  1
  Dy  Dy1  1  0.159202  0.840798  0.500000  1
  Dy  Dy2  1  0.340798  0.340798  0.000000  1
  Dy  Dy3  1  0.659202  0.659202  0.000000  1
  Ho  Ho4  1  0.682235  0.682235  0.500000  1
  Ho  Ho5  1  0.317765  0.317765  0.500000  1
  Ho  Ho6  1  0.182235  0.817765  0.000000  1
  Ho  Ho7  1  0.817765  0.182235  0.000000  1
  Cd  Cd8  1  0.500000  0.000000  0.250000  1
  Cd  Cd9  1  0.000000  0.500000  0.750000  1
  Sn  Sn10  1  0.500000  0.000000  0.750000  1
  Sn  Sn11  1  0.000000  0.500000  0.250000  1
  Au  Au12  1  0.624583  0.368096  0.273666  1
  Au  Au13  1  0.375417  0.631904  0.273666  1
  Au  Au14  1  0.124583  0.131904  0.773666  1
  Au  Au15  1  0.875417  0.868096  0.773666  1
  Au  Au16  1  0.368096  0.624583  0.726334  1
  Au  Au17  1  0.631904  0.375417  0.726334  1
  Au  Au18  1  0.868096  0.875417  0.226334  1
  Au  Au19  1  0.131904  0.124583  0.226334  1
