# generated using pymatgen
data_YbPr4ZnSn3
_symmetry_space_group_name_H-M   'P 1'
_cell_length_a   7.90787800
_cell_length_b   8.68269700
_cell_length_c   15.96396600
_cell_angle_alpha   90.00000000
_cell_angle_beta   90.00000000
_cell_angle_gamma   90.00000000
_symmetry_Int_Tables_number   1
_chemical_formula_structural   YbPr4ZnSn3
_chemical_formula_sum   'Yb4 Pr16 Zn4 Sn12'
_cell_volume   1096.11318138
_cell_formula_units_Z   4
loop_
 _symmetry_equiv_pos_site_id
 _symmetry_equiv_pos_as_xyz
  1  'x, y, z'
loop_
 _atom_site_type_symbol
 _atom_site_label
 _atom_site_symmetry_multiplicity
 _atom_site_fract_x
 _atom_site_fract_y
 _atom_site_fract_z
 _atom_site_occupancy
  Yb  Yb0  1  0.820285  0.513546  0.750000  1
  Yb  Yb1  1  0.320285  0.986454  0.750000  1
  Yb  Yb2  1  0.179715  0.486454  0.250000  1
  Yb  Yb3  1  0.679715  0.013546  0.250000  1
  Pr  Pr4  1  0.666222  0.173623  0.629113  1
  Pr  Pr5  1  0.166222  0.326377  0.870887  1
  Pr  Pr6  1  0.333778  0.826377  0.129113  1
  Pr  Pr7  1  0.833778  0.673623  0.370887  1
  Pr  Pr8  1  0.333778  0.826377  0.370887  1
  Pr  Pr9  1  0.833778  0.673623  0.129113  1
  Pr  Pr10  1  0.666222  0.173623  0.870887  1
  Pr  Pr11  1  0.166222  0.326377  0.629113  1
  Pr  Pr12  1  0.503528  0.689191  0.592892  1
  Pr  Pr13  1  0.003528  0.810809  0.907108  1
  Pr  Pr14  1  0.496472  0.310809  0.092892  1
  Pr  Pr15  1  0.996472  0.189191  0.407108  1
  Pr  Pr16  1  0.496472  0.310809  0.407108  1
  Pr  Pr17  1  0.996472  0.189191  0.092892  1
  Pr  Pr18  1  0.503528  0.689191  0.907108  1
  Pr  Pr19  1  0.003528  0.810809  0.592892  1
  Zn  Zn20  1  0.461512  0.400666  0.750000  1
  Zn  Zn21  1  0.961512  0.099334  0.750000  1
  Zn  Zn22  1  0.538488  0.599334  0.250000  1
  Zn  Zn23  1  0.038488  0.900666  0.250000  1
  Sn  Sn24  1  0.679193  0.967609  0.461703  1
  Sn  Sn25  1  0.179193  0.532391  0.038297  1
  Sn  Sn26  1  0.320807  0.032391  0.961703  1
  Sn  Sn27  1  0.820807  0.467609  0.538297  1
  Sn  Sn28  1  0.320807  0.032391  0.538297  1
  Sn  Sn29  1  0.820807  0.467609  0.961703  1
  Sn  Sn30  1  0.679193  0.967609  0.038297  1
  Sn  Sn31  1  0.179193  0.532391  0.461703  1
  Sn  Sn32  1  0.711228  0.867391  0.750000  1
  Sn  Sn33  1  0.211228  0.632609  0.750000  1
  Sn  Sn34  1  0.288772  0.132609  0.250000  1
  Sn  Sn35  1  0.788772  0.367391  0.250000  1
