# generated using pymatgen
data_Zr6Ti3Al13CoPd6
_symmetry_space_group_name_H-M   'P 1'
_cell_length_a   8.82190317
_cell_length_b   8.82190337
_cell_length_c   8.82190253
_cell_angle_alpha   59.69273391
_cell_angle_beta   59.69273163
_cell_angle_gamma   59.69273645
_symmetry_Int_Tables_number   1
_chemical_formula_structural   Zr6Ti3Al13CoPd6
_chemical_formula_sum   'Zr6 Ti3 Al13 Co1 Pd6'
_cell_volume   482.09198525
_cell_formula_units_Z   1
loop_
 _symmetry_equiv_pos_site_id
 _symmetry_equiv_pos_as_xyz
  1  'x, y, z'
loop_
 _atom_site_type_symbol
 _atom_site_label
 _atom_site_symmetry_multiplicity
 _atom_site_fract_x
 _atom_site_fract_y
 _atom_site_fract_z
 _atom_site_occupancy
  Zr  Zr0  1  0.690935  0.310782  0.310782  1
  Zr  Zr1  1  0.689083  0.312038  0.689083  1
  Zr  Zr2  1  0.689083  0.689083  0.312038  1
  Zr  Zr3  1  0.312038  0.689083  0.689083  1
  Zr  Zr4  1  0.310782  0.690935  0.310782  1
  Zr  Zr5  1  0.310782  0.310782  0.690935  1
  Ti  Ti6  1  0.653134  0.115548  0.115548  1
  Ti  Ti7  1  0.115548  0.653134  0.115548  1
  Ti  Ti8  1  0.115548  0.115548  0.653134  1
  Al  Al9  1  0.114923  0.114923  0.114923  1
  Al  Al10  1  0.349674  0.883408  0.883408  1
  Al  Al11  1  0.883408  0.349674  0.883408  1
  Al  Al12  1  0.883408  0.883408  0.349674  1
  Al  Al13  1  0.881500  0.881500  0.881500  1
  Al  Al14  1  0.000957  0.334052  0.334052  1
  Al  Al15  1  0.334052  0.000957  0.334052  1
  Al  Al16  1  0.334052  0.334052  0.000957  1
  Al  Al17  1  0.334504  0.334504  0.334504  1
  Al  Al18  1  0.001633  0.666154  0.666154  1
  Al  Al19  1  0.666154  0.001633  0.666154  1
  Al  Al20  1  0.666154  0.666154  0.001633  1
  Al  Al21  1  0.666614  0.666614  0.666614  1
  Co  Co22  1  0.995375  0.995375  0.995375  1
  Pd  Pd23  1  0.497405  0.000966  0.000966  1
  Pd  Pd24  1  0.500670  0.999981  0.500670  1
  Pd  Pd25  1  0.500670  0.500670  0.999981  1
  Pd  Pd26  1  0.999981  0.500670  0.500670  1
  Pd  Pd27  1  0.000966  0.497405  0.000966  1
  Pd  Pd28  1  0.000966  0.000966  0.497405  1
