# generated using pymatgen
data_Ca3LaB24
_symmetry_space_group_name_H-M   'P 1'
_cell_length_a   7.21289977
_cell_length_b   7.21289998
_cell_length_c   5.83968100
_cell_angle_alpha   90.00000000
_cell_angle_beta   90.00000000
_cell_angle_gamma   109.72583999
_symmetry_Int_Tables_number   1
_chemical_formula_structural   Ca3LaB24
_chemical_formula_sum   'Ca3 La1 B24'
_cell_volume   285.98647084
_cell_formula_units_Z   1
loop_
 _symmetry_equiv_pos_site_id
 _symmetry_equiv_pos_as_xyz
  1  'x, y, z'
loop_
 _atom_site_type_symbol
 _atom_site_label
 _atom_site_symmetry_multiplicity
 _atom_site_fract_x
 _atom_site_fract_y
 _atom_site_fract_z
 _atom_site_occupancy
  Ca  Ca0  1  0.748479  0.251521  0.500000  1
  Ca  Ca1  1  0.500000  0.500000  0.000000  1
  Ca  Ca2  1  0.251521  0.748479  0.500000  1
  La  La3  1  0.000000  0.000000  0.000000  1
  B  B4  1  0.176063  0.325027  0.649945  1
  B  B5  1  0.925534  0.574002  0.150524  1
  B  B6  1  0.674973  0.823937  0.649945  1
  B  B7  1  0.425998  0.074466  0.150524  1
  B  B8  1  0.176063  0.325027  0.350055  1
  B  B9  1  0.925534  0.574002  0.849476  1
  B  B10  1  0.674973  0.823937  0.350055  1
  B  B11  1  0.425998  0.074466  0.849476  1
  B  B12  1  0.399830  0.399830  0.500000  1
  B  B13  1  0.149519  0.649470  0.000000  1
  B  B14  1  0.899165  0.899165  0.500000  1
  B  B15  1  0.649470  0.149519  0.000000  1
  B  B16  1  0.325027  0.176063  0.649945  1
  B  B17  1  0.074466  0.425998  0.150524  1
  B  B18  1  0.823937  0.674973  0.649945  1
  B  B19  1  0.574002  0.925534  0.150524  1
  B  B20  1  0.100835  0.100835  0.500000  1
  B  B21  1  0.850481  0.350530  0.000000  1
  B  B22  1  0.600170  0.600170  0.500000  1
  B  B23  1  0.350530  0.850481  0.000000  1
  B  B24  1  0.325027  0.176063  0.350055  1
  B  B25  1  0.074466  0.425998  0.849476  1
  B  B26  1  0.823937  0.674973  0.350055  1
  B  B27  1  0.574002  0.925534  0.849476  1
