# generated using pymatgen
data_LaSm2CCl5
_symmetry_space_group_name_H-M   'P 1'
_cell_length_a   7.29723829
_cell_length_b   8.68586232
_cell_length_c   8.75597800
_cell_angle_alpha   108.66635089
_cell_angle_beta   97.17448189
_cell_angle_gamma   106.22387503
_symmetry_Int_Tables_number   1
_chemical_formula_structural   LaSm2CCl5
_chemical_formula_sum   'La2 Sm4 C2 Cl10'
_cell_volume   490.63693491
_cell_formula_units_Z   2
loop_
 _symmetry_equiv_pos_site_id
 _symmetry_equiv_pos_as_xyz
  1  'x, y, z'
loop_
 _atom_site_type_symbol
 _atom_site_label
 _atom_site_symmetry_multiplicity
 _atom_site_fract_x
 _atom_site_fract_y
 _atom_site_fract_z
 _atom_site_occupancy
  La  La0  1  0.591164  0.831891  0.777441  1
  La  La1  1  0.408836  0.168109  0.222559  1
  Sm  Sm2  1  0.879805  0.949906  0.232039  1
  Sm  Sm3  1  0.120195  0.050094  0.767961  1
  Sm  Sm4  1  0.027326  0.711511  0.912487  1
  Sm  Sm5  1  0.972674  0.288489  0.087513  1
  C  C6  1  0.902621  0.963384  0.949103  1
  C  C7  1  0.097379  0.036616  0.050897  1
  Cl  Cl8  1  0.761330  0.917641  0.530164  1
  Cl  Cl9  1  0.238670  0.082359  0.469836  1
  Cl  Cl10  1  0.454359  0.818450  0.082009  1
  Cl  Cl11  1  0.545641  0.181550  0.917991  1
  Cl  Cl12  1  0.835168  0.267487  0.361964  1
  Cl  Cl13  1  0.164832  0.732513  0.638036  1
  Cl  Cl14  1  0.907626  0.626280  0.170209  1
  Cl  Cl15  1  0.092374  0.373720  0.829791  1
  Cl  Cl16  1  0.655879  0.520088  0.713618  1
  Cl  Cl17  1  0.344121  0.479912  0.286382  1
