# generated using pymatgen
data_Ho3Tm2Pa(Al3Os)8
_symmetry_space_group_name_H-M   'P 1'
_cell_length_a   8.78686900
_cell_length_b   8.82407229
_cell_length_c   9.54810300
_cell_angle_alpha   90.00000000
_cell_angle_beta   90.00000000
_cell_angle_gamma   119.86063357
_symmetry_Int_Tables_number   1
_chemical_formula_structural   Ho3Tm2Pa(Al3Os)8
_chemical_formula_sum   'Ho3 Tm2 Pa1 Al24 Os8'
_cell_volume   642.03562315
_cell_formula_units_Z   1
loop_
 _symmetry_equiv_pos_site_id
 _symmetry_equiv_pos_as_xyz
  1  'x, y, z'
loop_
 _atom_site_type_symbol
 _atom_site_label
 _atom_site_symmetry_multiplicity
 _atom_site_fract_x
 _atom_site_fract_y
 _atom_site_fract_z
 _atom_site_occupancy
  Ho  Ho0  1  0.807526  0.615050  0.750000  1
  Ho  Ho1  1  0.389158  0.192464  0.750000  1
  Ho  Ho2  1  0.803305  0.192464  0.750000  1
  Tm  Tm3  1  0.608472  0.802010  0.250000  1
  Tm  Tm4  1  0.193538  0.802010  0.250000  1
  Pa  Pa5  1  0.196765  0.393528  0.250000  1
  Al  Al6  1  0.336477  0.672954  0.020118  1
  Al  Al7  1  0.667903  0.335805  0.978394  1
  Al  Al8  1  0.667903  0.335805  0.521606  1
  Al  Al9  1  0.336477  0.672954  0.479882  1
  Al  Al10  1  0.163067  0.326135  0.578184  1
  Al  Al11  1  0.836624  0.673248  0.424742  1
  Al  Al12  1  0.672594  0.835396  0.575084  1
  Al  Al13  1  0.836624  0.673248  0.075258  1
  Al  Al14  1  0.326634  0.162219  0.423663  1
  Al  Al15  1  0.163067  0.326135  0.921816  1
  Al  Al16  1  0.162801  0.835396  0.575084  1
  Al  Al17  1  0.326634  0.162219  0.076337  1
  Al  Al18  1  0.835585  0.162219  0.423663  1
  Al  Al19  1  0.672594  0.835396  0.924916  1
  Al  Al20  1  0.835585  0.162219  0.076337  1
  Al  Al21  1  0.162801  0.835396  0.924916  1
  Al  Al22  1  0.559897  0.119795  0.250000  1
  Al  Al23  1  0.437604  0.875208  0.750000  1
  Al  Al24  1  0.872753  0.437628  0.250000  1
  Al  Al25  1  0.120480  0.559795  0.750000  1
  Al  Al26  1  0.564875  0.437628  0.250000  1
  Al  Al27  1  0.439315  0.559795  0.750000  1
  Al  Al28  1  0.000499  0.000998  0.250000  1
  Al  Al29  1  0.000480  0.000959  0.750000  1
  Os  Os30  1  0.501621  0.003241  0.998086  1
  Os  Os31  1  0.003565  0.500014  0.004873  1
  Os  Os32  1  0.501621  0.003241  0.501914  1
  Os  Os33  1  0.496450  0.500014  0.004873  1
  Os  Os34  1  0.003565  0.500014  0.495127  1
  Os  Os35  1  0.496450  0.500014  0.495127  1
  Os  Os36  1  0.999347  0.998693  0.999287  1
  Os  Os37  1  0.999347  0.998693  0.500713  1
