# generated using pymatgen
data_Er4ScTi3Ir4
_symmetry_space_group_name_H-M   'P 1'
_cell_length_a   4.35073600
_cell_length_b   6.88950172
_cell_length_c   8.19214464
_cell_angle_alpha   90.46580264
_cell_angle_beta   90.00000000
_cell_angle_gamma   90.00000000
_symmetry_Int_Tables_number   1
_chemical_formula_structural   Er4ScTi3Ir4
_chemical_formula_sum   'Er4 Sc1 Ti3 Ir4'
_cell_volume   245.54653159
_cell_formula_units_Z   1
loop_
 _symmetry_equiv_pos_site_id
 _symmetry_equiv_pos_as_xyz
  1  'x, y, z'
loop_
 _atom_site_type_symbol
 _atom_site_label
 _atom_site_symmetry_multiplicity
 _atom_site_fract_x
 _atom_site_fract_y
 _atom_site_fract_z
 _atom_site_occupancy
  Er  Er0  1  0.250000  0.980261  0.325626  1
  Er  Er1  1  0.250000  0.490554  0.180866  1
  Er  Er2  1  0.750000  0.016918  0.682293  1
  Er  Er3  1  0.750000  0.517138  0.813671  1
  Sc  Sc4  1  0.750000  0.144572  0.072401  1
  Ti  Ti5  1  0.250000  0.361187  0.565341  1
  Ti  Ti6  1  0.250000  0.858827  0.934947  1
  Ti  Ti7  1  0.750000  0.641750  0.433751  1
  Ir  Ir8  1  0.250000  0.225270  0.886946  1
  Ir  Ir9  1  0.250000  0.722400  0.595976  1
  Ir  Ir10  1  0.750000  0.762593  0.095684  1
  Ir  Ir11  1  0.750000  0.278530  0.412497  1
