# generated using pymatgen
data_LaCeRuN3
_symmetry_space_group_name_H-M   'P 1'
_cell_length_a   3.53159607
_cell_length_b   3.79685450
_cell_length_c   6.94612200
_cell_angle_alpha   105.86116485
_cell_angle_beta   104.72746614
_cell_angle_gamma   89.99999486
_symmetry_Int_Tables_number   1
_chemical_formula_structural   LaCeRuN3
_chemical_formula_sum   'La1 Ce1 Ru1 N3'
_cell_volume   86.40857818
_cell_formula_units_Z   1
loop_
 _symmetry_equiv_pos_site_id
 _symmetry_equiv_pos_as_xyz
  1  'x, y, z'
loop_
 _atom_site_type_symbol
 _atom_site_label
 _atom_site_symmetry_multiplicity
 _atom_site_fract_x
 _atom_site_fract_y
 _atom_site_fract_z
 _atom_site_occupancy
  La  La0  1  0.351997  0.352038  0.704055  1
  Ce  Ce1  1  0.651228  0.651294  0.302489  1
  Ru  Ru2  1  0.002314  0.002053  0.004328  1
  N  N3  1  0.003218  0.503148  0.006499  1
  N  N4  1  0.165321  0.165398  0.330647  1
  N  N5  1  0.825921  0.826067  0.651983  1
