# generated using pymatgen
data_Nd9Dy(Pb3Se)2
_symmetry_space_group_name_H-M   'P 1'
_cell_length_a   9.54979700
_cell_length_b   9.55272951
_cell_length_c   7.05447900
_cell_angle_alpha   90.00000000
_cell_angle_beta   90.00000000
_cell_angle_gamma   120.00999602
_symmetry_Int_Tables_number   1
_chemical_formula_structural   Nd9Dy(Pb3Se)2
_chemical_formula_sum   'Nd9 Dy1 Pb6 Se2'
_cell_volume   557.27998218
_cell_formula_units_Z   1
loop_
 _symmetry_equiv_pos_site_id
 _symmetry_equiv_pos_as_xyz
  1  'x, y, z'
loop_
 _atom_site_type_symbol
 _atom_site_label
 _atom_site_symmetry_multiplicity
 _atom_site_fract_x
 _atom_site_fract_y
 _atom_site_fract_z
 _atom_site_occupancy
  Nd  Nd0  1  0.750151  0.749969  0.750000  1
  Nd  Nd1  1  0.249848  0.999812  0.750000  1
  Nd  Nd2  1  0.999994  0.248697  0.750000  1
  Nd  Nd3  1  0.250275  0.250162  0.250000  1
  Nd  Nd4  1  0.749725  0.999890  0.250000  1
  Nd  Nd5  1  0.667397  0.334229  0.000553  1
  Nd  Nd6  1  0.332600  0.666839  0.000557  1
  Nd  Nd7  1  0.332600  0.666839  0.499443  1
  Nd  Nd8  1  0.667397  0.334229  0.499447  1
  Dy  Dy9  1  0.999999  0.753687  0.250000  1
  Pb  Pb10  1  0.395922  0.396064  0.750000  1
  Pb  Pb11  1  0.604057  0.000123  0.750000  1
  Pb  Pb12  1  0.999998  0.604130  0.750000  1
  Pb  Pb13  1  0.606733  0.604987  0.250000  1
  Pb  Pb14  1  0.393287  0.998270  0.250000  1
  Pb  Pb15  1  0.000014  0.398226  0.250000  1
  Se  Se16  1  0.000003  0.996922  0.002564  1
  Se  Se17  1  0.000003  0.996922  0.497436  1
