# generated using pymatgen
data_BeAl5V12(ZnN2)2
_symmetry_space_group_name_H-M   'P 1'
_cell_length_a   6.57197831
_cell_length_b   6.57442449
_cell_length_c   6.57345199
_cell_angle_alpha   90.00238128
_cell_angle_beta   89.88203095
_cell_angle_gamma   89.99332747
_symmetry_Int_Tables_number   1
_chemical_formula_structural   BeAl5V12(ZnN2)2
_chemical_formula_sum   'Be1 Al5 V12 Zn2 N4'
_cell_volume   284.01837277
_cell_formula_units_Z   1
loop_
 _symmetry_equiv_pos_site_id
 _symmetry_equiv_pos_as_xyz
  1  'x, y, z'
loop_
 _atom_site_type_symbol
 _atom_site_label
 _atom_site_symmetry_multiplicity
 _atom_site_fract_x
 _atom_site_fract_y
 _atom_site_fract_z
 _atom_site_occupancy
  Be  Be0  1  0.426500  0.927228  0.570975  1
  Al  Al1  1  0.184998  0.825551  0.329341  1
  Al  Al2  1  0.321739  0.165546  0.813662  1
  Al  Al3  1  0.827556  0.320436  0.182609  1
  Al  Al4  1  0.671376  0.689226  0.669639  1
  Al  Al5  1  0.571550  0.427688  0.926717  1
  V  V6  1  0.787587  0.958938  0.379688  1
  V  V7  1  0.706998  0.041117  0.873107  1
  V  V8  1  0.210163  0.460220  0.121108  1
  V  V9  1  0.292324  0.541647  0.627425  1
  V  V10  1  0.957531  0.376205  0.792164  1
  V  V11  1  0.044111  0.877065  0.707669  1
  V  V12  1  0.461268  0.125087  0.211500  1
  V  V13  1  0.538672  0.624667  0.291093  1
  V  V14  1  0.378888  0.790238  0.957162  1
  V  V15  1  0.871770  0.707483  0.038370  1
  V  V16  1  0.126245  0.206751  0.460307  1
  V  V17  1  0.621231  0.287893  0.542455  1
  Zn  Zn18  1  0.930983  0.572823  0.430225  1
  Zn  Zn19  1  0.072261  0.067791  0.071036  1
  N  N20  1  0.874527  0.126707  0.626504  1
  N  N21  1  0.626074  0.875972  0.127652  1
  N  N22  1  0.124055  0.628589  0.874200  1
  N  N23  1  0.371593  0.375130  0.375390  1
