# generated using pymatgen
data_Ca3ZrAl3SbO12
_symmetry_space_group_name_H-M   'P 1'
_cell_length_a   10.73485978
_cell_length_b   10.73486062
_cell_length_c   10.73486000
_cell_angle_alpha   109.44553888
_cell_angle_beta   109.44553480
_cell_angle_gamma   109.52260569
_symmetry_Int_Tables_number   1
_chemical_formula_structural   Ca3ZrAl3SbO12
_chemical_formula_sum   'Ca12 Zr4 Al12 Sb4 O48'
_cell_volume   952.28510199
_cell_formula_units_Z   4
loop_
 _symmetry_equiv_pos_site_id
 _symmetry_equiv_pos_as_xyz
  1  'x, y, z'
loop_
 _atom_site_type_symbol
 _atom_site_label
 _atom_site_symmetry_multiplicity
 _atom_site_fract_x
 _atom_site_fract_y
 _atom_site_fract_z
 _atom_site_occupancy
  Ca  Ca0  1  0.243170  0.371910  0.121299  1
  Ca  Ca1  1  0.756830  0.628090  0.878701  1
  Ca  Ca2  1  0.750608  0.121868  0.378700  1
  Ca  Ca3  1  0.121868  0.243166  0.371259  1
  Ca  Ca4  1  0.371910  0.750610  0.128737  1
  Ca  Ca5  1  0.249392  0.878132  0.621300  1
  Ca  Ca6  1  0.878132  0.756834  0.628741  1
  Ca  Ca7  1  0.628090  0.249390  0.871263  1
  Ca  Ca8  1  0.372607  0.122605  0.250003  1
  Ca  Ca9  1  0.627393  0.877395  0.749997  1
  Ca  Ca10  1  0.122603  0.372602  0.749998  1
  Ca  Ca11  1  0.877397  0.627398  0.250002  1
  Zr  Zr12  1  0.000000  0.000000  0.000000  1
  Zr  Zr13  1  0.500000  0.000000  0.500000  1
  Zr  Zr14  1  0.000000  0.000000  0.500000  1
  Zr  Zr15  1  0.000000  0.500000  0.000000  1
  Al  Al16  1  0.254000  0.624231  0.379678  1
  Al  Al17  1  0.746000  0.375769  0.620322  1
  Al  Al18  1  0.744543  0.874312  0.120306  1
  Al  Al19  1  0.375763  0.255451  0.629767  1
  Al  Al20  1  0.624237  0.744549  0.370233  1
  Al  Al21  1  0.255457  0.125688  0.879694  1
  Al  Al22  1  0.125678  0.745993  0.870227  1
  Al  Al23  1  0.874322  0.254007  0.129773  1
  Al  Al24  1  0.624996  0.374996  0.249996  1
  Al  Al25  1  0.375004  0.625004  0.750004  1
  Al  Al26  1  0.874997  0.124998  0.749998  1
  Al  Al27  1  0.125003  0.875002  0.250002  1
  Sb  Sb28  1  0.000000  0.500000  0.500000  1
  Sb  Sb29  1  0.500000  0.000000  0.000000  1
  Sb  Sb30  1  0.500000  0.500000  0.000000  1
  Sb  Sb31  1  0.500000  0.500000  0.500000  1
  O  O32  1  0.485593  0.383137  0.301922  1
  O  O33  1  0.514407  0.616863  0.698078  1
  O  O34  1  0.581215  0.183670  0.198084  1
  O  O35  1  0.910160  0.122779  0.599756  1
  O  O36  1  0.298239  0.477568  0.382035  1
  O  O37  1  0.310411  0.910169  0.287378  1
  O  O38  1  0.418785  0.816330  0.801916  1
  O  O39  1  0.089840  0.877221  0.400244  1
  O  O40  1  0.701761  0.522432  0.617965  1
  O  O41  1  0.689589  0.089831  0.712622  1
  O  O42  1  0.023024  0.310411  0.900237  1
  O  O43  1  0.208784  0.586849  0.193375  1
  O  O44  1  0.122779  0.023025  0.212617  1
  O  O45  1  0.976976  0.689589  0.099763  1
  O  O46  1  0.791216  0.413151  0.806625  1
  O  O47  1  0.877221  0.976975  0.787383  1
  O  O48  1  0.595535  0.916206  0.117964  1
  O  O49  1  0.183670  0.485595  0.602464  1
  O  O50  1  0.404465  0.083794  0.882036  1
  O  O51  1  0.816330  0.514405  0.397536  1
  O  O52  1  0.893459  0.015389  0.306624  1
  O  O53  1  0.383142  0.581227  0.897551  1
  O  O54  1  0.106541  0.984611  0.693376  1
  O  O55  1  0.616858  0.418773  0.102449  1
  O  O56  1  0.386552  0.302307  0.486505  1
  O  O57  1  0.586849  0.893470  0.378076  1
  O  O58  1  0.613448  0.697693  0.513495  1
  O  O59  1  0.413151  0.106530  0.621924  1
  O  O60  1  0.125678  0.601327  0.912119  1
  O  O61  1  0.015400  0.208770  0.121927  1
  O  O62  1  0.874322  0.398673  0.087881  1
  O  O63  1  0.984600  0.791230  0.878073  1
  O  O64  1  0.315807  0.900034  0.013493  1
  O  O65  1  0.916211  0.298242  0.320676  1
  O  O66  1  0.684193  0.099966  0.986507  1
  O  O67  1  0.083789  0.701758  0.679324  1
  O  O68  1  0.189207  0.213567  0.587875  1
  O  O69  1  0.477572  0.595541  0.179329  1
  O  O70  1  0.810793  0.786433  0.412125  1
  O  O71  1  0.522428  0.404459  0.820671  1
  O  O72  1  0.302309  0.315811  0.915768  1
  O  O73  1  0.697691  0.684189  0.084232  1
  O  O74  1  0.213564  0.125686  0.024359  1
  O  O75  1  0.786436  0.874314  0.975641  1
  O  O76  1  0.900038  0.386549  0.584241  1
  O  O77  1  0.099962  0.613451  0.415759  1
  O  O78  1  0.601342  0.189206  0.475648  1
  O  O79  1  0.398658  0.810794  0.524352  1
