# generated using pymatgen
data_HPd8
_symmetry_space_group_name_H-M   'P 1'
_cell_length_a   5.63244436
_cell_length_b   5.63244363
_cell_length_c   5.63244400
_cell_angle_alpha   59.99999782
_cell_angle_beta   60.00000209
_cell_angle_gamma   60.00000390
_symmetry_Int_Tables_number   1
_chemical_formula_structural   HPd8
_chemical_formula_sum   'H1 Pd8'
_cell_volume   126.35012062
_cell_formula_units_Z   1
loop_
 _symmetry_equiv_pos_site_id
 _symmetry_equiv_pos_as_xyz
  1  'x, y, z'
loop_
 _atom_site_type_symbol
 _atom_site_label
 _atom_site_symmetry_multiplicity
 _atom_site_fract_x
 _atom_site_fract_y
 _atom_site_fract_z
 _atom_site_occupancy
  H  H0  1  0.500000  0.500000  0.500000  1
  Pd  Pd1  1  0.250000  0.250000  0.250000  1
  Pd  Pd2  1  0.750000  0.750000  0.750000  1
  Pd  Pd3  1  0.751613  0.248387  0.248387  1
  Pd  Pd4  1  0.248387  0.751613  0.248387  1
  Pd  Pd5  1  0.751613  0.751613  0.248387  1
  Pd  Pd6  1  0.248387  0.248387  0.751613  1
  Pd  Pd7  1  0.751613  0.248387  0.751613  1
  Pd  Pd8  1  0.248387  0.751613  0.751613  1
