# generated using pymatgen
data_Li3Ho2TmSi2Ge
_symmetry_space_group_name_H-M   'P 1'
_cell_length_a   6.95335871
_cell_length_b   6.95335881
_cell_length_c   4.23631000
_cell_angle_alpha   90.00000000
_cell_angle_beta   90.00000000
_cell_angle_gamma   119.80852605
_symmetry_Int_Tables_number   1
_chemical_formula_structural   Li3Ho2TmSi2Ge
_chemical_formula_sum   'Li3 Ho2 Tm1 Si2 Ge1'
_cell_volume   177.72247211
_cell_formula_units_Z   1
loop_
 _symmetry_equiv_pos_site_id
 _symmetry_equiv_pos_as_xyz
  1  'x, y, z'
loop_
 _atom_site_type_symbol
 _atom_site_label
 _atom_site_symmetry_multiplicity
 _atom_site_fract_x
 _atom_site_fract_y
 _atom_site_fract_z
 _atom_site_occupancy
  Li  Li0  1  0.234982  0.000180  0.500000  1
  Li  Li1  1  0.000180  0.234982  0.500000  1
  Li  Li2  1  0.764919  0.764919  0.500000  1
  Ho  Ho3  1  0.572016  0.000005  0.000000  1
  Ho  Ho4  1  0.000005  0.572016  0.000000  1
  Tm  Tm5  1  0.427612  0.427612  0.000000  1
  Si  Si6  1  0.333650  0.665819  0.500000  1
  Si  Si7  1  0.665819  0.333650  0.500000  1
  Ge  Ge8  1  0.000817  0.000817  0.000000  1
