# generated using pymatgen
data_Ca2Gd5Tm13Sn16
_symmetry_space_group_name_H-M   'P 1'
_cell_length_a   8.02298212
_cell_length_b   8.23898728
_cell_length_c   15.53737500
_cell_angle_alpha   90.03285177
_cell_angle_beta   91.86219130
_cell_angle_gamma   89.83703995
_symmetry_Int_Tables_number   1
_chemical_formula_structural   Ca2Gd5Tm13Sn16
_chemical_formula_sum   'Ca2 Gd5 Tm13 Sn16'
_cell_volume   1026.49319831
_cell_formula_units_Z   1
loop_
 _symmetry_equiv_pos_site_id
 _symmetry_equiv_pos_as_xyz
  1  'x, y, z'
loop_
 _atom_site_type_symbol
 _atom_site_label
 _atom_site_symmetry_multiplicity
 _atom_site_fract_x
 _atom_site_fract_y
 _atom_site_fract_z
 _atom_site_occupancy
  Ca  Ca0  1  0.009527  0.176981  0.594831  1
  Ca  Ca1  1  0.489155  0.676115  0.404761  1
  Gd  Gd2  1  0.985848  0.819900  0.095944  1
  Gd  Gd3  1  0.486388  0.679592  0.095481  1
  Gd  Gd4  1  0.993224  0.821247  0.401352  1
  Gd  Gd5  1  0.505266  0.321068  0.597410  1
  Gd  Gd6  1  0.011881  0.181479  0.905909  1
  Tm  Tm7  1  0.356015  0.840682  0.876894  1
  Tm  Tm8  1  0.840653  0.664972  0.626458  1
  Tm  Tm9  1  0.659297  0.165128  0.373612  1
  Tm  Tm10  1  0.142680  0.341038  0.123136  1
  Tm  Tm11  1  0.643444  0.157789  0.122961  1
  Tm  Tm12  1  0.160584  0.336962  0.373452  1
  Tm  Tm13  1  0.339963  0.837285  0.627060  1
  Tm  Tm14  1  0.857718  0.656869  0.877470  1
  Tm  Tm15  1  0.516703  0.318787  0.903164  1
  Tm  Tm16  1  0.183088  0.500439  0.754094  1
  Tm  Tm17  1  0.683834  0.999923  0.753764  1
  Tm  Tm18  1  0.815781  0.500047  0.246382  1
  Tm  Tm19  1  0.317798  0.001112  0.246240  1
  Sn  Sn20  1  0.299190  0.041638  0.041603  1
  Sn  Sn21  1  0.825641  0.464430  0.456555  1
  Sn  Sn22  1  0.673449  0.964648  0.543287  1
  Sn  Sn23  1  0.206033  0.537630  0.957615  1
  Sn  Sn24  1  0.700013  0.957931  0.958290  1
  Sn  Sn25  1  0.174117  0.540770  0.542287  1
  Sn  Sn26  1  0.326056  0.040129  0.457829  1
  Sn  Sn27  1  0.795475  0.456147  0.040526  1
  Sn  Sn28  1  0.545169  0.622084  0.750222  1
  Sn  Sn29  1  0.045079  0.876758  0.752160  1
  Sn  Sn30  1  0.454779  0.376637  0.248082  1
  Sn  Sn31  1  0.955767  0.123669  0.249770  1
  Sn  Sn32  1  0.322094  0.149079  0.752090  1
  Sn  Sn33  1  0.816315  0.351814  0.750683  1
  Sn  Sn34  1  0.682033  0.852125  0.249802  1
  Sn  Sn35  1  0.179946  0.647093  0.248827  1
