# generated using pymatgen
data_Sr6Hf2TcH27
_symmetry_space_group_name_H-M   'P 1'
_cell_length_a   9.29340100
_cell_length_b   9.29340131
_cell_length_c   5.36597800
_cell_angle_alpha   90.00000000
_cell_angle_beta   90.00000000
_cell_angle_gamma   119.99999534
_symmetry_Int_Tables_number   1
_chemical_formula_structural   Sr6Hf2TcH27
_chemical_formula_sum   'Sr6 Hf2 Tc1 H27'
_cell_volume   401.35521294
_cell_formula_units_Z   1
loop_
 _symmetry_equiv_pos_site_id
 _symmetry_equiv_pos_as_xyz
  1  'x, y, z'
loop_
 _atom_site_type_symbol
 _atom_site_label
 _atom_site_symmetry_multiplicity
 _atom_site_fract_x
 _atom_site_fract_y
 _atom_site_fract_z
 _atom_site_occupancy
  Sr  Sr0  1  0.256470  0.997719  0.500000  1
  Sr  Sr1  1  0.002281  0.258751  0.500000  1
  Sr  Sr2  1  0.741249  0.743530  0.500000  1
  Sr  Sr3  1  0.587598  0.941374  0.000000  1
  Sr  Sr4  1  0.058626  0.646223  0.000000  1
  Sr  Sr5  1  0.353777  0.412402  0.000000  1
  Hf  Hf6  1  0.000000  0.000000  0.000000  1
  Hf  Hf7  1  0.333333  0.666667  0.500000  1
  Tc  Tc8  1  0.666667  0.333333  0.500000  1
  H  H9  1  0.845738  0.000127  0.255075  1
  H  H10  1  0.999873  0.845611  0.255075  1
  H  H11  1  0.845738  0.000127  0.744925  1
  H  H12  1  0.999873  0.845611  0.744925  1
  H  H13  1  0.154389  0.154262  0.255075  1
  H  H14  1  0.154389  0.154262  0.744925  1
  H  H15  1  0.213134  0.994549  0.000000  1
  H  H16  1  0.005451  0.218585  0.000000  1
  H  H17  1  0.781415  0.786866  0.000000  1
  H  H18  1  0.184294  0.512093  0.239316  1
  H  H19  1  0.487907  0.672201  0.239316  1
  H  H20  1  0.184294  0.512093  0.760684  1
  H  H21  1  0.534407  0.212590  0.728935  1
  H  H22  1  0.327799  0.815706  0.239316  1
  H  H23  1  0.487907  0.672201  0.760684  1
  H  H24  1  0.678183  0.465593  0.728935  1
  H  H25  1  0.534407  0.212590  0.271065  1
  H  H26  1  0.327799  0.815706  0.760684  1
  H  H27  1  0.678183  0.465593  0.271065  1
  H  H28  1  0.787410  0.321817  0.728935  1
  H  H29  1  0.787410  0.321817  0.271065  1
  H  H30  1  0.329593  0.451807  0.500000  1
  H  H31  1  0.548193  0.877786  0.500000  1
  H  H32  1  0.497337  0.352110  0.500000  1
  H  H33  1  0.122214  0.670407  0.500000  1
  H  H34  1  0.854774  0.502663  0.500000  1
  H  H35  1  0.647890  0.145226  0.500000  1
