# generated using pymatgen
data_Lu9Mg(Cu2Sb)2
_symmetry_space_group_name_H-M   'P 1'
_cell_length_a   8.37940465
_cell_length_b   8.37940439
_cell_length_c   8.37940483
_cell_angle_alpha   126.17866394
_cell_angle_beta   126.17866228
_cell_angle_gamma   79.59468761
_symmetry_Int_Tables_number   1
_chemical_formula_structural   Lu9Mg(Cu2Sb)2
_chemical_formula_sum   'Lu9 Mg1 Cu4 Sb2'
_cell_volume   370.39772984
_cell_formula_units_Z   1
loop_
 _symmetry_equiv_pos_site_id
 _symmetry_equiv_pos_as_xyz
  1  'x, y, z'
loop_
 _atom_site_type_symbol
 _atom_site_label
 _atom_site_symmetry_multiplicity
 _atom_site_fract_x
 _atom_site_fract_y
 _atom_site_fract_z
 _atom_site_occupancy
  Lu  Lu0  1  0.500000  0.500000  0.000000  1
  Lu  Lu1  1  0.804135  0.291288  0.817005  1
  Lu  Lu2  1  0.195865  0.708712  0.182995  1
  Lu  Lu3  1  0.474282  0.987130  0.182995  1
  Lu  Lu4  1  0.291288  0.474282  0.487153  1
  Lu  Lu5  1  0.012870  0.195865  0.487153  1
  Lu  Lu6  1  0.525718  0.012870  0.817005  1
  Lu  Lu7  1  0.708712  0.525718  0.512847  1
  Lu  Lu8  1  0.987130  0.804135  0.512847  1
  Mg  Mg9  1  0.000000  0.000000  0.000000  1
  Cu  Cu10  1  0.131058  0.625159  0.756218  1
  Cu  Cu11  1  0.868942  0.374841  0.243782  1
  Cu  Cu12  1  0.625159  0.868942  0.494101  1
  Cu  Cu13  1  0.374841  0.131058  0.505899  1
  Sb  Sb14  1  0.254275  0.254275  0.000000  1
  Sb  Sb15  1  0.745725  0.745725  0.000000  1
