# generated using pymatgen
data_CaTb6Zn(Co3Sn11)2
_symmetry_space_group_name_H-M   'P 1'
_cell_length_a   9.68905300
_cell_length_b   9.68905235
_cell_length_c   9.98577600
_cell_angle_alpha   90.00000000
_cell_angle_beta   90.00000000
_cell_angle_gamma   120.00000563
_symmetry_Int_Tables_number   1
_chemical_formula_structural   CaTb6Zn(Co3Sn11)2
_chemical_formula_sum   'Ca1 Tb6 Zn1 Co6 Sn22'
_cell_volume   811.84862768
_cell_formula_units_Z   1
loop_
 _symmetry_equiv_pos_site_id
 _symmetry_equiv_pos_as_xyz
  1  'x, y, z'
loop_
 _atom_site_type_symbol
 _atom_site_label
 _atom_site_symmetry_multiplicity
 _atom_site_fract_x
 _atom_site_fract_y
 _atom_site_fract_z
 _atom_site_occupancy
  Ca  Ca0  1  0.000000  0.000000  0.000000  1
  Tb  Tb1  1  0.479340  0.520660  0.305881  1
  Tb  Tb2  1  0.520660  0.479340  0.694119  1
  Tb  Tb3  1  0.479340  0.958678  0.305881  1
  Tb  Tb4  1  0.520660  0.041322  0.694119  1
  Tb  Tb5  1  0.041322  0.520660  0.305881  1
  Tb  Tb6  1  0.958678  0.479340  0.694119  1
  Zn  Zn7  1  0.000000  0.000000  0.500000  1
  Co  Co8  1  0.831050  0.168950  0.198530  1
  Co  Co9  1  0.168950  0.831050  0.801470  1
  Co  Co10  1  0.831050  0.662101  0.198530  1
  Co  Co11  1  0.168950  0.337899  0.801470  1
  Co  Co12  1  0.337899  0.168950  0.198530  1
  Co  Co13  1  0.662101  0.831050  0.801470  1
  Sn  Sn14  1  0.345607  0.000000  0.000000  1
  Sn  Sn15  1  0.654393  0.000000  0.000000  1
  Sn  Sn16  1  0.000000  0.345607  0.000000  1
  Sn  Sn17  1  0.000000  0.654393  0.000000  1
  Sn  Sn18  1  0.654393  0.654393  0.000000  1
  Sn  Sn19  1  0.345607  0.345607  0.000000  1
  Sn  Sn20  1  0.333333  0.666667  0.816373  1
  Sn  Sn21  1  0.666667  0.333333  0.183627  1
  Sn  Sn22  1  0.783704  0.216296  0.453756  1
  Sn  Sn23  1  0.216296  0.783704  0.546244  1
  Sn  Sn24  1  0.783704  0.567409  0.453756  1
  Sn  Sn25  1  0.216296  0.432591  0.546244  1
  Sn  Sn26  1  0.432591  0.216296  0.453756  1
  Sn  Sn27  1  0.567409  0.783704  0.546244  1
  Sn  Sn28  1  0.333333  0.666667  0.116763  1
  Sn  Sn29  1  0.666667  0.333333  0.883237  1
  Sn  Sn30  1  0.113199  0.886801  0.276433  1
  Sn  Sn31  1  0.886801  0.113199  0.723567  1
  Sn  Sn32  1  0.113199  0.226400  0.276433  1
  Sn  Sn33  1  0.886801  0.773600  0.723567  1
  Sn  Sn34  1  0.773600  0.886801  0.276433  1
  Sn  Sn35  1  0.226400  0.113199  0.723567  1
