# generated using pymatgen
data_Tb17Dy3(IrRh5)2
_symmetry_space_group_name_H-M   'P 1'
_cell_length_a   10.93831401
_cell_length_b   10.93856000
_cell_length_c   6.38188000
_cell_angle_alpha   89.99989375
_cell_angle_beta   89.99822643
_cell_angle_gamma   90.00009428
_symmetry_Int_Tables_number   1
_chemical_formula_structural   Tb17Dy3(IrRh5)2
_chemical_formula_sum   'Tb17 Dy3 Ir2 Rh10'
_cell_volume   763.58813864
_cell_formula_units_Z   1
loop_
 _symmetry_equiv_pos_site_id
 _symmetry_equiv_pos_as_xyz
  1  'x, y, z'
loop_
 _atom_site_type_symbol
 _atom_site_label
 _atom_site_symmetry_multiplicity
 _atom_site_fract_x
 _atom_site_fract_y
 _atom_site_fract_z
 _atom_site_occupancy
  Tb  Tb0  1  0.291163  0.090303  0.379058  1
  Tb  Tb1  1  0.291093  0.909706  0.879131  1
  Tb  Tb2  1  0.708900  0.088752  0.878926  1
  Tb  Tb3  1  0.708827  0.911243  0.378859  1
  Tb  Tb4  1  0.587483  0.790311  0.879037  1
  Tb  Tb5  1  0.587457  0.209696  0.379051  1
  Tb  Tb6  1  0.410597  0.790483  0.379887  1
  Tb  Tb7  1  0.410570  0.209515  0.879874  1
  Tb  Tb8  1  0.210301  0.412102  0.620246  1
  Tb  Tb9  1  0.210296  0.587922  0.120254  1
  Tb  Tb10  1  0.791119  0.410980  0.120774  1
  Tb  Tb11  1  0.791115  0.588993  0.620762  1
  Tb  Tb12  1  0.911292  0.709120  0.120902  1
  Tb  Tb13  1  0.911286  0.290949  0.620973  1
  Tb  Tb14  1  0.090436  0.708591  0.621190  1
  Tb  Tb15  1  0.090426  0.291337  0.121116  1
  Tb  Tb16  1  0.999896  0.999736  0.500024  1
  Dy  Dy17  1  0.999906  0.000262  0.000025  1
  Dy  Dy18  1  0.499681  0.499731  0.999945  1
  Dy  Dy19  1  0.499685  0.500269  0.499946  1
  Ir  Ir20  1  0.346349  0.345728  0.249951  1
  Ir  Ir21  1  0.346346  0.654266  0.749932  1
  Rh  Rh22  1  0.845930  0.153713  0.249962  1
  Rh  Rh23  1  0.845936  0.846275  0.750421  1
  Rh  Rh24  1  0.153105  0.153454  0.749985  1
  Rh  Rh25  1  0.153121  0.846556  0.249527  1
  Rh  Rh26  1  0.654430  0.346156  0.750075  1
  Rh  Rh27  1  0.654423  0.653850  0.250084  1
  Rh  Rh28  1  0.500554  0.999758  0.124678  1
  Rh  Rh29  1  0.500556  0.000244  0.624663  1
  Rh  Rh30  1  0.998861  0.499933  0.875363  1
  Rh  Rh31  1  0.998863  0.500066  0.375381  1
