# generated using pymatgen
data_Ba6GaCo(O4F)2
_symmetry_space_group_name_H-M   'P 1'
_cell_length_a   7.34868800
_cell_length_b   8.30748600
_cell_length_c   10.65247600
_cell_angle_alpha   90.00000000
_cell_angle_beta   90.00000000
_cell_angle_gamma   90.00000000
_symmetry_Int_Tables_number   1
_chemical_formula_structural   Ba6GaCo(O4F)2
_chemical_formula_sum   'Ba12 Ga2 Co2 O16 F4'
_cell_volume   650.32431415
_cell_formula_units_Z   2
loop_
 _symmetry_equiv_pos_site_id
 _symmetry_equiv_pos_as_xyz
  1  'x, y, z'
loop_
 _atom_site_type_symbol
 _atom_site_label
 _atom_site_symmetry_multiplicity
 _atom_site_fract_x
 _atom_site_fract_y
 _atom_site_fract_z
 _atom_site_occupancy
  Ba  Ba0  1  0.401022  0.025643  0.833754  1
  Ba  Ba1  1  0.098978  0.474357  0.333754  1
  Ba  Ba2  1  0.593298  0.522145  0.166190  1
  Ba  Ba3  1  0.906702  0.977855  0.666190  1
  Ba  Ba4  1  0.593298  0.977855  0.166190  1
  Ba  Ba5  1  0.906702  0.522145  0.666190  1
  Ba  Ba6  1  0.401022  0.474357  0.833754  1
  Ba  Ba7  1  0.098978  0.025643  0.333754  1
  Ba  Ba8  1  0.900789  0.250000  0.965649  1
  Ba  Ba9  1  0.599211  0.250000  0.465649  1
  Ba  Ba10  1  0.094540  0.750000  0.033297  1
  Ba  Ba11  1  0.405460  0.750000  0.533297  1
  Ga  Ga12  1  0.807957  0.750000  0.397009  1
  Ga  Ga13  1  0.692043  0.750000  0.897009  1
  Co  Co14  1  0.199653  0.250000  0.600646  1
  Co  Co15  1  0.300347  0.250000  0.100646  1
  O  O16  1  0.300951  0.052801  0.574646  1
  O  O17  1  0.199049  0.447199  0.074646  1
  O  O18  1  0.690042  0.555998  0.428165  1
  O  O19  1  0.809958  0.944002  0.928165  1
  O  O20  1  0.690042  0.944002  0.428165  1
  O  O21  1  0.809958  0.555998  0.928165  1
  O  O22  1  0.300951  0.447199  0.574646  1
  O  O23  1  0.199049  0.052801  0.074646  1
  O  O24  1  0.978458  0.250000  0.505682  1
  O  O25  1  0.521542  0.250000  0.005682  1
  O  O26  1  0.023600  0.750000  0.492526  1
  O  O27  1  0.476400  0.750000  0.992526  1
  O  O28  1  0.132463  0.250000  0.775591  1
  O  O29  1  0.367537  0.250000  0.275591  1
  O  O30  1  0.869822  0.750000  0.225268  1
  O  O31  1  0.630178  0.750000  0.725268  1
  F  F32  1  0.659565  0.250000  0.725074  1
  F  F33  1  0.840435  0.250000  0.225074  1
  F  F34  1  0.340048  0.750000  0.273747  1
  F  F35  1  0.159952  0.750000  0.773747  1
