# generated using pymatgen
data_Zr3Zn3CoPd2
_symmetry_space_group_name_H-M   'P 1'
_cell_length_a   7.19400200
_cell_length_b   7.19400208
_cell_length_c   3.41355800
_cell_angle_alpha   90.00000000
_cell_angle_beta   90.00000000
_cell_angle_gamma   120.00000884
_symmetry_Int_Tables_number   1
_chemical_formula_structural   Zr3Zn3CoPd2
_chemical_formula_sum   'Zr3 Zn3 Co1 Pd2'
_cell_volume   152.99561813
_cell_formula_units_Z   1
loop_
 _symmetry_equiv_pos_site_id
 _symmetry_equiv_pos_as_xyz
  1  'x, y, z'
loop_
 _atom_site_type_symbol
 _atom_site_label
 _atom_site_symmetry_multiplicity
 _atom_site_fract_x
 _atom_site_fract_y
 _atom_site_fract_z
 _atom_site_occupancy
  Zr  Zr0  1  0.392334  0.417637  0.500000  1
  Zr  Zr1  1  0.582363  0.974698  0.500000  1
  Zr  Zr2  1  0.025302  0.607666  0.500000  1
  Zn  Zn3  1  0.727965  0.729113  0.000000  1
  Zn  Zn4  1  0.270887  0.998852  0.000000  1
  Zn  Zn5  1  0.001148  0.272035  0.000000  1
  Co  Co6  1  0.333333  0.666667  0.000000  1
  Pd  Pd7  1  0.666667  0.333333  0.000000  1
  Pd  Pd8  1  0.000000  0.000000  0.500000  1
