# generated using pymatgen
data_Dy3In3CoAg2
_symmetry_space_group_name_H-M   'P 1'
_cell_length_a   7.85797500
_cell_length_b   7.85797477
_cell_length_c   3.75348300
_cell_angle_alpha   90.00000000
_cell_angle_beta   90.00000000
_cell_angle_gamma   119.99999674
_symmetry_Int_Tables_number   1
_chemical_formula_structural   Dy3In3CoAg2
_chemical_formula_sum   'Dy3 In3 Co1 Ag2'
_cell_volume   200.71802372
_cell_formula_units_Z   1
loop_
 _symmetry_equiv_pos_site_id
 _symmetry_equiv_pos_as_xyz
  1  'x, y, z'
loop_
 _atom_site_type_symbol
 _atom_site_label
 _atom_site_symmetry_multiplicity
 _atom_site_fract_x
 _atom_site_fract_y
 _atom_site_fract_z
 _atom_site_occupancy
  Dy  Dy0  1  0.574137  0.608560  0.000000  1
  Dy  Dy1  1  0.391440  0.965578  0.000000  1
  Dy  Dy2  1  0.034422  0.425863  0.000000  1
  In  In3  1  0.997314  0.727490  0.500000  1
  In  In4  1  0.272510  0.269825  0.500000  1
  In  In5  1  0.730175  0.002686  0.500000  1
  Co  Co6  1  0.333333  0.666667  0.500000  1
  Ag  Ag7  1  0.000000  0.000000  0.000000  1
  Ag  Ag8  1  0.666667  0.333333  0.500000  1
