# generated using pymatgen
data_Dy4Y2Al24Ru3Rh5
_symmetry_space_group_name_H-M   'P 1'
_cell_length_a   8.83410941
_cell_length_b   8.79905312
_cell_length_c   9.54426042
_cell_angle_alpha   90.00000216
_cell_angle_beta   90.12916524
_cell_angle_gamma   119.86881492
_symmetry_Int_Tables_number   1
_chemical_formula_structural   Dy4Y2Al24Ru3Rh5
_chemical_formula_sum   'Dy4 Y2 Al24 Ru3 Rh5'
_cell_volume   643.34323551
_cell_formula_units_Z   1
loop_
 _symmetry_equiv_pos_site_id
 _symmetry_equiv_pos_as_xyz
  1  'x, y, z'
loop_
 _atom_site_type_symbol
 _atom_site_label
 _atom_site_symmetry_multiplicity
 _atom_site_fract_x
 _atom_site_fract_y
 _atom_site_fract_z
 _atom_site_occupancy
  Dy  Dy0  1  0.616454  0.808227  0.249595  1
  Dy  Dy1  1  0.809678  0.194415  0.750498  1
  Dy  Dy2  1  0.809678  0.615264  0.750498  1
  Dy  Dy3  1  0.383808  0.191904  0.750399  1
  Y  Y4  1  0.190374  0.805749  0.249527  1
  Y  Y5  1  0.190374  0.384625  0.249527  1
  Al  Al6  1  0.561106  0.437404  0.250494  1
  Al  Al7  1  0.561106  0.123702  0.250494  1
  Al  Al8  1  0.874564  0.437282  0.249178  1
  Al  Al9  1  0.438980  0.562647  0.749508  1
  Al  Al10  1  0.438980  0.876333  0.749508  1
  Al  Al11  1  0.125369  0.562684  0.750805  1
  Al  Al12  1  0.325652  0.162825  0.422799  1
  Al  Al13  1  0.835379  0.162177  0.422768  1
  Al  Al14  1  0.835379  0.673201  0.422768  1
  Al  Al15  1  0.674467  0.837234  0.577340  1
  Al  Al16  1  0.164507  0.837769  0.577371  1
  Al  Al17  1  0.164507  0.326738  0.577371  1
  Al  Al18  1  0.674299  0.837150  0.923038  1
  Al  Al19  1  0.162409  0.835285  0.922976  1
  Al  Al20  1  0.162409  0.327124  0.922976  1
  Al  Al21  1  0.325814  0.162907  0.076825  1
  Al  Al22  1  0.837478  0.164659  0.076881  1
  Al  Al23  1  0.837478  0.672819  0.076881  1
  Al  Al24  1  0.666638  0.333319  0.527928  1
  Al  Al25  1  0.333455  0.666727  0.472225  1
  Al  Al26  1  0.331082  0.665541  0.026942  1
  Al  Al27  1  0.668992  0.334496  0.972915  1
  Al  Al28  1  0.998111  0.999055  0.249999  1
  Al  Al29  1  0.001535  0.000768  0.750006  1
  Ru  Ru30  1  0.000066  0.000033  0.499898  1
  Ru  Ru31  1  0.000082  0.000041  0.000117  1
  Ru  Ru32  1  0.999868  0.499934  0.999813  1
  Rh  Rh33  1  0.500020  0.499956  0.500068  1
  Rh  Rh34  1  0.500020  0.000065  0.500068  1
  Rh  Rh35  1  0.999928  0.499964  0.500076  1
  Rh  Rh36  1  0.499977  0.499978  0.999960  1
  Rh  Rh37  1  0.499977  0.999999  0.999960  1
