# generated using pymatgen
data_Ho5Tm(CdIn4)2
_symmetry_space_group_name_H-M   'P 1'
_cell_length_a   6.34211629
_cell_length_b   6.34211643
_cell_length_c   10.42971000
_cell_angle_alpha   90.00000000
_cell_angle_beta   90.00000000
_cell_angle_gamma   102.52422673
_symmetry_Int_Tables_number   1
_chemical_formula_structural   Ho5Tm(CdIn4)2
_chemical_formula_sum   'Ho5 Tm1 Cd2 In8'
_cell_volume   409.52593051
_cell_formula_units_Z   1
loop_
 _symmetry_equiv_pos_site_id
 _symmetry_equiv_pos_as_xyz
  1  'x, y, z'
loop_
 _atom_site_type_symbol
 _atom_site_label
 _atom_site_symmetry_multiplicity
 _atom_site_fract_x
 _atom_site_fract_y
 _atom_site_fract_z
 _atom_site_occupancy
  Ho  Ho0  1  0.381754  0.381754  0.750000  1
  Ho  Ho1  1  0.204439  0.796068  0.499834  1
  Ho  Ho2  1  0.204439  0.796068  0.000166  1
  Ho  Ho3  1  0.796068  0.204439  0.499834  1
  Ho  Ho4  1  0.796068  0.204439  0.000166  1
  Tm  Tm5  1  0.618140  0.618140  0.250000  1
  Cd  Cd6  1  0.008379  0.008379  0.250000  1
  Cd  Cd7  1  0.990665  0.990665  0.750000  1
  In  In8  1  0.307105  0.307105  0.043510  1
  In  In9  1  0.693309  0.693309  0.957561  1
  In  In10  1  0.307105  0.307105  0.456490  1
  In  In11  1  0.693309  0.693309  0.542439  1
  In  In12  1  0.512722  0.072887  0.250000  1
  In  In13  1  0.926211  0.487399  0.750000  1
  In  In14  1  0.487399  0.926211  0.750000  1
  In  In15  1  0.072887  0.512722  0.250000  1
