# generated using pymatgen
data_PaMo3P4Rh3
_symmetry_space_group_name_H-M   'P 1'
_cell_length_a   7.09623200
_cell_length_b   7.09623221
_cell_length_c   3.78360400
_cell_angle_alpha   90.00000000
_cell_angle_beta   90.00000000
_cell_angle_gamma   119.99998971
_symmetry_Int_Tables_number   1
_chemical_formula_structural   PaMo3P4Rh3
_chemical_formula_sum   'Pa1 Mo3 P4 Rh3'
_cell_volume   165.00305174
_cell_formula_units_Z   1
loop_
 _symmetry_equiv_pos_site_id
 _symmetry_equiv_pos_as_xyz
  1  'x, y, z'
loop_
 _atom_site_type_symbol
 _atom_site_label
 _atom_site_symmetry_multiplicity
 _atom_site_fract_x
 _atom_site_fract_y
 _atom_site_fract_z
 _atom_site_occupancy
  Pa  Pa0  1  0.333333  0.666667  0.000000  1
  Mo  Mo1  1  0.267472  0.133736  0.000000  1
  Mo  Mo2  1  0.866264  0.732528  0.000000  1
  Mo  Mo3  1  0.866264  0.133736  0.000000  1
  P  P4  1  0.666667  0.333333  0.000000  1
  P  P5  1  0.719128  0.859565  0.500000  1
  P  P6  1  0.140435  0.280872  0.500000  1
  P  P7  1  0.140435  0.859565  0.500000  1
  Rh  Rh8  1  0.952390  0.476196  0.500000  1
  Rh  Rh9  1  0.523804  0.047610  0.500000  1
  Rh  Rh10  1  0.523804  0.476196  0.500000  1
