# generated using pymatgen
data_Hf3Zr3Ta2(Rh2N)2
_symmetry_space_group_name_H-M   'P 1'
_cell_length_a   8.67466676
_cell_length_b   8.67466689
_cell_length_c   8.67466700
_cell_angle_alpha   60.00000340
_cell_angle_beta   60.00000289
_cell_angle_gamma   60.00000023
_symmetry_Int_Tables_number   1
_chemical_formula_structural   Hf3Zr3Ta2(Rh2N)2
_chemical_formula_sum   'Hf6 Zr6 Ta4 Rh8 N4'
_cell_volume   461.57623747
_cell_formula_units_Z   2
loop_
 _symmetry_equiv_pos_site_id
 _symmetry_equiv_pos_as_xyz
  1  'x, y, z'
loop_
 _atom_site_type_symbol
 _atom_site_label
 _atom_site_symmetry_multiplicity
 _atom_site_fract_x
 _atom_site_fract_y
 _atom_site_fract_z
 _atom_site_occupancy
  Hf  Hf0  1  0.815569  0.815569  0.184431  1
  Hf  Hf1  1  0.184431  0.184431  0.815569  1
  Hf  Hf2  1  0.815569  0.184431  0.815569  1
  Hf  Hf3  1  0.184431  0.815569  0.184431  1
  Hf  Hf4  1  0.184431  0.815569  0.815569  1
  Hf  Hf5  1  0.815569  0.184431  0.184431  1
  Zr  Zr6  1  0.436080  0.436080  0.063920  1
  Zr  Zr7  1  0.063920  0.063920  0.436080  1
  Zr  Zr8  1  0.436080  0.063920  0.436080  1
  Zr  Zr9  1  0.063920  0.436080  0.063920  1
  Zr  Zr10  1  0.063920  0.436080  0.436080  1
  Zr  Zr11  1  0.436080  0.063920  0.063920  1
  Ta  Ta12  1  0.123498  0.625501  0.625501  1
  Ta  Ta13  1  0.625501  0.123498  0.625501  1
  Ta  Ta14  1  0.625501  0.625501  0.123498  1
  Ta  Ta15  1  0.625501  0.625501  0.625501  1
  Rh  Rh16  1  0.759690  0.413436  0.413436  1
  Rh  Rh17  1  0.413436  0.759690  0.413436  1
  Rh  Rh18  1  0.413436  0.413436  0.759690  1
  Rh  Rh19  1  0.413436  0.413436  0.413436  1
  Rh  Rh20  1  0.483999  0.838668  0.838668  1
  Rh  Rh21  1  0.838668  0.483999  0.838668  1
  Rh  Rh22  1  0.838668  0.838668  0.483999  1
  Rh  Rh23  1  0.838668  0.838668  0.838668  1
  N  N24  1  0.631197  0.122934  0.122934  1
  N  N25  1  0.122934  0.631197  0.122934  1
  N  N26  1  0.122934  0.122934  0.631197  1
  N  N27  1  0.122934  0.122934  0.122934  1
