# generated using pymatgen
data_La6YbOsBr12
_symmetry_space_group_name_H-M   'P 1'
_cell_length_a   9.57877925
_cell_length_b   9.86316850
_cell_length_c   9.85698244
_cell_angle_alpha   107.49924150
_cell_angle_beta   107.32333401
_cell_angle_gamma   106.82802368
_symmetry_Int_Tables_number   1
_chemical_formula_structural   La6YbOsBr12
_chemical_formula_sum   'La6 Yb1 Os1 Br12'
_cell_volume   770.90555556
_cell_formula_units_Z   1
loop_
 _symmetry_equiv_pos_site_id
 _symmetry_equiv_pos_as_xyz
  1  'x, y, z'
loop_
 _atom_site_type_symbol
 _atom_site_label
 _atom_site_symmetry_multiplicity
 _atom_site_fract_x
 _atom_site_fract_y
 _atom_site_fract_z
 _atom_site_occupancy
  La  La0  1  0.302339  0.103300  0.026506  1
  La  La1  1  0.025351  0.322508  0.113125  1
  La  La2  1  0.116025  0.027903  0.323565  1
  La  La3  1  0.883975  0.972097  0.676436  1
  La  La4  1  0.974649  0.677493  0.886876  1
  La  La5  1  0.697662  0.896700  0.973495  1
  Yb  Yb6  1  0.500000  0.500000  0.500000  1
  Os  Os7  1  0.000000  0.000000  0.000000  1
  Br  Br8  1  0.679262  0.215322  0.066782  1
  Br  Br9  1  0.381539  0.458824  0.177788  1
  Br  Br10  1  0.067777  0.683818  0.212903  1
  Br  Br11  1  0.785609  0.932773  0.316032  1
  Br  Br12  1  0.465491  0.177337  0.382548  1
  Br  Br13  1  0.170716  0.378480  0.458700  1
  Br  Br14  1  0.829284  0.621521  0.541300  1
  Br  Br15  1  0.534509  0.822664  0.617452  1
  Br  Br16  1  0.214392  0.067228  0.683968  1
  Br  Br17  1  0.932223  0.316182  0.787098  1
  Br  Br18  1  0.618462  0.541176  0.822212  1
  Br  Br19  1  0.320739  0.784678  0.933218  1
