# generated using pymatgen
data_Hf5Zr(SnIr)6
_symmetry_space_group_name_H-M   'P 1'
_cell_length_a   7.37747681
_cell_length_b   7.37407749
_cell_length_c   7.35188600
_cell_angle_alpha   89.99855044
_cell_angle_beta   90.00074575
_cell_angle_gamma   119.81027593
_symmetry_Int_Tables_number   1
_chemical_formula_structural   Hf5Zr(SnIr)6
_chemical_formula_sum   'Hf5 Zr1 Sn6 Ir6'
_cell_volume   347.03402158
_cell_formula_units_Z   1
loop_
 _symmetry_equiv_pos_site_id
 _symmetry_equiv_pos_as_xyz
  1  'x, y, z'
loop_
 _atom_site_type_symbol
 _atom_site_label
 _atom_site_symmetry_multiplicity
 _atom_site_fract_x
 _atom_site_fract_y
 _atom_site_fract_z
 _atom_site_occupancy
  Hf  Hf0  1  0.404263  0.019297  0.249974  1
  Hf  Hf1  1  0.596482  0.615643  0.749945  1
  Hf  Hf2  1  0.615457  0.594564  0.249994  1
  Hf  Hf3  1  0.016083  0.401478  0.750032  1
  Hf  Hf4  1  0.384495  0.982324  0.750010  1
  Zr  Zr5  1  0.976223  0.383332  0.250005  1
  Sn  Sn6  1  0.270842  0.271176  0.498999  1
  Sn  Sn7  1  0.270909  0.271222  0.000979  1
  Sn  Sn8  1  0.730267  0.001603  0.000465  1
  Sn  Sn9  1  0.999566  0.727437  0.500474  1
  Sn  Sn10  1  0.730321  0.001627  0.499539  1
  Sn  Sn11  1  0.999562  0.727383  0.999555  1
  Ir  Ir12  1  0.665711  0.333454  0.544360  1
  Ir  Ir13  1  0.665708  0.333440  0.955739  1
  Ir  Ir14  1  0.336988  0.669665  0.034824  1
  Ir  Ir15  1  0.337024  0.669714  0.465101  1
  Ir  Ir16  1  0.000270  0.999766  0.750042  1
  Ir  Ir17  1  0.999830  0.996875  0.249960  1
