# generated using pymatgen
data_La3Mg3CuHgIr
_symmetry_space_group_name_H-M   'P 1'
_cell_length_a   8.02426000
_cell_length_b   8.02426036
_cell_length_c   4.01347400
_cell_angle_alpha   90.00000000
_cell_angle_beta   90.00000000
_cell_angle_gamma   119.99999027
_symmetry_Int_Tables_number   1
_chemical_formula_structural   La3Mg3CuHgIr
_chemical_formula_sum   'La3 Mg3 Cu1 Hg1 Ir1'
_cell_volume   223.80054096
_cell_formula_units_Z   1
loop_
 _symmetry_equiv_pos_site_id
 _symmetry_equiv_pos_as_xyz
  1  'x, y, z'
loop_
 _atom_site_type_symbol
 _atom_site_label
 _atom_site_symmetry_multiplicity
 _atom_site_fract_x
 _atom_site_fract_y
 _atom_site_fract_z
 _atom_site_occupancy
  La  La0  1  0.567967  0.970188  0.000000  1
  La  La1  1  0.029812  0.597780  0.000000  1
  La  La2  1  0.402220  0.432033  0.000000  1
  Mg  Mg3  1  0.237113  0.002740  0.500000  1
  Mg  Mg4  1  0.997260  0.234374  0.500000  1
  Mg  Mg5  1  0.765626  0.762887  0.500000  1
  Cu  Cu6  1  0.000000  0.000000  0.000000  1
  Hg  Hg7  1  0.666667  0.333333  0.500000  1
  Ir  Ir8  1  0.333333  0.666667  0.500000  1
