# generated using pymatgen
data_YTm(Tc2Ge)4
_symmetry_space_group_name_H-M   'P 1'
_cell_length_a   7.25347436
_cell_length_b   7.62800656
_cell_length_c   4.20223700
_cell_angle_alpha   90.00000000
_cell_angle_beta   90.00000000
_cell_angle_gamma   89.70919836
_symmetry_Int_Tables_number   1
_chemical_formula_structural   YTm(Tc2Ge)4
_chemical_formula_sum   'Y1 Tm1 Tc8 Ge4'
_cell_volume   232.50488745
_cell_formula_units_Z   1
loop_
 _symmetry_equiv_pos_site_id
 _symmetry_equiv_pos_as_xyz
  1  'x, y, z'
loop_
 _atom_site_type_symbol
 _atom_site_label
 _atom_site_symmetry_multiplicity
 _atom_site_fract_x
 _atom_site_fract_y
 _atom_site_fract_z
 _atom_site_occupancy
  Y  Y0  1  0.500000  0.500000  0.000000  1
  Tm  Tm1  1  0.000000  0.000000  0.500000  1
  Tc  Tc2  1  0.854029  0.393939  0.500000  1
  Tc  Tc3  1  0.145971  0.606061  0.500000  1
  Tc  Tc4  1  0.647871  0.895091  0.000000  1
  Tc  Tc5  1  0.352129  0.104909  0.000000  1
  Tc  Tc6  1  0.587203  0.152494  0.500000  1
  Tc  Tc7  1  0.412797  0.847506  0.500000  1
  Tc  Tc8  1  0.914408  0.654251  0.000000  1
  Tc  Tc9  1  0.085592  0.345749  0.000000  1
  Ge  Ge10  1  0.283434  0.303942  0.500000  1
  Ge  Ge11  1  0.716566  0.696058  0.500000  1
  Ge  Ge12  1  0.214937  0.805972  0.000000  1
  Ge  Ge13  1  0.785063  0.194028  0.000000  1
