# generated using pymatgen
data_YSc(SiTc2)4
_symmetry_space_group_name_H-M   'P 1'
_cell_length_a   7.29967678
_cell_length_b   7.29967678
_cell_length_c   4.13865600
_cell_angle_alpha   90.00000000
_cell_angle_beta   90.00000000
_cell_angle_gamma   88.13304407
_symmetry_Int_Tables_number   1
_chemical_formula_structural   YSc(SiTc2)4
_chemical_formula_sum   'Y1 Sc1 Si4 Tc8'
_cell_volume   220.41238517
_cell_formula_units_Z   1
loop_
 _symmetry_equiv_pos_site_id
 _symmetry_equiv_pos_as_xyz
  1  'x, y, z'
loop_
 _atom_site_type_symbol
 _atom_site_label
 _atom_site_symmetry_multiplicity
 _atom_site_fract_x
 _atom_site_fract_y
 _atom_site_fract_z
 _atom_site_occupancy
  Y  Y0  1  0.500000  0.500000  0.000000  1
  Sc  Sc1  1  0.000000  0.000000  0.500000  1
  Si  Si2  1  0.713376  0.713376  0.500000  1
  Si  Si3  1  0.286624  0.286624  0.500000  1
  Si  Si4  1  0.200738  0.799262  0.000000  1
  Si  Si5  1  0.799262  0.200738  0.000000  1
  Tc  Tc6  1  0.602430  0.150344  0.500000  1
  Tc  Tc7  1  0.397570  0.849656  0.500000  1
  Tc  Tc8  1  0.089939  0.340355  0.000000  1
  Tc  Tc9  1  0.910061  0.659645  0.000000  1
  Tc  Tc10  1  0.150344  0.602430  0.500000  1
  Tc  Tc11  1  0.849656  0.397570  0.500000  1
  Tc  Tc12  1  0.340355  0.089939  0.000000  1
  Tc  Tc13  1  0.659645  0.910061  0.000000  1
