# generated using pymatgen
data_Nd4ZnCuSi6
_symmetry_space_group_name_H-M   'P 1'
_cell_length_a   8.23776589
_cell_length_b   8.14104228
_cell_length_c   5.90153535
_cell_angle_alpha   69.75905522
_cell_angle_beta   68.00700947
_cell_angle_gamma   42.23394910
_symmetry_Int_Tables_number   1
_chemical_formula_structural   Nd4ZnCuSi6
_chemical_formula_sum   'Nd4 Zn1 Cu1 Si6'
_cell_volume   245.16593219
_cell_formula_units_Z   1
loop_
 _symmetry_equiv_pos_site_id
 _symmetry_equiv_pos_as_xyz
  1  'x, y, z'
loop_
 _atom_site_type_symbol
 _atom_site_label
 _atom_site_symmetry_multiplicity
 _atom_site_fract_x
 _atom_site_fract_y
 _atom_site_fract_z
 _atom_site_occupancy
  Nd  Nd0  1  0.750349  0.750349  0.749651  1
  Nd  Nd1  1  0.755051  0.244332  0.755668  1
  Nd  Nd2  1  0.250349  0.250349  0.249651  1
  Nd  Nd3  1  0.244332  0.755051  0.244949  1
  Zn  Zn4  1  0.666325  0.666325  0.333675  1
  Cu  Cu5  1  0.333486  0.333486  0.666514  1
  Si  Si6  1  0.833408  0.331242  0.166592  1
  Si  Si7  1  0.657704  0.172467  0.342296  1
  Si  Si8  1  0.172467  0.657704  0.827533  1
  Si  Si9  1  0.331242  0.833408  0.668758  1
  Si  Si10  1  0.170366  0.170366  0.829634  1
  Si  Si11  1  0.834920  0.834920  0.165080  1
