# generated using pymatgen
data_Tb3ThCdFe
_symmetry_space_group_name_H-M   'P 1'
_cell_length_a   9.60765312
_cell_length_b   9.60765303
_cell_length_c   9.60765400
_cell_angle_alpha   60.00000355
_cell_angle_beta   60.00000387
_cell_angle_gamma   60.00000027
_symmetry_Int_Tables_number   1
_chemical_formula_structural   Tb3ThCdFe
_chemical_formula_sum   'Tb12 Th4 Cd4 Fe4'
_cell_volume   627.10029820
_cell_formula_units_Z   4
loop_
 _symmetry_equiv_pos_site_id
 _symmetry_equiv_pos_as_xyz
  1  'x, y, z'
loop_
 _atom_site_type_symbol
 _atom_site_label
 _atom_site_symmetry_multiplicity
 _atom_site_fract_x
 _atom_site_fract_y
 _atom_site_fract_z
 _atom_site_occupancy
  Tb  Tb0  1  0.061824  0.438176  0.438176  1
  Tb  Tb1  1  0.438176  0.061824  0.061824  1
  Tb  Tb2  1  0.438176  0.061824  0.438176  1
  Tb  Tb3  1  0.061824  0.438176  0.061824  1
  Tb  Tb4  1  0.438176  0.438176  0.061824  1
  Tb  Tb5  1  0.061824  0.061824  0.438176  1
  Tb  Tb6  1  0.188202  0.811798  0.811798  1
  Tb  Tb7  1  0.811798  0.188202  0.188202  1
  Tb  Tb8  1  0.811798  0.188202  0.811798  1
  Tb  Tb9  1  0.188202  0.811798  0.188202  1
  Tb  Tb10  1  0.811798  0.811798  0.188202  1
  Tb  Tb11  1  0.188202  0.188202  0.811798  1
  Th  Th12  1  0.593908  0.593908  0.593908  1
  Th  Th13  1  0.593908  0.593908  0.218277  1
  Th  Th14  1  0.593908  0.218277  0.593908  1
  Th  Th15  1  0.218277  0.593908  0.593908  1
  Cd  Cd16  1  0.830702  0.830702  0.830702  1
  Cd  Cd17  1  0.830702  0.830702  0.507894  1
  Cd  Cd18  1  0.830702  0.507894  0.830702  1
  Cd  Cd19  1  0.507894  0.830702  0.830702  1
  Fe  Fe20  1  0.394374  0.394374  0.394374  1
  Fe  Fe21  1  0.394374  0.394374  0.816880  1
  Fe  Fe22  1  0.394374  0.816880  0.394374  1
  Fe  Fe23  1  0.816880  0.394374  0.394374  1
