# generated using pymatgen
data_K(TiS2)8
_symmetry_space_group_name_H-M   'P 1'
_cell_length_a   6.84966200
_cell_length_b   6.84966261
_cell_length_c   15.08922700
_cell_angle_alpha   90.00000000
_cell_angle_beta   90.00000000
_cell_angle_gamma   119.99999707
_symmetry_Int_Tables_number   1
_chemical_formula_structural   K(TiS2)8
_chemical_formula_sum   'K1 Ti8 S16'
_cell_volume   613.10655321
_cell_formula_units_Z   1
loop_
 _symmetry_equiv_pos_site_id
 _symmetry_equiv_pos_as_xyz
  1  'x, y, z'
loop_
 _atom_site_type_symbol
 _atom_site_label
 _atom_site_symmetry_multiplicity
 _atom_site_fract_x
 _atom_site_fract_y
 _atom_site_fract_z
 _atom_site_occupancy
  K  K0  1  0.000000  0.000000  0.000000  1
  Ti  Ti1  1  0.500553  0.499447  0.736277  1
  Ti  Ti2  1  0.499447  0.500553  0.263723  1
  Ti  Ti3  1  0.500553  0.001105  0.736277  1
  Ti  Ti4  1  0.499447  0.998895  0.263723  1
  Ti  Ti5  1  0.998895  0.499447  0.736277  1
  Ti  Ti6  1  0.001105  0.500553  0.263723  1
  Ti  Ti7  1  0.000000  0.000000  0.733709  1
  Ti  Ti8  1  0.000000  0.000000  0.266291  1
  S  S9  1  0.833356  0.666714  0.168828  1
  S  S10  1  0.832815  0.665630  0.642316  1
  S  S11  1  0.833356  0.166644  0.168828  1
  S  S12  1  0.832815  0.167185  0.642316  1
  S  S13  1  0.333333  0.666667  0.168133  1
  S  S14  1  0.333333  0.666667  0.643379  1
  S  S15  1  0.333286  0.166644  0.168828  1
  S  S16  1  0.334370  0.167185  0.642316  1
  S  S17  1  0.666714  0.833356  0.831172  1
  S  S18  1  0.665630  0.832815  0.357684  1
  S  S19  1  0.666667  0.333333  0.831867  1
  S  S20  1  0.666667  0.333333  0.356621  1
  S  S21  1  0.166644  0.833356  0.831172  1
  S  S22  1  0.167185  0.832815  0.357684  1
  S  S23  1  0.166644  0.333286  0.831172  1
  S  S24  1  0.167185  0.334370  0.357684  1
