# generated using pymatgen
data_La3Gd7(SiSb)4
_symmetry_space_group_name_H-M   'P 1'
_cell_length_a   9.03711097
_cell_length_b   8.47772099
_cell_length_c   8.09749000
_cell_angle_alpha   89.52961049
_cell_angle_beta   89.88895387
_cell_angle_gamma   125.22593766
_symmetry_Int_Tables_number   1
_chemical_formula_structural   La3Gd7(SiSb)4
_chemical_formula_sum   'La3 Gd7 Si4 Sb4'
_cell_volume   506.74601615
_cell_formula_units_Z   1
loop_
 _symmetry_equiv_pos_site_id
 _symmetry_equiv_pos_as_xyz
  1  'x, y, z'
loop_
 _atom_site_type_symbol
 _atom_site_label
 _atom_site_symmetry_multiplicity
 _atom_site_fract_x
 _atom_site_fract_y
 _atom_site_fract_z
 _atom_site_occupancy
  La  La0  1  0.057252  0.337449  0.321492  1
  La  La1  1  0.944354  0.669331  0.678252  1
  La  La2  1  0.442979  0.164989  0.825193  1
  Gd  Gd3  1  0.768993  0.527044  0.162664  1
  Gd  Gd4  1  0.555329  0.820369  0.170259  1
  Gd  Gd5  1  0.229186  0.473363  0.835696  1
  Gd  Gd6  1  0.732228  0.972797  0.660451  1
  Gd  Gd7  1  0.269554  0.030954  0.338192  1
  Gd  Gd8  1  0.999055  0.998545  0.000964  1
  Gd  Gd9  1  0.500541  0.501893  0.499192  1
  Si  Si10  1  0.371175  0.374444  0.126833  1
  Si  Si11  1  0.628813  0.629212  0.874203  1
  Si  Si12  1  0.133127  0.132965  0.632512  1
  Si  Si13  1  0.863841  0.870222  0.363044  1
  Sb  Sb14  1  0.813530  0.223904  0.973417  1
  Sb  Sb15  1  0.184266  0.763732  0.038467  1
  Sb  Sb16  1  0.681751  0.270738  0.471963  1
  Sb  Sb17  1  0.324026  0.738051  0.527207  1
