# generated using pymatgen
data_Np4Ge6Ir7
_symmetry_space_group_name_H-M   'P 1'
_cell_length_a   7.32603730
_cell_length_b   7.32603664
_cell_length_c   7.32603700
_cell_angle_alpha   109.47122717
_cell_angle_beta   109.47122535
_cell_angle_gamma   109.47120992
_symmetry_Int_Tables_number   1
_chemical_formula_structural   Np4Ge6Ir7
_chemical_formula_sum   'Np4 Ge6 Ir7'
_cell_volume   302.68118497
_cell_formula_units_Z   1
loop_
 _symmetry_equiv_pos_site_id
 _symmetry_equiv_pos_as_xyz
  1  'x, y, z'
loop_
 _atom_site_type_symbol
 _atom_site_label
 _atom_site_symmetry_multiplicity
 _atom_site_fract_x
 _atom_site_fract_y
 _atom_site_fract_z
 _atom_site_occupancy
  Np  Np0  1  0.000000  0.000000  0.500000  1
  Np  Np1  1  0.000000  0.500000  0.000000  1
  Np  Np2  1  0.500000  0.000000  0.000000  1
  Np  Np3  1  0.500000  0.500000  0.500000  1
  Ge  Ge4  1  0.684536  0.684536  0.000000  1
  Ge  Ge5  1  0.315464  0.000000  0.315464  1
  Ge  Ge6  1  0.000000  0.315464  0.315464  1
  Ge  Ge7  1  0.315464  0.315464  0.000000  1
  Ge  Ge8  1  0.684536  0.000000  0.684536  1
  Ge  Ge9  1  0.000000  0.684536  0.684536  1
  Ir  Ir10  1  0.750000  0.250000  0.500000  1
  Ir  Ir11  1  0.750000  0.500000  0.250000  1
  Ir  Ir12  1  0.500000  0.250000  0.750000  1
  Ir  Ir13  1  0.250000  0.500000  0.750000  1
  Ir  Ir14  1  0.250000  0.750000  0.500000  1
  Ir  Ir15  1  0.500000  0.750000  0.250000  1
  Ir  Ir16  1  0.000000  0.000000  0.000000  1
