# generated using pymatgen
data_Ti2GaSbRu4
_symmetry_space_group_name_H-M   'P 1'
_cell_length_a   4.38284500
_cell_length_b   6.20021700
_cell_length_c   13.15427701
_cell_angle_alpha   90.00000000
_cell_angle_beta   89.99636657
_cell_angle_gamma   90.00000000
_symmetry_Int_Tables_number   1
_chemical_formula_structural   Ti2GaSbRu4
_chemical_formula_sum   'Ti6 Ga3 Sb3 Ru12'
_cell_volume   357.46208488
_cell_formula_units_Z   3
loop_
 _symmetry_equiv_pos_site_id
 _symmetry_equiv_pos_as_xyz
  1  'x, y, z'
loop_
 _atom_site_type_symbol
 _atom_site_label
 _atom_site_symmetry_multiplicity
 _atom_site_fract_x
 _atom_site_fract_y
 _atom_site_fract_z
 _atom_site_occupancy
  Ti  Ti0  1  0.000021  0.000000  0.989003  1
  Ti  Ti1  1  0.499734  0.500001  0.166665  1
  Ti  Ti2  1  0.999905  0.000000  0.344342  1
  Ti  Ti3  1  0.500008  0.500001  0.510585  1
  Ti  Ti4  1  0.000350  0.000000  0.666663  1
  Ti  Ti5  1  0.500132  0.500001  0.822752  1
  Ga  Ga6  1  0.500010  0.000000  0.503585  1
  Ga  Ga7  1  0.000120  0.500001  0.666675  1
  Ga  Ga8  1  0.500223  0.000000  0.829753  1
  Sb  Sb9  1  0.000033  0.500001  0.995196  1
  Sb  Sb10  1  0.499713  0.000000  0.166672  1
  Sb  Sb11  1  0.999778  0.500001  0.338136  1
  Ru  Ru12  1  0.500023  0.246845  0.998900  1
  Ru  Ru13  1  0.500023  0.753155  0.998900  1
  Ru  Ru14  1  0.999792  0.253078  0.166664  1
  Ru  Ru15  1  0.999792  0.746922  0.166664  1
  Ru  Ru16  1  0.499810  0.246866  0.334429  1
  Ru  Ru17  1  0.499810  0.753134  0.334429  1
  Ru  Ru18  1  0.000018  0.247310  0.502097  1
  Ru  Ru19  1  0.000018  0.752690  0.502097  1
  Ru  Ru20  1  0.500173  0.250065  0.666661  1
  Ru  Ru21  1  0.500173  0.749935  0.666661  1
  Ru  Ru22  1  0.000169  0.247279  0.831235  1
  Ru  Ru23  1  0.000169  0.752721  0.831235  1
