# generated using pymatgen
data_Hf3Ag2OF12
_symmetry_space_group_name_H-M   'P 1'
_cell_length_a   10.33027860
_cell_length_b   10.33027809
_cell_length_c   10.33027975
_cell_angle_alpha   43.49314084
_cell_angle_beta   43.49314469
_cell_angle_gamma   43.49314506
_symmetry_Int_Tables_number   1
_chemical_formula_structural   Hf3Ag2OF12
_chemical_formula_sum   'Hf6 Ag4 O2 F24'
_cell_volume   473.81729214
_cell_formula_units_Z   2
loop_
 _symmetry_equiv_pos_site_id
 _symmetry_equiv_pos_as_xyz
  1  'x, y, z'
loop_
 _atom_site_type_symbol
 _atom_site_label
 _atom_site_symmetry_multiplicity
 _atom_site_fract_x
 _atom_site_fract_y
 _atom_site_fract_z
 _atom_site_occupancy
  Hf  Hf0  1  0.579539  0.579539  0.034457  1
  Hf  Hf1  1  0.034457  0.579539  0.579539  1
  Hf  Hf2  1  0.579539  0.034457  0.579539  1
  Hf  Hf3  1  0.420461  0.965543  0.420461  1
  Hf  Hf4  1  0.965543  0.420461  0.420461  1
  Hf  Hf5  1  0.420461  0.420461  0.965543  1
  Ag  Ag6  1  0.000000  0.000000  0.000000  1
  Ag  Ag7  1  0.500000  0.500000  0.500000  1
  Ag  Ag8  1  0.138792  0.138792  0.138792  1
  Ag  Ag9  1  0.861208  0.861208  0.861208  1
  O  O10  1  0.283719  0.283719  0.283719  1
  O  O11  1  0.716281  0.716281  0.716281  1
  F  F12  1  0.366508  0.702355  0.702355  1
  F  F13  1  0.702355  0.366508  0.702355  1
  F  F14  1  0.702355  0.702355  0.366508  1
  F  F15  1  0.633492  0.297645  0.297645  1
  F  F16  1  0.297645  0.633492  0.297645  1
  F  F17  1  0.297645  0.297645  0.633492  1
  F  F18  1  0.081334  0.597627  0.081334  1
  F  F19  1  0.081334  0.081334  0.597627  1
  F  F20  1  0.000000  0.348626  0.651374  1
  F  F21  1  0.348626  0.651374  0.000000  1
  F  F22  1  0.651374  0.000000  0.348626  1
  F  F23  1  0.000000  0.651374  0.348626  1
  F  F24  1  0.651374  0.348626  0.000000  1
  F  F25  1  0.348626  0.000000  0.651374  1
  F  F26  1  0.093753  0.656461  0.656461  1
  F  F27  1  0.656461  0.656461  0.093753  1
  F  F28  1  0.656461  0.093753  0.656461  1
  F  F29  1  0.343539  0.906247  0.343539  1
  F  F30  1  0.906247  0.343539  0.343539  1
  F  F31  1  0.343539  0.343539  0.906247  1
  F  F32  1  0.918666  0.402373  0.918666  1
  F  F33  1  0.402373  0.918666  0.918666  1
  F  F34  1  0.918666  0.918666  0.402373  1
  F  F35  1  0.597627  0.081334  0.081334  1
