# generated using pymatgen
data_Tm(BrO3)3
_symmetry_space_group_name_H-M   'P 1'
_cell_length_a   5.63934983
_cell_length_b   9.72988751
_cell_length_c   9.72909337
_cell_angle_alpha   60.00527818
_cell_angle_beta   89.96486079
_cell_angle_gamma   89.93850693
_symmetry_Int_Tables_number   1
_chemical_formula_structural   Tm(BrO3)3
_chemical_formula_sum   'Tm2 Br6 O18'
_cell_volume   462.34131397
_cell_formula_units_Z   2
loop_
 _symmetry_equiv_pos_site_id
 _symmetry_equiv_pos_as_xyz
  1  'x, y, z'
loop_
 _atom_site_type_symbol
 _atom_site_label
 _atom_site_symmetry_multiplicity
 _atom_site_fract_x
 _atom_site_fract_y
 _atom_site_fract_z
 _atom_site_occupancy
  Tm  Tm0  1  0.221185  0.333375  0.333333  1
  Tm  Tm1  1  0.721165  0.666695  0.666679  1
  Br  Br2  1  0.858059  0.658047  0.025185  1
  Br  Br3  1  0.858118  0.025328  0.316747  1
  Br  Br4  1  0.358112  0.683067  0.342170  1
  Br  Br5  1  0.858013  0.316807  0.658045  1
  Br  Br6  1  0.358007  0.974915  0.683137  1
  Br  Br7  1  0.358083  0.342080  0.974759  1
  O  O8  1  0.014398  0.771987  0.069255  1
  O  O9  1  0.983430  0.472274  0.125872  1
  O  O10  1  0.014410  0.069233  0.158748  1
  O  O11  1  0.436574  0.288278  0.166997  1
  O  O12  1  0.514418  0.841102  0.228099  1
  O  O13  1  0.436608  0.544609  0.288297  1
  O  O14  1  0.983343  0.126013  0.401803  1
  O  O15  1  0.936548  0.832968  0.455315  1
  O  O16  1  0.983214  0.401849  0.472245  1
  O  O17  1  0.483478  0.598170  0.527777  1
  O  O18  1  0.436586  0.167015  0.544653  1
  O  O19  1  0.483325  0.874149  0.598128  1
  O  O20  1  0.936570  0.455285  0.711700  1
  O  O21  1  0.014464  0.158661  0.772019  1
  O  O22  1  0.936523  0.711675  0.832983  1
  O  O23  1  0.514330  0.930710  0.841238  1
  O  O24  1  0.483296  0.527816  0.874040  1
  O  O25  1  0.514376  0.228016  0.930702  1
