# generated using pymatgen
data_K2BiSb(PS3)4
_symmetry_space_group_name_H-M   'P 1'
_cell_length_a   6.76021893
_cell_length_b   7.94616868
_cell_length_c   9.91786928
_cell_angle_alpha   89.73768879
_cell_angle_beta   91.67422634
_cell_angle_gamma   89.70319435
_symmetry_Int_Tables_number   1
_chemical_formula_structural   K2BiSb(PS3)4
_chemical_formula_sum   'K2 Bi1 Sb1 P4 S12'
_cell_volume   532.52597258
_cell_formula_units_Z   1
loop_
 _symmetry_equiv_pos_site_id
 _symmetry_equiv_pos_as_xyz
  1  'x, y, z'
loop_
 _atom_site_type_symbol
 _atom_site_label
 _atom_site_symmetry_multiplicity
 _atom_site_fract_x
 _atom_site_fract_y
 _atom_site_fract_z
 _atom_site_occupancy
  K  K0  1  0.310670  0.957954  0.491427  1
  K  K1  1  0.692432  0.461140  0.506302  1
  Bi  Bi2  1  0.191385  0.241980  0.014588  1
  Sb  Sb3  1  0.815033  0.755139  0.986282  1
  P  P4  1  0.306867  0.665297  0.166320  1
  P  P5  1  0.198223  0.453784  0.299855  1
  P  P6  1  0.799870  0.952625  0.700380  1
  P  P7  1  0.692806  0.165486  0.830431  1
  S  S8  1  0.671067  0.053328  0.021016  1
  S  S9  1  0.094436  0.855024  0.168572  1
  S  S10  1  0.944459  0.383400  0.195123  1
  S  S11  1  0.566212  0.749304  0.243180  1
  S  S12  1  0.403835  0.269627  0.271748  1
  S  S13  1  0.832767  0.036571  0.514892  1
  S  S14  1  0.170712  0.539343  0.485195  1
  S  S15  1  0.599788  0.768416  0.732097  1
  S  S16  1  0.428084  0.244428  0.755826  1
  S  S17  1  0.052949  0.883420  0.811740  1
  S  S18  1  0.899291  0.352819  0.827369  1
  S  S19  1  0.329117  0.557519  0.977663  1
