# generated using pymatgen
data_Sc3Ta2Si7Pt9
_symmetry_space_group_name_H-M   'P 1'
_cell_length_a   9.91838320
_cell_length_b   9.87697680
_cell_length_c   3.94648000
_cell_angle_alpha   90.00000000
_cell_angle_beta   90.00000000
_cell_angle_gamma   119.67167867
_symmetry_Int_Tables_number   1
_chemical_formula_structural   Sc3Ta2Si7Pt9
_chemical_formula_sum   'Sc3 Ta2 Si7 Pt9'
_cell_volume   335.91761781
_cell_formula_units_Z   1
loop_
 _symmetry_equiv_pos_site_id
 _symmetry_equiv_pos_as_xyz
  1  'x, y, z'
loop_
 _atom_site_type_symbol
 _atom_site_label
 _atom_site_symmetry_multiplicity
 _atom_site_fract_x
 _atom_site_fract_y
 _atom_site_fract_z
 _atom_site_occupancy
  Sc  Sc0  1  0.898417  0.772541  0.499998  1
  Sc  Sc1  1  0.336322  0.666299  0.000000  1
  Sc  Sc2  1  0.665818  0.333533  0.499998  1
  Ta  Ta3  1  0.218383  0.128481  0.499998  1
  Ta  Ta4  1  0.878954  0.097940  0.499998  1
  Si  Si5  1  0.286646  0.417678  0.499998  1
  Si  Si6  1  0.589794  0.876795  0.499998  1
  Si  Si7  1  0.141709  0.712963  0.499998  1
  Si  Si8  1  0.417479  0.113576  0.000000  1
  Si  Si9  1  0.883636  0.304591  0.000000  1
  Si  Si10  1  0.688625  0.573762  0.000000  1
  Si  Si11  1  0.002427  0.004148  0.000000  1
  Pt  Pt12  1  0.051044  0.443784  0.499998  1
  Pt  Pt13  1  0.552532  0.608433  0.499998  1
  Pt  Pt14  1  0.393213  0.948382  0.499998  1
  Pt  Pt15  1  0.122188  0.283586  0.000000  1
  Pt  Pt16  1  0.722770  0.839844  0.000000  1
  Pt  Pt17  1  0.157397  0.875436  0.000000  1
  Pt  Pt18  1  0.433888  0.357429  0.000000  1
  Pt  Pt19  1  0.639934  0.078753  0.000000  1
  Pt  Pt20  1  0.918824  0.562050  0.000000  1
