# generated using pymatgen
data_La3PrTe4
_symmetry_space_group_name_H-M   'P 1'
_cell_length_a   9.14145907
_cell_length_b   9.13809523
_cell_length_c   9.13809489
_cell_angle_alpha   59.97722031
_cell_angle_beta   59.98781551
_cell_angle_gamma   59.98782105
_symmetry_Int_Tables_number   1
_chemical_formula_structural   La3PrTe4
_chemical_formula_sum   'La6 Pr2 Te8'
_cell_volume   539.58153525
_cell_formula_units_Z   2
loop_
 _symmetry_equiv_pos_site_id
 _symmetry_equiv_pos_as_xyz
  1  'x, y, z'
loop_
 _atom_site_type_symbol
 _atom_site_label
 _atom_site_symmetry_multiplicity
 _atom_site_fract_x
 _atom_site_fract_y
 _atom_site_fract_z
 _atom_site_occupancy
  La  La0  1  0.125000  0.625000  0.125000  1
  La  La1  1  0.125000  0.125000  0.625000  1
  La  La2  1  0.625000  0.125000  0.125000  1
  La  La3  1  0.125000  0.125000  0.125000  1
  La  La4  1  0.625000  0.625000  0.625000  1
  La  La5  1  0.125000  0.625000  0.625000  1
  Pr  Pr6  1  0.625000  0.125000  0.625000  1
  Pr  Pr7  1  0.625000  0.625000  0.125000  1
  Te  Te8  1  0.375788  0.874100  0.374325  1
  Te  Te9  1  0.874212  0.375900  0.875675  1
  Te  Te10  1  0.874212  0.875675  0.375900  1
  Te  Te11  1  0.873574  0.874967  0.874967  1
  Te  Te12  1  0.873505  0.375033  0.375033  1
  Te  Te13  1  0.375788  0.374325  0.874100  1
  Te  Te14  1  0.376426  0.375033  0.375033  1
  Te  Te15  1  0.376495  0.874967  0.874967  1
