# generated using pymatgen
data_P2OsNCl12
_symmetry_space_group_name_H-M   'P 1'
_cell_length_a   8.32741418
_cell_length_b   8.32741436
_cell_length_c   15.98535892
_cell_angle_alpha   78.59057740
_cell_angle_beta   78.59057624
_cell_angle_gamma   65.71268976
_symmetry_Int_Tables_number   1
_chemical_formula_structural   P2OsNCl12
_chemical_formula_sum   'P4 Os2 N2 Cl24'
_cell_volume   981.99224259
_cell_formula_units_Z   2
loop_
 _symmetry_equiv_pos_site_id
 _symmetry_equiv_pos_as_xyz
  1  'x, y, z'
loop_
 _atom_site_type_symbol
 _atom_site_label
 _atom_site_symmetry_multiplicity
 _atom_site_fract_x
 _atom_site_fract_y
 _atom_site_fract_z
 _atom_site_occupancy
  P  P0  1  0.459673  0.321138  0.270672  1
  P  P1  1  0.678862  0.540327  0.229328  1
  P  P2  1  0.321138  0.459673  0.770672  1
  P  P3  1  0.540327  0.678862  0.729328  1
  Os  Os4  1  0.000000  0.000000  0.500000  1
  Os  Os5  1  0.000000  0.000000  0.000000  1
  N  N6  1  0.379658  0.620342  0.750000  1
  N  N7  1  0.620342  0.379658  0.250000  1
  Cl  Cl8  1  0.761225  0.501377  0.675856  1
  Cl  Cl9  1  0.273586  0.400403  0.666367  1
  Cl  Cl10  1  0.400403  0.273586  0.166367  1
  Cl  Cl11  1  0.501377  0.761225  0.175856  1
  Cl  Cl12  1  0.099518  0.207767  0.525322  1
  Cl  Cl13  1  0.043848  0.085073  0.352898  1
  Cl  Cl14  1  0.498623  0.238775  0.824144  1
  Cl  Cl15  1  0.085073  0.043848  0.852898  1
  Cl  Cl16  1  0.098595  0.516579  0.850603  1
  Cl  Cl17  1  0.901405  0.483421  0.149397  1
  Cl  Cl18  1  0.914927  0.956152  0.147102  1
  Cl  Cl19  1  0.711304  0.212858  0.508212  1
  Cl  Cl20  1  0.207767  0.099518  0.025322  1
  Cl  Cl21  1  0.956152  0.914927  0.647102  1
  Cl  Cl22  1  0.288696  0.787142  0.491788  1
  Cl  Cl23  1  0.212858  0.711304  0.008212  1
  Cl  Cl24  1  0.516579  0.098595  0.350603  1
  Cl  Cl25  1  0.792233  0.900482  0.974678  1
  Cl  Cl26  1  0.238775  0.498623  0.324144  1
  Cl  Cl27  1  0.483421  0.901405  0.649397  1
  Cl  Cl28  1  0.900482  0.792233  0.474678  1
  Cl  Cl29  1  0.726414  0.599598  0.333633  1
  Cl  Cl30  1  0.599597  0.726414  0.833633  1
  Cl  Cl31  1  0.787142  0.288696  0.991788  1
