# generated using pymatgen
data_Nd8CoSi12Pd2Pt
_symmetry_space_group_name_H-M   'P 1'
_cell_length_a   8.22146500
_cell_length_b   8.22146601
_cell_length_c   8.52069600
_cell_angle_alpha   90.00000000
_cell_angle_beta   90.00000000
_cell_angle_gamma   119.99999192
_symmetry_Int_Tables_number   1
_chemical_formula_structural   Nd8CoSi12Pd2Pt
_chemical_formula_sum   'Nd8 Co1 Si12 Pd2 Pt1'
_cell_volume   498.77447000
_cell_formula_units_Z   1
loop_
 _symmetry_equiv_pos_site_id
 _symmetry_equiv_pos_as_xyz
  1  'x, y, z'
loop_
 _atom_site_type_symbol
 _atom_site_label
 _atom_site_symmetry_multiplicity
 _atom_site_fract_x
 _atom_site_fract_y
 _atom_site_fract_z
 _atom_site_occupancy
  Nd  Nd0  1  0.501398  0.498602  0.753374  1
  Nd  Nd1  1  0.502199  0.497801  0.246868  1
  Nd  Nd2  1  0.997204  0.498602  0.753374  1
  Nd  Nd3  1  0.995601  0.497801  0.246868  1
  Nd  Nd4  1  0.501398  0.002796  0.753374  1
  Nd  Nd5  1  0.502199  0.004399  0.246868  1
  Nd  Nd6  1  0.000000  0.000000  0.749532  1
  Nd  Nd7  1  0.000000  0.000000  0.250394  1
  Co  Co8  1  0.666667  0.333333  0.996449  1
  Si  Si9  1  0.826626  0.173374  0.000162  1
  Si  Si10  1  0.164742  0.835258  0.999890  1
  Si  Si11  1  0.346749  0.173374  0.000162  1
  Si  Si12  1  0.165663  0.834337  0.500264  1
  Si  Si13  1  0.670518  0.835258  0.999890  1
  Si  Si14  1  0.835128  0.164872  0.499709  1
  Si  Si15  1  0.826626  0.653251  0.000162  1
  Si  Si16  1  0.668674  0.834337  0.500264  1
  Si  Si17  1  0.164742  0.329482  0.999890  1
  Si  Si18  1  0.329744  0.164872  0.499709  1
  Si  Si19  1  0.165663  0.331326  0.500264  1
  Si  Si20  1  0.835128  0.670256  0.499709  1
  Pd  Pd21  1  0.333333  0.666667  0.498774  1
  Pd  Pd22  1  0.666667  0.333333  0.501670  1
  Pt  Pt23  1  0.333333  0.666667  0.002383  1
