# generated using pymatgen
data_HoThAs2PdPt
_symmetry_space_group_name_H-M   'P 1'
_cell_length_a   4.32309400
_cell_length_b   4.32309380
_cell_length_c   15.50677600
_cell_angle_alpha   90.00000000
_cell_angle_beta   90.00000000
_cell_angle_gamma   120.00000150
_symmetry_Int_Tables_number   1
_chemical_formula_structural   HoThAs2PdPt
_chemical_formula_sum   'Ho2 Th2 As4 Pd2 Pt2'
_cell_volume   250.98136468
_cell_formula_units_Z   2
loop_
 _symmetry_equiv_pos_site_id
 _symmetry_equiv_pos_as_xyz
  1  'x, y, z'
loop_
 _atom_site_type_symbol
 _atom_site_label
 _atom_site_symmetry_multiplicity
 _atom_site_fract_x
 _atom_site_fract_y
 _atom_site_fract_z
 _atom_site_occupancy
  Ho  Ho0  1  0.000000  0.000000  0.249552  1
  Ho  Ho1  1  0.000000  0.000000  0.750448  1
  Th  Th2  1  0.000000  0.000000  0.500000  1
  Th  Th3  1  0.000000  0.000000  0.000000  1
  As  As4  1  0.333333  0.666667  0.881460  1
  As  As5  1  0.666667  0.333333  0.118540  1
  As  As6  1  0.666667  0.333333  0.383033  1
  As  As7  1  0.333333  0.666667  0.616967  1
  Pd  Pd8  1  0.333333  0.666667  0.356400  1
  Pd  Pd9  1  0.666667  0.333333  0.643600  1
  Pt  Pt10  1  0.666667  0.333333  0.856551  1
  Pt  Pt11  1  0.333333  0.666667  0.143449  1
