# generated using pymatgen
data_DyHo3Al18CuRh5
_symmetry_space_group_name_H-M   'P 1'
_cell_length_a   7.55585986
_cell_length_b   7.55527657
_cell_length_c   9.42173292
_cell_angle_alpha   90.07320148
_cell_angle_beta   90.06854003
_cell_angle_gamma   119.56538927
_symmetry_Int_Tables_number   1
_chemical_formula_structural   DyHo3Al18CuRh5
_chemical_formula_sum   'Dy1 Ho3 Al18 Cu1 Rh5'
_cell_volume   467.82100673
_cell_formula_units_Z   1
loop_
 _symmetry_equiv_pos_site_id
 _symmetry_equiv_pos_as_xyz
  1  'x, y, z'
loop_
 _atom_site_type_symbol
 _atom_site_label
 _atom_site_symmetry_multiplicity
 _atom_site_fract_x
 _atom_site_fract_y
 _atom_site_fract_z
 _atom_site_occupancy
  Dy  Dy0  1  0.327285  0.005186  0.250368  1
  Ho  Ho1  1  0.994940  0.672780  0.749764  1
  Ho  Ho2  1  0.005197  0.327225  0.250270  1
  Ho  Ho3  1  0.672934  0.994979  0.749768  1
  Al  Al4  1  0.129214  0.129272  0.751114  1
  Al  Al5  1  0.870304  0.870401  0.248513  1
  Al  Al6  1  0.000503  0.338481  0.577661  1
  Al  Al7  1  0.999248  0.661123  0.422621  1
  Al  Al8  1  0.000246  0.664771  0.074668  1
  Al  Al9  1  0.335148  0.999728  0.924835  1
  Al  Al10  1  0.999730  0.335146  0.925065  1
  Al  Al11  1  0.665144  0.000424  0.074679  1
  Al  Al12  1  0.661675  0.999435  0.422675  1
  Al  Al13  1  0.338645  0.000492  0.577982  1
  Al  Al14  1  0.332811  0.332932  0.050237  1
  Al  Al15  1  0.667346  0.667357  0.949266  1
  Al  Al16  1  0.664553  0.664547  0.552353  1
  Al  Al17  1  0.335479  0.335616  0.448244  1
  Al  Al18  1  0.339738  0.550575  0.750485  1
  Al  Al19  1  0.660569  0.449734  0.249627  1
  Al  Al20  1  0.550617  0.339820  0.750513  1
  Al  Al21  1  0.449564  0.660113  0.249614  1
  Cu  Cu22  1  0.999133  0.999563  0.499524  1
  Rh  Rh23  1  0.672110  0.327891  0.500181  1
  Rh  Rh24  1  0.327730  0.672118  0.500184  1
  Rh  Rh25  1  0.327999  0.672223  0.999943  1
  Rh  Rh26  1  0.672297  0.328061  0.999931  1
  Rh  Rh27  1  0.999843  0.000009  0.999915  1
