# generated using pymatgen
data_CsSnPIrRh
_symmetry_space_group_name_H-M   'P 1'
_cell_length_a   8.52442481
_cell_length_b   8.52442350
_cell_length_c   8.52442439
_cell_angle_alpha   152.60608505
_cell_angle_beta   152.30205647
_cell_angle_gamma   39.35114705
_symmetry_Int_Tables_number   1
_chemical_formula_structural   CsSnPIrRh
_chemical_formula_sum   'Cs1 Sn1 P1 Ir1 Rh1'
_cell_volume   132.23394533
_cell_formula_units_Z   1
loop_
 _symmetry_equiv_pos_site_id
 _symmetry_equiv_pos_as_xyz
  1  'x, y, z'
loop_
 _atom_site_type_symbol
 _atom_site_label
 _atom_site_symmetry_multiplicity
 _atom_site_fract_x
 _atom_site_fract_y
 _atom_site_fract_z
 _atom_site_occupancy
  Cs  Cs0  1  0.018672  0.018672  0.000000  1
  Sn  Sn1  1  0.344678  0.344678  0.000000  1
  P  P2  1  0.666591  0.666591  0.000000  1
  Ir  Ir3  1  0.735437  0.235437  0.500000  1
  Rh  Rh4  1  0.234622  0.734622  0.500000  1
