# generated using pymatgen
data_Sc8Mn5Co2Si14Ru
_symmetry_space_group_name_H-M   'P 1'
_cell_length_a   5.13616255
_cell_length_b   9.62763431
_cell_length_c   9.58317585
_cell_angle_alpha   85.89630722
_cell_angle_beta   74.45602093
_cell_angle_gamma   74.51162916
_symmetry_Int_Tables_number   1
_chemical_formula_structural   Sc8Mn5Co2Si14Ru
_chemical_formula_sum   'Sc8 Mn5 Co2 Si14 Ru1'
_cell_volume   439.96759108
_cell_formula_units_Z   1
loop_
 _symmetry_equiv_pos_site_id
 _symmetry_equiv_pos_as_xyz
  1  'x, y, z'
loop_
 _atom_site_type_symbol
 _atom_site_label
 _atom_site_symmetry_multiplicity
 _atom_site_fract_x
 _atom_site_fract_y
 _atom_site_fract_z
 _atom_site_occupancy
  Sc  Sc0  1  0.199047  0.804503  0.802502  1
  Sc  Sc1  1  0.802046  0.197636  0.195527  1
  Sc  Sc2  1  0.998452  0.195497  0.802502  1
  Sc  Sc3  1  0.002427  0.802364  0.195527  1
  Sc  Sc4  1  0.361741  0.000000  0.276520  1
  Sc  Sc5  1  0.638687  0.000000  0.722625  1
  Sc  Sc6  1  0.640197  0.724552  0.999923  1
  Sc  Sc7  1  0.359880  0.275448  0.999923  1
  Mn  Mn8  1  0.600080  0.797142  0.503091  1
  Mn  Mn9  1  0.900241  0.500000  0.199519  1
  Mn  Mn10  1  0.396176  0.205592  0.500442  1
  Mn  Mn11  1  0.896829  0.202858  0.503091  1
  Mn  Mn12  1  0.103382  0.794408  0.500442  1
  Co  Co13  1  0.603225  0.500000  0.793551  1
  Co  Co14  1  0.102930  0.500000  0.794139  1
  Si  Si15  1  0.408301  0.590762  0.592890  1
  Si  Si16  1  0.602708  0.408182  0.415598  1
  Si  Si17  1  0.998810  0.409238  0.592890  1
  Si  Si18  1  0.981694  0.591818  0.415598  1
  Si  Si19  1  0.249958  0.999636  0.999258  1
  Si  Si20  1  0.750784  0.000364  0.999258  1
  Si  Si21  1  0.195167  0.292810  0.298999  1
  Si  Si22  1  0.800658  0.698521  0.702248  1
  Si  Si23  1  0.505834  0.707190  0.298999  1
  Si  Si24  1  0.497095  0.301479  0.702248  1
  Si  Si25  1  0.209450  0.000000  0.581102  1
  Si  Si26  1  0.790402  0.000000  0.419194  1
  Si  Si27  1  0.793946  0.418668  0.992938  1
  Si  Si28  1  0.213116  0.581332  0.992938  1
  Ru  Ru29  1  0.396737  0.500000  0.206526  1
