# generated using pymatgen
data_SrIn7Ag5
_symmetry_space_group_name_H-M   'P 1'
_cell_length_a   7.78637872
_cell_length_b   7.78637865
_cell_length_c   7.78637817
_cell_angle_alpha   136.54682857
_cell_angle_beta   98.03102818
_cell_angle_gamma   97.72126554
_symmetry_Int_Tables_number   1
_chemical_formula_structural   SrIn7Ag5
_chemical_formula_sum   'Sr1 In7 Ag5'
_cell_volume   301.60582095
_cell_formula_units_Z   1
loop_
 _symmetry_equiv_pos_site_id
 _symmetry_equiv_pos_as_xyz
  1  'x, y, z'
loop_
 _atom_site_type_symbol
 _atom_site_label
 _atom_site_symmetry_multiplicity
 _atom_site_fract_x
 _atom_site_fract_y
 _atom_site_fract_z
 _atom_site_occupancy
  Sr  Sr0  1  0.999634  0.999634  0.000000  1
  In  In1  1  0.650735  0.650735  0.000000  1
  In  In2  1  0.347024  0.347024  0.000000  1
  In  In3  1  0.338854  0.991225  0.347629  1
  In  In4  1  0.643596  0.991225  0.652371  1
  In  In5  1  0.776401  0.276401  0.500000  1
  In  In6  1  0.802195  0.506822  0.295373  1
  In  In7  1  0.211449  0.506822  0.704627  1
  Ag  Ag8  1  0.500072  0.500849  0.497338  1
  Ag  Ag9  1  0.500072  0.002734  0.999223  1
  Ag  Ag10  1  0.003511  0.500849  0.000777  1
  Ag  Ag11  1  0.003511  0.002734  0.502662  1
  Ag  Ag12  1  0.222946  0.722946  0.500000  1
