# generated using pymatgen
data_Pa2BeCo6
_symmetry_space_group_name_H-M   'P 1'
_cell_length_a   5.51356581
_cell_length_b   5.51356548
_cell_length_c   5.51356800
_cell_angle_alpha   59.99999687
_cell_angle_beta   59.99999885
_cell_angle_gamma   60.00002150
_symmetry_Int_Tables_number   1
_chemical_formula_structural   Pa2BeCo6
_chemical_formula_sum   'Pa2 Be1 Co6'
_cell_volume   118.51761218
_cell_formula_units_Z   1
loop_
 _symmetry_equiv_pos_site_id
 _symmetry_equiv_pos_as_xyz
  1  'x, y, z'
loop_
 _atom_site_type_symbol
 _atom_site_label
 _atom_site_symmetry_multiplicity
 _atom_site_fract_x
 _atom_site_fract_y
 _atom_site_fract_z
 _atom_site_occupancy
  Pa  Pa0  1  0.249999  0.249999  0.249999  1
  Pa  Pa1  1  0.750000  0.750000  0.750000  1
  Be  Be2  1  0.000000  0.000000  0.000000  1
  Co  Co3  1  0.733500  0.266500  0.266500  1
  Co  Co4  1  0.733500  0.733500  0.266500  1
  Co  Co5  1  0.266500  0.733500  0.266500  1
  Co  Co6  1  0.266500  0.733500  0.733500  1
  Co  Co7  1  0.266500  0.266500  0.733500  1
  Co  Co8  1  0.733500  0.266500  0.733500  1
