# generated using pymatgen
data_Y4V4OF27
_symmetry_space_group_name_H-M   'P 1'
_cell_length_a   5.53251458
_cell_length_b   8.82732618
_cell_length_c   11.81903341
_cell_angle_alpha   63.43382555
_cell_angle_beta   89.94841782
_cell_angle_gamma   89.67380548
_symmetry_Int_Tables_number   1
_chemical_formula_structural   Y4V4OF27
_chemical_formula_sum   'Y4 V4 O1 F27'
_cell_volume   516.25784632
_cell_formula_units_Z   1
loop_
 _symmetry_equiv_pos_site_id
 _symmetry_equiv_pos_as_xyz
  1  'x, y, z'
loop_
 _atom_site_type_symbol
 _atom_site_label
 _atom_site_symmetry_multiplicity
 _atom_site_fract_x
 _atom_site_fract_y
 _atom_site_fract_z
 _atom_site_occupancy
  Y  Y0  1  0.263347  0.808506  0.266506  1
  Y  Y1  1  0.742618  0.194183  0.728708  1
  Y  Y2  1  0.757943  0.191321  0.231215  1
  Y  Y3  1  0.250447  0.807629  0.768376  1
  V  V4  1  0.758061  0.725782  0.044490  1
  V  V5  1  0.245791  0.273433  0.954899  1
  V  V6  1  0.253194  0.274564  0.454184  1
  V  V7  1  0.758903  0.724303  0.536362  1
  O  O8  1  0.939951  0.706585  0.433337  1
  F  F9  1  0.047308  0.297712  0.573549  1
  F  F10  1  0.451473  0.293232  0.075635  1
  F  F11  1  0.552005  0.704547  0.924961  1
  F  F12  1  0.483077  0.730792  0.140379  1
  F  F13  1  0.518625  0.265564  0.860698  1
  F  F14  1  0.980694  0.270113  0.357982  1
  F  F15  1  0.004131  0.731595  0.642642  1
  F  F16  1  0.959024  0.746869  0.169635  1
  F  F17  1  0.042119  0.251636  0.832144  1
  F  F18  1  0.456360  0.255338  0.330006  1
  F  F19  1  0.535778  0.749485  0.664699  1
  F  F20  1  0.768176  0.493544  0.138753  1
  F  F21  1  0.232401  0.505134  0.861896  1
  F  F22  1  0.264279  0.508476  0.362305  1
  F  F23  1  0.724897  0.492623  0.641354  1
  F  F24  1  0.965766  0.284468  0.046613  1
  F  F25  1  0.038208  0.713622  0.954969  1
  F  F26  1  0.464579  0.715183  0.456910  1
  F  F27  1  0.534075  0.286082  0.544088  1
  F  F28  1  0.737142  0.958161  0.454905  1
  F  F29  1  0.254863  0.045400  0.543501  1
  F  F30  1  0.243588  0.042550  0.046224  1
  F  F31  1  0.757480  0.955331  0.955992  1
  F  F32  1  0.580925  0.971145  0.231856  1
  F  F33  1  0.426406  0.027175  0.767752  1
  F  F34  1  0.077091  0.022636  0.270600  1
  F  F35  1  0.929274  0.975282  0.731878  1
