# generated using pymatgen
data_Sc2SeS
_symmetry_space_group_name_H-M   'P 1'
_cell_length_a   6.59448656
_cell_length_b   6.59448703
_cell_length_c   6.59448701
_cell_angle_alpha   33.35094382
_cell_angle_beta   33.35093699
_cell_angle_gamma   33.35093812
_symmetry_Int_Tables_number   1
_chemical_formula_structural   Sc2SeS
_chemical_formula_sum   'Sc2 Se1 S1'
_cell_volume   77.17812833
_cell_formula_units_Z   1
loop_
 _symmetry_equiv_pos_site_id
 _symmetry_equiv_pos_as_xyz
  1  'x, y, z'
loop_
 _atom_site_type_symbol
 _atom_site_label
 _atom_site_symmetry_multiplicity
 _atom_site_fract_x
 _atom_site_fract_y
 _atom_site_fract_z
 _atom_site_occupancy
  Sc  Sc0  1  0.239381  0.239381  0.239381  1
  Sc  Sc1  1  0.760619  0.760619  0.760619  1
  Se  Se2  1  0.000000  0.000000  0.000000  1
  S  S3  1  0.500000  0.500000  0.500000  1
