# generated using pymatgen
data_Er4Tm6IrRu3
_symmetry_space_group_name_H-M   'P 1'
_cell_length_a   6.26800523
_cell_length_b   7.26603916
_cell_length_c   8.34593569
_cell_angle_alpha   96.85653187
_cell_angle_beta   111.94833237
_cell_angle_gamma   90.12061535
_symmetry_Int_Tables_number   1
_chemical_formula_structural   Er4Tm6IrRu3
_chemical_formula_sum   'Er4 Tm6 Ir1 Ru3'
_cell_volume   349.58198728
_cell_formula_units_Z   1
loop_
 _symmetry_equiv_pos_site_id
 _symmetry_equiv_pos_as_xyz
  1  'x, y, z'
loop_
 _atom_site_type_symbol
 _atom_site_label
 _atom_site_symmetry_multiplicity
 _atom_site_fract_x
 _atom_site_fract_y
 _atom_site_fract_z
 _atom_site_occupancy
  Er  Er0  1  0.792198  0.082037  0.814724  1
  Er  Er1  1  0.977999  0.415072  0.187126  1
  Er  Er2  1  0.208634  0.915696  0.186018  1
  Er  Er3  1  0.024799  0.585419  0.814679  1
  Tm  Tm4  1  0.204559  0.183456  0.564317  1
  Tm  Tm5  1  0.641985  0.316331  0.434525  1
  Tm  Tm6  1  0.793883  0.815556  0.434842  1
  Tm  Tm7  1  0.356927  0.685294  0.563630  1
  Tm  Tm8  1  0.419651  0.249679  0.000424  1
  Tm  Tm9  1  0.580354  0.751323  0.000763  1
  Ir  Ir10  1  0.601114  0.423028  0.778774  1
  Ru  Ru11  1  0.823650  0.076887  0.220049  1
  Ru  Ru12  1  0.396260  0.576194  0.220567  1
  Ru  Ru13  1  0.177987  0.924029  0.779563  1
