# generated using pymatgen
data_Dy5Er11In4NiRh3
_symmetry_space_group_name_H-M   'P 1'
_cell_length_a   9.56283127
_cell_length_b   9.57036420
_cell_length_c   9.58081495
_cell_angle_alpha   60.08759025
_cell_angle_beta   60.08277758
_cell_angle_gamma   60.19608145
_symmetry_Int_Tables_number   1
_chemical_formula_structural   Dy5Er11In4NiRh3
_chemical_formula_sum   'Dy5 Er11 In4 Ni1 Rh3'
_cell_volume   621.72952657
_cell_formula_units_Z   1
loop_
 _symmetry_equiv_pos_site_id
 _symmetry_equiv_pos_as_xyz
  1  'x, y, z'
loop_
 _atom_site_type_symbol
 _atom_site_label
 _atom_site_symmetry_multiplicity
 _atom_site_fract_x
 _atom_site_fract_y
 _atom_site_fract_z
 _atom_site_occupancy
  Dy  Dy0  1  0.187316  0.190318  0.810740  1
  Dy  Dy1  1  0.438593  0.060144  0.061530  1
  Dy  Dy2  1  0.434596  0.064334  0.435104  1
  Dy  Dy3  1  0.061966  0.438998  0.062696  1
  Dy  Dy4  1  0.648040  0.050392  0.648117  1
  Er  Er5  1  0.190141  0.810995  0.809662  1
  Er  Er6  1  0.059373  0.059517  0.438942  1
  Er  Er7  1  0.809691  0.190152  0.188027  1
  Er  Er8  1  0.810340  0.811120  0.190211  1
  Er  Er9  1  0.652208  0.646280  0.048670  1
  Er  Er10  1  0.654114  0.651495  0.653331  1
  Er  Er11  1  0.062296  0.439300  0.434976  1
  Er  Er12  1  0.048124  0.646939  0.651827  1
  Er  Er13  1  0.810633  0.191791  0.810742  1
  Er  Er14  1  0.435801  0.440665  0.061412  1
  Er  Er15  1  0.189611  0.809778  0.190070  1
  In  In16  1  0.418311  0.746971  0.417886  1
  In  In17  1  0.418945  0.418334  0.747729  1
  In  In18  1  0.748601  0.417681  0.418574  1
  In  In19  1  0.415959  0.417951  0.415086  1
  Ni  Ni20  1  0.858178  0.425908  0.859354  1
  Rh  Rh21  1  0.861579  0.858082  0.425473  1
  Rh  Rh22  1  0.426689  0.855800  0.861639  1
  Rh  Rh23  1  0.858896  0.857051  0.858203  1
