# generated using pymatgen
data_NaNb5As4
_symmetry_space_group_name_H-M   'P 1'
_cell_length_a   3.53197421
_cell_length_b   7.37765728
_cell_length_c   10.43811217
_cell_angle_alpha   46.04086977
_cell_angle_beta   90.01423248
_cell_angle_gamma   76.18917495
_symmetry_Int_Tables_number   1
_chemical_formula_structural   NaNb5As4
_chemical_formula_sum   'Na1 Nb5 As4'
_cell_volume   184.69405133
_cell_formula_units_Z   1
loop_
 _symmetry_equiv_pos_site_id
 _symmetry_equiv_pos_as_xyz
  1  'x, y, z'
loop_
 _atom_site_type_symbol
 _atom_site_label
 _atom_site_symmetry_multiplicity
 _atom_site_fract_x
 _atom_site_fract_y
 _atom_site_fract_z
 _atom_site_occupancy
  Na  Na0  1  0.377839  0.121431  0.305743  1
  Nb  Nb1  1  0.360677  0.120372  0.805997  1
  Nb  Nb2  1  0.663309  0.514343  0.728867  1
  Nb  Nb3  1  0.731369  0.378618  0.480749  1
  Nb  Nb4  1  0.057941  0.726438  0.883115  1
  Nb  Nb5  1  0.990787  0.862232  0.131243  1
  As  As6  1  0.635356  0.573976  0.141601  1
  As  As7  1  0.088971  0.667215  0.470221  1
  As  As8  1  0.425675  0.988775  0.615310  1
  As  As9  1  0.294362  0.251740  0.996906  1
