# generated using pymatgen
data_Y9Tm(Al2Ru3)2
_symmetry_space_group_name_H-M   'P 1'
_cell_length_a   8.35529120
_cell_length_b   8.35529117
_cell_length_c   8.35529116
_cell_angle_alpha   109.46014544
_cell_angle_beta   109.46014240
_cell_angle_gamma   109.46013759
_symmetry_Int_Tables_number   1
_chemical_formula_structural   Y9Tm(Al2Ru3)2
_chemical_formula_sum   'Y9 Tm1 Al4 Ru6'
_cell_volume   449.20118081
_cell_formula_units_Z   1
loop_
 _symmetry_equiv_pos_site_id
 _symmetry_equiv_pos_as_xyz
  1  'x, y, z'
loop_
 _atom_site_type_symbol
 _atom_site_label
 _atom_site_symmetry_multiplicity
 _atom_site_fract_x
 _atom_site_fract_y
 _atom_site_fract_z
 _atom_site_occupancy
  Y  Y0  1  0.319082  0.568691  0.750268  1
  Y  Y1  1  0.750268  0.319082  0.568691  1
  Y  Y2  1  0.568691  0.750268  0.319082  1
  Y  Y3  1  0.714497  0.500581  0.999472  1
  Y  Y4  1  0.999472  0.714497  0.500581  1
  Y  Y5  1  0.500581  0.999472  0.714497  1
  Y  Y6  1  0.249492  0.181438  0.931815  1
  Y  Y7  1  0.931815  0.249492  0.181438  1
  Y  Y8  1  0.181438  0.931815  0.249492  1
  Tm  Tm9  1  0.788243  0.788243  0.788243  1
  Al  Al10  1  0.412241  0.412241  0.412241  1
  Al  Al11  1  0.088737  0.499683  0.999529  1
  Al  Al12  1  0.999529  0.088737  0.499683  1
  Al  Al13  1  0.499683  0.999529  0.088737  1
  Ru  Ru14  1  0.877975  0.126003  0.750284  1
  Ru  Ru15  1  0.750284  0.877975  0.126003  1
  Ru  Ru16  1  0.126003  0.750284  0.877975  1
  Ru  Ru17  1  0.249639  0.621310  0.371021  1
  Ru  Ru18  1  0.371021  0.249639  0.621310  1
  Ru  Ru19  1  0.621310  0.371021  0.249639  1
