# generated using pymatgen
data_TbDy3Fe2CuRu5
_symmetry_space_group_name_H-M   'P 1'
_cell_length_a   5.17512029
_cell_length_b   5.31468682
_cell_length_c   9.28515871
_cell_angle_alpha   73.36985667
_cell_angle_beta   92.64793287
_cell_angle_gamma   120.89618627
_symmetry_Int_Tables_number   1
_chemical_formula_structural   TbDy3Fe2CuRu5
_chemical_formula_sum   'Tb1 Dy3 Fe2 Cu1 Ru5'
_cell_volume   208.39283814
_cell_formula_units_Z   1
loop_
 _symmetry_equiv_pos_site_id
 _symmetry_equiv_pos_as_xyz
  1  'x, y, z'
loop_
 _atom_site_type_symbol
 _atom_site_label
 _atom_site_symmetry_multiplicity
 _atom_site_fract_x
 _atom_site_fract_y
 _atom_site_fract_z
 _atom_site_occupancy
  Tb  Tb0  1  0.872679  0.749432  0.373817  1
  Dy  Dy1  1  0.377382  0.753125  0.871132  1
  Dy  Dy2  1  0.997619  0.997045  0.003532  1
  Dy  Dy3  1  0.502509  0.000462  0.501586  1
  Fe  Fe4  1  0.941984  0.375293  0.191398  1
  Fe  Fe5  1  0.432911  0.374698  0.683514  1
  Cu  Cu6  1  0.687484  0.375012  0.937460  1
  Ru  Ru7  1  0.439954  0.373185  0.184048  1
  Ru  Ru8  1  0.935040  0.376842  0.690915  1
  Ru  Ru9  1  0.439954  0.882721  0.184048  1
  Ru  Ru10  1  0.935040  0.867281  0.690915  1
  Ru  Ru11  1  0.187441  0.374903  0.437633  1
