# generated using pymatgen
data_LaPu3C2Br5
_symmetry_space_group_name_H-M   'P 1'
_cell_length_a   3.90796512
_cell_length_b   8.31578566
_cell_length_c   9.70400776
_cell_angle_alpha   103.34771068
_cell_angle_beta   78.38359829
_cell_angle_gamma   90.00000201
_symmetry_Int_Tables_number   1
_chemical_formula_structural   LaPu3C2Br5
_chemical_formula_sum   'La1 Pu3 C2 Br5'
_cell_volume   300.19757448
_cell_formula_units_Z   1
loop_
 _symmetry_equiv_pos_site_id
 _symmetry_equiv_pos_as_xyz
  1  'x, y, z'
loop_
 _atom_site_type_symbol
 _atom_site_label
 _atom_site_symmetry_multiplicity
 _atom_site_fract_x
 _atom_site_fract_y
 _atom_site_fract_z
 _atom_site_occupancy
  La  La0  1  0.003629  0.205856  0.992740  1
  Pu  Pu1  1  0.003344  0.807854  0.993313  1
  Pu  Pu2  1  0.664080  0.891132  0.671841  1
  Pu  Pu3  1  0.343725  0.092517  0.312549  1
  C  C4  1  0.466075  0.024097  0.067850  1
  C  C5  1  0.542192  0.967450  0.915618  1
  Br  Br6  1  0.161641  0.633693  0.676717  1
  Br  Br7  1  0.838631  0.357368  0.322737  1
  Br  Br8  1  0.501786  0.511062  0.996428  1
  Br  Br9  1  0.174405  0.157109  0.651188  1
  Br  Br10  1  0.838092  0.827161  0.323817  1
