# generated using pymatgen
data_LiNpO4
_symmetry_space_group_name_H-M   'P 1'
_cell_length_a   5.18276400
_cell_length_b   5.81666779
_cell_length_c   6.08813729
_cell_angle_alpha   62.38154012
_cell_angle_beta   90.00000000
_cell_angle_gamma   90.00000000
_symmetry_Int_Tables_number   1
_chemical_formula_structural   LiNpO4
_chemical_formula_sum   'Li2 Np2 O8'
_cell_volume   162.62243213
_cell_formula_units_Z   2
loop_
 _symmetry_equiv_pos_site_id
 _symmetry_equiv_pos_as_xyz
  1  'x, y, z'
loop_
 _atom_site_type_symbol
 _atom_site_label
 _atom_site_symmetry_multiplicity
 _atom_site_fract_x
 _atom_site_fract_y
 _atom_site_fract_z
 _atom_site_occupancy
  Li  Li0  1  0.000000  0.500000  0.500000  1
  Li  Li1  1  0.500000  0.500000  0.000000  1
  Np  Np2  1  0.500000  0.000000  0.500000  1
  Np  Np3  1  0.000000  0.000000  0.000000  1
  O  O4  1  0.693789  0.852883  0.818137  1
  O  O5  1  0.806211  0.852883  0.318137  1
  O  O6  1  0.327509  0.685515  0.627823  1
  O  O7  1  0.827509  0.314485  0.872177  1
  O  O8  1  0.172491  0.685515  0.127823  1
  O  O9  1  0.672491  0.314485  0.372177  1
  O  O10  1  0.193789  0.147117  0.681863  1
  O  O11  1  0.306211  0.147117  0.181863  1
