# generated using pymatgen
data_Li2V3Co7Ni2As7
_symmetry_space_group_name_H-M   'P 1'
_cell_length_a   9.35876333
_cell_length_b   9.37996565
_cell_length_c   3.66899200
_cell_angle_alpha   90.00000000
_cell_angle_beta   90.00000000
_cell_angle_gamma   120.11843845
_symmetry_Int_Tables_number   1
_chemical_formula_structural   Li2V3Co7Ni2As7
_chemical_formula_sum   'Li2 V3 Co7 Ni2 As7'
_cell_volume   278.59771893
_cell_formula_units_Z   1
loop_
 _symmetry_equiv_pos_site_id
 _symmetry_equiv_pos_as_xyz
  1  'x, y, z'
loop_
 _atom_site_type_symbol
 _atom_site_label
 _atom_site_symmetry_multiplicity
 _atom_site_fract_x
 _atom_site_fract_y
 _atom_site_fract_z
 _atom_site_occupancy
  Li  Li0  1  0.334476  0.667115  0.000000  1
  Li  Li1  1  0.998284  0.998272  0.500000  1
  V  V2  1  0.761338  0.551160  0.500000  1
  V  V3  1  0.447311  0.208720  0.500000  1
  V  V4  1  0.790717  0.237723  0.500000  1
  Co  Co5  1  0.279481  0.378924  0.500000  1
  Co  Co6  1  0.622410  0.902199  0.500000  1
  Co  Co7  1  0.098058  0.722207  0.500000  1
  Co  Co8  1  0.506127  0.449741  0.000000  1
  Co  Co9  1  0.549375  0.054391  0.000000  1
  Co  Co10  1  0.946295  0.495796  0.000000  1
  Co  Co11  1  0.718561  0.759762  0.000000  1
  Ni  Ni12  1  0.237699  0.959622  0.000000  1
  Ni  Ni13  1  0.040294  0.279035  0.000000  1
  As  As14  1  0.960046  0.753614  0.000000  1
  As  As15  1  0.247203  0.211086  0.000000  1
  As  As16  1  0.790130  0.033866  0.000000  1
  As  As17  1  0.667317  0.332693  0.000000  1
  As  As18  1  0.535011  0.624457  0.500000  1
  As  As19  1  0.378155  0.909217  0.500000  1
  As  As20  1  0.091712  0.470400  0.500000  1
