# generated using pymatgen
data_Ce4NbSn3
_symmetry_space_group_name_H-M   'P 1'
_cell_length_a   8.96642357
_cell_length_b   8.96642321
_cell_length_c   8.96642507
_cell_angle_alpha   96.42676072
_cell_angle_beta   96.42675785
_cell_angle_gamma   140.90796247
_symmetry_Int_Tables_number   1
_chemical_formula_structural   Ce4NbSn3
_chemical_formula_sum   'Ce8 Nb2 Sn6'
_cell_volume   428.36358149
_cell_formula_units_Z   2
loop_
 _symmetry_equiv_pos_site_id
 _symmetry_equiv_pos_as_xyz
  1  'x, y, z'
loop_
 _atom_site_type_symbol
 _atom_site_label
 _atom_site_symmetry_multiplicity
 _atom_site_fract_x
 _atom_site_fract_y
 _atom_site_fract_z
 _atom_site_occupancy
  Ce  Ce0  1  0.096067  0.237358  0.333423  1
  Ce  Ce1  1  0.903933  0.762642  0.666577  1
  Ce  Ce2  1  0.762642  0.096067  0.858709  1
  Ce  Ce3  1  0.403933  0.737358  0.141291  1
  Ce  Ce4  1  0.237358  0.903933  0.141291  1
  Ce  Ce5  1  0.596067  0.262642  0.858709  1
  Ce  Ce6  1  0.737358  0.596067  0.333423  1
  Ce  Ce7  1  0.262642  0.403933  0.666577  1
  Nb  Nb8  1  0.250000  0.750000  0.500000  1
  Nb  Nb9  1  0.750000  0.250000  0.500000  1
  Sn  Sn10  1  0.147478  0.647478  0.794956  1
  Sn  Sn11  1  0.852522  0.352522  0.205044  1
  Sn  Sn12  1  0.352522  0.147478  0.500000  1
  Sn  Sn13  1  0.647478  0.852522  0.500000  1
  Sn  Sn14  1  0.250000  0.250000  0.000000  1
  Sn  Sn15  1  0.750000  0.750000  0.000000  1
