# generated using pymatgen
data_Pr18Y2Si15Se
_symmetry_space_group_name_H-M   'P 1'
_cell_length_a   7.91834720
_cell_length_b   7.86981864
_cell_length_c   15.31701800
_cell_angle_alpha   89.57651452
_cell_angle_beta   89.22348531
_cell_angle_gamma   90.23008981
_symmetry_Int_Tables_number   1
_chemical_formula_structural   Pr18Y2Si15Se
_chemical_formula_sum   'Pr18 Y2 Si15 Se1'
_cell_volume   954.37281180
_cell_formula_units_Z   1
loop_
 _symmetry_equiv_pos_site_id
 _symmetry_equiv_pos_as_xyz
  1  'x, y, z'
loop_
 _atom_site_type_symbol
 _atom_site_label
 _atom_site_symmetry_multiplicity
 _atom_site_fract_x
 _atom_site_fract_y
 _atom_site_fract_z
 _atom_site_occupancy
  Pr  Pr0  1  0.798131  0.190878  0.752508  1
  Pr  Pr1  1  0.686927  0.689298  0.497300  1
  Pr  Pr2  1  0.379732  0.004936  0.442224  1
  Pr  Pr3  1  0.490514  0.872975  0.699325  1
  Pr  Pr4  1  0.511240  0.122193  0.195903  1
  Pr  Pr5  1  0.875851  0.484720  0.300727  1
  Pr  Pr6  1  0.124159  0.513040  0.803500  1
  Pr  Pr7  1  0.631498  0.985469  0.951133  1
  Pr  Pr8  1  0.999658  0.380596  0.548426  1
  Pr  Pr9  1  0.991629  0.623319  0.053324  1
  Pr  Pr10  1  0.136777  0.987297  0.874556  1
  Pr  Pr11  1  0.520986  0.629708  0.125664  1
  Pr  Pr12  1  0.475830  0.369149  0.631234  1
  Pr  Pr13  1  0.633360  0.523010  0.876197  1
  Pr  Pr14  1  0.369623  0.475943  0.373234  1
  Pr  Pr15  1  0.871084  0.019800  0.376323  1
  Pr  Pr16  1  0.982296  0.127919  0.123980  1
  Pr  Pr17  1  0.017382  0.870889  0.620689  1
  Y  Y18  1  0.313008  0.311653  0.000364  1
  Y  Y19  1  0.187813  0.808780  0.248923  1
  Si  Si20  1  0.330987  0.694813  0.952932  1
  Si  Si21  1  0.662564  0.304020  0.454707  1
  Si  Si22  1  0.698534  0.333328  0.048608  1
  Si  Si23  1  0.302918  0.666062  0.547741  1
  Si  Si24  1  0.808637  0.829387  0.204227  1
  Si  Si25  1  0.170102  0.189912  0.294278  1
  Si  Si26  1  0.841542  0.804700  0.796402  1
  Si  Si27  1  0.287420  0.923830  0.060945  1
  Si  Si28  1  0.573887  0.785705  0.307839  1
  Si  Si29  1  0.444604  0.213264  0.827307  1
  Si  Si30  1  0.788254  0.579770  0.688701  1
  Si  Si31  1  0.212829  0.424830  0.188040  1
  Si  Si32  1  0.702711  0.074485  0.561079  1
  Si  Si33  1  0.931230  0.291107  0.941247  1
  Si  Si34  1  0.079606  0.712565  0.436589  1
  Se  Se35  1  0.166672  0.180651  0.693829  1
