# generated using pymatgen
data_Tm5Bi2Sb
_symmetry_space_group_name_H-M   'P 1'
_cell_length_a   8.16164100
_cell_length_b   9.32330700
_cell_length_c   11.82085500
_cell_angle_alpha   90.00000000
_cell_angle_beta   90.00000000
_cell_angle_gamma   90.00000000
_symmetry_Int_Tables_number   1
_chemical_formula_structural   Tm5Bi2Sb
_chemical_formula_sum   'Tm20 Bi8 Sb4'
_cell_volume   899.49004869
_cell_formula_units_Z   4
loop_
 _symmetry_equiv_pos_site_id
 _symmetry_equiv_pos_as_xyz
  1  'x, y, z'
loop_
 _atom_site_type_symbol
 _atom_site_label
 _atom_site_symmetry_multiplicity
 _atom_site_fract_x
 _atom_site_fract_y
 _atom_site_fract_z
 _atom_site_occupancy
  Tm  Tm0  1  0.813292  0.936471  0.062768  1
  Tm  Tm1  1  0.313292  0.063529  0.437232  1
  Tm  Tm2  1  0.186708  0.436471  0.937232  1
  Tm  Tm3  1  0.686708  0.563529  0.562768  1
  Tm  Tm4  1  0.186708  0.063529  0.937232  1
  Tm  Tm5  1  0.686708  0.936471  0.562768  1
  Tm  Tm6  1  0.813292  0.563529  0.062768  1
  Tm  Tm7  1  0.313292  0.436471  0.437232  1
  Tm  Tm8  1  0.524426  0.250000  0.995043  1
  Tm  Tm9  1  0.024426  0.750000  0.504957  1
  Tm  Tm10  1  0.475574  0.750000  0.004957  1
  Tm  Tm11  1  0.975574  0.250000  0.495043  1
  Tm  Tm12  1  0.175073  0.750000  0.226758  1
  Tm  Tm13  1  0.675073  0.250000  0.273242  1
  Tm  Tm14  1  0.824927  0.250000  0.773242  1
  Tm  Tm15  1  0.324927  0.750000  0.726758  1
  Tm  Tm16  1  0.655832  0.750000  0.291053  1
  Tm  Tm17  1  0.155832  0.250000  0.208947  1
  Tm  Tm18  1  0.344168  0.250000  0.708947  1
  Tm  Tm19  1  0.844168  0.750000  0.791053  1
  Bi  Bi20  1  0.935760  0.990537  0.324372  1
  Bi  Bi21  1  0.435760  0.009463  0.175628  1
  Bi  Bi22  1  0.064240  0.490537  0.675628  1
  Bi  Bi23  1  0.564240  0.509463  0.824372  1
  Bi  Bi24  1  0.064240  0.009463  0.675628  1
  Bi  Bi25  1  0.564240  0.990537  0.824372  1
  Bi  Bi26  1  0.935760  0.509463  0.324372  1
  Bi  Bi27  1  0.435760  0.490537  0.175628  1
  Sb  Sb28  1  0.898021  0.250000  0.026927  1
  Sb  Sb29  1  0.398021  0.750000  0.473073  1
  Sb  Sb30  1  0.101979  0.750000  0.973073  1
  Sb  Sb31  1  0.601979  0.250000  0.526927  1
