# generated using pymatgen
data_Nd2Tm6Si12IrRh3
_symmetry_space_group_name_H-M   'P 1'
_cell_length_a   8.17342300
_cell_length_b   8.17342279
_cell_length_c   7.93712700
_cell_angle_alpha   90.00000000
_cell_angle_beta   90.00000000
_cell_angle_gamma   119.99999680
_symmetry_Int_Tables_number   1
_chemical_formula_structural   Nd2Tm6Si12IrRh3
_chemical_formula_sum   'Nd2 Tm6 Si12 Ir1 Rh3'
_cell_volume   459.20003776
_cell_formula_units_Z   1
loop_
 _symmetry_equiv_pos_site_id
 _symmetry_equiv_pos_as_xyz
  1  'x, y, z'
loop_
 _atom_site_type_symbol
 _atom_site_label
 _atom_site_symmetry_multiplicity
 _atom_site_fract_x
 _atom_site_fract_y
 _atom_site_fract_z
 _atom_site_occupancy
  Nd  Nd0  1  0.000000  0.000000  0.249274  1
  Nd  Nd1  1  0.000000  0.000000  0.750181  1
  Tm  Tm2  1  0.492109  0.507891  0.250205  1
  Tm  Tm3  1  0.492109  0.984218  0.250205  1
  Tm  Tm4  1  0.015782  0.507891  0.250205  1
  Tm  Tm5  1  0.508856  0.491144  0.749808  1
  Tm  Tm6  1  0.982288  0.491144  0.749808  1
  Tm  Tm7  1  0.508856  0.017712  0.749808  1
  Si  Si8  1  0.832051  0.167949  0.502043  1
  Si  Si9  1  0.832051  0.664103  0.502043  1
  Si  Si10  1  0.335897  0.167949  0.502043  1
  Si  Si11  1  0.831445  0.168555  0.997158  1
  Si  Si12  1  0.831445  0.662892  0.997158  1
  Si  Si13  1  0.337108  0.168555  0.997158  1
  Si  Si14  1  0.168783  0.831217  0.002336  1
  Si  Si15  1  0.662434  0.831217  0.002336  1
  Si  Si16  1  0.168783  0.337566  0.002336  1
  Si  Si17  1  0.168799  0.831201  0.497542  1
  Si  Si18  1  0.662404  0.831201  0.497542  1
  Si  Si19  1  0.168799  0.337596  0.497542  1
  Ir  Ir20  1  0.666667  0.333333  0.466442  1
  Rh  Rh21  1  0.666667  0.333333  0.037246  1
  Rh  Rh22  1  0.333333  0.666667  0.963838  1
  Rh  Rh23  1  0.333333  0.666667  0.535742  1
