# generated using pymatgen
data_Ho7Tm13Pb16
_symmetry_space_group_name_H-M   'P 1'
_cell_length_a   8.15032998
_cell_length_b   15.50423578
_cell_length_c   8.20809210
_cell_angle_alpha   90.01299264
_cell_angle_beta   89.83000967
_cell_angle_gamma   90.11401219
_symmetry_Int_Tables_number   1
_chemical_formula_structural   Ho7Tm13Pb16
_chemical_formula_sum   'Ho7 Tm13 Pb16'
_cell_volume   1037.20594044
_cell_formula_units_Z   1
loop_
 _symmetry_equiv_pos_site_id
 _symmetry_equiv_pos_as_xyz
  1  'x, y, z'
loop_
 _atom_site_type_symbol
 _atom_site_label
 _atom_site_symmetry_multiplicity
 _atom_site_fract_x
 _atom_site_fract_y
 _atom_site_fract_z
 _atom_site_occupancy
  Ho  Ho0  1  0.963743  0.900186  0.823344  1
  Ho  Ho1  1  0.536487  0.099662  0.323569  1
  Ho  Ho2  1  0.036733  0.400256  0.176289  1
  Ho  Ho3  1  0.536800  0.400333  0.323766  1
  Ho  Ho4  1  0.036456  0.099621  0.176499  1
  Ho  Ho5  1  0.463801  0.900418  0.676466  1
  Ho  Ho6  1  0.963497  0.599733  0.823452  1
  Tm  Tm7  1  0.623098  0.621389  0.158478  1
  Tm  Tm8  1  0.123489  0.878614  0.341677  1
  Tm  Tm9  1  0.376724  0.121393  0.841640  1
  Tm  Tm10  1  0.877109  0.378720  0.658575  1
  Tm  Tm11  1  0.377152  0.378915  0.841355  1
  Tm  Tm12  1  0.876616  0.121319  0.658401  1
  Tm  Tm13  1  0.623291  0.878446  0.158310  1
  Tm  Tm14  1  0.123094  0.621336  0.341691  1
  Tm  Tm15  1  0.462438  0.599998  0.675874  1
  Tm  Tm16  1  0.791368  0.749761  0.495604  1
  Tm  Tm17  1  0.291674  0.749833  0.004573  1
  Tm  Tm18  1  0.208477  0.250097  0.504489  1
  Tm  Tm19  1  0.708405  0.250090  0.995457  1
  Pb  Pb20  1  0.718405  0.457421  0.966666  1
  Pb  Pb21  1  0.218095  0.042582  0.534034  1
  Pb  Pb22  1  0.282031  0.957198  0.033664  1
  Pb  Pb23  1  0.780765  0.542787  0.467226  1
  Pb  Pb24  1  0.281993  0.542864  0.033077  1
  Pb  Pb25  1  0.782085  0.957195  0.466112  1
  Pb  Pb26  1  0.718055  0.042521  0.966217  1
  Pb  Pb27  1  0.218642  0.457774  0.533898  1
  Pb  Pb28  1  0.428659  0.750022  0.372801  1
  Pb  Pb29  1  0.928859  0.750023  0.127626  1
  Pb  Pb30  1  0.571066  0.250099  0.627495  1
  Pb  Pb31  1  0.070993  0.250004  0.872257  1
  Pb  Pb32  1  0.651377  0.749495  0.845440  1
  Pb  Pb33  1  0.152352  0.749927  0.653860  1
  Pb  Pb34  1  0.348133  0.250075  0.153759  1
  Pb  Pb35  1  0.848037  0.249896  0.346358  1
