# generated using pymatgen
data_Tb5(NdAu5)2
_symmetry_space_group_name_H-M   'P 1'
_cell_length_a   8.83016417
_cell_length_b   8.83016379
_cell_length_c   10.49450300
_cell_angle_alpha   90.00000000
_cell_angle_beta   90.00000000
_cell_angle_gamma   107.12413121
_symmetry_Int_Tables_number   1
_chemical_formula_structural   Tb5(NdAu5)2
_chemical_formula_sum   'Tb10 Nd4 Au20'
_cell_volume   782.00035914
_cell_formula_units_Z   2
loop_
 _symmetry_equiv_pos_site_id
 _symmetry_equiv_pos_as_xyz
  1  'x, y, z'
loop_
 _atom_site_type_symbol
 _atom_site_label
 _atom_site_symmetry_multiplicity
 _atom_site_fract_x
 _atom_site_fract_y
 _atom_site_fract_z
 _atom_site_occupancy
  Tb  Tb0  1  0.693395  0.306605  0.000000  1
  Tb  Tb1  1  0.306605  0.693395  0.000000  1
  Tb  Tb2  1  0.806605  0.193395  0.500000  1
  Tb  Tb3  1  0.193395  0.806605  0.500000  1
  Tb  Tb4  1  0.000000  0.000000  0.000000  1
  Tb  Tb5  1  0.500000  0.500000  0.500000  1
  Tb  Tb6  1  0.003261  0.503261  0.250000  1
  Tb  Tb7  1  0.996739  0.496739  0.750000  1
  Tb  Tb8  1  0.496739  0.996739  0.750000  1
  Tb  Tb9  1  0.503261  0.003261  0.250000  1
  Nd  Nd10  1  0.311068  0.311068  0.190704  1
  Nd  Nd11  1  0.688932  0.688932  0.809296  1
  Nd  Nd12  1  0.188932  0.188932  0.690704  1
  Nd  Nd13  1  0.811068  0.811068  0.309296  1
  Au  Au14  1  0.859963  0.153518  0.208417  1
  Au  Au15  1  0.140037  0.846482  0.791583  1
  Au  Au16  1  0.640037  0.346482  0.708417  1
  Au  Au17  1  0.653518  0.359963  0.291583  1
  Au  Au18  1  0.359963  0.653518  0.291583  1
  Au  Au19  1  0.346482  0.640037  0.708417  1
  Au  Au20  1  0.846482  0.140037  0.791583  1
  Au  Au21  1  0.153518  0.859963  0.208417  1
  Au  Au22  1  0.939924  0.644315  0.004629  1
  Au  Au23  1  0.060076  0.355685  0.995371  1
  Au  Au24  1  0.560076  0.855685  0.504629  1
  Au  Au25  1  0.144315  0.439924  0.495371  1
  Au  Au26  1  0.439924  0.144315  0.495371  1
  Au  Au27  1  0.855685  0.560076  0.504629  1
  Au  Au28  1  0.355685  0.060076  0.995371  1
  Au  Au29  1  0.644315  0.939924  0.004629  1
  Au  Au30  1  0.102093  0.102093  0.400212  1
  Au  Au31  1  0.897907  0.897907  0.599788  1
  Au  Au32  1  0.397907  0.397907  0.900212  1
  Au  Au33  1  0.602093  0.602093  0.099788  1
