# generated using pymatgen
data_LiTb4Co16(TcP4)3
_symmetry_space_group_name_H-M   'P 1'
_cell_length_a   3.71120900
_cell_length_b   10.38408219
_cell_length_c   11.83876084
_cell_angle_alpha   90.02881625
_cell_angle_beta   90.00000000
_cell_angle_gamma   90.00000000
_symmetry_Int_Tables_number   1
_chemical_formula_structural   LiTb4Co16(TcP4)3
_chemical_formula_sum   'Li1 Tb4 Co16 Tc3 P12'
_cell_volume   456.23617947
_cell_formula_units_Z   1
loop_
 _symmetry_equiv_pos_site_id
 _symmetry_equiv_pos_as_xyz
  1  'x, y, z'
loop_
 _atom_site_type_symbol
 _atom_site_label
 _atom_site_symmetry_multiplicity
 _atom_site_fract_x
 _atom_site_fract_y
 _atom_site_fract_z
 _atom_site_occupancy
  Li  Li0  1  0.750000  0.203061  0.509613  1
  Tb  Tb1  1  0.250000  0.581307  0.701649  1
  Tb  Tb2  1  0.250000  0.915186  0.205057  1
  Tb  Tb3  1  0.750000  0.415498  0.296494  1
  Tb  Tb4  1  0.750000  0.083971  0.795595  1
  Co  Co5  1  0.250000  0.408746  0.488917  1
  Co  Co6  1  0.250000  0.092391  0.988409  1
  Co  Co7  1  0.750000  0.594926  0.509969  1
  Co  Co8  1  0.750000  0.906469  0.010112  1
  Co  Co9  1  0.250000  0.219101  0.174104  1
  Co  Co10  1  0.250000  0.279818  0.679306  1
  Co  Co11  1  0.750000  0.778381  0.822777  1
  Co  Co12  1  0.750000  0.722335  0.323192  1
  Co  Co13  1  0.250000  0.885266  0.701151  1
  Co  Co14  1  0.250000  0.613647  0.201901  1
  Co  Co15  1  0.750000  0.117602  0.299964  1
  Co  Co16  1  0.750000  0.388872  0.799768  1
  Co  Co17  1  0.250000  0.465558  0.934471  1
  Co  Co18  1  0.250000  0.036158  0.432746  1
  Co  Co19  1  0.750000  0.535475  0.067982  1
  Co  Co20  1  0.750000  0.965992  0.569046  1
  Tc  Tc21  1  0.250000  0.710535  0.988686  1
  Tc  Tc22  1  0.250000  0.791310  0.489823  1
  Tc  Tc23  1  0.750000  0.288996  0.010463  1
  P  P24  1  0.250000  0.418914  0.114374  1
  P  P25  1  0.250000  0.081206  0.613823  1
  P  P26  1  0.750000  0.580041  0.886630  1
  P  P27  1  0.750000  0.922883  0.387859  1
  P  P28  1  0.250000  0.271616  0.865356  1
  P  P29  1  0.250000  0.229247  0.364558  1
  P  P30  1  0.750000  0.729573  0.134699  1
  P  P31  1  0.750000  0.770588  0.632598  1
  P  P32  1  0.250000  0.597075  0.392848  1
  P  P33  1  0.250000  0.902982  0.890371  1
  P  P34  1  0.750000  0.398339  0.606575  1
  P  P35  1  0.750000  0.096937  0.109113  1
