# generated using pymatgen
data_Ba2IOF
_symmetry_space_group_name_H-M   'P 1'
_cell_length_a   7.96648415
_cell_length_b   7.96648389
_cell_length_c   6.44498700
_cell_angle_alpha   90.00000000
_cell_angle_beta   90.00000000
_cell_angle_gamma   132.46969997
_symmetry_Int_Tables_number   1
_chemical_formula_structural   Ba2IOF
_chemical_formula_sum   'Ba4 I2 O2 F2'
_cell_volume   301.71482524
_cell_formula_units_Z   2
loop_
 _symmetry_equiv_pos_site_id
 _symmetry_equiv_pos_as_xyz
  1  'x, y, z'
loop_
 _atom_site_type_symbol
 _atom_site_label
 _atom_site_symmetry_multiplicity
 _atom_site_fract_x
 _atom_site_fract_y
 _atom_site_fract_z
 _atom_site_occupancy
  Ba  Ba0  1  0.412981  0.587019  0.227443  1
  Ba  Ba1  1  0.587019  0.412981  0.772557  1
  Ba  Ba2  1  0.087019  0.912981  0.227443  1
  Ba  Ba3  1  0.912981  0.087019  0.772557  1
  I  I4  1  0.750000  0.250000  0.244999  1
  I  I5  1  0.250000  0.750000  0.755001  1
  O  O6  1  0.250000  0.250000  0.000000  1
  O  O7  1  0.750000  0.750000  0.000000  1
  F  F8  1  0.250000  0.250000  0.500000  1
  F  F9  1  0.750000  0.750000  0.500000  1
