# generated using pymatgen
data_SmGd7(Er3Pb4)4
_symmetry_space_group_name_H-M   'P 1'
_cell_length_a   8.18365608
_cell_length_b   8.26269140
_cell_length_c   15.58352500
_cell_angle_alpha   89.97880885
_cell_angle_beta   89.94279282
_cell_angle_gamma   90.02570499
_symmetry_Int_Tables_number   1
_chemical_formula_structural   SmGd7(Er3Pb4)4
_chemical_formula_sum   'Sm1 Gd7 Er12 Pb16'
_cell_volume   1053.74205820
_cell_formula_units_Z   1
loop_
 _symmetry_equiv_pos_site_id
 _symmetry_equiv_pos_as_xyz
  1  'x, y, z'
loop_
 _atom_site_type_symbol
 _atom_site_label
 _atom_site_symmetry_multiplicity
 _atom_site_fract_x
 _atom_site_fract_y
 _atom_site_fract_z
 _atom_site_occupancy
  Sm  Sm0  1  0.529025  0.321900  0.902431  1
  Gd  Gd1  1  0.030407  0.177589  0.597422  1
  Gd  Gd2  1  0.469205  0.677800  0.402367  1
  Gd  Gd3  1  0.969991  0.822159  0.097640  1
  Gd  Gd4  1  0.469786  0.678357  0.097600  1
  Gd  Gd5  1  0.969181  0.822116  0.402305  1
  Gd  Gd6  1  0.531324  0.322008  0.598009  1
  Gd  Gd7  1  0.029695  0.177859  0.902587  1
  Er  Er8  1  0.372242  0.842537  0.878320  1
  Er  Er9  1  0.872702  0.657537  0.621366  1
  Er  Er10  1  0.627741  0.157332  0.378389  1
  Er  Er11  1  0.128443  0.342902  0.121756  1
  Er  Er12  1  0.628405  0.157068  0.121970  1
  Er  Er13  1  0.127820  0.342627  0.378311  1
  Er  Er14  1  0.372297  0.842009  0.621490  1
  Er  Er15  1  0.871965  0.657661  0.878384  1
  Er  Er16  1  0.205160  0.504645  0.749799  1
  Er  Er17  1  0.705635  0.995375  0.749860  1
  Er  Er18  1  0.794658  0.495652  0.250056  1
  Er  Er19  1  0.294580  0.004313  0.249999  1
  Pb  Pb20  1  0.288065  0.038449  0.042907  1
  Pb  Pb21  1  0.787540  0.462541  0.456747  1
  Pb  Pb22  1  0.712545  0.962300  0.543200  1
  Pb  Pb23  1  0.211268  0.538723  0.956930  1
  Pb  Pb24  1  0.712610  0.961707  0.957068  1
  Pb  Pb25  1  0.213178  0.536965  0.543254  1
  Pb  Pb26  1  0.287386  0.037330  0.456765  1
  Pb  Pb27  1  0.787658  0.462849  0.043403  1
  Pb  Pb28  1  0.567568  0.626730  0.750117  1
  Pb  Pb29  1  0.067377  0.873135  0.749973  1
  Pb  Pb30  1  0.433119  0.373074  0.249992  1
  Pb  Pb31  1  0.933159  0.127541  0.250004  1
  Pb  Pb32  1  0.341409  0.152014  0.749539  1
  Pb  Pb33  1  0.842687  0.347342  0.749949  1
  Pb  Pb34  1  0.656994  0.847247  0.250084  1
  Pb  Pb35  1  0.157175  0.652606  0.250003  1
