# generated using pymatgen
data_Lu6Al6PdAu5
_symmetry_space_group_name_H-M   'P 1'
_cell_length_a   7.24696200
_cell_length_b   7.24696270
_cell_length_c   7.94578400
_cell_angle_alpha   90.00000000
_cell_angle_beta   90.00000000
_cell_angle_gamma   119.99999681
_symmetry_Int_Tables_number   1
_chemical_formula_structural   Lu6Al6PdAu5
_chemical_formula_sum   'Lu6 Al6 Pd1 Au5'
_cell_volume   361.39272906
_cell_formula_units_Z   1
loop_
 _symmetry_equiv_pos_site_id
 _symmetry_equiv_pos_as_xyz
  1  'x, y, z'
loop_
 _atom_site_type_symbol
 _atom_site_label
 _atom_site_symmetry_multiplicity
 _atom_site_fract_x
 _atom_site_fract_y
 _atom_site_fract_z
 _atom_site_occupancy
  Lu  Lu0  1  0.582888  0.997285  0.750000  1
  Lu  Lu1  1  0.002715  0.585605  0.750000  1
  Lu  Lu2  1  0.414395  0.417112  0.750000  1
  Lu  Lu3  1  0.997037  0.588446  0.250000  1
  Lu  Lu4  1  0.591408  0.002963  0.250000  1
  Lu  Lu5  1  0.411554  0.408592  0.250000  1
  Al  Al6  1  0.757318  0.757539  0.005696  1
  Al  Al7  1  0.242461  0.999779  0.005696  1
  Al  Al8  1  0.000221  0.242682  0.005696  1
  Al  Al9  1  0.757318  0.757539  0.494304  1
  Al  Al10  1  0.242461  0.999779  0.494304  1
  Al  Al11  1  0.000221  0.242682  0.494304  1
  Pd  Pd12  1  0.000000  0.000000  0.250000  1
  Au  Au13  1  0.000000  0.000000  0.750000  1
  Au  Au14  1  0.666667  0.333333  0.996908  1
  Au  Au15  1  0.666667  0.333333  0.503092  1
  Au  Au16  1  0.333333  0.666667  0.495087  1
  Au  Au17  1  0.333333  0.666667  0.004913  1
