# generated using pymatgen
data_Lu3Ti4Pt21
_symmetry_space_group_name_H-M   'P 1'
_cell_length_a   5.66812200
_cell_length_b   5.66815533
_cell_length_c   16.22412400
_cell_angle_alpha   89.99980411
_cell_angle_beta   90.00000000
_cell_angle_gamma   120.00029323
_symmetry_Int_Tables_number   1
_chemical_formula_structural   Lu3Ti4Pt21
_chemical_formula_sum   'Lu3 Ti4 Pt21'
_cell_volume   451.41037612
_cell_formula_units_Z   1
loop_
 _symmetry_equiv_pos_site_id
 _symmetry_equiv_pos_as_xyz
  1  'x, y, z'
loop_
 _atom_site_type_symbol
 _atom_site_label
 _atom_site_symmetry_multiplicity
 _atom_site_fract_x
 _atom_site_fract_y
 _atom_site_fract_z
 _atom_site_occupancy
  Lu  Lu0  1  0.000003  0.000002  0.716364  1
  Lu  Lu1  1  0.666664  0.333331  0.855580  1
  Lu  Lu2  1  0.333336  0.666664  0.145543  1
  Ti  Ti3  1  0.000001  0.000000  0.278293  1
  Ti  Ti4  1  0.666666  0.333334  0.428800  1
  Ti  Ti5  1  0.999998  0.999999  0.997995  1
  Ti  Ti6  1  0.333331  0.666665  0.571599  1
  Pt  Pt7  1  0.830979  0.661955  0.565724  1
  Pt  Pt8  1  0.338044  0.169025  0.565723  1
  Pt  Pt9  1  0.169939  0.339877  0.860116  1
  Pt  Pt10  1  0.166998  0.333989  0.428543  1
  Pt  Pt11  1  0.166993  0.833004  0.428544  1
  Pt  Pt12  1  0.497792  0.995580  0.707950  1
  Pt  Pt13  1  0.666007  0.833003  0.428544  1
  Pt  Pt14  1  0.169939  0.830063  0.860117  1
  Pt  Pt15  1  0.660122  0.830063  0.860117  1
  Pt  Pt16  1  0.832451  0.167542  0.145833  1
  Pt  Pt17  1  0.830980  0.169027  0.565725  1
  Pt  Pt18  1  0.497795  0.502211  0.707950  1
  Pt  Pt19  1  0.335095  0.167548  0.145834  1
  Pt  Pt20  1  0.832451  0.664908  0.145835  1
  Pt  Pt21  1  0.502497  0.497500  0.291262  1
  Pt  Pt22  1  0.502497  0.004998  0.291262  1
  Pt  Pt23  1  0.500689  0.001373  0.002511  1
  Pt  Pt24  1  0.995002  0.497502  0.291263  1
  Pt  Pt25  1  0.004417  0.502210  0.707949  1
  Pt  Pt26  1  0.500688  0.499316  0.002511  1
  Pt  Pt27  1  0.998626  0.499314  0.002512  1
