# generated using pymatgen
data_Ho2Pu(SnPt)3
_symmetry_space_group_name_H-M   'P 1'
_cell_length_a   7.52873537
_cell_length_b   7.52873535
_cell_length_c   4.07596300
_cell_angle_alpha   90.00000000
_cell_angle_beta   90.00000000
_cell_angle_gamma   120.23158481
_symmetry_Int_Tables_number   1
_chemical_formula_structural   Ho2Pu(SnPt)3
_chemical_formula_sum   'Ho2 Pu1 Sn3 Pt3'
_cell_volume   199.61203403
_cell_formula_units_Z   1
loop_
 _symmetry_equiv_pos_site_id
 _symmetry_equiv_pos_as_xyz
  1  'x, y, z'
loop_
 _atom_site_type_symbol
 _atom_site_label
 _atom_site_symmetry_multiplicity
 _atom_site_fract_x
 _atom_site_fract_y
 _atom_site_fract_z
 _atom_site_occupancy
  Ho  Ho0  1  0.593867  0.999966  0.500000  1
  Ho  Ho1  1  0.999966  0.593867  0.500000  1
  Pu  Pu2  1  0.411816  0.411816  0.500000  1
  Sn  Sn3  1  0.999083  0.256903  0.000000  1
  Sn  Sn4  1  0.741633  0.741633  0.000000  1
  Sn  Sn5  1  0.256903  0.999083  0.000000  1
  Pt  Pt6  1  0.669348  0.333074  0.000000  1
  Pt  Pt7  1  0.994311  0.994311  0.500000  1
  Pt  Pt8  1  0.333074  0.669348  0.000000  1
