# generated using pymatgen
data_ReSb2Se
_symmetry_space_group_name_H-M   'P 1'
_cell_length_a   6.93769700
_cell_length_b   6.47233857
_cell_length_c   18.40498617
_cell_angle_alpha   86.08843777
_cell_angle_beta   90.00000000
_cell_angle_gamma   90.00000000
_symmetry_Int_Tables_number   1
_chemical_formula_structural   ReSb2Se
_chemical_formula_sum   'Re8 Sb16 Se8'
_cell_volume   824.51620585
_cell_formula_units_Z   8
loop_
 _symmetry_equiv_pos_site_id
 _symmetry_equiv_pos_as_xyz
  1  'x, y, z'
loop_
 _atom_site_type_symbol
 _atom_site_label
 _atom_site_symmetry_multiplicity
 _atom_site_fract_x
 _atom_site_fract_y
 _atom_site_fract_z
 _atom_site_occupancy
  Re  Re0  1  0.907151  0.685159  0.495722  1
  Re  Re1  1  0.407151  0.314841  0.004278  1
  Re  Re2  1  0.092849  0.314841  0.504278  1
  Re  Re3  1  0.592849  0.685159  0.995722  1
  Re  Re4  1  0.660016  0.324309  0.504886  1
  Re  Re5  1  0.160016  0.675691  0.995114  1
  Re  Re6  1  0.339984  0.675691  0.495114  1
  Re  Re7  1  0.839984  0.324309  0.004886  1
  Sb  Sb8  1  0.412806  0.206092  0.277530  1
  Sb  Sb9  1  0.912806  0.793908  0.222470  1
  Sb  Sb10  1  0.587194  0.793908  0.722470  1
  Sb  Sb11  1  0.087194  0.206092  0.777530  1
  Sb  Sb12  1  0.835858  0.206930  0.271051  1
  Sb  Sb13  1  0.335858  0.793070  0.228949  1
  Sb  Sb14  1  0.164142  0.793070  0.728949  1
  Sb  Sb15  1  0.664142  0.206930  0.771051  1
  Sb  Sb16  1  0.375794  0.099623  0.434866  1
  Sb  Sb17  1  0.875794  0.900377  0.065134  1
  Sb  Sb18  1  0.624206  0.900377  0.565134  1
  Sb  Sb19  1  0.124206  0.099623  0.934866  1
  Sb  Sb20  1  0.877827  0.075836  0.424520  1
  Sb  Sb21  1  0.377827  0.924164  0.075480  1
  Sb  Sb22  1  0.122173  0.924164  0.575480  1
  Sb  Sb23  1  0.622173  0.075836  0.924520  1
  Se  Se24  1  0.880407  0.432406  0.603228  1
  Se  Se25  1  0.380407  0.567594  0.896772  1
  Se  Se26  1  0.119593  0.567594  0.396772  1
  Se  Se27  1  0.619593  0.432406  0.103228  1
  Se  Se28  1  0.625113  0.606407  0.410964  1
  Se  Se29  1  0.125113  0.393593  0.089036  1
  Se  Se30  1  0.374887  0.393593  0.589036  1
  Se  Se31  1  0.874887  0.606407  0.910964  1
