# generated using pymatgen
data_Y2MoRuC3
_symmetry_space_group_name_H-M   'P 1'
_cell_length_a   6.06075210
_cell_length_b   6.06075217
_cell_length_c   5.70866700
_cell_angle_alpha   112.46790173
_cell_angle_beta   112.46790220
_cell_angle_gamma   32.30105553
_symmetry_Int_Tables_number   1
_chemical_formula_structural   Y2MoRuC3
_chemical_formula_sum   'Y2 Mo1 Ru1 C3'
_cell_volume   102.80330526
_cell_formula_units_Z   1
loop_
 _symmetry_equiv_pos_site_id
 _symmetry_equiv_pos_as_xyz
  1  'x, y, z'
loop_
 _atom_site_type_symbol
 _atom_site_label
 _atom_site_symmetry_multiplicity
 _atom_site_fract_x
 _atom_site_fract_y
 _atom_site_fract_z
 _atom_site_occupancy
  Y  Y0  1  0.609286  0.609286  0.319966  1
  Y  Y1  1  0.391670  0.391670  0.670928  1
  Mo  Mo2  1  0.158453  0.158453  0.822823  1
  Ru  Ru3  1  0.840782  0.840782  0.181539  1
  C  C4  1  0.247216  0.247216  0.228631  1
  C  C5  1  0.998578  0.998578  0.502794  1
  C  C6  1  0.754014  0.754014  0.773318  1
