# generated using pymatgen
data_Yb12Ag11Ge12H
_symmetry_space_group_name_H-M   'P 1'
_cell_length_a   4.55198800
_cell_length_b   7.87447605
_cell_length_c   21.22774854
_cell_angle_alpha   90.29314448
_cell_angle_beta   90.00000000
_cell_angle_gamma   90.00000000
_symmetry_Int_Tables_number   1
_chemical_formula_structural   Yb12Ag11Ge12H
_chemical_formula_sum   'Yb12 Ag11 Ge12 H1'
_cell_volume   760.88850859
_cell_formula_units_Z   1
loop_
 _symmetry_equiv_pos_site_id
 _symmetry_equiv_pos_as_xyz
  1  'x, y, z'
loop_
 _atom_site_type_symbol
 _atom_site_label
 _atom_site_symmetry_multiplicity
 _atom_site_fract_x
 _atom_site_fract_y
 _atom_site_fract_z
 _atom_site_occupancy
  Yb  Yb0  1  0.250000  0.788036  0.165490  1
  Yb  Yb1  1  0.250000  0.781028  0.500801  1
  Yb  Yb2  1  0.250000  0.712780  0.333154  1
  Yb  Yb3  1  0.750000  0.228527  0.501574  1
  Yb  Yb4  1  0.750000  0.306472  0.671122  1
  Yb  Yb5  1  0.750000  0.276453  0.998202  1
  Yb  Yb6  1  0.250000  0.792532  0.830271  1
  Yb  Yb7  1  0.250000  0.726028  0.997994  1
  Yb  Yb8  1  0.750000  0.212024  0.166555  1
  Yb  Yb9  1  0.750000  0.289088  0.334298  1
  Yb  Yb10  1  0.250000  0.725973  0.667473  1
  Yb  Yb11  1  0.750000  0.212750  0.833306  1
  Ag  Ag12  1  0.750000  0.585378  0.905810  1
  Ag  Ag13  1  0.250000  0.419284  0.435569  1
  Ag  Ag14  1  0.750000  0.590924  0.567459  1
  Ag  Ag15  1  0.750000  0.920127  0.406904  1
  Ag  Ag16  1  0.250000  0.417871  0.092373  1
  Ag  Ag17  1  0.250000  0.411507  0.237620  1
  Ag  Ag18  1  0.750000  0.912170  0.262087  1
  Ag  Ag19  1  0.250000  0.104113  0.738060  1
  Ag  Ag20  1  0.250000  0.087248  0.930922  1
  Ag  Ag21  1  0.750000  0.916422  0.064459  1
  Ag  Ag22  1  0.250000  0.090549  0.594639  1
  Ge  Ge23  1  0.250000  0.418186  0.894572  1
  Ge  Ge24  1  0.750000  0.926917  0.729425  1
  Ge  Ge25  1  0.750000  0.581677  0.228317  1
  Ge  Ge26  1  0.250000  0.089001  0.072081  1
  Ge  Ge27  1  0.750000  0.914131  0.927419  1
  Ge  Ge28  1  0.750000  0.922085  0.603403  1
  Ge  Ge29  1  0.250000  0.419461  0.573582  1
  Ge  Ge30  1  0.250000  0.089492  0.398271  1
  Ge  Ge31  1  0.250000  0.082171  0.271677  1
  Ge  Ge32  1  0.750000  0.591498  0.427774  1
  Ge  Ge33  1  0.250000  0.438182  0.769969  1
  Ge  Ge34  1  0.750000  0.587469  0.101213  1
  H  H35  1  0.750000  0.432444  0.766157  1
