# generated using pymatgen
data_ThAlCu5
_symmetry_space_group_name_H-M   'P 1'
_cell_length_a   5.24283917
_cell_length_b   5.24283937
_cell_length_c   5.24284000
_cell_angle_alpha   103.19688792
_cell_angle_beta   103.19687837
_cell_angle_gamma   122.91567785
_symmetry_Int_Tables_number   1
_chemical_formula_structural   ThAlCu5
_chemical_formula_sum   'Th1 Al1 Cu5'
_cell_volume   106.27480963
_cell_formula_units_Z   1
loop_
 _symmetry_equiv_pos_site_id
 _symmetry_equiv_pos_as_xyz
  1  'x, y, z'
loop_
 _atom_site_type_symbol
 _atom_site_label
 _atom_site_symmetry_multiplicity
 _atom_site_fract_x
 _atom_site_fract_y
 _atom_site_fract_z
 _atom_site_occupancy
  Th  Th0  1  0.000000  0.000000  0.000000  1
  Al  Al1  1  0.250000  0.750000  0.500000  1
  Cu  Cu2  1  0.690331  0.309669  0.000000  1
  Cu  Cu3  1  0.309669  0.690331  0.000000  1
  Cu  Cu4  1  0.309669  0.309669  0.619339  1
  Cu  Cu5  1  0.690331  0.690331  0.380661  1
  Cu  Cu6  1  0.750000  0.250000  0.500000  1
