# generated using pymatgen
data_LiCa2InPb2
_symmetry_space_group_name_H-M   'P 1'
_cell_length_a   4.83971700
_cell_length_b   7.57394100
_cell_length_c   18.24259200
_cell_angle_alpha   90.00000000
_cell_angle_beta   90.00000000
_cell_angle_gamma   90.00000000
_symmetry_Int_Tables_number   1
_chemical_formula_structural   LiCa2InPb2
_chemical_formula_sum   'Li4 Ca8 In4 Pb8'
_cell_volume   668.69554536
_cell_formula_units_Z   4
loop_
 _symmetry_equiv_pos_site_id
 _symmetry_equiv_pos_as_xyz
  1  'x, y, z'
loop_
 _atom_site_type_symbol
 _atom_site_label
 _atom_site_symmetry_multiplicity
 _atom_site_fract_x
 _atom_site_fract_y
 _atom_site_fract_z
 _atom_site_occupancy
  Li  Li0  1  0.250000  0.994254  0.070376  1
  Li  Li1  1  0.750000  0.505746  0.570376  1
  Li  Li2  1  0.250000  0.494254  0.429624  1
  Li  Li3  1  0.750000  0.005746  0.929624  1
  Ca  Ca4  1  0.750000  0.158263  0.437133  1
  Ca  Ca5  1  0.250000  0.988134  0.776342  1
  Ca  Ca6  1  0.250000  0.341737  0.937133  1
  Ca  Ca7  1  0.750000  0.658263  0.062867  1
  Ca  Ca8  1  0.250000  0.841737  0.562867  1
  Ca  Ca9  1  0.750000  0.011866  0.223658  1
  Ca  Ca10  1  0.750000  0.511866  0.276342  1
  Ca  Ca11  1  0.250000  0.488134  0.723658  1
  In  In12  1  0.250000  0.335484  0.153709  1
  In  In13  1  0.750000  0.164516  0.653709  1
  In  In14  1  0.250000  0.835484  0.346291  1
  In  In15  1  0.750000  0.664516  0.846291  1
  Pb  Pb16  1  0.250000  0.232337  0.316203  1
  Pb  Pb17  1  0.250000  0.283691  0.560128  1
  Pb  Pb18  1  0.750000  0.716309  0.439872  1
  Pb  Pb19  1  0.750000  0.267663  0.816203  1
  Pb  Pb20  1  0.750000  0.767663  0.683797  1
  Pb  Pb21  1  0.750000  0.216309  0.060128  1
  Pb  Pb22  1  0.250000  0.783691  0.939872  1
  Pb  Pb23  1  0.250000  0.732337  0.183797  1
