# generated using pymatgen
data_Dy8Ti6Nb5Si16Os
_symmetry_space_group_name_H-M   'P 1'
_cell_length_a   7.03287210
_cell_length_b   7.03378062
_cell_length_c   12.96156175
_cell_angle_alpha   90.19520609
_cell_angle_beta   90.16741234
_cell_angle_gamma   90.06638812
_symmetry_Int_Tables_number   1
_chemical_formula_structural   Dy8Ti6Nb5Si16Os
_chemical_formula_sum   'Dy8 Ti6 Nb5 Si16 Os1'
_cell_volume   641.17148692
_cell_formula_units_Z   1
loop_
 _symmetry_equiv_pos_site_id
 _symmetry_equiv_pos_as_xyz
  1  'x, y, z'
loop_
 _atom_site_type_symbol
 _atom_site_label
 _atom_site_symmetry_multiplicity
 _atom_site_fract_x
 _atom_site_fract_y
 _atom_site_fract_z
 _atom_site_occupancy
  Dy  Dy0  1  0.999658  0.656934  0.035610  1
  Dy  Dy1  1  0.002737  0.342203  0.531257  1
  Dy  Dy2  1  0.659165  0.996488  0.966665  1
  Dy  Dy3  1  0.158596  0.503078  0.783000  1
  Dy  Dy4  1  0.839225  0.496247  0.282296  1
  Dy  Dy5  1  0.502961  0.158813  0.219262  1
  Dy  Dy6  1  0.496280  0.840566  0.715479  1
  Dy  Dy7  1  0.341821  0.001034  0.467128  1
  Ti  Ti8  1  0.670376  0.670140  0.499196  1
  Ti  Ti9  1  0.826975  0.171736  0.750454  1
  Ti  Ti10  1  0.174057  0.828026  0.250640  1
  Ti  Ti11  1  0.328639  0.326535  0.001228  1
  Ti  Ti12  1  0.496497  0.654219  0.123753  1
  Ti  Ti13  1  0.655000  0.493352  0.875522  1
  Nb  Nb14  1  0.844887  0.993997  0.374856  1
  Nb  Nb15  1  0.011093  0.156781  0.128765  1
  Nb  Nb16  1  0.996212  0.842521  0.622043  1
  Nb  Nb17  1  0.506280  0.345057  0.624345  1
  Nb  Nb18  1  0.154284  0.006039  0.873347  1
  Si  Si19  1  0.047280  0.707417  0.434434  1
  Si  Si20  1  0.953979  0.293354  0.936792  1
  Si  Si21  1  0.709236  0.046315  0.564057  1
  Si  Si22  1  0.211928  0.458571  0.188642  1
  Si  Si23  1  0.791476  0.545288  0.687158  1
  Si  Si24  1  0.454774  0.208443  0.814948  1
  Si  Si25  1  0.540833  0.785806  0.312060  1
  Si  Si26  1  0.294519  0.953592  0.063771  1
  Si  Si27  1  0.795557  0.868113  0.183287  1
  Si  Si28  1  0.300711  0.632062  0.563341  1
  Si  Si29  1  0.700943  0.367129  0.066272  1
  Si  Si30  1  0.626104  0.302782  0.433344  1
  Si  Si31  1  0.368190  0.700846  0.934767  1
  Si  Si32  1  0.133655  0.207736  0.318575  1
  Si  Si33  1  0.200522  0.134150  0.682627  1
  Si  Si34  1  0.865919  0.796318  0.815657  1
  Os  Os35  1  0.339633  0.508313  0.375423  1
