# generated using pymatgen
data_Ho2Ti(GaPt2)2
_symmetry_space_group_name_H-M   'P 1'
_cell_length_a   8.13316500
_cell_length_b   8.13316661
_cell_length_c   7.70766400
_cell_angle_alpha   90.00000000
_cell_angle_beta   90.00000000
_cell_angle_gamma   140.03728715
_symmetry_Int_Tables_number   1
_chemical_formula_structural   Ho2Ti(GaPt2)2
_chemical_formula_sum   'Ho4 Ti2 Ga4 Pt8'
_cell_volume   327.47071890
_cell_formula_units_Z   2
loop_
 _symmetry_equiv_pos_site_id
 _symmetry_equiv_pos_as_xyz
  1  'x, y, z'
loop_
 _atom_site_type_symbol
 _atom_site_label
 _atom_site_symmetry_multiplicity
 _atom_site_fract_x
 _atom_site_fract_y
 _atom_site_fract_z
 _atom_site_occupancy
  Ho  Ho0  1  0.106993  0.893007  0.405654  1
  Ho  Ho1  1  0.893007  0.106993  0.594346  1
  Ho  Ho2  1  0.393007  0.606993  0.905654  1
  Ho  Ho3  1  0.606993  0.393007  0.094346  1
  Ti  Ti4  1  0.000000  0.000000  0.000000  1
  Ti  Ti5  1  0.500000  0.500000  0.500000  1
  Ga  Ga6  1  0.019303  0.480697  0.250000  1
  Ga  Ga7  1  0.480697  0.019303  0.750000  1
  Ga  Ga8  1  0.980697  0.519303  0.750000  1
  Ga  Ga9  1  0.519303  0.980697  0.250000  1
  Pt  Pt10  1  0.189259  0.310741  0.250000  1
  Pt  Pt11  1  0.310741  0.189259  0.750000  1
  Pt  Pt12  1  0.810741  0.689259  0.750000  1
  Pt  Pt13  1  0.689259  0.810741  0.250000  1
  Pt  Pt14  1  0.177489  0.822511  0.025221  1
  Pt  Pt15  1  0.822511  0.177489  0.974779  1
  Pt  Pt16  1  0.322511  0.677489  0.525221  1
  Pt  Pt17  1  0.677489  0.322511  0.474779  1
