# generated using pymatgen
data_Te12PRhI6
_symmetry_space_group_name_H-M   'P 1'
_cell_length_a   10.08495025
_cell_length_b   10.08494972
_cell_length_c   10.08495077
_cell_angle_alpha   109.73362685
_cell_angle_beta   109.73362754
_cell_angle_gamma   109.73361681
_symmetry_Int_Tables_number   1
_chemical_formula_structural   Te12PRhI6
_chemical_formula_sum   'Te12 P1 Rh1 I6'
_cell_volume   781.82085338
_cell_formula_units_Z   1
loop_
 _symmetry_equiv_pos_site_id
 _symmetry_equiv_pos_as_xyz
  1  'x, y, z'
loop_
 _atom_site_type_symbol
 _atom_site_label
 _atom_site_symmetry_multiplicity
 _atom_site_fract_x
 _atom_site_fract_y
 _atom_site_fract_z
 _atom_site_occupancy
  Te  Te0  1  0.924358  0.160243  0.185383  1
  Te  Te1  1  0.185383  0.924358  0.160243  1
  Te  Te2  1  0.160243  0.185383  0.924358  1
  Te  Te3  1  0.677373  0.661849  0.438137  1
  Te  Te4  1  0.438137  0.677373  0.661849  1
  Te  Te5  1  0.661849  0.438137  0.677373  1
  Te  Te6  1  0.061863  0.838151  0.822627  1
  Te  Te7  1  0.822627  0.061863  0.838151  1
  Te  Te8  1  0.838151  0.822627  0.061863  1
  Te  Te9  1  0.314617  0.339757  0.575642  1
  Te  Te10  1  0.575642  0.314617  0.339757  1
  Te  Te11  1  0.339757  0.575642  0.314617  1
  P  P12  1  0.250000  0.250000  0.250000  1
  Rh  Rh13  1  0.750000  0.750000  0.750000  1
  I  I14  1  0.989135  0.510865  0.250000  1
  I  I15  1  0.250000  0.989135  0.510865  1
  I  I16  1  0.510865  0.250000  0.989135  1
  I  I17  1  0.750000  0.008792  0.491208  1
  I  I18  1  0.491208  0.750000  0.008792  1
  I  I19  1  0.008792  0.491208  0.750000  1
