# generated using pymatgen
data_CaHf(NpH4)6
_symmetry_space_group_name_H-M   'P 1'
_cell_length_a   6.53751900
_cell_length_b   6.47311100
_cell_length_c   6.45347600
_cell_angle_alpha   90.00000000
_cell_angle_beta   90.00000000
_cell_angle_gamma   90.00000000
_symmetry_Int_Tables_number   1
_chemical_formula_structural   CaHf(NpH4)6
_chemical_formula_sum   'Ca1 Hf1 Np6 H24'
_cell_volume   273.09875335
_cell_formula_units_Z   1
loop_
 _symmetry_equiv_pos_site_id
 _symmetry_equiv_pos_as_xyz
  1  'x, y, z'
loop_
 _atom_site_type_symbol
 _atom_site_label
 _atom_site_symmetry_multiplicity
 _atom_site_fract_x
 _atom_site_fract_y
 _atom_site_fract_z
 _atom_site_occupancy
  Ca  Ca0  1  0.251228  0.000000  0.500000  1
  Hf  Hf1  1  0.498081  0.500000  0.500000  1
  Np  Np2  1  0.999651  0.000000  0.000000  1
  Np  Np3  1  0.745813  0.000000  0.500000  1
  Np  Np4  1  0.001425  0.500000  0.255495  1
  Np  Np5  1  0.001425  0.500000  0.744505  1
  Np  Np6  1  0.499326  0.748598  0.000000  1
  Np  Np7  1  0.499326  0.251402  0.000000  1
  H  H8  1  0.990638  0.157104  0.303634  1
  H  H9  1  0.508826  0.217205  0.652612  1
  H  H10  1  0.508826  0.782795  0.347388  1
  H  H11  1  0.789056  0.650865  0.500000  1
  H  H12  1  0.212588  0.646170  0.500000  1
  H  H13  1  0.348468  0.500000  0.786634  1
  H  H14  1  0.651478  0.500000  0.788973  1
  H  H15  1  0.307716  0.000000  0.152583  1
  H  H16  1  0.157829  0.306060  0.000000  1
  H  H17  1  0.843422  0.692834  0.000000  1
  H  H18  1  0.307716  0.000000  0.847417  1
  H  H19  1  0.843422  0.307166  0.000000  1
  H  H20  1  0.692379  0.000000  0.155885  1
  H  H21  1  0.692379  0.000000  0.844115  1
  H  H22  1  0.157829  0.693940  0.000000  1
  H  H23  1  0.990638  0.842896  0.696366  1
  H  H24  1  0.990638  0.157104  0.696366  1
  H  H25  1  0.990638  0.842896  0.303634  1
  H  H26  1  0.651478  0.500000  0.211027  1
  H  H27  1  0.348468  0.500000  0.213366  1
  H  H28  1  0.789056  0.349135  0.500000  1
  H  H29  1  0.212588  0.353830  0.500000  1
  H  H30  1  0.508826  0.782795  0.652612  1
  H  H31  1  0.508826  0.217205  0.347388  1
