# generated using pymatgen
data_Tb2Y4Al24CuOs7
_symmetry_space_group_name_H-M   'P 1'
_cell_length_a   8.81169516
_cell_length_b   8.83862678
_cell_length_c   9.57383887
_cell_angle_alpha   89.95314661
_cell_angle_beta   89.85064835
_cell_angle_gamma   119.73822090
_symmetry_Int_Tables_number   1
_chemical_formula_structural   Tb2Y4Al24CuOs7
_chemical_formula_sum   'Tb2 Y4 Al24 Cu1 Os7'
_cell_volume   647.43745739
_cell_formula_units_Z   1
loop_
 _symmetry_equiv_pos_site_id
 _symmetry_equiv_pos_as_xyz
  1  'x, y, z'
loop_
 _atom_site_type_symbol
 _atom_site_label
 _atom_site_symmetry_multiplicity
 _atom_site_fract_x
 _atom_site_fract_y
 _atom_site_fract_z
 _atom_site_occupancy
  Tb  Tb0  1  0.193449  0.809535  0.249272  1
  Tb  Tb1  1  0.806551  0.190465  0.750728  1
  Y  Y2  1  0.192530  0.383369  0.249987  1
  Y  Y3  1  0.807470  0.616631  0.750013  1
  Y  Y4  1  0.610468  0.804946  0.252591  1
  Y  Y5  1  0.389532  0.195054  0.747409  1
  Al  Al6  1  0.335552  0.667968  0.019380  1
  Al  Al7  1  0.664448  0.332032  0.980620  1
  Al  Al8  1  0.667749  0.333403  0.519207  1
  Al  Al9  1  0.332251  0.666597  0.480793  1
  Al  Al10  1  0.163141  0.327449  0.574315  1
  Al  Al11  1  0.836859  0.672551  0.425685  1
  Al  Al12  1  0.672353  0.835771  0.576357  1
  Al  Al13  1  0.831660  0.674785  0.078587  1
  Al  Al14  1  0.327647  0.164229  0.423643  1
  Al  Al15  1  0.168340  0.325215  0.921413  1
  Al  Al16  1  0.162823  0.835042  0.574375  1
  Al  Al17  1  0.327690  0.164211  0.076322  1
  Al  Al18  1  0.837177  0.164958  0.425625  1
  Al  Al19  1  0.672310  0.835789  0.923678  1
  Al  Al20  1  0.831865  0.156929  0.078341  1
  Al  Al21  1  0.168135  0.843071  0.921659  1
  Al  Al22  1  0.560321  0.122853  0.249496  1
  Al  Al23  1  0.439679  0.877147  0.750504  1
  Al  Al24  1  0.877487  0.438817  0.250061  1
  Al  Al25  1  0.122513  0.561183  0.749939  1
  Al  Al26  1  0.560480  0.437521  0.249245  1
  Al  Al27  1  0.439520  0.562479  0.750755  1
  Al  Al28  1  0.000836  0.000775  0.250245  1
  Al  Al29  1  0.999164  0.999225  0.749755  1
  Cu  Cu30  1  0.000000  0.500000  0.000000  1
  Os  Os31  1  0.500000  0.000000  0.000000  1
  Os  Os32  1  0.500000  0.000000  0.500000  1
  Os  Os33  1  0.500000  0.500000  0.000000  1
  Os  Os34  1  0.000000  0.500000  0.500000  1
  Os  Os35  1  0.500000  0.500000  0.500000  1
  Os  Os36  1  0.000000  0.000000  0.000000  1
  Os  Os37  1  0.000000  0.000000  0.500000  1
