# generated using pymatgen
data_Tm12Th8Tl9Sb7
_symmetry_space_group_name_H-M   'P 1'
_cell_length_a   8.13345296
_cell_length_b   8.08593967
_cell_length_c   15.29855100
_cell_angle_alpha   90.02047812
_cell_angle_beta   89.97216030
_cell_angle_gamma   89.98870802
_symmetry_Int_Tables_number   1
_chemical_formula_structural   Tm12Th8Tl9Sb7
_chemical_formula_sum   'Tm12 Th8 Tl9 Sb7'
_cell_volume   1006.13363419
_cell_formula_units_Z   1
loop_
 _symmetry_equiv_pos_site_id
 _symmetry_equiv_pos_as_xyz
  1  'x, y, z'
loop_
 _atom_site_type_symbol
 _atom_site_label
 _atom_site_symmetry_multiplicity
 _atom_site_fract_x
 _atom_site_fract_y
 _atom_site_fract_z
 _atom_site_occupancy
  Tm  Tm0  1  0.359992  0.837879  0.877898  1
  Tm  Tm1  1  0.861050  0.660480  0.621950  1
  Tm  Tm2  1  0.639374  0.160305  0.378517  1
  Tm  Tm3  1  0.137884  0.338991  0.123364  1
  Tm  Tm4  1  0.640539  0.161272  0.121502  1
  Tm  Tm5  1  0.139065  0.338522  0.378360  1
  Tm  Tm6  1  0.360557  0.839335  0.622162  1
  Tm  Tm7  1  0.860303  0.660928  0.876659  1
  Tm  Tm8  1  0.192322  0.497193  0.749365  1
  Tm  Tm9  1  0.691043  0.002416  0.750228  1
  Tm  Tm10  1  0.807816  0.502346  0.250463  1
  Tm  Tm11  1  0.308641  0.997950  0.249837  1
  Th  Th12  1  0.515224  0.320920  0.907541  1
  Th  Th13  1  0.016151  0.180962  0.590501  1
  Th  Th14  1  0.483675  0.680412  0.409441  1
  Th  Th15  1  0.984270  0.821515  0.091857  1
  Th  Th16  1  0.486140  0.681257  0.090468  1
  Th  Th17  1  0.983786  0.819173  0.409678  1
  Th  Th18  1  0.516216  0.319456  0.590947  1
  Th  Th19  1  0.017271  0.177944  0.907516  1
  Tl  Tl20  1  0.800736  0.459628  0.043629  1
  Tl  Tl21  1  0.556639  0.619930  0.749551  1
  Tl  Tl22  1  0.056560  0.880226  0.749636  1
  Tl  Tl23  1  0.442951  0.380031  0.250807  1
  Tl  Tl24  1  0.943476  0.119280  0.251645  1
  Tl  Tl25  1  0.321853  0.141761  0.750005  1
  Tl  Tl26  1  0.820969  0.357609  0.749622  1
  Tl  Tl27  1  0.679180  0.858746  0.250330  1
  Tl  Tl28  1  0.179239  0.642218  0.250703  1
  Sb  Sb29  1  0.299417  0.041598  0.043563  1
  Sb  Sb30  1  0.799229  0.459252  0.455688  1
  Sb  Sb31  1  0.700344  0.959048  0.544735  1
  Sb  Sb32  1  0.197451  0.540595  0.956819  1
  Sb  Sb33  1  0.700360  0.959908  0.955054  1
  Sb  Sb34  1  0.201079  0.540508  0.544236  1
  Sb  Sb35  1  0.299201  0.040404  0.455723  1
