# generated using pymatgen
data_Sc8Ti6Nb2V3Si16Ir
_symmetry_space_group_name_H-M   'P 1'
_cell_length_a   6.78182490
_cell_length_b   6.79698592
_cell_length_c   12.44951400
_cell_angle_alpha   90.21159996
_cell_angle_beta   89.77585411
_cell_angle_gamma   89.73607244
_symmetry_Int_Tables_number   1
_chemical_formula_structural   Sc8Ti6Nb2V3Si16Ir
_chemical_formula_sum   'Sc8 Ti6 Nb2 V3 Si16 Ir1'
_cell_volume   573.85797128
_cell_formula_units_Z   1
loop_
 _symmetry_equiv_pos_site_id
 _symmetry_equiv_pos_as_xyz
  1  'x, y, z'
loop_
 _atom_site_type_symbol
 _atom_site_label
 _atom_site_symmetry_multiplicity
 _atom_site_fract_x
 _atom_site_fract_y
 _atom_site_fract_z
 _atom_site_occupancy
  Sc  Sc0  1  0.000545  0.662392  0.030256  1
  Sc  Sc1  1  0.841470  0.501245  0.282082  1
  Sc  Sc2  1  0.158194  0.498732  0.782092  1
  Sc  Sc3  1  0.501877  0.842193  0.718928  1
  Sc  Sc4  1  0.499216  0.156555  0.217633  1
  Sc  Sc5  1  0.000837  0.337984  0.531926  1
  Sc  Sc6  1  0.662052  0.001067  0.968865  1
  Sc  Sc7  1  0.338951  0.999100  0.469357  1
  Ti  Ti8  1  0.672996  0.671650  0.500180  1
  Ti  Ti9  1  0.998526  0.148465  0.128993  1
  Ti  Ti10  1  0.349203  0.506522  0.375698  1
  Ti  Ti11  1  0.657439  0.495304  0.876346  1
  Ti  Ti12  1  0.505568  0.346893  0.626104  1
  Ti  Ti13  1  0.493455  0.658784  0.121546  1
  Nb  Nb14  1  0.171773  0.831257  0.247929  1
  Nb  Nb15  1  0.830658  0.170392  0.751842  1
  V  V16  1  0.992589  0.848809  0.628031  1
  V  V17  1  0.146854  0.000513  0.871480  1
  V  V18  1  0.849845  0.992497  0.371090  1
  Si  Si19  1  0.291748  0.962184  0.056930  1
  Si  Si20  1  0.548893  0.798783  0.316471  1
  Si  Si21  1  0.445747  0.202537  0.818524  1
  Si  Si22  1  0.798750  0.549597  0.683890  1
  Si  Si23  1  0.203589  0.450303  0.183099  1
  Si  Si24  1  0.707562  0.039801  0.561151  1
  Si  Si25  1  0.963578  0.290942  0.938982  1
  Si  Si26  1  0.040639  0.706626  0.438899  1
  Si  Si27  1  0.705368  0.368170  0.072111  1
  Si  Si28  1  0.132777  0.205590  0.322804  1
  Si  Si29  1  0.868812  0.794590  0.820073  1
  Si  Si30  1  0.204256  0.129964  0.680261  1
  Si  Si31  1  0.792007  0.862658  0.180677  1
  Si  Si32  1  0.290929  0.637881  0.572366  1
  Si  Si33  1  0.367548  0.713544  0.924352  1
  Si  Si34  1  0.638433  0.289550  0.428168  1
  Ir  Ir35  1  0.327319  0.326932  0.000865  1
