# generated using pymatgen
data_Y14Tm6Si15Pt
_symmetry_space_group_name_H-M   'P 1'
_cell_length_a   7.37155062
_cell_length_b   7.73083446
_cell_length_c   14.56804788
_cell_angle_alpha   90.08908222
_cell_angle_beta   89.97173899
_cell_angle_gamma   90.00544384
_symmetry_Int_Tables_number   1
_chemical_formula_structural   Y14Tm6Si15Pt
_chemical_formula_sum   'Y14 Tm6 Si15 Pt1'
_cell_volume   830.20626585
_cell_formula_units_Z   1
loop_
 _symmetry_equiv_pos_site_id
 _symmetry_equiv_pos_as_xyz
  1  'x, y, z'
loop_
 _atom_site_type_symbol
 _atom_site_label
 _atom_site_symmetry_multiplicity
 _atom_site_fract_x
 _atom_site_fract_y
 _atom_site_fract_z
 _atom_site_occupancy
  Y  Y0  1  0.317911  0.819957  0.123337  1
  Y  Y1  1  0.817191  0.677586  0.376397  1
  Y  Y2  1  0.318063  0.820635  0.376772  1
  Y  Y3  1  0.817293  0.677092  0.123580  1
  Y  Y4  1  0.679646  0.178724  0.876321  1
  Y  Y5  1  0.186925  0.323691  0.623922  1
  Y  Y6  1  0.524624  0.681568  0.594925  1
  Y  Y7  1  0.026278  0.818063  0.903920  1
  Y  Y8  1  0.473282  0.316256  0.097443  1
  Y  Y9  1  0.972932  0.182281  0.402524  1
  Y  Y10  1  0.474085  0.316726  0.402745  1
  Y  Y11  1  0.973768  0.182103  0.097223  1
  Y  Y12  1  0.524113  0.681429  0.905155  1
  Y  Y13  1  0.026277  0.817828  0.596055  1
  Tm  Tm14  1  0.678360  0.180111  0.624766  1
  Tm  Tm15  1  0.188455  0.325041  0.875049  1
  Tm  Tm16  1  0.843862  0.509812  0.749874  1
  Tm  Tm17  1  0.355539  0.985342  0.750048  1
  Tm  Tm18  1  0.148799  0.485344  0.249887  1
  Tm  Tm19  1  0.648555  0.013285  0.250101  1
  Si  Si20  1  0.648221  0.973425  0.460242  1
  Si  Si21  1  0.147760  0.526278  0.039416  1
  Si  Si22  1  0.349399  0.028117  0.959730  1
  Si  Si23  1  0.850748  0.470176  0.540521  1
  Si  Si24  1  0.353888  0.026635  0.540823  1
  Si  Si25  1  0.854738  0.471525  0.958854  1
  Si  Si26  1  0.646645  0.972433  0.040947  1
  Si  Si27  1  0.146132  0.527051  0.459488  1
  Si  Si28  1  0.981542  0.102514  0.749872  1
  Si  Si29  1  0.519359  0.601872  0.250013  1
  Si  Si30  1  0.019160  0.896760  0.250028  1
  Si  Si31  1  0.739456  0.875108  0.749234  1
  Si  Si32  1  0.228051  0.632182  0.750727  1
  Si  Si33  1  0.268165  0.129256  0.249997  1
  Si  Si34  1  0.768432  0.370144  0.250003  1
  Pt  Pt35  1  0.482345  0.403651  0.750060  1
