# generated using pymatgen
data_Nd2Er3Sb3C
_symmetry_space_group_name_H-M   'P 1'
_cell_length_a   9.10195300
_cell_length_b   9.10195366
_cell_length_c   6.48803700
_cell_angle_alpha   90.00000000
_cell_angle_beta   90.00000000
_cell_angle_gamma   120.00000122
_symmetry_Int_Tables_number   1
_chemical_formula_structural   Nd2Er3Sb3C
_chemical_formula_sum   'Nd4 Er6 Sb6 C2'
_cell_volume   465.49299851
_cell_formula_units_Z   2
loop_
 _symmetry_equiv_pos_site_id
 _symmetry_equiv_pos_as_xyz
  1  'x, y, z'
loop_
 _atom_site_type_symbol
 _atom_site_label
 _atom_site_symmetry_multiplicity
 _atom_site_fract_x
 _atom_site_fract_y
 _atom_site_fract_z
 _atom_site_occupancy
  Nd  Nd0  1  0.666667  0.333333  0.500000  1
  Nd  Nd1  1  0.333333  0.666667  0.500000  1
  Nd  Nd2  1  0.333333  0.666667  0.000000  1
  Nd  Nd3  1  0.666667  0.333333  0.000000  1
  Er  Er4  1  0.793217  0.793217  0.250000  1
  Er  Er5  1  0.206783  0.000000  0.250000  1
  Er  Er6  1  0.000000  0.206783  0.250000  1
  Er  Er7  1  0.206783  0.206783  0.750000  1
  Er  Er8  1  0.793217  0.000000  0.750000  1
  Er  Er9  1  0.000000  0.793217  0.750000  1
  Sb  Sb10  1  0.394262  0.394262  0.250000  1
  Sb  Sb11  1  0.605738  0.000000  0.250000  1
  Sb  Sb12  1  0.000000  0.605738  0.250000  1
  Sb  Sb13  1  0.605738  0.605738  0.750000  1
  Sb  Sb14  1  0.394262  0.000000  0.750000  1
  Sb  Sb15  1  0.000000  0.394262  0.750000  1
  C  C16  1  0.000000  0.000000  0.500000  1
  C  C17  1  0.000000  0.000000  0.000000  1
