# generated using pymatgen
data_Ce3Y13(ErIr3)4
_symmetry_space_group_name_H-M   'P 1'
_cell_length_a   11.07576979
_cell_length_b   10.95989499
_cell_length_c   6.34658900
_cell_angle_alpha   90.04043678
_cell_angle_beta   89.82144071
_cell_angle_gamma   89.82489184
_symmetry_Int_Tables_number   1
_chemical_formula_structural   Ce3Y13(ErIr3)4
_chemical_formula_sum   'Ce3 Y13 Er4 Ir12'
_cell_volume   770.40029338
_cell_formula_units_Z   1
loop_
 _symmetry_equiv_pos_site_id
 _symmetry_equiv_pos_as_xyz
  1  'x, y, z'
loop_
 _atom_site_type_symbol
 _atom_site_label
 _atom_site_symmetry_multiplicity
 _atom_site_fract_x
 _atom_site_fract_y
 _atom_site_fract_z
 _atom_site_occupancy
  Ce  Ce0  1  0.292724  0.091763  0.385226  1
  Ce  Ce1  1  0.293057  0.907002  0.884638  1
  Ce  Ce2  1  0.705262  0.090366  0.885721  1
  Y  Y3  1  0.706063  0.909620  0.380008  1
  Y  Y4  1  0.590254  0.786503  0.880172  1
  Y  Y5  1  0.588737  0.211136  0.380787  1
  Y  Y6  1  0.415527  0.786226  0.380604  1
  Y  Y7  1  0.409737  0.214861  0.880358  1
  Y  Y8  1  0.207233  0.414372  0.619572  1
  Y  Y9  1  0.207729  0.587843  0.121216  1
  Y  Y10  1  0.792536  0.412911  0.118685  1
  Y  Y11  1  0.793050  0.588125  0.620379  1
  Y  Y12  1  0.912112  0.710006  0.118902  1
  Y  Y13  1  0.912554  0.289767  0.615632  1
  Y  Y14  1  0.087263  0.710207  0.618295  1
  Y  Y15  1  0.088247  0.291082  0.114509  1
  Er  Er16  1  0.996771  0.998483  0.490656  1
  Er  Er17  1  0.000856  0.000575  0.991328  1
  Er  Er18  1  0.499659  0.499392  0.012223  1
  Er  Er19  1  0.501731  0.499016  0.512549  1
  Ir  Ir20  1  0.846712  0.151815  0.236700  1
  Ir  Ir21  1  0.846508  0.849854  0.749078  1
  Ir  Ir22  1  0.153794  0.150711  0.736460  1
  Ir  Ir23  1  0.156002  0.850446  0.241943  1
  Ir  Ir24  1  0.650478  0.344757  0.758132  1
  Ir  Ir25  1  0.652398  0.649048  0.254787  1
  Ir  Ir26  1  0.348683  0.347289  0.259776  1
  Ir  Ir27  1  0.349812  0.654308  0.758290  1
  Ir  Ir28  1  0.496405  0.001257  0.121157  1
  Ir  Ir29  1  0.498081  0.000093  0.628021  1
  Ir  Ir30  1  0.000211  0.500434  0.871740  1
  Ir  Ir31  1  0.999815  0.500731  0.372456  1
