# generated using pymatgen
data_TmFeCoO5
_symmetry_space_group_name_H-M   'P 1'
_cell_length_a   5.75370200
_cell_length_b   7.21130800
_cell_length_c   8.45285000
_cell_angle_alpha   90.00000000
_cell_angle_beta   90.00000000
_cell_angle_gamma   90.00000000
_symmetry_Int_Tables_number   1
_chemical_formula_structural   TmFeCoO5
_chemical_formula_sum   'Tm4 Fe4 Co4 O20'
_cell_volume   350.72326226
_cell_formula_units_Z   4
loop_
 _symmetry_equiv_pos_site_id
 _symmetry_equiv_pos_as_xyz
  1  'x, y, z'
loop_
 _atom_site_type_symbol
 _atom_site_label
 _atom_site_symmetry_multiplicity
 _atom_site_fract_x
 _atom_site_fract_y
 _atom_site_fract_z
 _atom_site_occupancy
  Tm  Tm0  1  0.500000  0.365900  0.330924  1
  Tm  Tm1  1  0.500000  0.634100  0.669076  1
  Tm  Tm2  1  0.500000  0.134100  0.830924  1
  Tm  Tm3  1  0.500000  0.865900  0.169076  1
  Fe  Fe4  1  0.000000  0.108713  0.147891  1
  Fe  Fe5  1  0.000000  0.891287  0.852109  1
  Fe  Fe6  1  0.000000  0.391287  0.647891  1
  Fe  Fe7  1  0.000000  0.608713  0.352109  1
  Co  Co8  1  0.251456  0.000000  0.500000  1
  Co  Co9  1  0.748544  0.000000  0.500000  1
  Co  Co10  1  0.748544  0.500000  0.000000  1
  Co  Co11  1  0.251456  0.500000  0.000000  1
  O  O12  1  0.237409  0.000000  0.000000  1
  O  O13  1  0.762591  0.000000  0.000000  1
  O  O14  1  0.762591  0.500000  0.500000  1
  O  O15  1  0.237409  0.500000  0.500000  1
  O  O16  1  0.000000  0.353919  0.070075  1
  O  O17  1  0.000000  0.646081  0.929925  1
  O  O18  1  0.000000  0.146081  0.570075  1
  O  O19  1  0.000000  0.853919  0.429925  1
  O  O20  1  0.262142  0.107900  0.297469  1
  O  O21  1  0.737858  0.892100  0.702531  1
  O  O22  1  0.262142  0.892100  0.702531  1
  O  O23  1  0.737858  0.392100  0.797469  1
  O  O24  1  0.737858  0.107900  0.297469  1
  O  O25  1  0.262142  0.607900  0.202531  1
  O  O26  1  0.737858  0.607900  0.202531  1
  O  O27  1  0.262142  0.392100  0.797469  1
  O  O28  1  0.500000  0.339834  0.058184  1
  O  O29  1  0.500000  0.660166  0.941816  1
  O  O30  1  0.500000  0.160166  0.558184  1
  O  O31  1  0.500000  0.839834  0.441816  1
