# generated using pymatgen
data_Ba3Lu2ReO9
_symmetry_space_group_name_H-M   'P 1'
_cell_length_a   5.98853184
_cell_length_b   8.49492859
_cell_length_c   10.38108837
_cell_angle_alpha   65.84829920
_cell_angle_beta   73.23572893
_cell_angle_gamma   89.99999584
_symmetry_Int_Tables_number   1
_chemical_formula_structural   Ba3Lu2ReO9
_chemical_formula_sum   'Ba6 Lu4 Re2 O18'
_cell_volume   457.17173134
_cell_formula_units_Z   2
loop_
 _symmetry_equiv_pos_site_id
 _symmetry_equiv_pos_as_xyz
  1  'x, y, z'
loop_
 _atom_site_type_symbol
 _atom_site_label
 _atom_site_symmetry_multiplicity
 _atom_site_fract_x
 _atom_site_fract_y
 _atom_site_fract_z
 _atom_site_occupancy
  Ba  Ba0  1  0.500000  0.264176  0.000000  1
  Ba  Ba1  1  0.839107  0.580918  0.321784  1
  Ba  Ba2  1  0.160893  0.902704  0.678216  1
  Ba  Ba3  1  0.500000  0.735824  0.000000  1
  Ba  Ba4  1  0.839107  0.097296  0.321784  1
  Ba  Ba5  1  0.160893  0.419082  0.678216  1
  Lu  Lu6  1  0.000000  0.000000  0.000000  1
  Lu  Lu7  1  0.330196  0.330196  0.339608  1
  Lu  Lu8  1  0.669804  0.669804  0.660392  1
  Lu  Lu9  1  0.000000  0.500000  0.000000  1
  Re  Re10  1  0.333778  0.833778  0.332442  1
  Re  Re11  1  0.666222  0.166222  0.667557  1
  O  O12  1  0.000000  0.246379  0.000000  1
  O  O13  1  0.330924  0.599039  0.338150  1
  O  O14  1  0.669076  0.937192  0.661850  1
  O  O15  1  0.162345  0.411444  0.177114  1
  O  O16  1  0.491256  0.758897  0.482205  1
  O  O17  1  0.819880  0.089187  0.821624  1
  O  O18  1  0.339457  0.588556  0.822886  1
  O  O19  1  0.641504  0.910813  0.178376  1
  O  O20  1  0.973463  0.241103  0.517795  1
  O  O21  1  0.000000  0.753621  0.000000  1
  O  O22  1  0.330924  0.062808  0.338150  1
  O  O23  1  0.669076  0.400961  0.661850  1
  O  O24  1  0.837655  0.588556  0.822886  1
  O  O25  1  0.180120  0.910813  0.178376  1
  O  O26  1  0.508744  0.241103  0.517795  1
  O  O27  1  0.660543  0.411444  0.177114  1
  O  O28  1  0.026537  0.758897  0.482205  1
  O  O29  1  0.358496  0.089187  0.821624  1
