# generated using pymatgen
data_Pr5SiP11Ru9Rh10
_symmetry_space_group_name_H-M   'P 1'
_cell_length_a   12.80622676
_cell_length_b   12.76082272
_cell_length_c   3.98000400
_cell_angle_alpha   90.00000000
_cell_angle_beta   90.00000000
_cell_angle_gamma   120.01876725
_symmetry_Int_Tables_number   1
_chemical_formula_structural   Pr5SiP11Ru9Rh10
_chemical_formula_sum   'Pr5 Si1 P11 Ru9 Rh10'
_cell_volume   563.16005442
_cell_formula_units_Z   1
loop_
 _symmetry_equiv_pos_site_id
 _symmetry_equiv_pos_as_xyz
  1  'x, y, z'
loop_
 _atom_site_type_symbol
 _atom_site_label
 _atom_site_symmetry_multiplicity
 _atom_site_fract_x
 _atom_site_fract_y
 _atom_site_fract_z
 _atom_site_occupancy
  Pr  Pr0  1  0.813177  0.999464  0.500000  1
  Pr  Pr1  1  0.000405  0.814021  0.500000  1
  Pr  Pr2  1  0.185650  0.185713  0.500000  1
  Pr  Pr3  1  0.332451  0.665818  0.000000  1
  Pr  Pr4  1  0.666618  0.333209  0.000000  1
  Si  Si5  1  0.521206  0.686414  0.500000  1
  P  P6  1  0.185897  0.000306  0.000000  1
  P  P7  1  0.998682  0.184864  0.000000  1
  P  P8  1  0.815187  0.814737  0.000000  1
  P  P9  1  0.310172  0.829105  0.500000  1
  P  P10  1  0.169698  0.479700  0.500000  1
  P  P11  1  0.480783  0.171308  0.500000  1
  P  P12  1  0.691573  0.519407  0.500000  1
  P  P13  1  0.828757  0.309595  0.500000  1
  P  P14  1  0.625387  0.998565  0.000000  1
  P  P15  1  0.999828  0.626553  0.000000  1
  P  P16  1  0.373666  0.374891  0.000000  1
  Ru  Ru17  1  0.287658  0.000303  0.500000  1
  Ru  Ru18  1  0.998517  0.286692  0.500000  1
  Ru  Ru19  1  0.718469  0.713698  0.500000  1
  Ru  Ru20  1  0.512527  0.878038  0.500000  1
  Ru  Ru21  1  0.124362  0.637048  0.500000  1
  Ru  Ru22  1  0.357524  0.479859  0.500000  1
  Ru  Ru23  1  0.488921  0.364129  0.500000  1
  Ru  Ru24  1  0.875982  0.511961  0.500000  1
  Ru  Ru25  1  0.636921  0.125589  0.500000  1
  Rh  Rh26  1  0.448968  0.002816  0.000000  1
  Rh  Rh27  1  0.999720  0.448368  0.000000  1
  Rh  Rh28  1  0.550608  0.555976  0.000000  1
  Rh  Rh29  1  0.625451  0.808046  0.000000  1
  Rh  Rh30  1  0.195190  0.817927  0.000000  1
  Rh  Rh31  1  0.179448  0.375628  0.000000  1
  Rh  Rh32  1  0.377149  0.183247  0.000000  1
  Rh  Rh33  1  0.805791  0.621776  0.000000  1
  Rh  Rh34  1  0.816795  0.194515  0.000000  1
  Rh  Rh35  1  0.000862  0.000712  0.000000  1
