# generated using pymatgen
data_HoTm9(IrPb3)2
_symmetry_space_group_name_H-M   'P 1'
_cell_length_a   9.13104700
_cell_length_b   9.13104617
_cell_length_c   6.77984500
_cell_angle_alpha   90.00000000
_cell_angle_beta   90.00000000
_cell_angle_gamma   119.99999937
_symmetry_Int_Tables_number   1
_chemical_formula_structural   HoTm9(IrPb3)2
_chemical_formula_sum   'Ho1 Tm9 Ir2 Pb6'
_cell_volume   489.54375732
_cell_formula_units_Z   1
loop_
 _symmetry_equiv_pos_site_id
 _symmetry_equiv_pos_as_xyz
  1  'x, y, z'
loop_
 _atom_site_type_symbol
 _atom_site_label
 _atom_site_symmetry_multiplicity
 _atom_site_fract_x
 _atom_site_fract_y
 _atom_site_fract_z
 _atom_site_occupancy
  Ho  Ho0  1  0.333333  0.666667  0.500000  1
  Tm  Tm1  1  0.764946  0.764896  0.249947  1
  Tm  Tm2  1  0.999951  0.764896  0.750053  1
  Tm  Tm3  1  0.235104  0.000049  0.249947  1
  Tm  Tm4  1  0.235104  0.235054  0.750053  1
  Tm  Tm5  1  0.999951  0.235054  0.249947  1
  Tm  Tm6  1  0.666667  0.333333  0.500000  1
  Tm  Tm7  1  0.764946  0.000049  0.750053  1
  Tm  Tm8  1  0.333333  0.666667  0.000000  1
  Tm  Tm9  1  0.666667  0.333333  0.000000  1
  Ir  Ir10  1  0.000000  0.000000  0.000000  1
  Ir  Ir11  1  0.000000  0.000000  0.500000  1
  Pb  Pb12  1  0.405328  0.000214  0.750145  1
  Pb  Pb13  1  0.594886  0.000214  0.249855  1
  Pb  Pb14  1  0.405328  0.405114  0.249855  1
  Pb  Pb15  1  0.999786  0.594672  0.249855  1
  Pb  Pb16  1  0.999786  0.405114  0.750145  1
  Pb  Pb17  1  0.594886  0.594672  0.750145  1
