# generated using pymatgen
data_TbIn6RhBr12
_symmetry_space_group_name_H-M   'P 1'
_cell_length_a   9.22387152
_cell_length_b   9.22387058
_cell_length_c   9.22387000
_cell_angle_alpha   104.76039698
_cell_angle_beta   104.76040186
_cell_angle_gamma   104.76040350
_symmetry_Int_Tables_number   1
_chemical_formula_structural   TbIn6RhBr12
_chemical_formula_sum   'Tb1 In6 Rh1 Br12'
_cell_volume   689.60674829
_cell_formula_units_Z   1
loop_
 _symmetry_equiv_pos_site_id
 _symmetry_equiv_pos_as_xyz
  1  'x, y, z'
loop_
 _atom_site_type_symbol
 _atom_site_label
 _atom_site_symmetry_multiplicity
 _atom_site_fract_x
 _atom_site_fract_y
 _atom_site_fract_z
 _atom_site_occupancy
  Tb  Tb0  1  0.500000  0.500000  0.500000  1
  In  In1  1  0.046325  0.062759  0.308851  1
  In  In2  1  0.308851  0.046325  0.062759  1
  In  In3  1  0.062759  0.308851  0.046325  1
  In  In4  1  0.953675  0.937241  0.691149  1
  In  In5  1  0.691149  0.953675  0.937241  1
  In  In6  1  0.937241  0.691149  0.953675  1
  Rh  Rh7  1  0.000000  0.000000  0.000000  1
  Br  Br8  1  0.982366  0.558571  0.193201  1
  Br  Br9  1  0.193201  0.982366  0.558571  1
  Br  Br10  1  0.558571  0.193201  0.982366  1
  Br  Br11  1  0.017634  0.441429  0.806799  1
  Br  Br12  1  0.806799  0.017634  0.441429  1
  Br  Br13  1  0.441429  0.806799  0.017634  1
  Br  Br14  1  0.490654  0.182739  0.385438  1
  Br  Br15  1  0.385438  0.490654  0.182739  1
  Br  Br16  1  0.182739  0.385438  0.490654  1
  Br  Br17  1  0.509346  0.817261  0.614562  1
  Br  Br18  1  0.614562  0.509346  0.817261  1
  Br  Br19  1  0.817261  0.614562  0.509346  1
