# generated using pymatgen
data_K10Zr2AsP5
_symmetry_space_group_name_H-M   'P 1'
_cell_length_a   8.34120300
_cell_length_b   9.00914835
_cell_length_c   17.58323846
_cell_angle_alpha   60.01914336
_cell_angle_beta   90.00000000
_cell_angle_gamma   90.00000000
_symmetry_Int_Tables_number   1
_chemical_formula_structural   K10Zr2AsP5
_chemical_formula_sum   'K20 Zr4 As2 P10'
_cell_volume   1144.52601878
_cell_formula_units_Z   2
loop_
 _symmetry_equiv_pos_site_id
 _symmetry_equiv_pos_as_xyz
  1  'x, y, z'
loop_
 _atom_site_type_symbol
 _atom_site_label
 _atom_site_symmetry_multiplicity
 _atom_site_fract_x
 _atom_site_fract_y
 _atom_site_fract_z
 _atom_site_occupancy
  K  K0  1  0.167163  0.846074  0.744128  1
  K  K1  1  0.667163  0.153926  0.755872  1
  K  K2  1  0.833902  0.156860  0.258125  1
  K  K3  1  0.333902  0.843140  0.241875  1
  K  K4  1  0.163060  0.170603  0.415387  1
  K  K5  1  0.663060  0.829397  0.084613  1
  K  K6  1  0.827594  0.835264  0.581151  1
  K  K7  1  0.327594  0.164736  0.918849  1
  K  K8  1  0.010393  0.077788  0.093794  1
  K  K9  1  0.510393  0.922212  0.406206  1
  K  K10  1  0.987783  0.915948  0.911823  1
  K  K11  1  0.487783  0.084052  0.588177  1
  K  K12  1  0.518115  0.261502  0.079187  1
  K  K13  1  0.018115  0.738498  0.420813  1
  K  K14  1  0.484373  0.742300  0.922228  1
  K  K15  1  0.984373  0.257700  0.577772  1
  K  K16  1  0.977435  0.548830  0.256363  1
  K  K17  1  0.477435  0.451170  0.243637  1
  K  K18  1  0.019815  0.455117  0.740646  1
  K  K19  1  0.519815  0.544883  0.759354  1
  Zr  Zr20  1  0.371280  0.494765  0.580190  1
  Zr  Zr21  1  0.871280  0.505235  0.919810  1
  Zr  Zr22  1  0.633586  0.503817  0.418159  1
  Zr  Zr23  1  0.133586  0.496183  0.081841  1
  As  As24  1  0.747475  0.230136  0.922984  1
  As  As25  1  0.247475  0.769864  0.577016  1
  P  P26  1  0.323481  0.487668  0.436466  1
  P  P27  1  0.823481  0.512332  0.063534  1
  P  P28  1  0.679959  0.510908  0.562323  1
  P  P29  1  0.179959  0.489092  0.937677  1
  P  P30  1  0.215168  0.216697  0.217240  1
  P  P31  1  0.715168  0.783303  0.282760  1
  P  P32  1  0.787001  0.779954  0.784007  1
  P  P33  1  0.287001  0.220046  0.715993  1
  P  P34  1  0.252418  0.760041  0.079419  1
  P  P35  1  0.752418  0.239959  0.420581  1
