# generated using pymatgen
data_Tb2Fe3B8Os5
_symmetry_space_group_name_H-M   'P 1'
_cell_length_a   7.34658632
_cell_length_b   7.29054454
_cell_length_c   3.97758016
_cell_angle_alpha   90.17352864
_cell_angle_beta   89.71751091
_cell_angle_gamma   88.92081641
_symmetry_Int_Tables_number   1
_chemical_formula_structural   Tb2Fe3B8Os5
_chemical_formula_sum   'Tb2 Fe3 B8 Os5'
_cell_volume   213.00022241
_cell_formula_units_Z   1
loop_
 _symmetry_equiv_pos_site_id
 _symmetry_equiv_pos_as_xyz
  1  'x, y, z'
loop_
 _atom_site_type_symbol
 _atom_site_label
 _atom_site_symmetry_multiplicity
 _atom_site_fract_x
 _atom_site_fract_y
 _atom_site_fract_z
 _atom_site_occupancy
  Tb  Tb0  1  0.996878  0.998064  0.078111  1
  Tb  Tb1  1  0.508290  0.502094  0.603944  1
  Fe  Fe2  1  0.115255  0.376785  0.872359  1
  Fe  Fe3  1  0.873269  0.610885  0.874175  1
  Fe  Fe4  1  0.878941  0.374262  0.371850  1
  B  B5  1  0.675387  0.769523  0.096884  1
  B  B6  1  0.321817  0.226687  0.101065  1
  B  B7  1  0.276377  0.832593  0.603258  1
  B  B8  1  0.729742  0.174857  0.598640  1
  B  B9  1  0.835838  0.681279  0.377190  1
  B  B10  1  0.154161  0.312831  0.374267  1
  B  B11  1  0.196075  0.664175  0.877338  1
  B  B12  1  0.815215  0.338360  0.876137  1
  Os  Os13  1  0.118410  0.619549  0.375538  1
  Os  Os14  1  0.343054  0.114402  0.606181  1
  Os  Os15  1  0.657266  0.894089  0.603730  1
  Os  Os16  1  0.607829  0.159774  0.105012  1
  Os  Os17  1  0.396196  0.849791  0.104325  1
