# generated using pymatgen
data_Y7Ni3Sn23Ru3
_symmetry_space_group_name_H-M   'P 1'
_cell_length_a   9.82183800
_cell_length_b   9.82183781
_cell_length_c   10.04861200
_cell_angle_alpha   90.00000000
_cell_angle_beta   90.00000000
_cell_angle_gamma   120.00000064
_symmetry_Int_Tables_number   1
_chemical_formula_structural   Y7Ni3Sn23Ru3
_chemical_formula_sum   'Y7 Ni3 Sn23 Ru3'
_cell_volume   839.50295900
_cell_formula_units_Z   1
loop_
 _symmetry_equiv_pos_site_id
 _symmetry_equiv_pos_as_xyz
  1  'x, y, z'
loop_
 _atom_site_type_symbol
 _atom_site_label
 _atom_site_symmetry_multiplicity
 _atom_site_fract_x
 _atom_site_fract_y
 _atom_site_fract_z
 _atom_site_occupancy
  Y  Y0  1  0.000000  0.000000  0.018123  1
  Y  Y1  1  0.040371  0.520185  0.305128  1
  Y  Y2  1  0.479815  0.959629  0.305128  1
  Y  Y3  1  0.479815  0.520185  0.305128  1
  Y  Y4  1  0.954230  0.477115  0.692409  1
  Y  Y5  1  0.522885  0.045770  0.692409  1
  Y  Y6  1  0.522885  0.477115  0.692409  1
  Ni  Ni7  1  0.169352  0.830648  0.800353  1
  Ni  Ni8  1  0.661295  0.830648  0.800353  1
  Ni  Ni9  1  0.169352  0.338705  0.800353  1
  Sn  Sn10  1  0.000000  0.000000  0.507544  1
  Sn  Sn11  1  0.118718  0.881282  0.279992  1
  Sn  Sn12  1  0.762563  0.881282  0.279992  1
  Sn  Sn13  1  0.118718  0.237437  0.279992  1
  Sn  Sn14  1  0.881108  0.118892  0.723701  1
  Sn  Sn15  1  0.237784  0.118892  0.723701  1
  Sn  Sn16  1  0.881108  0.762216  0.723701  1
  Sn  Sn17  1  0.346157  0.996967  0.997239  1
  Sn  Sn18  1  0.650810  0.653843  0.997239  1
  Sn  Sn19  1  0.003033  0.349190  0.997239  1
  Sn  Sn20  1  0.346157  0.349190  0.997239  1
  Sn  Sn21  1  0.003033  0.653843  0.997239  1
  Sn  Sn22  1  0.650810  0.996967  0.997239  1
  Sn  Sn23  1  0.779142  0.558285  0.454322  1
  Sn  Sn24  1  0.779142  0.220858  0.454322  1
  Sn  Sn25  1  0.441715  0.220858  0.454322  1
  Sn  Sn26  1  0.219742  0.439483  0.547113  1
  Sn  Sn27  1  0.219742  0.780258  0.547113  1
  Sn  Sn28  1  0.560517  0.780258  0.547113  1
  Sn  Sn29  1  0.666667  0.333333  0.177316  1
  Sn  Sn30  1  0.333333  0.666667  0.816698  1
  Sn  Sn31  1  0.666667  0.333333  0.880674  1
  Sn  Sn32  1  0.333333  0.666667  0.114882  1
  Ru  Ru33  1  0.832888  0.167112  0.197425  1
  Ru  Ru34  1  0.334226  0.167112  0.197425  1
  Ru  Ru35  1  0.832888  0.665774  0.197425  1
