# generated using pymatgen
data_YLu3(ZrPt)4
_symmetry_space_group_name_H-M   'P 1'
_cell_length_a   4.67583900
_cell_length_b   7.03914427
_cell_length_c   8.22624971
_cell_angle_alpha   89.86642864
_cell_angle_beta   90.00000000
_cell_angle_gamma   90.00000000
_symmetry_Int_Tables_number   1
_chemical_formula_structural   YLu3(ZrPt)4
_chemical_formula_sum   'Y1 Lu3 Zr4 Pt4'
_cell_volume   270.75726813
_cell_formula_units_Z   1
loop_
 _symmetry_equiv_pos_site_id
 _symmetry_equiv_pos_as_xyz
  1  'x, y, z'
loop_
 _atom_site_type_symbol
 _atom_site_label
 _atom_site_symmetry_multiplicity
 _atom_site_fract_x
 _atom_site_fract_y
 _atom_site_fract_z
 _atom_site_occupancy
  Y  Y0  1  0.250000  0.516103  0.177959  1
  Lu  Lu1  1  0.750000  0.482570  0.821713  1
  Lu  Lu2  1  0.750000  0.981915  0.678235  1
  Lu  Lu3  1  0.250000  0.017144  0.323443  1
  Zr  Zr4  1  0.250000  0.649029  0.579847  1
  Zr  Zr5  1  0.750000  0.350798  0.422958  1
  Zr  Zr6  1  0.750000  0.852486  0.078936  1
  Zr  Zr7  1  0.250000  0.147751  0.919652  1
  Pt  Pt8  1  0.250000  0.768219  0.900963  1
  Pt  Pt9  1  0.750000  0.232048  0.094615  1
  Pt  Pt10  1  0.750000  0.735852  0.406524  1
  Pt  Pt11  1  0.250000  0.266085  0.595156  1
