# generated using pymatgen
data_Eu5Ni2Au
_symmetry_space_group_name_H-M   'P 1'
_cell_length_a   9.04666681
_cell_length_b   9.04666695
_cell_length_c   9.04666649
_cell_angle_alpha   129.45539070
_cell_angle_beta   129.45538828
_cell_angle_gamma   74.27892151
_symmetry_Int_Tables_number   1
_chemical_formula_structural   Eu5Ni2Au
_chemical_formula_sum   'Eu10 Ni4 Au2'
_cell_volume   430.29910431
_cell_formula_units_Z   2
loop_
 _symmetry_equiv_pos_site_id
 _symmetry_equiv_pos_as_xyz
  1  'x, y, z'
loop_
 _atom_site_type_symbol
 _atom_site_label
 _atom_site_symmetry_multiplicity
 _atom_site_fract_x
 _atom_site_fract_y
 _atom_site_fract_z
 _atom_site_occupancy
  Eu  Eu0  1  0.500000  0.500000  0.000000  1
  Eu  Eu1  1  0.000000  0.000000  0.000000  1
  Eu  Eu2  1  0.532913  0.032913  0.842606  1
  Eu  Eu3  1  0.190306  0.690306  0.157394  1
  Eu  Eu4  1  0.032913  0.190306  0.500000  1
  Eu  Eu5  1  0.690306  0.532913  0.500000  1
  Eu  Eu6  1  0.467087  0.967087  0.157394  1
  Eu  Eu7  1  0.809694  0.309694  0.842606  1
  Eu  Eu8  1  0.967087  0.809694  0.500000  1
  Eu  Eu9  1  0.309694  0.467087  0.500000  1
  Ni  Ni10  1  0.112485  0.612485  0.724968  1
  Ni  Ni11  1  0.887515  0.387515  0.275032  1
  Ni  Ni12  1  0.612485  0.887515  0.500000  1
  Ni  Ni13  1  0.387515  0.112485  0.500000  1
  Au  Au14  1  0.250000  0.250000  0.000000  1
  Au  Au15  1  0.750000  0.750000  0.000000  1
