# generated using pymatgen
data_DyEr2Mg2ZnSi2Ag
_symmetry_space_group_name_H-M   'P 1'
_cell_length_a   7.08412600
_cell_length_b   7.07897326
_cell_length_c   4.33343300
_cell_angle_alpha   90.00000000
_cell_angle_beta   90.00000000
_cell_angle_gamma   120.49259219
_symmetry_Int_Tables_number   1
_chemical_formula_structural   DyEr2Mg2ZnSi2Ag
_chemical_formula_sum   'Dy1 Er2 Mg2 Zn1 Si2 Ag1'
_cell_volume   187.25873864
_cell_formula_units_Z   1
loop_
 _symmetry_equiv_pos_site_id
 _symmetry_equiv_pos_as_xyz
  1  'x, y, z'
loop_
 _atom_site_type_symbol
 _atom_site_label
 _atom_site_symmetry_multiplicity
 _atom_site_fract_x
 _atom_site_fract_y
 _atom_site_fract_z
 _atom_site_occupancy
  Dy  Dy0  1  0.999834  0.577256  0.500000  1
  Er  Er1  1  0.432926  0.432807  0.500000  1
  Er  Er2  1  0.577203  0.999593  0.500000  1
  Mg  Mg3  1  0.240808  0.996405  0.000000  1
  Mg  Mg4  1  0.996002  0.240044  0.000000  1
  Zn  Zn5  1  0.746447  0.746391  0.000000  1
  Si  Si6  1  0.668897  0.341763  0.000000  1
  Si  Si7  1  0.342875  0.669704  0.000000  1
  Ag  Ag8  1  0.995008  0.996038  0.500000  1
