# generated using pymatgen
data_Zr2Al9Co2Os
_symmetry_space_group_name_H-M   'P 1'
_cell_length_a   7.32726243
_cell_length_b   7.32726407
_cell_length_c   9.15090000
_cell_angle_alpha   90.00000000
_cell_angle_beta   90.00000000
_cell_angle_gamma   118.99002001
_symmetry_Int_Tables_number   1
_chemical_formula_structural   Zr2Al9Co2Os
_chemical_formula_sum   'Zr4 Al18 Co4 Os2'
_cell_volume   429.74277232
_cell_formula_units_Z   2
loop_
 _symmetry_equiv_pos_site_id
 _symmetry_equiv_pos_as_xyz
  1  'x, y, z'
loop_
 _atom_site_type_symbol
 _atom_site_label
 _atom_site_symmetry_multiplicity
 _atom_site_fract_x
 _atom_site_fract_y
 _atom_site_fract_z
 _atom_site_occupancy
  Zr  Zr0  1  0.991677  0.678814  0.250000  1
  Zr  Zr1  1  0.008323  0.321186  0.750000  1
  Zr  Zr2  1  0.678814  0.991677  0.250000  1
  Zr  Zr3  1  0.321186  0.008323  0.750000  1
  Al  Al4  1  0.994896  0.340652  0.074530  1
  Al  Al5  1  0.005104  0.659348  0.925470  1
  Al  Al6  1  0.005104  0.659348  0.574530  1
  Al  Al7  1  0.340653  0.994896  0.425470  1
  Al  Al8  1  0.994896  0.340652  0.425470  1
  Al  Al9  1  0.659347  0.005104  0.574530  1
  Al  Al10  1  0.659347  0.005104  0.925470  1
  Al  Al11  1  0.340653  0.994896  0.074530  1
  Al  Al12  1  0.340474  0.567192  0.250000  1
  Al  Al13  1  0.659526  0.432808  0.750000  1
  Al  Al14  1  0.567192  0.340474  0.250000  1
  Al  Al15  1  0.432808  0.659526  0.750000  1
  Al  Al16  1  0.336332  0.336332  0.551053  1
  Al  Al17  1  0.663668  0.663668  0.448947  1
  Al  Al18  1  0.663668  0.663668  0.051053  1
  Al  Al19  1  0.336332  0.336332  0.948947  1
  Al  Al20  1  0.135078  0.135078  0.250000  1
  Al  Al21  1  0.864922  0.864922  0.750000  1
  Co  Co22  1  0.671444  0.328556  0.000000  1
  Co  Co23  1  0.328556  0.671444  0.000000  1
  Co  Co24  1  0.328556  0.671444  0.500000  1
  Co  Co25  1  0.671444  0.328556  0.500000  1
  Os  Os26  1  0.000000  0.000000  0.000000  1
  Os  Os27  1  0.000000  0.000000  0.500000  1
