# generated using pymatgen
data_Pa8Mn(FeO8)3
_symmetry_space_group_name_H-M   'P 1'
_cell_length_a   5.40046900
_cell_length_b   5.36663699
_cell_length_c   15.93302435
_cell_angle_alpha   89.78105349
_cell_angle_beta   90.00000000
_cell_angle_gamma   90.00000000
_symmetry_Int_Tables_number   1
_chemical_formula_structural   Pa8Mn(FeO8)3
_chemical_formula_sum   'Pa8 Mn1 Fe3 O24'
_cell_volume   461.77322371
_cell_formula_units_Z   1
loop_
 _symmetry_equiv_pos_site_id
 _symmetry_equiv_pos_as_xyz
  1  'x, y, z'
loop_
 _atom_site_type_symbol
 _atom_site_label
 _atom_site_symmetry_multiplicity
 _atom_site_fract_x
 _atom_site_fract_y
 _atom_site_fract_z
 _atom_site_occupancy
  Pa  Pa0  1  0.256633  0.458485  0.659137  1
  Pa  Pa1  1  0.242712  0.956383  0.842248  1
  Pa  Pa2  1  0.242712  0.043617  0.157752  1
  Pa  Pa3  1  0.256633  0.541515  0.340863  1
  Pa  Pa4  1  0.744993  0.040501  0.340639  1
  Pa  Pa5  1  0.755323  0.543348  0.157681  1
  Pa  Pa6  1  0.755323  0.456652  0.842319  1
  Pa  Pa7  1  0.744993  0.959499  0.659361  1
  Mn  Mn8  1  0.795760  0.500000  0.500000  1
  Fe  Fe9  1  0.299942  0.500000  0.000000  1
  Fe  Fe10  1  0.205117  0.000000  0.500000  1
  Fe  Fe11  1  0.697342  0.000000  0.000000  1
  O  O12  1  0.057507  0.644511  0.908711  1
  O  O13  1  0.445884  0.150602  0.591449  1
  O  O14  1  0.445884  0.849398  0.408551  1
  O  O15  1  0.057507  0.355489  0.091289  1
  O  O16  1  0.939332  0.855582  0.091347  1
  O  O17  1  0.556072  0.348484  0.407111  1
  O  O18  1  0.556072  0.651516  0.592889  1
  O  O19  1  0.939332  0.144418  0.908653  1
  O  O20  1  0.025047  0.782891  0.249182  1
  O  O21  1  0.474370  0.281526  0.248879  1
  O  O22  1  0.474370  0.718474  0.751121  1
  O  O23  1  0.025047  0.217109  0.750818  1
  O  O24  1  0.974472  0.716804  0.750347  1
  O  O25  1  0.525120  0.218672  0.750447  1
  O  O26  1  0.525120  0.781328  0.249553  1
  O  O27  1  0.974472  0.283196  0.249653  1
  O  O28  1  0.050046  0.743033  0.586927  1
  O  O29  1  0.447763  0.241499  0.913186  1
  O  O30  1  0.447763  0.758501  0.086814  1
  O  O31  1  0.050046  0.256967  0.413073  1
  O  O32  1  0.956166  0.759691  0.411527  1
  O  O33  1  0.549480  0.259087  0.086322  1
  O  O34  1  0.549480  0.740913  0.913678  1
  O  O35  1  0.956166  0.240309  0.588473  1
