# generated using pymatgen
data_PrTh3Os8
_symmetry_space_group_name_H-M   'P 1'
_cell_length_a   5.42027600
_cell_length_b   5.42027625
_cell_length_c   9.08691300
_cell_angle_alpha   90.00000000
_cell_angle_beta   90.00000000
_cell_angle_gamma   119.99999848
_symmetry_Int_Tables_number   1
_chemical_formula_structural   PrTh3Os8
_chemical_formula_sum   'Pr1 Th3 Os8'
_cell_volume   231.20106544
_cell_formula_units_Z   1
loop_
 _symmetry_equiv_pos_site_id
 _symmetry_equiv_pos_as_xyz
  1  'x, y, z'
loop_
 _atom_site_type_symbol
 _atom_site_label
 _atom_site_symmetry_multiplicity
 _atom_site_fract_x
 _atom_site_fract_y
 _atom_site_fract_z
 _atom_site_occupancy
  Pr  Pr0  1  0.333333  0.666667  0.065195  1
  Th  Th1  1  0.333333  0.666667  0.428671  1
  Th  Th2  1  0.666667  0.333333  0.569127  1
  Th  Th3  1  0.666667  0.333333  0.933372  1
  Os  Os4  1  0.000000  0.000000  0.500205  1
  Os  Os5  1  0.000000  0.000000  0.001695  1
  Os  Os6  1  0.829597  0.170403  0.250778  1
  Os  Os7  1  0.829597  0.659194  0.250778  1
  Os  Os8  1  0.340806  0.170403  0.250778  1
  Os  Os9  1  0.170556  0.829444  0.749800  1
  Os  Os10  1  0.170556  0.341113  0.749800  1
  Os  Os11  1  0.658887  0.829444  0.749800  1
