# generated using pymatgen
data_La5Pr(RuI3)2
_symmetry_space_group_name_H-M   'P 1'
_cell_length_a   4.39267200
_cell_length_b   9.60804762
_cell_length_c   12.60922895
_cell_angle_alpha   87.33885451
_cell_angle_beta   90.00000000
_cell_angle_gamma   90.00000000
_symmetry_Int_Tables_number   1
_chemical_formula_structural   La5Pr(RuI3)2
_chemical_formula_sum   'La5 Pr1 Ru2 I6'
_cell_volume   531.59862989
_cell_formula_units_Z   1
loop_
 _symmetry_equiv_pos_site_id
 _symmetry_equiv_pos_as_xyz
  1  'x, y, z'
loop_
 _atom_site_type_symbol
 _atom_site_label
 _atom_site_symmetry_multiplicity
 _atom_site_fract_x
 _atom_site_fract_y
 _atom_site_fract_z
 _atom_site_occupancy
  La  La0  1  0.750000  0.687953  0.118329  1
  La  La1  1  0.250000  0.312617  0.882652  1
  La  La2  1  0.250000  0.885682  0.328530  1
  La  La3  1  0.750000  0.115098  0.671089  1
  La  La4  1  0.250000  0.902053  0.896770  1
  Pr  Pr5  1  0.750000  0.098035  0.105143  1
  Ru  Ru6  1  0.250000  0.886043  0.126843  1
  Ru  Ru7  1  0.750000  0.112763  0.870741  1
  I  I8  1  0.250000  0.868121  0.618860  1
  I  I9  1  0.750000  0.132794  0.379976  1
  I  I10  1  0.750000  0.636529  0.377608  1
  I  I11  1  0.250000  0.364143  0.623107  1
  I  I12  1  0.250000  0.394292  0.137350  1
  I  I13  1  0.750000  0.603876  0.863005  1
