# generated using pymatgen
data_Cs3KSnS4
_symmetry_space_group_name_H-M   'P 1'
_cell_length_a   8.82041100
_cell_length_b   10.52799500
_cell_length_c   15.63915800
_cell_angle_alpha   90.00000000
_cell_angle_beta   90.00000000
_cell_angle_gamma   90.00000000
_symmetry_Int_Tables_number   1
_chemical_formula_structural   Cs3KSnS4
_chemical_formula_sum   'Cs12 K4 Sn4 S16'
_cell_volume   1452.27164988
_cell_formula_units_Z   4
loop_
 _symmetry_equiv_pos_site_id
 _symmetry_equiv_pos_as_xyz
  1  'x, y, z'
loop_
 _atom_site_type_symbol
 _atom_site_label
 _atom_site_symmetry_multiplicity
 _atom_site_fract_x
 _atom_site_fract_y
 _atom_site_fract_z
 _atom_site_occupancy
  Cs  Cs0  1  0.998925  0.995278  0.994244  1
  Cs  Cs1  1  0.498925  0.004722  0.505756  1
  Cs  Cs2  1  0.001075  0.495278  0.005756  1
  Cs  Cs3  1  0.501075  0.504722  0.494244  1
  Cs  Cs4  1  0.985785  0.754512  0.428143  1
  Cs  Cs5  1  0.485785  0.245488  0.071857  1
  Cs  Cs6  1  0.014215  0.254512  0.571857  1
  Cs  Cs7  1  0.514215  0.745488  0.928143  1
  Cs  Cs8  1  0.830836  0.062124  0.277735  1
  Cs  Cs9  1  0.330836  0.937876  0.222265  1
  Cs  Cs10  1  0.169164  0.562124  0.722265  1
  Cs  Cs11  1  0.669164  0.437876  0.777735  1
  K  K12  1  0.141401  0.958114  0.732136  1
  K  K13  1  0.641401  0.041886  0.767864  1
  K  K14  1  0.858599  0.458114  0.267864  1
  K  K15  1  0.358599  0.541886  0.232136  1
  Sn  Sn16  1  0.762598  0.757727  0.669461  1
  Sn  Sn17  1  0.237402  0.257727  0.330539  1
  Sn  Sn18  1  0.737402  0.742273  0.169461  1
  Sn  Sn19  1  0.262598  0.242273  0.830539  1
  S  S20  1  0.986351  0.236042  0.821841  1
  S  S21  1  0.513649  0.263958  0.321841  1
  S  S22  1  0.486351  0.763958  0.678159  1
  S  S23  1  0.013649  0.736042  0.178159  1
  S  S24  1  0.645887  0.550502  0.101195  1
  S  S25  1  0.145887  0.449498  0.398805  1
  S  S26  1  0.354113  0.050502  0.898805  1
  S  S27  1  0.854113  0.949498  0.601195  1
  S  S28  1  0.344128  0.431815  0.904639  1
  S  S29  1  0.844128  0.568185  0.595361  1
  S  S30  1  0.655872  0.931815  0.095361  1
  S  S31  1  0.155872  0.068185  0.404639  1
  S  S32  1  0.629508  0.739327  0.313981  1
  S  S33  1  0.129508  0.260673  0.186019  1
  S  S34  1  0.370492  0.239327  0.686019  1
  S  S35  1  0.870492  0.760673  0.813981  1
