# generated using pymatgen
data_VFeF7
_symmetry_space_group_name_H-M   'P 1'
_cell_length_a   7.40557326
_cell_length_b   7.40557348
_cell_length_c   7.40557286
_cell_angle_alpha   124.26990419
_cell_angle_beta   119.98165220
_cell_angle_gamma   86.39861212
_symmetry_Int_Tables_number   1
_chemical_formula_structural   VFeF7
_chemical_formula_sum   'V2 Fe2 F14'
_cell_volume   276.83449702
_cell_formula_units_Z   2
loop_
 _symmetry_equiv_pos_site_id
 _symmetry_equiv_pos_as_xyz
  1  'x, y, z'
loop_
 _atom_site_type_symbol
 _atom_site_label
 _atom_site_symmetry_multiplicity
 _atom_site_fract_x
 _atom_site_fract_y
 _atom_site_fract_z
 _atom_site_occupancy
  V  V0  1  0.000000  0.500000  0.500000  1
  V  V1  1  0.500000  0.000000  0.500000  1
  Fe  Fe2  1  0.500000  0.500000  0.500000  1
  Fe  Fe3  1  0.000000  0.500000  0.000000  1
  F  F4  1  0.051646  0.795017  0.743371  1
  F  F5  1  0.564189  0.816235  0.624570  1
  F  F6  1  0.191665  0.816235  0.252046  1
  F  F7  1  0.551646  0.808275  0.256629  1
  F  F8  1  0.250000  0.408607  0.158607  1
  F  F9  1  0.064189  0.439619  0.747954  1
  F  F10  1  0.691665  0.439619  0.375430  1
  F  F11  1  0.308335  0.560381  0.624570  1
  F  F12  1  0.935811  0.560381  0.252046  1
  F  F13  1  0.750000  0.591393  0.841393  1
  F  F14  1  0.448354  0.191725  0.743371  1
  F  F15  1  0.808335  0.183765  0.747954  1
  F  F16  1  0.435811  0.183765  0.375430  1
  F  F17  1  0.948354  0.204983  0.256629  1
