# generated using pymatgen
data_LiPr8Dy8Sc3Si16
_symmetry_space_group_name_H-M   'P 1'
_cell_length_a   7.36887584
_cell_length_b   7.78501490
_cell_length_c   14.77404300
_cell_angle_alpha   90.00000000
_cell_angle_beta   90.00000000
_cell_angle_gamma   90.05502199
_symmetry_Int_Tables_number   1
_chemical_formula_structural   LiPr8Dy8Sc3Si16
_chemical_formula_sum   'Li1 Pr8 Dy8 Sc3 Si16'
_cell_volume   847.53930128
_cell_formula_units_Z   1
loop_
 _symmetry_equiv_pos_site_id
 _symmetry_equiv_pos_as_xyz
  1  'x, y, z'
loop_
 _atom_site_type_symbol
 _atom_site_label
 _atom_site_symmetry_multiplicity
 _atom_site_fract_x
 _atom_site_fract_y
 _atom_site_fract_z
 _atom_site_occupancy
  Li  Li0  1  0.654298  0.986386  0.750000  1
  Pr  Pr1  1  0.019303  0.179683  0.401477  1
  Pr  Pr2  1  0.519043  0.320844  0.401367  1
  Pr  Pr3  1  0.481186  0.687515  0.898529  1
  Pr  Pr4  1  0.481186  0.687515  0.601471  1
  Pr  Pr5  1  0.973346  0.821519  0.600672  1
  Pr  Pr6  1  0.973346  0.821519  0.899328  1
  Pr  Pr7  1  0.519043  0.320844  0.098633  1
  Pr  Pr8  1  0.019303  0.179683  0.098523  1
  Dy  Dy9  1  0.328581  0.175572  0.625884  1
  Dy  Dy10  1  0.678875  0.820346  0.373985  1
  Dy  Dy11  1  0.178651  0.677692  0.375207  1
  Dy  Dy12  1  0.820030  0.315389  0.874318  1
  Dy  Dy13  1  0.820030  0.315389  0.625682  1
  Dy  Dy14  1  0.328581  0.175572  0.874116  1
  Dy  Dy15  1  0.178651  0.677692  0.124793  1
  Dy  Dy16  1  0.678875  0.820346  0.126015  1
  Sc  Sc17  1  0.846583  0.488613  0.250000  1
  Sc  Sc18  1  0.345488  0.012383  0.250000  1
  Sc  Sc19  1  0.152173  0.511175  0.750000  1
  Si  Si20  1  0.266147  0.874637  0.750000  1
  Si  Si21  1  0.479124  0.602844  0.250000  1
  Si  Si22  1  0.029983  0.105341  0.750000  1
  Si  Si23  1  0.519277  0.406723  0.750000  1
  Si  Si24  1  0.148451  0.469182  0.541146  1
  Si  Si25  1  0.979693  0.894662  0.250000  1
  Si  Si26  1  0.719980  0.126460  0.250000  1
  Si  Si27  1  0.853245  0.531524  0.037722  1
  Si  Si28  1  0.352890  0.967659  0.039946  1
  Si  Si29  1  0.148451  0.469182  0.958854  1
  Si  Si30  1  0.649189  0.035525  0.532676  1
  Si  Si31  1  0.352890  0.967659  0.460054  1
  Si  Si32  1  0.853245  0.531524  0.462278  1
  Si  Si33  1  0.780292  0.611892  0.750000  1
  Si  Si34  1  0.221382  0.373981  0.250000  1
  Si  Si35  1  0.649189  0.035525  0.967324  1
