# generated using pymatgen
data_Ho2MgB2Ir4Rh
_symmetry_space_group_name_H-M   'P 1'
_cell_length_a   9.72861532
_cell_length_b   9.74210032
_cell_length_c   3.12605800
_cell_angle_alpha   90.00000000
_cell_angle_beta   90.00000000
_cell_angle_gamma   89.97066748
_symmetry_Int_Tables_number   1
_chemical_formula_structural   Ho2MgB2Ir4Rh
_chemical_formula_sum   'Ho4 Mg2 B4 Ir8 Rh2'
_cell_volume   296.27881790
_cell_formula_units_Z   2
loop_
 _symmetry_equiv_pos_site_id
 _symmetry_equiv_pos_as_xyz
  1  'x, y, z'
loop_
 _atom_site_type_symbol
 _atom_site_label
 _atom_site_symmetry_multiplicity
 _atom_site_fract_x
 _atom_site_fract_y
 _atom_site_fract_z
 _atom_site_occupancy
  Ho  Ho0  1  0.677614  0.177816  0.000000  1
  Ho  Ho1  1  0.322386  0.822184  0.000000  1
  Ho  Ho2  1  0.178326  0.322331  0.000000  1
  Ho  Ho3  1  0.821674  0.677669  0.000000  1
  Mg  Mg4  1  0.000000  0.000000  0.000000  1
  Mg  Mg5  1  0.500000  0.500000  0.000000  1
  B  B6  1  0.123068  0.623525  0.000000  1
  B  B7  1  0.876932  0.376475  0.000000  1
  B  B8  1  0.623964  0.878863  0.000000  1
  B  B9  1  0.376036  0.121137  0.000000  1
  Ir  Ir10  1  0.500000  0.000000  0.500000  1
  Ir  Ir11  1  0.000000  0.500000  0.500000  1
  Ir  Ir12  1  0.224422  0.069462  0.500000  1
  Ir  Ir13  1  0.775578  0.930538  0.500000  1
  Ir  Ir14  1  0.067929  0.776516  0.500000  1
  Ir  Ir15  1  0.724174  0.430593  0.500000  1
  Ir  Ir16  1  0.932071  0.223484  0.500000  1
  Ir  Ir17  1  0.275826  0.569407  0.500000  1
  Rh  Rh18  1  0.568812  0.724443  0.500000  1
  Rh  Rh19  1  0.431188  0.275557  0.500000  1
