# generated using pymatgen
data_Er6Mn3(AlPt4)4
_symmetry_space_group_name_H-M   'P 1'
_cell_length_a   8.96176839
_cell_length_b   8.94577083
_cell_length_c   8.92807442
_cell_angle_alpha   60.33430938
_cell_angle_beta   60.00592831
_cell_angle_gamma   59.81016269
_symmetry_Int_Tables_number   1
_chemical_formula_structural   Er6Mn3(AlPt4)4
_chemical_formula_sum   'Er6 Mn3 Al4 Pt16'
_cell_volume   506.67436952
_cell_formula_units_Z   1
loop_
 _symmetry_equiv_pos_site_id
 _symmetry_equiv_pos_as_xyz
  1  'x, y, z'
loop_
 _atom_site_type_symbol
 _atom_site_label
 _atom_site_symmetry_multiplicity
 _atom_site_fract_x
 _atom_site_fract_y
 _atom_site_fract_z
 _atom_site_occupancy
  Er  Er0  1  0.708994  0.711243  0.288757  1
  Er  Er1  1  0.288914  0.712954  0.287046  1
  Er  Er2  1  0.712435  0.287565  0.287565  1
  Er  Er3  1  0.291006  0.288757  0.711243  1
  Er  Er4  1  0.711086  0.287046  0.712954  1
  Er  Er5  1  0.287565  0.712435  0.712435  1
  Mn  Mn6  1  0.000000  0.000000  0.500000  1
  Mn  Mn7  1  0.500000  0.500000  0.000000  1
  Mn  Mn8  1  0.500000  0.000000  0.000000  1
  Al  Al9  1  0.000000  0.000000  0.000000  1
  Al  Al10  1  0.500000  0.000000  0.500000  1
  Al  Al11  1  0.000000  0.500000  0.500000  1
  Al  Al12  1  0.000000  0.500000  0.000000  1
  Pt  Pt13  1  0.883300  0.880930  0.355591  1
  Pt  Pt14  1  0.880178  0.355591  0.880930  1
  Pt  Pt15  1  0.356416  0.881307  0.882704  1
  Pt  Pt16  1  0.879572  0.882704  0.881307  1
  Pt  Pt17  1  0.116700  0.119070  0.644409  1
  Pt  Pt18  1  0.119822  0.644409  0.119070  1
  Pt  Pt19  1  0.643584  0.118693  0.117296  1
  Pt  Pt20  1  0.120428  0.117296  0.118693  1
  Pt  Pt21  1  0.667207  0.659580  0.013189  1
  Pt  Pt22  1  0.660024  0.013189  0.659580  1
  Pt  Pt23  1  0.011715  0.659651  0.665345  1
  Pt  Pt24  1  0.663290  0.665345  0.659651  1
  Pt  Pt25  1  0.332793  0.340420  0.986811  1
  Pt  Pt26  1  0.339976  0.986811  0.340420  1
  Pt  Pt27  1  0.988285  0.340349  0.334655  1
  Pt  Pt28  1  0.336710  0.334655  0.340349  1
