# generated using pymatgen
data_YHo(AuO3)2
_symmetry_space_group_name_H-M   'P 1'
_cell_length_a   3.82247000
_cell_length_b   5.59024100
_cell_length_c   12.99595700
_cell_angle_alpha   90.00000000
_cell_angle_beta   90.00000000
_cell_angle_gamma   90.00000000
_symmetry_Int_Tables_number   1
_chemical_formula_structural   YHo(AuO3)2
_chemical_formula_sum   'Y2 Ho2 Au4 O12'
_cell_volume   277.70447774
_cell_formula_units_Z   2
loop_
 _symmetry_equiv_pos_site_id
 _symmetry_equiv_pos_as_xyz
  1  'x, y, z'
loop_
 _atom_site_type_symbol
 _atom_site_label
 _atom_site_symmetry_multiplicity
 _atom_site_fract_x
 _atom_site_fract_y
 _atom_site_fract_z
 _atom_site_occupancy
  Y  Y0  1  0.738344  0.250000  0.927789  1
  Y  Y1  1  0.738344  0.750000  0.572211  1
  Ho  Ho2  1  0.257938  0.750000  0.076432  1
  Ho  Ho3  1  0.257938  0.250000  0.423568  1
  Au  Au4  1  0.065429  0.750000  0.831619  1
  Au  Au5  1  0.065429  0.250000  0.668381  1
  Au  Au6  1  0.937701  0.250000  0.170480  1
  Au  Au7  1  0.937701  0.750000  0.329520  1
  O  O8  1  0.206391  0.500000  0.250000  1
  O  O9  1  0.803365  0.000000  0.750000  1
  O  O10  1  0.803365  0.500000  0.750000  1
  O  O11  1  0.206391  0.000000  0.250000  1
  O  O12  1  0.740529  0.503061  0.076796  1
  O  O13  1  0.740529  0.496939  0.423204  1
  O  O14  1  0.254885  0.999825  0.928461  1
  O  O15  1  0.254885  0.000175  0.571539  1
  O  O16  1  0.740529  0.003061  0.423204  1
  O  O17  1  0.740529  0.996939  0.076796  1
  O  O18  1  0.254885  0.499825  0.571539  1
  O  O19  1  0.254885  0.500175  0.928461  1
