# generated using pymatgen
data_Tb2Y6MgCo2Hg
_symmetry_space_group_name_H-M   'P 1'
_cell_length_a   9.53010852
_cell_length_b   9.53010815
_cell_length_c   9.52190500
_cell_angle_alpha   60.02847313
_cell_angle_beta   60.02847443
_cell_angle_gamma   60.31463577
_symmetry_Int_Tables_number   1
_chemical_formula_structural   Tb2Y6MgCo2Hg
_chemical_formula_sum   'Tb4 Y12 Mg2 Co4 Hg2'
_cell_volume   613.21709494
_cell_formula_units_Z   2
loop_
 _symmetry_equiv_pos_site_id
 _symmetry_equiv_pos_as_xyz
  1  'x, y, z'
loop_
 _atom_site_type_symbol
 _atom_site_label
 _atom_site_symmetry_multiplicity
 _atom_site_fract_x
 _atom_site_fract_y
 _atom_site_fract_z
 _atom_site_occupancy
  Tb  Tb0  1  0.345909  0.345909  0.343162  1
  Tb  Tb1  1  0.345909  0.345909  0.965018  1
  Tb  Tb2  1  0.348781  0.959329  0.345944  1
  Tb  Tb3  1  0.959329  0.348781  0.345944  1
  Y  Y4  1  0.811504  0.185701  0.189003  1
  Y  Y5  1  0.185701  0.811504  0.813793  1
  Y  Y6  1  0.185701  0.811504  0.189003  1
  Y  Y7  1  0.811504  0.185701  0.813793  1
  Y  Y8  1  0.186560  0.186560  0.813440  1
  Y  Y9  1  0.807620  0.807620  0.192380  1
  Y  Y10  1  0.936764  0.560735  0.563243  1
  Y  Y11  1  0.560735  0.936764  0.939259  1
  Y  Y12  1  0.560736  0.936764  0.563243  1
  Y  Y13  1  0.936764  0.560735  0.939259  1
  Y  Y14  1  0.562175  0.562174  0.937826  1
  Y  Y15  1  0.938026  0.938026  0.561974  1
  Mg  Mg16  1  0.581022  0.273632  0.572673  1
  Mg  Mg17  1  0.273632  0.581022  0.572673  1
  Co  Co18  1  0.141525  0.141525  0.141420  1
  Co  Co19  1  0.141525  0.141525  0.575532  1
  Co  Co20  1  0.140209  0.575720  0.142036  1
  Co  Co21  1  0.575720  0.140209  0.142036  1
  Hg  Hg22  1  0.581325  0.581325  0.587981  1
  Hg  Hg23  1  0.581325  0.581325  0.249369  1
