# generated using pymatgen
data_Cs4AsC3O11
_symmetry_space_group_name_H-M   'P 1'
_cell_length_a   7.85639888
_cell_length_b   7.38840730
_cell_length_c   14.15739462
_cell_angle_alpha   92.22068801
_cell_angle_beta   96.35026404
_cell_angle_gamma   80.29363541
_symmetry_Int_Tables_number   1
_chemical_formula_structural   Cs4AsC3O11
_chemical_formula_sum   'Cs8 As2 C6 O22'
_cell_volume   804.88045577
_cell_formula_units_Z   2
loop_
 _symmetry_equiv_pos_site_id
 _symmetry_equiv_pos_as_xyz
  1  'x, y, z'
loop_
 _atom_site_type_symbol
 _atom_site_label
 _atom_site_symmetry_multiplicity
 _atom_site_fract_x
 _atom_site_fract_y
 _atom_site_fract_z
 _atom_site_occupancy
  Cs  Cs0  1  0.383331  0.764332  0.002107  1
  Cs  Cs1  1  0.927675  0.672027  0.176434  1
  Cs  Cs2  1  0.292003  0.039452  0.326030  1
  Cs  Cs3  1  0.215018  0.567002  0.463213  1
  Cs  Cs4  1  0.786881  0.433159  0.537043  1
  Cs  Cs5  1  0.706250  0.961199  0.674181  1
  Cs  Cs6  1  0.072910  0.327882  0.824010  1
  Cs  Cs7  1  0.619166  0.237258  0.997896  1
  As  As8  1  0.745897  0.207216  0.290073  1
  As  As9  1  0.253263  0.792836  0.709880  1
  C  C10  1  0.119317  0.181948  0.072949  1
  C  C11  1  0.487949  0.510942  0.247401  1
  C  C12  1  0.826824  0.912538  0.412291  1
  C  C13  1  0.171532  0.087563  0.587903  1
  C  C14  1  0.511429  0.489410  0.752511  1
  C  C15  1  0.882623  0.817044  0.926791  1
  O  O16  1  0.256436  0.211879  0.038835  1
  O  O17  1  0.979653  0.299235  0.059865  1
  O  O18  1  0.123596  0.035004  0.118969  1
  O  O19  1  0.574681  0.514067  0.177802  1
  O  O20  1  0.703309  0.075374  0.194905  1
  O  O21  1  0.352774  0.616543  0.267862  1
  O  O22  1  0.916863  0.315521  0.315436  1
  O  O23  1  0.546702  0.369692  0.314226  1
  O  O24  1  0.958995  0.880891  0.366808  1
  O  O25  1  0.713878  0.080743  0.396132  1
  O  O26  1  0.780463  0.813151  0.471667  1
  O  O27  1  0.216911  0.187526  0.528484  1
  O  O28  1  0.284758  0.919493  0.603651  1
  O  O29  1  0.039855  0.118645  0.633841  1
  O  O30  1  0.452230  0.630276  0.685480  1
  O  O31  1  0.082339  0.684444  0.684627  1
  O  O32  1  0.646698  0.383900  0.732041  1
  O  O33  1  0.296631  0.924719  0.804898  1
  O  O34  1  0.424982  0.486478  0.822211  1
  O  O35  1  0.874957  0.965041  0.881115  1
  O  O36  1  0.024033  0.702116  0.939099  1
  O  O37  1  0.747189  0.783450  0.961336  1
