# generated using pymatgen
data_Dy4Co5P12(Ir4Rh)3
_symmetry_space_group_name_H-M   'P 1'
_cell_length_a   3.91181000
_cell_length_b   10.68115748
_cell_length_c   12.38799977
_cell_angle_alpha   89.84290009
_cell_angle_beta   90.00000000
_cell_angle_gamma   90.00000000
_symmetry_Int_Tables_number   1
_chemical_formula_structural   Dy4Co5P12(Ir4Rh)3
_chemical_formula_sum   'Dy4 Co5 P12 Ir12 Rh3'
_cell_volume   517.60162011
_cell_formula_units_Z   1
loop_
 _symmetry_equiv_pos_site_id
 _symmetry_equiv_pos_as_xyz
  1  'x, y, z'
loop_
 _atom_site_type_symbol
 _atom_site_label
 _atom_site_symmetry_multiplicity
 _atom_site_fract_x
 _atom_site_fract_y
 _atom_site_fract_z
 _atom_site_occupancy
  Dy  Dy0  1  0.250000  0.581170  0.710740  1
  Dy  Dy1  1  0.250000  0.916021  0.209099  1
  Dy  Dy2  1  0.750000  0.415307  0.289839  1
  Dy  Dy3  1  0.750000  0.087339  0.790529  1
  Co  Co4  1  0.750000  0.383137  0.803707  1
  Co  Co5  1  0.250000  0.463203  0.931170  1
  Co  Co6  1  0.250000  0.036407  0.434944  1
  Co  Co7  1  0.750000  0.538474  0.063777  1
  Co  Co8  1  0.750000  0.960768  0.566163  1
  P  P9  1  0.250000  0.426706  0.103619  1
  P  P10  1  0.250000  0.078567  0.606414  1
  P  P11  1  0.750000  0.565400  0.888262  1
  P  P12  1  0.750000  0.926275  0.394624  1
  P  P13  1  0.250000  0.274563  0.870056  1
  P  P14  1  0.250000  0.229060  0.371276  1
  P  P15  1  0.750000  0.729303  0.127960  1
  P  P16  1  0.750000  0.770025  0.629307  1
  P  P17  1  0.250000  0.594658  0.384979  1
  P  P18  1  0.250000  0.903052  0.885653  1
  P  P19  1  0.750000  0.402043  0.624069  1
  P  P20  1  0.750000  0.098760  0.113760  1
  Ir  Ir21  1  0.250000  0.778064  0.484077  1
  Ir  Ir22  1  0.250000  0.407381  0.477531  1
  Ir  Ir23  1  0.250000  0.092954  0.976511  1
  Ir  Ir24  1  0.750000  0.589627  0.524392  1
  Ir  Ir25  1  0.750000  0.908484  0.021218  1
  Ir  Ir26  1  0.250000  0.230507  0.177304  1
  Ir  Ir27  1  0.250000  0.276858  0.681657  1
  Ir  Ir28  1  0.750000  0.766635  0.820397  1
  Ir  Ir29  1  0.750000  0.730417  0.321810  1
  Ir  Ir30  1  0.250000  0.888083  0.698720  1
  Ir  Ir31  1  0.250000  0.615170  0.197818  1
  Ir  Ir32  1  0.750000  0.115695  0.302740  1
  Rh  Rh33  1  0.250000  0.719056  0.982684  1
  Rh  Rh34  1  0.750000  0.280938  0.012073  1
  Rh  Rh35  1  0.750000  0.219891  0.521119  1
