# generated using pymatgen
data_GaAsBr6
_symmetry_space_group_name_H-M   'P 1'
_cell_length_a   9.96973808
_cell_length_b   9.96973871
_cell_length_c   7.26401178
_cell_angle_alpha   70.54132622
_cell_angle_beta   70.54131907
_cell_angle_gamma   79.81130551
_symmetry_Int_Tables_number   1
_chemical_formula_structural   GaAsBr6
_chemical_formula_sum   'Ga2 As2 Br12'
_cell_volume   640.12042909
_cell_formula_units_Z   2
loop_
 _symmetry_equiv_pos_site_id
 _symmetry_equiv_pos_as_xyz
  1  'x, y, z'
loop_
 _atom_site_type_symbol
 _atom_site_label
 _atom_site_symmetry_multiplicity
 _atom_site_fract_x
 _atom_site_fract_y
 _atom_site_fract_z
 _atom_site_occupancy
  Ga  Ga0  1  0.194308  0.194308  0.663796  1
  Ga  Ga1  1  0.805692  0.805692  0.336204  1
  As  As2  1  0.803896  0.196104  0.000000  1
  As  As3  1  0.196104  0.803896  0.000000  1
  Br  Br4  1  0.215231  0.585379  0.930582  1
  Br  Br5  1  0.414621  0.784769  0.069418  1
  Br  Br6  1  0.784769  0.414621  0.069418  1
  Br  Br7  1  0.585379  0.215231  0.930582  1
  Br  Br8  1  0.030440  0.724988  0.413333  1
  Br  Br9  1  0.275012  0.969560  0.586667  1
  Br  Br10  1  0.969560  0.275012  0.586667  1
  Br  Br11  1  0.724988  0.030440  0.413333  1
  Br  Br12  1  0.859331  0.859331  0.978461  1
  Br  Br13  1  0.140669  0.140669  0.021539  1
  Br  Br14  1  0.640294  0.640294  0.524866  1
  Br  Br15  1  0.359706  0.359706  0.475134  1
