# generated using pymatgen
data_Dy4Co5
_symmetry_space_group_name_H-M   'P 1'
_cell_length_a   5.46672017
_cell_length_b   5.46672003
_cell_length_c   8.61624669
_cell_angle_alpha   73.07667831
_cell_angle_beta   73.07667725
_cell_angle_gamma   43.29294470
_symmetry_Int_Tables_number   1
_chemical_formula_structural   Dy4Co5
_chemical_formula_sum   'Dy4 Co5'
_cell_volume   167.69035856
_cell_formula_units_Z   1
loop_
 _symmetry_equiv_pos_site_id
 _symmetry_equiv_pos_as_xyz
  1  'x, y, z'
loop_
 _atom_site_type_symbol
 _atom_site_label
 _atom_site_symmetry_multiplicity
 _atom_site_fract_x
 _atom_site_fract_y
 _atom_site_fract_z
 _atom_site_occupancy
  Dy  Dy0  1  0.735889  0.735889  0.660704  1
  Dy  Dy1  1  0.264111  0.264111  0.339296  1
  Dy  Dy2  1  0.389306  0.389306  0.878684  1
  Dy  Dy3  1  0.610694  0.610694  0.121316  1
  Co  Co4  1  0.500000  0.500000  0.500000  1
  Co  Co5  1  0.032948  0.032948  0.632790  1
  Co  Co6  1  0.967052  0.967052  0.367210  1
  Co  Co7  1  0.085081  0.085081  0.876233  1
  Co  Co8  1  0.914919  0.914919  0.123767  1
