# generated using pymatgen
data_Sc2Al9Ir2Pd
_symmetry_space_group_name_H-M   'P 1'
_cell_length_a   7.49638800
_cell_length_b   7.49638692
_cell_length_c   9.32166600
_cell_angle_alpha   90.00000000
_cell_angle_beta   90.00000000
_cell_angle_gamma   119.84405670
_symmetry_Int_Tables_number   1
_chemical_formula_structural   Sc2Al9Ir2Pd
_chemical_formula_sum   'Sc4 Al18 Ir4 Pd2'
_cell_volume   454.36882212
_cell_formula_units_Z   2
loop_
 _symmetry_equiv_pos_site_id
 _symmetry_equiv_pos_as_xyz
  1  'x, y, z'
loop_
 _atom_site_type_symbol
 _atom_site_label
 _atom_site_symmetry_multiplicity
 _atom_site_fract_x
 _atom_site_fract_y
 _atom_site_fract_z
 _atom_site_occupancy
  Sc  Sc0  1  0.996268  0.670913  0.250000  1
  Sc  Sc1  1  0.003732  0.329087  0.750000  1
  Sc  Sc2  1  0.670913  0.996268  0.250000  1
  Sc  Sc3  1  0.329087  0.003732  0.750000  1
  Al  Al4  1  0.126544  0.126544  0.250000  1
  Al  Al5  1  0.873456  0.873456  0.750000  1
  Al  Al6  1  0.997909  0.338111  0.079069  1
  Al  Al7  1  0.002091  0.661889  0.920931  1
  Al  Al8  1  0.002091  0.661889  0.579069  1
  Al  Al9  1  0.338111  0.997909  0.420931  1
  Al  Al10  1  0.997909  0.338111  0.420931  1
  Al  Al11  1  0.661889  0.002091  0.579069  1
  Al  Al12  1  0.661889  0.002091  0.920931  1
  Al  Al13  1  0.338111  0.997909  0.079069  1
  Al  Al14  1  0.333827  0.333827  0.561326  1
  Al  Al15  1  0.666173  0.666173  0.438674  1
  Al  Al16  1  0.666173  0.666173  0.061326  1
  Al  Al17  1  0.333827  0.333827  0.938674  1
  Al  Al18  1  0.338561  0.552483  0.250000  1
  Al  Al19  1  0.661439  0.447517  0.750000  1
  Al  Al20  1  0.552483  0.338561  0.250000  1
  Al  Al21  1  0.447517  0.661439  0.750000  1
  Ir  Ir22  1  0.672034  0.327966  0.000000  1
  Ir  Ir23  1  0.327966  0.672034  0.000000  1
  Ir  Ir24  1  0.327966  0.672034  0.500000  1
  Ir  Ir25  1  0.672034  0.327966  0.500000  1
  Pd  Pd26  1  0.000000  0.000000  0.000000  1
  Pd  Pd27  1  0.000000  0.000000  0.500000  1
