# generated using pymatgen
data_Pr10Si5Te
_symmetry_space_group_name_H-M   'P 1'
_cell_length_a   7.91794979
_cell_length_b   7.91794964
_cell_length_c   9.08362991
_cell_angle_alpha   115.83852125
_cell_angle_beta   115.83852016
_cell_angle_gamma   89.99999918
_symmetry_Int_Tables_number   1
_chemical_formula_structural   Pr10Si5Te
_chemical_formula_sum   'Pr10 Si5 Te1'
_cell_volume   448.44943599
_cell_formula_units_Z   1
loop_
 _symmetry_equiv_pos_site_id
 _symmetry_equiv_pos_as_xyz
  1  'x, y, z'
loop_
 _atom_site_type_symbol
 _atom_site_label
 _atom_site_symmetry_multiplicity
 _atom_site_fract_x
 _atom_site_fract_y
 _atom_site_fract_z
 _atom_site_occupancy
  Pr  Pr0  1  0.500201  0.500201  0.000401  1
  Pr  Pr1  1  0.999799  0.999799  0.999599  1
  Pr  Pr2  1  0.975664  0.823160  0.284871  1
  Pr  Pr3  1  0.309207  0.461712  0.284871  1
  Pr  Pr4  1  0.823160  0.309207  0.284871  1
  Pr  Pr5  1  0.461712  0.975664  0.284871  1
  Pr  Pr6  1  0.038288  0.190793  0.715129  1
  Pr  Pr7  1  0.676840  0.524336  0.715129  1
  Pr  Pr8  1  0.190793  0.676840  0.715129  1
  Pr  Pr9  1  0.524336  0.038288  0.715129  1
  Si  Si10  1  0.250000  0.250000  0.500000  1
  Si  Si11  1  0.615646  0.884354  0.000000  1
  Si  Si12  1  0.384354  0.115646  0.000000  1
  Si  Si13  1  0.884354  0.384354  0.000000  1
  Si  Si14  1  0.115646  0.615646  0.000000  1
  Te  Te15  1  0.750000  0.750000  0.500000  1
