# generated using pymatgen
data_HfU(NbS2)8
_symmetry_space_group_name_H-M   'P 1'
_cell_length_a   6.72125300
_cell_length_b   6.72125202
_cell_length_c   13.44230800
_cell_angle_alpha   90.00000000
_cell_angle_beta   90.00000000
_cell_angle_gamma   119.99999990
_symmetry_Int_Tables_number   1
_chemical_formula_structural   HfU(NbS2)8
_chemical_formula_sum   'Hf1 U1 Nb8 S16'
_cell_volume   525.90209089
_cell_formula_units_Z   1
loop_
 _symmetry_equiv_pos_site_id
 _symmetry_equiv_pos_as_xyz
  1  'x, y, z'
loop_
 _atom_site_type_symbol
 _atom_site_label
 _atom_site_symmetry_multiplicity
 _atom_site_fract_x
 _atom_site_fract_y
 _atom_site_fract_z
 _atom_site_occupancy
  Hf  Hf0  1  0.000000  0.000000  0.500000  1
  U  U1  1  0.000000  0.000000  0.000000  1
  Nb  Nb2  1  0.000000  0.000000  0.260631  1
  Nb  Nb3  1  0.000000  0.000000  0.739369  1
  Nb  Nb4  1  0.505152  0.010304  0.260688  1
  Nb  Nb5  1  0.989696  0.494848  0.260688  1
  Nb  Nb6  1  0.505152  0.494848  0.260688  1
  Nb  Nb7  1  0.494848  0.989696  0.739312  1
  Nb  Nb8  1  0.010304  0.505152  0.739312  1
  Nb  Nb9  1  0.494848  0.505152  0.739312  1
  S  S10  1  0.333333  0.666667  0.859466  1
  S  S11  1  0.666667  0.333333  0.140534  1
  S  S12  1  0.666667  0.333333  0.379380  1
  S  S13  1  0.333333  0.666667  0.620620  1
  S  S14  1  0.167999  0.832001  0.379030  1
  S  S15  1  0.167999  0.335998  0.379030  1
  S  S16  1  0.664002  0.832001  0.379030  1
  S  S17  1  0.832001  0.167999  0.620970  1
  S  S18  1  0.832001  0.664002  0.620970  1
  S  S19  1  0.335998  0.167999  0.620970  1
  S  S20  1  0.832196  0.167804  0.856257  1
  S  S21  1  0.832196  0.664392  0.856257  1
  S  S22  1  0.335608  0.167804  0.856257  1
  S  S23  1  0.167804  0.832196  0.143743  1
  S  S24  1  0.167804  0.335608  0.143743  1
  S  S25  1  0.664392  0.832196  0.143743  1
