# generated using pymatgen
data_TbHo4In4CuPd
_symmetry_space_group_name_H-M   'P 1'
_cell_length_a   3.62338300
_cell_length_b   8.07272776
_cell_length_c   18.14895087
_cell_angle_alpha   90.15563697
_cell_angle_beta   90.00000000
_cell_angle_gamma   90.00000000
_symmetry_Int_Tables_number   1
_chemical_formula_structural   TbHo4In4CuPd
_chemical_formula_sum   'Tb2 Ho8 In8 Cu2 Pd2'
_cell_volume   530.86546301
_cell_formula_units_Z   2
loop_
 _symmetry_equiv_pos_site_id
 _symmetry_equiv_pos_as_xyz
  1  'x, y, z'
loop_
 _atom_site_type_symbol
 _atom_site_label
 _atom_site_symmetry_multiplicity
 _atom_site_fract_x
 _atom_site_fract_y
 _atom_site_fract_z
 _atom_site_occupancy
  Tb  Tb0  1  0.000000  0.500000  0.500000  1
  Tb  Tb1  1  0.000000  0.000000  0.000000  1
  Ho  Ho2  1  0.000000  0.744804  0.280531  1
  Ho  Ho3  1  0.000000  0.255196  0.719469  1
  Ho  Ho4  1  0.000000  0.755801  0.781293  1
  Ho  Ho5  1  0.000000  0.244199  0.218707  1
  Ho  Ho6  1  0.000000  0.618637  0.083771  1
  Ho  Ho7  1  0.000000  0.381363  0.916229  1
  Ho  Ho8  1  0.000000  0.881480  0.583574  1
  Ho  Ho9  1  0.000000  0.118520  0.416426  1
  In  In10  1  0.500000  0.706075  0.931462  1
  In  In11  1  0.500000  0.293925  0.068538  1
  In  In12  1  0.500000  0.793139  0.431765  1
  In  In13  1  0.500000  0.206861  0.568235  1
  In  In14  1  0.500000  0.576767  0.651628  1
  In  In15  1  0.500000  0.423233  0.348372  1
  In  In16  1  0.500000  0.922281  0.149207  1
  In  In17  1  0.500000  0.077719  0.850793  1
  Cu  Cu18  1  0.500000  0.530258  0.196527  1
  Cu  Cu19  1  0.500000  0.469742  0.803473  1
  Pd  Pd20  1  0.500000  0.970665  0.697494  1
  Pd  Pd21  1  0.500000  0.029335  0.302506  1
