# generated using pymatgen
data_TbSmDy2(Mo2O7)2
_symmetry_space_group_name_H-M   'P 1'
_cell_length_a   7.36200342
_cell_length_b   7.36200264
_cell_length_c   7.45287762
_cell_angle_alpha   60.24926546
_cell_angle_beta   60.24926680
_cell_angle_gamma   59.61769933
_symmetry_Int_Tables_number   1
_chemical_formula_structural   TbSmDy2(Mo2O7)2
_chemical_formula_sum   'Tb1 Sm1 Dy2 Mo4 O14'
_cell_volume   285.85593722
_cell_formula_units_Z   1
loop_
 _symmetry_equiv_pos_site_id
 _symmetry_equiv_pos_as_xyz
  1  'x, y, z'
loop_
 _atom_site_type_symbol
 _atom_site_label
 _atom_site_symmetry_multiplicity
 _atom_site_fract_x
 _atom_site_fract_y
 _atom_site_fract_z
 _atom_site_occupancy
  Tb  Tb0  1  0.125000  0.125000  0.125000  1
  Sm  Sm1  1  0.125000  0.125000  0.625000  1
  Dy  Dy2  1  0.625000  0.125000  0.125000  1
  Dy  Dy3  1  0.125000  0.625000  0.125000  1
  Mo  Mo4  1  0.125000  0.625000  0.625000  1
  Mo  Mo5  1  0.625000  0.125000  0.625000  1
  Mo  Mo6  1  0.625000  0.625000  0.125000  1
  Mo  Mo7  1  0.625000  0.625000  0.625000  1
  O  O8  1  0.717667  0.717667  0.285388  1
  O  O9  1  0.286404  0.286404  0.723974  1
  O  O10  1  0.708715  0.286800  0.714875  1
  O  O11  1  0.287447  0.709170  0.285617  1
  O  O12  1  0.286800  0.708715  0.714875  1
  O  O13  1  0.709170  0.287447  0.285617  1
  O  O14  1  0.532333  0.532333  0.964612  1
  O  O15  1  0.963596  0.963596  0.526026  1
  O  O16  1  0.541285  0.963200  0.535125  1
  O  O17  1  0.962553  0.540830  0.964383  1
  O  O18  1  0.963200  0.541285  0.535125  1
  O  O19  1  0.540830  0.962553  0.964383  1
  O  O20  1  0.250260  0.250260  0.248963  1
  O  O21  1  0.999740  0.999740  0.001037  1
