# generated using pymatgen
data_TbY3Al18RePd5
_symmetry_space_group_name_H-M   'P 1'
_cell_length_a   7.65340847
_cell_length_b   7.65378534
_cell_length_c   9.52751401
_cell_angle_alpha   90.15786191
_cell_angle_beta   90.15805171
_cell_angle_gamma   119.83436082
_symmetry_Int_Tables_number   1
_chemical_formula_structural   TbY3Al18RePd5
_chemical_formula_sum   'Tb1 Y3 Al18 Re1 Pd5'
_cell_volume   484.12475351
_cell_formula_units_Z   1
loop_
 _symmetry_equiv_pos_site_id
 _symmetry_equiv_pos_as_xyz
  1  'x, y, z'
loop_
 _atom_site_type_symbol
 _atom_site_label
 _atom_site_symmetry_multiplicity
 _atom_site_fract_x
 _atom_site_fract_y
 _atom_site_fract_z
 _atom_site_occupancy
  Tb  Tb0  1  0.993344  0.666435  0.248082  1
  Y  Y1  1  0.003068  0.330403  0.751673  1
  Y  Y2  1  0.669550  0.996904  0.248327  1
  Y  Y3  1  0.333609  0.006711  0.751997  1
  Al  Al4  1  0.127861  0.129417  0.249760  1
  Al  Al5  1  0.870585  0.872162  0.750232  1
  Al  Al6  1  0.999128  0.333698  0.074390  1
  Al  Al7  1  0.995482  0.660715  0.925219  1
  Al  Al8  1  0.000159  0.667954  0.577647  1
  Al  Al9  1  0.332076  0.999845  0.422344  1
  Al  Al10  1  0.001010  0.334422  0.423825  1
  Al  Al11  1  0.665553  0.998987  0.576173  1
  Al  Al12  1  0.666248  0.000877  0.925584  1
  Al  Al13  1  0.339323  0.004548  0.074748  1
  Al  Al14  1  0.333721  0.335090  0.559291  1
  Al  Al15  1  0.664904  0.666286  0.440730  1
  Al  Al16  1  0.667291  0.661198  0.053796  1
  Al  Al17  1  0.338813  0.332660  0.946168  1
  Al  Al18  1  0.336793  0.546004  0.249626  1
  Al  Al19  1  0.661608  0.455038  0.752953  1
  Al  Al20  1  0.544899  0.338369  0.247050  1
  Al  Al21  1  0.453973  0.663173  0.750368  1
  Re  Re22  1  0.673123  0.326879  0.999975  1
  Pd  Pd23  1  0.328429  0.671615  0.999963  1
  Pd  Pd24  1  0.327449  0.672619  0.500039  1
  Pd  Pd25  1  0.671511  0.328411  0.500036  1
  Pd  Pd26  1  0.000926  0.999092  0.999959  1
  Pd  Pd27  1  0.999563  0.000489  0.500046  1
