# generated using pymatgen
data_Ba20P13
_symmetry_space_group_name_H-M   'P 1'
_cell_length_a   8.54199659
_cell_length_b   8.54199631
_cell_length_c   42.78352600
_cell_angle_alpha   109.35914245
_cell_angle_beta   109.35914178
_cell_angle_gamma   109.62614123
_symmetry_Int_Tables_number   1
_chemical_formula_structural   Ba20P13
_chemical_formula_sum   'Ba40 P26'
_cell_volume   2405.14704816
_cell_formula_units_Z   2
loop_
 _symmetry_equiv_pos_site_id
 _symmetry_equiv_pos_as_xyz
  1  'x, y, z'
loop_
 _atom_site_type_symbol
 _atom_site_label
 _atom_site_symmetry_multiplicity
 _atom_site_fract_x
 _atom_site_fract_y
 _atom_site_fract_z
 _atom_site_occupancy
  Ba  Ba0  1  0.001439  0.880756  0.899052  1
  Ba  Ba1  1  0.006122  0.385444  0.900930  1
  Ba  Ba2  1  0.483253  0.009975  0.970099  1
  Ba  Ba3  1  0.988416  0.869149  0.696932  1
  Ba  Ba4  1  0.132741  0.159494  0.829894  1
  Ba  Ba5  1  0.988978  0.333118  0.694202  1
  Ba  Ba6  1  0.373336  0.484353  0.799535  1
  Ba  Ba7  1  0.988112  0.843877  0.498458  1
  Ba  Ba8  1  0.632479  0.621426  0.921716  1
  Ba  Ba9  1  0.523884  0.012813  0.878272  1
  Ba  Ba10  1  0.133383  0.120865  0.624074  1
  Ba  Ba11  1  0.986684  0.375652  0.500462  1
  Ba  Ba12  1  0.362163  0.517980  0.605806  1
  Ba  Ba13  1  0.515644  0.998565  0.770562  1
  Ba  Ba14  1  0.984353  0.873336  0.299535  1
  Ba  Ba15  1  0.609503  0.618386  0.723522  1
  Ba  Ba16  1  0.851544  0.495793  0.801539  1
  Ba  Ba17  1  0.500535  0.013054  0.675944  1
  Ba  Ba18  1  0.995793  0.351544  0.301539  1
  Ba  Ba19  1  0.121426  0.132479  0.421716  1
  Ba  Ba20  1  0.380756  0.501439  0.399052  1
  Ba  Ba21  1  0.500802  0.991939  0.576487  1
  Ba  Ba22  1  0.645729  0.662792  0.529437  1
  Ba  Ba23  1  0.884498  0.503777  0.603078  1
  Ba  Ba24  1  0.509975  0.983253  0.470099  1
  Ba  Ba25  1  0.118386  0.109503  0.223522  1
  Ba  Ba26  1  0.003777  0.384498  0.103078  1
  Ba  Ba27  1  0.369149  0.488416  0.196932  1
  Ba  Ba28  1  0.512813  0.023884  0.378272  1
  Ba  Ba29  1  0.659494  0.632741  0.329894  1
  Ba  Ba30  1  0.885444  0.506122  0.400930  1
  Ba  Ba31  1  0.498565  0.015644  0.270562  1
  Ba  Ba32  1  0.162792  0.145729  0.029437  1
  Ba  Ba33  1  0.343877  0.488112  0.998458  1
  Ba  Ba34  1  0.513054  0.000535  0.175944  1
  Ba  Ba35  1  0.620865  0.633383  0.124074  1
  Ba  Ba36  1  0.833118  0.488978  0.194202  1
  Ba  Ba37  1  0.491939  0.000802  0.076487  1
  Ba  Ba38  1  0.017980  0.862163  0.105806  1
  Ba  Ba39  1  0.875652  0.486684  0.000462  1
  P  P40  1  0.131573  0.752062  0.976912  1
  P  P41  1  0.247104  0.628387  0.872896  1
  P  P42  1  0.382603  0.263879  0.927100  1
  P  P43  1  0.249753  0.631243  0.677369  1
  P  P44  1  0.125583  0.748361  0.575683  1
  P  P45  1  0.611334  0.349990  0.846632  1
  P  P46  1  0.369951  0.247174  0.724318  1
  P  P47  1  0.746994  0.867486  0.823086  1
  P  P48  1  0.878185  0.116838  0.953368  1
  P  P49  1  0.252062  0.631573  0.476912  1
  P  P50  1  0.128387  0.747104  0.372896  1
  P  P51  1  0.744399  0.862913  0.622630  1
  P  P52  1  0.630422  0.380420  0.650003  1
  P  P53  1  0.882221  0.135501  0.751055  1
  P  P54  1  0.131243  0.749753  0.177369  1
  P  P55  1  0.763879  0.882603  0.427100  1
  P  P56  1  0.367486  0.246994  0.323086  1
  P  P57  1  0.616838  0.378185  0.453368  1
  P  P58  1  0.880222  0.126940  0.548946  1
  P  P59  1  0.248361  0.625583  0.075683  1
  P  P60  1  0.747174  0.869951  0.224318  1
  P  P61  1  0.362913  0.244399  0.122630  1
  P  P62  1  0.635501  0.382221  0.251055  1
  P  P63  1  0.849990  0.111334  0.346632  1
  P  P64  1  0.626940  0.380222  0.048946  1
  P  P65  1  0.880420  0.130422  0.150003  1
