# generated using pymatgen
data_Li3Sc6TcPt2
_symmetry_space_group_name_H-M   'P 1'
_cell_length_a   4.70602700
_cell_length_b   6.60182600
_cell_length_c   13.90727300
_cell_angle_alpha   90.00000000
_cell_angle_beta   90.00092407
_cell_angle_gamma   90.00000000
_symmetry_Int_Tables_number   1
_chemical_formula_structural   Li3Sc6TcPt2
_chemical_formula_sum   'Li6 Sc12 Tc2 Pt4'
_cell_volume   432.07632277
_cell_formula_units_Z   2
loop_
 _symmetry_equiv_pos_site_id
 _symmetry_equiv_pos_as_xyz
  1  'x, y, z'
loop_
 _atom_site_type_symbol
 _atom_site_label
 _atom_site_symmetry_multiplicity
 _atom_site_fract_x
 _atom_site_fract_y
 _atom_site_fract_z
 _atom_site_occupancy
  Li  Li0  1  0.000000  0.500000  0.999698  1
  Li  Li1  1  0.499851  0.000000  0.166023  1
  Li  Li2  1  0.999905  0.500000  0.333997  1
  Li  Li3  1  0.500005  0.000000  0.500280  1
  Li  Li4  1  0.000118  0.500000  0.665913  1
  Li  Li5  1  0.500110  0.000000  0.834091  1
  Sc  Sc6  1  0.499996  0.254750  0.997069  1
  Sc  Sc7  1  0.499996  0.745252  0.997069  1
  Sc  Sc8  1  0.999859  0.249200  0.166466  1
  Sc  Sc9  1  0.999859  0.750801  0.166466  1
  Sc  Sc10  1  0.499865  0.250827  0.333587  1
  Sc  Sc11  1  0.499865  0.749173  0.333587  1
  Sc  Sc12  1  0.999993  0.245240  0.502929  1
  Sc  Sc13  1  0.999993  0.754761  0.502929  1
  Sc  Sc14  1  0.500134  0.247599  0.668539  1
  Sc  Sc15  1  0.500134  0.752401  0.668539  1
  Sc  Sc16  1  0.000151  0.252572  0.831404  1
  Sc  Sc17  1  0.000151  0.747429  0.831404  1
  Tc  Tc18  1  0.000193  0.000000  0.663875  1
  Tc  Tc19  1  0.500204  0.500000  0.836114  1
  Pt  Pt20  1  0.999995  0.000000  0.003732  1
  Pt  Pt21  1  0.499812  0.500000  0.168276  1
  Pt  Pt22  1  0.999823  0.000000  0.331742  1
  Pt  Pt23  1  0.499992  0.500000  0.496271  1
