# generated using pymatgen
data_Dy2Ho6Re3B24Rh
_symmetry_space_group_name_H-M   'P 1'
_cell_length_a   3.67157400
_cell_length_b   9.14571276
_cell_length_c   11.52442704
_cell_angle_alpha   90.15327438
_cell_angle_beta   90.00000000
_cell_angle_gamma   90.00000000
_symmetry_Int_Tables_number   1
_chemical_formula_structural   Dy2Ho6Re3B24Rh
_chemical_formula_sum   'Dy2 Ho6 Re3 B24 Rh1'
_cell_volume   386.97920845
_cell_formula_units_Z   1
loop_
 _symmetry_equiv_pos_site_id
 _symmetry_equiv_pos_as_xyz
  1  'x, y, z'
loop_
 _atom_site_type_symbol
 _atom_site_label
 _atom_site_symmetry_multiplicity
 _atom_site_fract_x
 _atom_site_fract_y
 _atom_site_fract_z
 _atom_site_occupancy
  Dy  Dy0  1  0.000000  0.318548  0.415394  1
  Dy  Dy1  1  0.000000  0.678245  0.590926  1
  Ho  Ho2  1  0.000000  0.827051  0.081325  1
  Ho  Ho3  1  0.000000  0.177155  0.912748  1
  Ho  Ho4  1  0.000000  0.943374  0.369963  1
  Ho  Ho5  1  0.000000  0.055763  0.628903  1
  Ho  Ho6  1  0.000000  0.441411  0.128968  1
  Ho  Ho7  1  0.000000  0.556649  0.871706  1
  Re  Re8  1  0.000000  0.362291  0.677855  1
  Re  Re9  1  0.000000  0.138221  0.179841  1
  Re  Re10  1  0.000000  0.861769  0.821064  1
  B  B11  1  0.500000  0.554167  0.433563  1
  B  B12  1  0.500000  0.446555  0.566833  1
  B  B13  1  0.500000  0.053385  0.066546  1
  B  B14  1  0.500000  0.947071  0.932772  1
  B  B15  1  0.500000  0.749092  0.420128  1
  B  B16  1  0.500000  0.250554  0.581136  1
  B  B17  1  0.500000  0.249255  0.081291  1
  B  B18  1  0.500000  0.751685  0.918908  1
  B  B19  1  0.500000  0.791096  0.265008  1
  B  B20  1  0.500000  0.208314  0.734141  1
  B  B21  1  0.500000  0.291745  0.235088  1
  B  B22  1  0.500000  0.708190  0.765986  1
  B  B23  1  0.500000  0.632044  0.184028  1
  B  B24  1  0.500000  0.369301  0.814167  1
  B  B25  1  0.500000  0.130828  0.314755  1
  B  B26  1  0.500000  0.868458  0.685646  1
  B  B27  1  0.500000  0.982947  0.211884  1
  B  B28  1  0.500000  0.017342  0.787104  1
  B  B29  1  0.500000  0.483448  0.287943  1
  B  B30  1  0.500000  0.517933  0.712517  1
  B  B31  1  0.500000  0.603976  0.029447  1
  B  B32  1  0.500000  0.397264  0.972126  1
  B  B33  1  0.500000  0.101911  0.470979  1
  B  B34  1  0.500000  0.894945  0.528226  1
  Rh  Rh35  1  0.000000  0.638017  0.321089  1
