# generated using pymatgen
data_Lu5In4AgIr
_symmetry_space_group_name_H-M   'P 1'
_cell_length_a   3.56615800
_cell_length_b   8.09407308
_cell_length_c   18.10503905
_cell_angle_alpha   89.67802218
_cell_angle_beta   90.00000000
_cell_angle_gamma   90.00000000
_symmetry_Int_Tables_number   1
_chemical_formula_structural   Lu5In4AgIr
_chemical_formula_sum   'Lu10 In8 Ag2 Ir2'
_cell_volume   522.58905618
_cell_formula_units_Z   2
loop_
 _symmetry_equiv_pos_site_id
 _symmetry_equiv_pos_as_xyz
  1  'x, y, z'
loop_
 _atom_site_type_symbol
 _atom_site_label
 _atom_site_symmetry_multiplicity
 _atom_site_fract_x
 _atom_site_fract_y
 _atom_site_fract_z
 _atom_site_occupancy
  Lu  Lu0  1  0.000000  0.500000  0.500000  1
  Lu  Lu1  1  0.000000  0.000000  0.000000  1
  Lu  Lu2  1  0.000000  0.717513  0.277077  1
  Lu  Lu3  1  0.000000  0.282487  0.722923  1
  Lu  Lu4  1  0.000000  0.737944  0.782046  1
  Lu  Lu5  1  0.000000  0.262056  0.217954  1
  Lu  Lu6  1  0.000000  0.616129  0.085935  1
  Lu  Lu7  1  0.000000  0.383871  0.914065  1
  Lu  Lu8  1  0.000000  0.879381  0.579447  1
  Lu  Lu9  1  0.000000  0.120619  0.420553  1
  In  In10  1  0.500000  0.708032  0.933772  1
  In  In11  1  0.500000  0.291968  0.066228  1
  In  In12  1  0.500000  0.790569  0.432731  1
  In  In13  1  0.500000  0.209431  0.567269  1
  In  In14  1  0.500000  0.578561  0.646971  1
  In  In15  1  0.500000  0.421439  0.353029  1
  In  In16  1  0.500000  0.922264  0.147995  1
  In  In17  1  0.500000  0.077736  0.852005  1
  Ag  Ag18  1  0.500000  0.979448  0.698013  1
  Ag  Ag19  1  0.500000  0.020552  0.301987  1
  Ir  Ir20  1  0.500000  0.522617  0.195542  1
  Ir  Ir21  1  0.500000  0.477383  0.804458  1
