# generated using pymatgen
data_Tb12Pr8Si15Ag
_symmetry_space_group_name_H-M   'P 1'
_cell_length_a   7.58117815
_cell_length_b   7.85287888
_cell_length_c   14.98491031
_cell_angle_alpha   89.82794901
_cell_angle_beta   89.34315788
_cell_angle_gamma   90.20654801
_symmetry_Int_Tables_number   1
_chemical_formula_structural   Tb12Pr8Si15Ag
_chemical_formula_sum   'Tb12 Pr8 Si15 Ag1'
_cell_volume   892.04420380
_cell_formula_units_Z   1
loop_
 _symmetry_equiv_pos_site_id
 _symmetry_equiv_pos_as_xyz
  1  'x, y, z'
loop_
 _atom_site_type_symbol
 _atom_site_label
 _atom_site_symmetry_multiplicity
 _atom_site_fract_x
 _atom_site_fract_y
 _atom_site_fract_z
 _atom_site_occupancy
  Tb  Tb0  1  0.336760  0.173936  0.624531  1
  Tb  Tb1  1  0.666749  0.821880  0.375748  1
  Tb  Tb2  1  0.664672  0.988629  0.750849  1
  Tb  Tb3  1  0.168771  0.675703  0.374559  1
  Tb  Tb4  1  0.825958  0.319464  0.878484  1
  Tb  Tb5  1  0.825100  0.324918  0.621681  1
  Tb  Tb6  1  0.839056  0.489857  0.251981  1
  Tb  Tb7  1  0.339517  0.007253  0.249192  1
  Tb  Tb8  1  0.324682  0.178255  0.877569  1
  Tb  Tb9  1  0.173507  0.679263  0.122863  1
  Tb  Tb10  1  0.675059  0.821818  0.123166  1
  Tb  Tb11  1  0.162761  0.509575  0.751721  1
  Pr  Pr12  1  0.013544  0.173949  0.397886  1
  Pr  Pr13  1  0.518571  0.318054  0.398627  1
  Pr  Pr14  1  0.479334  0.680703  0.902089  1
  Pr  Pr15  1  0.489171  0.684094  0.601654  1
  Pr  Pr16  1  0.982967  0.828322  0.599090  1
  Pr  Pr17  1  0.979530  0.820542  0.902283  1
  Pr  Pr18  1  0.519175  0.319929  0.098061  1
  Pr  Pr19  1  0.020699  0.181320  0.100266  1
  Si  Si20  1  0.276676  0.880799  0.750904  1
  Si  Si21  1  0.464423  0.609994  0.247999  1
  Si  Si22  1  0.036708  0.116085  0.750753  1
  Si  Si23  1  0.537234  0.390226  0.752003  1
  Si  Si24  1  0.964929  0.887687  0.249345  1
  Si  Si25  1  0.721404  0.120915  0.248184  1
  Si  Si26  1  0.851847  0.532972  0.038478  1
  Si  Si27  1  0.352608  0.968292  0.039375  1
  Si  Si28  1  0.146521  0.467384  0.962706  1
  Si  Si29  1  0.653777  0.033382  0.537471  1
  Si  Si30  1  0.343770  0.965726  0.461403  1
  Si  Si31  1  0.838220  0.535185  0.458302  1
  Si  Si32  1  0.778959  0.619293  0.752673  1
  Si  Si33  1  0.224096  0.377376  0.248908  1
  Si  Si34  1  0.646404  0.031418  0.961508  1
  Ag  Ag35  1  0.156841  0.465806  0.537687  1
