# generated using pymatgen
data_Cs6LaBiBr12
_symmetry_space_group_name_H-M   'P 1'
_cell_length_a   10.12007100
_cell_length_b   10.11565838
_cell_length_c   8.39863100
_cell_angle_alpha   90.00000000
_cell_angle_beta   90.00000000
_cell_angle_gamma   90.06922059
_symmetry_Int_Tables_number   1
_chemical_formula_structural   Cs6LaBiBr12
_chemical_formula_sum   'Cs6 La1 Bi1 Br12'
_cell_volume   859.77714714
_cell_formula_units_Z   1
loop_
 _symmetry_equiv_pos_site_id
 _symmetry_equiv_pos_as_xyz
  1  'x, y, z'
loop_
 _atom_site_type_symbol
 _atom_site_label
 _atom_site_symmetry_multiplicity
 _atom_site_fract_x
 _atom_site_fract_y
 _atom_site_fract_z
 _atom_site_occupancy
  Cs  Cs0  1  0.000000  0.000000  0.500000  1
  Cs  Cs1  1  0.000000  0.000000  0.000000  1
  Cs  Cs2  1  0.234540  0.585145  0.500000  1
  Cs  Cs3  1  0.765460  0.414855  0.500000  1
  Cs  Cs4  1  0.415330  0.234991  0.000000  1
  Cs  Cs5  1  0.584670  0.765009  0.000000  1
  La  La6  1  0.000000  0.500000  0.000000  1
  Bi  Bi7  1  0.500000  0.000000  0.500000  1
  Br  Br8  1  0.695274  0.059567  0.743900  1
  Br  Br9  1  0.304726  0.940433  0.743900  1
  Br  Br10  1  0.940333  0.698290  0.247358  1
  Br  Br11  1  0.059667  0.301710  0.247358  1
  Br  Br12  1  0.304726  0.940433  0.256100  1
  Br  Br13  1  0.695274  0.059567  0.256100  1
  Br  Br14  1  0.059667  0.301710  0.752642  1
  Br  Br15  1  0.940333  0.698290  0.752642  1
  Br  Br16  1  0.569599  0.723251  0.500000  1
  Br  Br17  1  0.430401  0.276749  0.500000  1
  Br  Br18  1  0.280647  0.570530  0.000000  1
  Br  Br19  1  0.719353  0.429470  0.000000  1
