# generated using pymatgen
data_Hf2Zr4Al7(Cu3Au)4
_symmetry_space_group_name_H-M   'P 1'
_cell_length_a   8.60455146
_cell_length_b   8.59720577
_cell_length_c   8.59170213
_cell_angle_alpha   60.13486470
_cell_angle_beta   59.95051311
_cell_angle_gamma   59.97173023
_symmetry_Int_Tables_number   1
_chemical_formula_structural   Hf2Zr4Al7(Cu3Au)4
_chemical_formula_sum   'Hf2 Zr4 Al7 Cu12 Au4'
_cell_volume   449.60843935
_cell_formula_units_Z   1
loop_
 _symmetry_equiv_pos_site_id
 _symmetry_equiv_pos_as_xyz
  1  'x, y, z'
loop_
 _atom_site_type_symbol
 _atom_site_label
 _atom_site_symmetry_multiplicity
 _atom_site_fract_x
 _atom_site_fract_y
 _atom_site_fract_z
 _atom_site_occupancy
  Hf  Hf0  1  0.700150  0.700865  0.299275  1
  Hf  Hf1  1  0.299710  0.700865  0.299275  1
  Zr  Zr2  1  0.699362  0.301016  0.300259  1
  Zr  Zr3  1  0.299183  0.299619  0.700201  1
  Zr  Zr4  1  0.700997  0.299619  0.700201  1
  Zr  Zr5  1  0.300727  0.699970  0.698576  1
  Al  Al6  1  0.999922  0.001237  0.998919  1
  Al  Al7  1  0.002363  0.002967  0.497239  1
  Al  Al8  1  0.497431  0.002967  0.497239  1
  Al  Al9  1  0.002500  0.497836  0.497165  1
  Al  Al10  1  0.497330  0.497584  0.002220  1
  Al  Al11  1  0.002866  0.497584  0.002220  1
  Al  Al12  1  0.497413  0.003277  0.001897  1
  Cu  Cu13  1  0.122511  0.121945  0.633032  1
  Cu  Cu14  1  0.121462  0.634239  0.122836  1
  Cu  Cu15  1  0.633607  0.121036  0.122905  1
  Cu  Cu16  1  0.122450  0.121036  0.122905  1
  Cu  Cu17  1  0.665322  0.666950  0.002405  1
  Cu  Cu18  1  0.667639  0.997794  0.666927  1
  Cu  Cu19  1  0.999180  0.667620  0.665754  1
  Cu  Cu20  1  0.667446  0.667620  0.665754  1
  Cu  Cu21  1  0.329250  0.329649  0.011851  1
  Cu  Cu22  1  0.331114  0.007855  0.329919  1
  Cu  Cu23  1  0.009973  0.330709  0.329352  1
  Cu  Cu24  1  0.329968  0.330709  0.329352  1
  Au  Au25  1  0.883271  0.880720  0.352738  1
  Au  Au26  1  0.881703  0.354712  0.881881  1
  Au  Au27  1  0.353860  0.881000  0.883850  1
  Au  Au28  1  0.881290  0.881000  0.883850  1
