# generated using pymatgen
data_Zr10Sb6AsAu
_symmetry_space_group_name_H-M   'P 1'
_cell_length_a   8.71716900
_cell_length_b   8.71716855
_cell_length_c   5.92652800
_cell_angle_alpha   90.00000000
_cell_angle_beta   90.00000000
_cell_angle_gamma   120.00000549
_symmetry_Int_Tables_number   1
_chemical_formula_structural   Zr10Sb6AsAu
_chemical_formula_sum   'Zr10 Sb6 As1 Au1'
_cell_volume   390.01549143
_cell_formula_units_Z   1
loop_
 _symmetry_equiv_pos_site_id
 _symmetry_equiv_pos_as_xyz
  1  'x, y, z'
loop_
 _atom_site_type_symbol
 _atom_site_label
 _atom_site_symmetry_multiplicity
 _atom_site_fract_x
 _atom_site_fract_y
 _atom_site_fract_z
 _atom_site_occupancy
  Zr  Zr0  1  0.666667  0.333333  0.000000  1
  Zr  Zr1  1  0.333333  0.666667  0.000000  1
  Zr  Zr2  1  0.333333  0.666667  0.500000  1
  Zr  Zr3  1  0.666667  0.333333  0.500000  1
  Zr  Zr4  1  0.728918  0.728918  0.761191  1
  Zr  Zr5  1  0.271082  0.000000  0.761191  1
  Zr  Zr6  1  0.000000  0.271082  0.761191  1
  Zr  Zr7  1  0.271082  0.271082  0.238809  1
  Zr  Zr8  1  0.728918  0.000000  0.238809  1
  Zr  Zr9  1  0.000000  0.728918  0.238809  1
  Sb  Sb10  1  0.388815  0.388815  0.743355  1
  Sb  Sb11  1  0.611185  0.000000  0.743355  1
  Sb  Sb12  1  0.000000  0.611185  0.743355  1
  Sb  Sb13  1  0.611185  0.611185  0.256645  1
  Sb  Sb14  1  0.388815  0.000000  0.256645  1
  Sb  Sb15  1  0.000000  0.388815  0.256645  1
  As  As16  1  0.000000  0.000000  0.000000  1
  Au  Au17  1  0.000000  0.000000  0.500000  1
