# generated using pymatgen
data_ScGeB2Ru5W
_symmetry_space_group_name_H-M   'P 1'
_cell_length_a   9.38692614
_cell_length_b   9.38692614
_cell_length_c   2.95788300
_cell_angle_alpha   90.00000000
_cell_angle_beta   90.00000000
_cell_angle_gamma   89.71445243
_symmetry_Int_Tables_number   1
_chemical_formula_structural   ScGeB2Ru5W
_chemical_formula_sum   'Sc2 Ge2 B4 Ru10 W2'
_cell_volume   260.62879709
_cell_formula_units_Z   2
loop_
 _symmetry_equiv_pos_site_id
 _symmetry_equiv_pos_as_xyz
  1  'x, y, z'
loop_
 _atom_site_type_symbol
 _atom_site_label
 _atom_site_symmetry_multiplicity
 _atom_site_fract_x
 _atom_site_fract_y
 _atom_site_fract_z
 _atom_site_occupancy
  Sc  Sc0  1  0.173739  0.326261  0.000000  1
  Sc  Sc1  1  0.826261  0.673739  0.000000  1
  Ge  Ge2  1  0.000000  0.000000  0.000000  1
  Ge  Ge3  1  0.500000  0.500000  0.000000  1
  B  B4  1  0.122474  0.622474  0.000000  1
  B  B5  1  0.877526  0.377526  0.000000  1
  B  B6  1  0.625896  0.874104  0.000000  1
  B  B7  1  0.374104  0.125896  0.000000  1
  Ru  Ru8  1  0.217521  0.059413  0.500000  1
  Ru  Ru9  1  0.782479  0.940587  0.500000  1
  Ru  Ru10  1  0.078408  0.789993  0.500000  1
  Ru  Ru11  1  0.710007  0.421592  0.500000  1
  Ru  Ru12  1  0.921592  0.210007  0.500000  1
  Ru  Ru13  1  0.289993  0.578408  0.500000  1
  Ru  Ru14  1  0.559413  0.717521  0.500000  1
  Ru  Ru15  1  0.440587  0.282479  0.500000  1
  Ru  Ru16  1  0.500000  0.000000  0.500000  1
  Ru  Ru17  1  0.000000  0.500000  0.500000  1
  W  W18  1  0.675742  0.175742  0.000000  1
  W  W19  1  0.324258  0.824258  0.000000  1
