# generated using pymatgen
data_Tb2Dy2TmIr3
_symmetry_space_group_name_H-M   'P 1'
_cell_length_a   10.89441500
_cell_length_b   10.89441500
_cell_length_c   6.36452400
_cell_angle_alpha   90.00000000
_cell_angle_beta   90.00000000
_cell_angle_gamma   90.00000000
_symmetry_Int_Tables_number   1
_chemical_formula_structural   Tb2Dy2TmIr3
_chemical_formula_sum   'Tb8 Dy8 Tm4 Ir12'
_cell_volume   755.39439507
_cell_formula_units_Z   4
loop_
 _symmetry_equiv_pos_site_id
 _symmetry_equiv_pos_as_xyz
  1  'x, y, z'
loop_
 _atom_site_type_symbol
 _atom_site_label
 _atom_site_symmetry_multiplicity
 _atom_site_fract_x
 _atom_site_fract_y
 _atom_site_fract_z
 _atom_site_occupancy
  Tb  Tb0  1  0.290298  0.087800  0.377310  1
  Tb  Tb1  1  0.290298  0.912200  0.877310  1
  Tb  Tb2  1  0.709702  0.087800  0.877310  1
  Tb  Tb3  1  0.709702  0.912200  0.377310  1
  Tb  Tb4  1  0.587800  0.790298  0.877310  1
  Tb  Tb5  1  0.587800  0.209702  0.377310  1
  Tb  Tb6  1  0.412200  0.790298  0.377310  1
  Tb  Tb7  1  0.412200  0.209702  0.877310  1
  Dy  Dy8  1  0.209285  0.412499  0.622383  1
  Dy  Dy9  1  0.209285  0.587501  0.122383  1
  Dy  Dy10  1  0.790715  0.412499  0.122383  1
  Dy  Dy11  1  0.790715  0.587501  0.622383  1
  Dy  Dy12  1  0.912499  0.709285  0.122383  1
  Dy  Dy13  1  0.912499  0.290715  0.622383  1
  Dy  Dy14  1  0.087501  0.709285  0.622383  1
  Dy  Dy15  1  0.087501  0.290715  0.122383  1
  Tm  Tm16  1  0.000000  0.000000  0.500203  1
  Tm  Tm17  1  0.000000  0.000000  0.000203  1
  Tm  Tm18  1  0.500000  0.500000  0.000203  1
  Tm  Tm19  1  0.500000  0.500000  0.500203  1
  Ir  Ir20  1  0.847961  0.152509  0.250150  1
  Ir  Ir21  1  0.847961  0.847491  0.750150  1
  Ir  Ir22  1  0.152039  0.152509  0.750150  1
  Ir  Ir23  1  0.152039  0.847491  0.250150  1
  Ir  Ir24  1  0.652509  0.347961  0.750150  1
  Ir  Ir25  1  0.652509  0.652039  0.250150  1
  Ir  Ir26  1  0.347491  0.347961  0.250150  1
  Ir  Ir27  1  0.347491  0.652039  0.750150  1
  Ir  Ir28  1  0.500000  0.000000  0.121887  1
  Ir  Ir29  1  0.500000  0.000000  0.621887  1
  Ir  Ir30  1  0.000000  0.500000  0.878337  1
  Ir  Ir31  1  0.000000  0.500000  0.378337  1
