# generated using pymatgen
data_Tb10PrNd5(CdPt)4
_symmetry_space_group_name_H-M   'P 1'
_cell_length_a   9.80760741
_cell_length_b   9.83602908
_cell_length_c   9.83602959
_cell_angle_alpha   60.17163539
_cell_angle_beta   60.09554026
_cell_angle_gamma   60.09554123
_symmetry_Int_Tables_number   1
_chemical_formula_structural   Tb10PrNd5(CdPt)4
_chemical_formula_sum   'Tb10 Pr1 Nd5 Cd4 Pt4'
_cell_volume   672.78323674
_cell_formula_units_Z   1
loop_
 _symmetry_equiv_pos_site_id
 _symmetry_equiv_pos_as_xyz
  1  'x, y, z'
loop_
 _atom_site_type_symbol
 _atom_site_label
 _atom_site_symmetry_multiplicity
 _atom_site_fract_x
 _atom_site_fract_y
 _atom_site_fract_z
 _atom_site_occupancy
  Tb  Tb0  1  0.349971  0.349991  0.349991  1
  Tb  Tb1  1  0.350557  0.350724  0.948161  1
  Tb  Tb2  1  0.350557  0.948161  0.350724  1
  Tb  Tb3  1  0.950046  0.349991  0.349991  1
  Tb  Tb4  1  0.810955  0.189045  0.189045  1
  Tb  Tb5  1  0.188998  0.811002  0.811002  1
  Tb  Tb6  1  0.189470  0.811504  0.188447  1
  Tb  Tb7  1  0.810579  0.188447  0.811504  1
  Tb  Tb8  1  0.189470  0.188447  0.811504  1
  Tb  Tb9  1  0.810579  0.811504  0.188447  1
  Pr  Pr10  1  0.937299  0.562701  0.562701  1
  Nd  Nd11  1  0.562499  0.937501  0.937501  1
  Nd  Nd12  1  0.562426  0.938651  0.561830  1
  Nd  Nd13  1  0.937093  0.561830  0.938651  1
  Nd  Nd14  1  0.562426  0.561830  0.938651  1
  Nd  Nd15  1  0.937093  0.938651  0.561830  1
  Cd  Cd16  1  0.579299  0.580082  0.580082  1
  Cd  Cd17  1  0.580062  0.580072  0.259806  1
  Cd  Cd18  1  0.580062  0.259806  0.580072  1
  Cd  Cd19  1  0.260538  0.580082  0.580082  1
  Pt  Pt20  1  0.143030  0.142911  0.142911  1
  Pt  Pt21  1  0.142923  0.142261  0.571893  1
  Pt  Pt22  1  0.142923  0.571893  0.142261  1
  Pt  Pt23  1  0.571147  0.142911  0.142911  1
