# generated using pymatgen
data_LiDy16In3OsPd3
_symmetry_space_group_name_H-M   'P 1'
_cell_length_a   9.77067879
_cell_length_b   9.77068076
_cell_length_c   9.77067981
_cell_angle_alpha   59.05119321
_cell_angle_beta   59.05118821
_cell_angle_gamma   59.05119029
_symmetry_Int_Tables_number   1
_chemical_formula_structural   LiDy16In3OsPd3
_chemical_formula_sum   'Li1 Dy16 In3 Os1 Pd3'
_cell_volume   645.29703654
_cell_formula_units_Z   1
loop_
 _symmetry_equiv_pos_site_id
 _symmetry_equiv_pos_as_xyz
  1  'x, y, z'
loop_
 _atom_site_type_symbol
 _atom_site_label
 _atom_site_symmetry_multiplicity
 _atom_site_fract_x
 _atom_site_fract_y
 _atom_site_fract_z
 _atom_site_occupancy
  Li  Li0  1  0.821377  0.821377  0.821377  1
  Dy  Dy1  1  0.602843  0.602843  0.602843  1
  Dy  Dy2  1  0.596563  0.596563  0.202346  1
  Dy  Dy3  1  0.596563  0.202346  0.596563  1
  Dy  Dy4  1  0.202346  0.596563  0.596563  1
  Dy  Dy5  1  0.066375  0.441429  0.441429  1
  Dy  Dy6  1  0.438022  0.061039  0.061039  1
  Dy  Dy7  1  0.441429  0.066375  0.441429  1
  Dy  Dy8  1  0.061039  0.438022  0.061039  1
  Dy  Dy9  1  0.441429  0.441429  0.066375  1
  Dy  Dy10  1  0.061039  0.061039  0.438022  1
  Dy  Dy11  1  0.183370  0.815498  0.815498  1
  Dy  Dy12  1  0.805578  0.188764  0.188764  1
  Dy  Dy13  1  0.815498  0.183370  0.815498  1
  Dy  Dy14  1  0.188764  0.805578  0.188764  1
  Dy  Dy15  1  0.815498  0.815498  0.183370  1
  Dy  Dy16  1  0.188764  0.188764  0.805578  1
  In  In17  1  0.833299  0.833299  0.502002  1
  In  In18  1  0.833299  0.502002  0.833299  1
  In  In19  1  0.502002  0.833299  0.833299  1
  Os  Os20  1  0.392724  0.392724  0.392724  1
  Pd  Pd21  1  0.394324  0.394324  0.823527  1
  Pd  Pd22  1  0.394324  0.823527  0.394324  1
  Pd  Pd23  1  0.823527  0.394324  0.394324  1
