# generated using pymatgen
data_Dy2Lu2Al13Ga5Ir6
_symmetry_space_group_name_H-M   'P 1'
_cell_length_a   7.51116700
_cell_length_b   7.51339165
_cell_length_c   9.52913300
_cell_angle_alpha   90.00000000
_cell_angle_beta   90.00000000
_cell_angle_gamma   119.55534043
_symmetry_Int_Tables_number   1
_chemical_formula_structural   Dy2Lu2Al13Ga5Ir6
_chemical_formula_sum   'Dy2 Lu2 Al13 Ga5 Ir6'
_cell_volume   467.79547494
_cell_formula_units_Z   1
loop_
 _symmetry_equiv_pos_site_id
 _symmetry_equiv_pos_as_xyz
  1  'x, y, z'
loop_
 _atom_site_type_symbol
 _atom_site_label
 _atom_site_symmetry_multiplicity
 _atom_site_fract_x
 _atom_site_fract_y
 _atom_site_fract_z
 _atom_site_occupancy
  Dy  Dy0  1  0.995232  0.670206  0.750000  1
  Dy  Dy1  1  0.670884  0.996903  0.750000  1
  Lu  Lu2  1  0.000108  0.324805  0.250000  1
  Lu  Lu3  1  0.329441  0.006792  0.250000  1
  Al  Al4  1  0.003081  0.334907  0.570417  1
  Al  Al5  1  0.000269  0.665209  0.424513  1
  Al  Al6  1  0.000269  0.665209  0.075487  1
  Al  Al7  1  0.334977  0.002312  0.929771  1
  Al  Al8  1  0.003081  0.334907  0.929583  1
  Al  Al9  1  0.664527  0.998645  0.075663  1
  Al  Al10  1  0.664527  0.998645  0.424337  1
  Al  Al11  1  0.334977  0.002312  0.570229  1
  Al  Al12  1  0.333272  0.333605  0.061086  1
  Al  Al13  1  0.665747  0.665646  0.948045  1
  Al  Al14  1  0.665747  0.665646  0.551955  1
  Al  Al15  1  0.333272  0.333605  0.438914  1
  Al  Al16  1  0.447638  0.661455  0.250000  1
  Ga  Ga17  1  0.129131  0.128999  0.750000  1
  Ga  Ga18  1  0.869794  0.869188  0.250000  1
  Ga  Ga19  1  0.338769  0.547467  0.750000  1
  Ga  Ga20  1  0.661746  0.453806  0.250000  1
  Ga  Ga21  1  0.547428  0.338965  0.750000  1
  Ir  Ir22  1  0.672783  0.327722  0.498978  1
  Ir  Ir23  1  0.328997  0.671858  0.496778  1
  Ir  Ir24  1  0.328997  0.671858  0.003222  1
  Ir  Ir25  1  0.672783  0.327722  0.001022  1
  Ir  Ir26  1  0.001263  0.000804  0.498407  1
  Ir  Ir27  1  0.001263  0.000804  0.001593  1
