# generated using pymatgen
data_Ho3ErZn4(PdRh)2
_symmetry_space_group_name_H-M   'P 1'
_cell_length_a   4.02177400
_cell_length_b   7.02129949
_cell_length_c   8.17688180
_cell_angle_alpha   90.06266491
_cell_angle_beta   90.00000000
_cell_angle_gamma   90.00000000
_symmetry_Int_Tables_number   1
_chemical_formula_structural   Ho3ErZn4(PdRh)2
_chemical_formula_sum   'Ho3 Er1 Zn4 Pd2 Rh2'
_cell_volume   230.89930215
_cell_formula_units_Z   1
loop_
 _symmetry_equiv_pos_site_id
 _symmetry_equiv_pos_as_xyz
  1  'x, y, z'
loop_
 _atom_site_type_symbol
 _atom_site_label
 _atom_site_symmetry_multiplicity
 _atom_site_fract_x
 _atom_site_fract_y
 _atom_site_fract_z
 _atom_site_occupancy
  Ho  Ho0  1  0.750000  0.458707  0.820262  1
  Ho  Ho1  1  0.250000  0.049217  0.307890  1
  Ho  Ho2  1  0.750000  0.950787  0.691793  1
  Er  Er3  1  0.250000  0.541155  0.179973  1
  Zn  Zn4  1  0.250000  0.134415  0.937483  1
  Zn  Zn5  1  0.750000  0.865314  0.062909  1
  Zn  Zn6  1  0.250000  0.637168  0.567016  1
  Zn  Zn7  1  0.750000  0.363089  0.432451  1
  Pd  Pd8  1  0.750000  0.747141  0.378386  1
  Pd  Pd9  1  0.250000  0.252388  0.621345  1
  Rh  Rh10  1  0.750000  0.251973  0.121966  1
  Rh  Rh11  1  0.250000  0.748647  0.878527  1
