# generated using pymatgen
data_AcMn7FeO16
_symmetry_space_group_name_H-M   'P 1'
_cell_length_a   5.93877156
_cell_length_b   7.17444636
_cell_length_c   7.23176900
_cell_angle_alpha   88.43076859
_cell_angle_beta   78.08329284
_cell_angle_gamma   77.88113937
_symmetry_Int_Tables_number   1
_chemical_formula_structural   AcMn7FeO16
_chemical_formula_sum   'Ac1 Mn7 Fe1 O16'
_cell_volume   294.72643732
_cell_formula_units_Z   1
loop_
 _symmetry_equiv_pos_site_id
 _symmetry_equiv_pos_as_xyz
  1  'x, y, z'
loop_
 _atom_site_type_symbol
 _atom_site_label
 _atom_site_symmetry_multiplicity
 _atom_site_fract_x
 _atom_site_fract_y
 _atom_site_fract_z
 _atom_site_occupancy
  Ac  Ac0  1  0.009729  0.972538  0.016315  1
  Mn  Mn1  1  0.087806  0.505546  0.181996  1
  Mn  Mn2  1  0.168789  0.818789  0.515537  1
  Mn  Mn3  1  0.667030  0.821011  0.528268  1
  Mn  Mn4  1  0.334209  0.183494  0.475068  1
  Mn  Mn5  1  0.836708  0.184245  0.483768  1
  Mn  Mn6  1  0.434876  0.481475  0.816300  1
  Mn  Mn7  1  0.928881  0.488789  0.816160  1
  Fe  Fe8  1  0.579773  0.521749  0.188731  1
  O  O9  1  0.847279  0.654307  0.049291  1
  O  O10  1  0.314261  0.651793  0.049253  1
  O  O11  1  0.992919  0.697761  0.376640  1
  O  O12  1  0.480380  0.710322  0.391787  1
  O  O13  1  0.857154  0.957129  0.651727  1
  O  O14  1  0.318212  0.971141  0.653917  1
  O  O15  1  0.342775  0.366796  0.280033  1
  O  O16  1  0.851644  0.359299  0.277989  1
  O  O17  1  0.168149  0.636536  0.720078  1
  O  O18  1  0.664747  0.631382  0.724032  1
  O  O19  1  0.136854  0.031971  0.341768  1
  O  O20  1  0.669492  0.041787  0.350537  1
  O  O21  1  0.017508  0.305428  0.613097  1
  O  O22  1  0.531897  0.304695  0.613114  1
  O  O23  1  0.176546  0.347014  0.942191  1
  O  O24  1  0.689482  0.355005  0.942399  1
