# generated using pymatgen
data_Hf2TaNb11P8
_symmetry_space_group_name_H-M   'P 1'
_cell_length_a   7.74689782
_cell_length_b   7.74689747
_cell_length_c   13.99891000
_cell_angle_alpha   76.31017061
_cell_angle_beta   76.31017213
_cell_angle_gamma   25.96802577
_symmetry_Int_Tables_number   1
_chemical_formula_structural   Hf2TaNb11P8
_chemical_formula_sum   'Hf2 Ta1 Nb11 P8'
_cell_volume   356.85520755
_cell_formula_units_Z   1
loop_
 _symmetry_equiv_pos_site_id
 _symmetry_equiv_pos_as_xyz
  1  'x, y, z'
loop_
 _atom_site_type_symbol
 _atom_site_label
 _atom_site_symmetry_multiplicity
 _atom_site_fract_x
 _atom_site_fract_y
 _atom_site_fract_z
 _atom_site_occupancy
  Hf  Hf0  1  0.660135  0.660135  0.031601  1
  Hf  Hf1  1  0.339865  0.339865  0.968399  1
  Ta  Ta2  1  0.500000  0.500000  0.500000  1
  Nb  Nb3  1  0.996779  0.996779  0.663300  1
  Nb  Nb4  1  0.003221  0.003221  0.336700  1
  Nb  Nb5  1  0.826334  0.826334  0.539363  1
  Nb  Nb6  1  0.173666  0.173666  0.460637  1
  Nb  Nb7  1  0.208579  0.208579  0.204648  1
  Nb  Nb8  1  0.791421  0.791421  0.795352  1
  Nb  Nb9  1  0.196290  0.196290  0.686057  1
  Nb  Nb10  1  0.803710  0.803710  0.313943  1
  Nb  Nb11  1  0.430797  0.430797  0.174461  1
  Nb  Nb12  1  0.569203  0.569203  0.825539  1
  Nb  Nb13  1  0.000000  0.000000  0.000000  1
  P  P14  1  0.060848  0.060848  0.153722  1
  P  P15  1  0.939152  0.939152  0.846278  1
  P  P16  1  0.370506  0.370506  0.661811  1
  P  P17  1  0.629494  0.629494  0.338189  1
  P  P18  1  0.374780  0.374780  0.398451  1
  P  P19  1  0.625220  0.625220  0.601549  1
  P  P20  1  0.175590  0.175590  0.886114  1
  P  P21  1  0.824410  0.824410  0.113886  1
