# generated using pymatgen
data_Li2Yb3AlPd3
_symmetry_space_group_name_H-M   'P 1'
_cell_length_a   7.24698103
_cell_length_b   7.24698031
_cell_length_c   4.11777200
_cell_angle_alpha   90.00000000
_cell_angle_beta   90.00000000
_cell_angle_gamma   121.08642893
_symmetry_Int_Tables_number   1
_chemical_formula_structural   Li2Yb3AlPd3
_chemical_formula_sum   'Li2 Yb3 Al1 Pd3'
_cell_volume   185.20290241
_cell_formula_units_Z   1
loop_
 _symmetry_equiv_pos_site_id
 _symmetry_equiv_pos_as_xyz
  1  'x, y, z'
loop_
 _atom_site_type_symbol
 _atom_site_label
 _atom_site_symmetry_multiplicity
 _atom_site_fract_x
 _atom_site_fract_y
 _atom_site_fract_z
 _atom_site_occupancy
  Li  Li0  1  0.237197  0.998669  0.500000  1
  Li  Li1  1  0.998669  0.237197  0.500000  1
  Yb  Yb2  1  0.004311  0.586747  0.000000  1
  Yb  Yb3  1  0.410265  0.410265  0.000000  1
  Yb  Yb4  1  0.586747  0.004311  0.000000  1
  Al  Al5  1  0.759717  0.759717  0.500000  1
  Pd  Pd6  1  0.358562  0.673147  0.500000  1
  Pd  Pd7  1  0.673147  0.358562  0.500000  1
  Pd  Pd8  1  0.971387  0.971387  0.000000  1
