# generated using pymatgen
data_Fe2Hg2SF6
_symmetry_space_group_name_H-M   'P 1'
_cell_length_a   7.82909871
_cell_length_b   7.82909873
_cell_length_c   7.82909900
_cell_angle_alpha   59.99999463
_cell_angle_beta   59.99999455
_cell_angle_gamma   59.99999644
_symmetry_Int_Tables_number   1
_chemical_formula_structural   Fe2Hg2SF6
_chemical_formula_sum   'Fe4 Hg4 S2 F12'
_cell_volume   339.32845390
_cell_formula_units_Z   2
loop_
 _symmetry_equiv_pos_site_id
 _symmetry_equiv_pos_as_xyz
  1  'x, y, z'
loop_
 _atom_site_type_symbol
 _atom_site_label
 _atom_site_symmetry_multiplicity
 _atom_site_fract_x
 _atom_site_fract_y
 _atom_site_fract_z
 _atom_site_occupancy
  Fe  Fe0  1  0.625000  0.625000  0.125000  1
  Fe  Fe1  1  0.625000  0.125000  0.625000  1
  Fe  Fe2  1  0.125000  0.625000  0.625000  1
  Fe  Fe3  1  0.625000  0.625000  0.625000  1
  Hg  Hg4  1  0.125000  0.125000  0.625000  1
  Hg  Hg5  1  0.125000  0.625000  0.125000  1
  Hg  Hg6  1  0.625000  0.125000  0.125000  1
  Hg  Hg7  1  0.125000  0.125000  0.125000  1
  S  S8  1  0.000000  0.000000  0.000000  1
  S  S9  1  0.250000  0.250000  0.250000  1
  F  F10  1  0.700115  0.299885  0.700115  1
  F  F11  1  0.299885  0.299885  0.700115  1
  F  F12  1  0.549885  0.950115  0.549885  1
  F  F13  1  0.299885  0.700115  0.299885  1
  F  F14  1  0.549885  0.549885  0.950115  1
  F  F15  1  0.950115  0.549885  0.549885  1
  F  F16  1  0.700115  0.700115  0.299885  1
  F  F17  1  0.950115  0.950115  0.549885  1
  F  F18  1  0.950115  0.549885  0.950115  1
  F  F19  1  0.700115  0.299885  0.299885  1
  F  F20  1  0.299885  0.700115  0.700115  1
  F  F21  1  0.549885  0.950115  0.950115  1
