# generated using pymatgen
data_TmLu3MoRu7
_symmetry_space_group_name_H-M   'P 1'
_cell_length_a   5.42428400
_cell_length_b   5.15615834
_cell_length_c   8.92416108
_cell_angle_alpha   89.98668747
_cell_angle_beta   90.00000000
_cell_angle_gamma   121.73560955
_symmetry_Int_Tables_number   1
_chemical_formula_structural   TmLu3MoRu7
_chemical_formula_sum   'Tm1 Lu3 Mo1 Ru7'
_cell_volume   212.27672714
_cell_formula_units_Z   1
loop_
 _symmetry_equiv_pos_site_id
 _symmetry_equiv_pos_as_xyz
  1  'x, y, z'
loop_
 _atom_site_type_symbol
 _atom_site_label
 _atom_site_symmetry_multiplicity
 _atom_site_fract_x
 _atom_site_fract_y
 _atom_site_fract_z
 _atom_site_occupancy
  Tm  Tm0  1  0.334699  0.669399  0.432036  1
  Lu  Lu1  1  0.673095  0.346189  0.563742  1
  Lu  Lu2  1  0.673008  0.346015  0.936673  1
  Lu  Lu3  1  0.334419  0.668839  0.067865  1
  Mo  Mo4  1  0.163552  0.327107  0.750383  1
  Ru  Ru5  1  0.170407  0.821044  0.750409  1
  Ru  Ru6  1  0.332392  0.162891  0.249445  1
  Ru  Ru7  1  0.820754  0.641506  0.249545  1
  Ru  Ru8  1  0.650637  0.821044  0.750409  1
  Ru  Ru9  1  0.008405  0.016809  0.001665  1
  Ru  Ru10  1  0.830501  0.162891  0.249445  1
  Ru  Ru11  1  0.008132  0.016263  0.498383  1
