# generated using pymatgen
data_Er3Lu9(Si3Ir)4
_symmetry_space_group_name_H-M   'P 1'
_cell_length_a   4.19224700
_cell_length_b   10.47830014
_cell_length_c   12.06435547
_cell_angle_alpha   90.05863429
_cell_angle_beta   90.00000000
_cell_angle_gamma   90.00000000
_symmetry_Int_Tables_number   1
_chemical_formula_structural   Er3Lu9(Si3Ir)4
_chemical_formula_sum   'Er3 Lu9 Si12 Ir4'
_cell_volume   529.95817281
_cell_formula_units_Z   1
loop_
 _symmetry_equiv_pos_site_id
 _symmetry_equiv_pos_as_xyz
  1  'x, y, z'
loop_
 _atom_site_type_symbol
 _atom_site_label
 _atom_site_symmetry_multiplicity
 _atom_site_fract_x
 _atom_site_fract_y
 _atom_site_fract_z
 _atom_site_occupancy
  Er  Er0  1  0.250000  0.841494  0.300306  1
  Er  Er1  1  0.750000  0.340225  0.199969  1
  Er  Er2  1  0.750000  0.158937  0.699759  1
  Lu  Lu3  1  0.250000  0.879297  0.019856  1
  Lu  Lu4  1  0.250000  0.620669  0.519908  1
  Lu  Lu5  1  0.750000  0.120735  0.980060  1
  Lu  Lu6  1  0.750000  0.379300  0.480368  1
  Lu  Lu7  1  0.250000  0.919208  0.602723  1
  Lu  Lu8  1  0.250000  0.580575  0.102999  1
  Lu  Lu9  1  0.750000  0.080287  0.397573  1
  Lu  Lu10  1  0.750000  0.420240  0.896959  1
  Lu  Lu11  1  0.250000  0.660243  0.799702  1
  Si  Si12  1  0.250000  0.011933  0.821770  1
  Si  Si13  1  0.250000  0.487345  0.321685  1
  Si  Si14  1  0.750000  0.988169  0.178222  1
  Si  Si15  1  0.750000  0.513024  0.678680  1
  Si  Si16  1  0.250000  0.248354  0.841818  1
  Si  Si17  1  0.250000  0.251326  0.342306  1
  Si  Si18  1  0.750000  0.751862  0.158097  1
  Si  Si19  1  0.750000  0.747684  0.658191  1
  Si  Si20  1  0.250000  0.198136  0.543918  1
  Si  Si21  1  0.250000  0.301968  0.043513  1
  Si  Si22  1  0.750000  0.801473  0.456217  1
  Si  Si23  1  0.750000  0.697849  0.955377  1
  Ir  Ir24  1  0.250000  0.391752  0.679508  1
  Ir  Ir25  1  0.250000  0.109542  0.178887  1
  Ir  Ir26  1  0.750000  0.608760  0.320772  1
  Ir  Ir27  1  0.750000  0.889613  0.820859  1
