# generated using pymatgen
data_Er3Al3Cu2Pd
_symmetry_space_group_name_H-M   'P 1'
_cell_length_a   7.08243300
_cell_length_b   7.08243334
_cell_length_c   3.95702100
_cell_angle_alpha   90.00000000
_cell_angle_beta   90.00000000
_cell_angle_gamma   120.00000309
_symmetry_Int_Tables_number   1
_chemical_formula_structural   Er3Al3Cu2Pd
_chemical_formula_sum   'Er3 Al3 Cu2 Pd1'
_cell_volume   171.89527674
_cell_formula_units_Z   1
loop_
 _symmetry_equiv_pos_site_id
 _symmetry_equiv_pos_as_xyz
  1  'x, y, z'
loop_
 _atom_site_type_symbol
 _atom_site_label
 _atom_site_symmetry_multiplicity
 _atom_site_fract_x
 _atom_site_fract_y
 _atom_site_fract_z
 _atom_site_occupancy
  Er  Er0  1  0.413147  0.000111  0.500000  1
  Er  Er1  1  0.999889  0.413037  0.500000  1
  Er  Er2  1  0.586963  0.586853  0.500000  1
  Al  Al3  1  0.764267  0.999429  0.000000  1
  Al  Al4  1  0.000571  0.764838  0.000000  1
  Al  Al5  1  0.235162  0.235733  0.000000  1
  Cu  Cu6  1  0.666667  0.333333  0.000000  1
  Cu  Cu7  1  0.000000  0.000000  0.500000  1
  Pd  Pd8  1  0.333333  0.666667  0.000000  1
