# generated using pymatgen
data_KCrHgF6
_symmetry_space_group_name_H-M   'P 1'
_cell_length_a   7.46841100
_cell_length_b   7.59996800
_cell_length_c   10.55548100
_cell_angle_alpha   90.00000000
_cell_angle_beta   90.00000000
_cell_angle_gamma   90.00000000
_symmetry_Int_Tables_number   1
_chemical_formula_structural   KCrHgF6
_chemical_formula_sum   'K4 Cr4 Hg4 F24'
_cell_volume   599.12577248
_cell_formula_units_Z   4
loop_
 _symmetry_equiv_pos_site_id
 _symmetry_equiv_pos_as_xyz
  1  'x, y, z'
loop_
 _atom_site_type_symbol
 _atom_site_label
 _atom_site_symmetry_multiplicity
 _atom_site_fract_x
 _atom_site_fract_y
 _atom_site_fract_z
 _atom_site_occupancy
  K  K0  1  0.032374  0.250000  0.624911  1
  K  K1  1  0.967626  0.750000  0.375089  1
  K  K2  1  0.467626  0.750000  0.124911  1
  K  K3  1  0.532374  0.250000  0.875089  1
  Cr  Cr4  1  0.000000  0.000000  0.000000  1
  Cr  Cr5  1  0.500000  0.000000  0.500000  1
  Cr  Cr6  1  0.000000  0.500000  0.000000  1
  Cr  Cr7  1  0.500000  0.500000  0.500000  1
  Hg  Hg8  1  0.202840  0.250000  0.258279  1
  Hg  Hg9  1  0.797160  0.750000  0.741721  1
  Hg  Hg10  1  0.297160  0.750000  0.758279  1
  Hg  Hg11  1  0.702840  0.250000  0.241721  1
  F  F12  1  0.267508  0.038048  0.422802  1
  F  F13  1  0.732492  0.961952  0.577198  1
  F  F14  1  0.232492  0.961952  0.922802  1
  F  F15  1  0.732492  0.538048  0.577198  1
  F  F16  1  0.767508  0.038048  0.077198  1
  F  F17  1  0.267508  0.461952  0.422802  1
  F  F18  1  0.767508  0.461952  0.077198  1
  F  F19  1  0.232492  0.538048  0.922802  1
  F  F20  1  0.562357  0.250000  0.479402  1
  F  F21  1  0.437643  0.750000  0.520598  1
  F  F22  1  0.937643  0.750000  0.979402  1
  F  F23  1  0.062357  0.250000  0.020598  1
  F  F24  1  0.108254  0.538284  0.165549  1
  F  F25  1  0.891746  0.461716  0.834451  1
  F  F26  1  0.391746  0.461716  0.665549  1
  F  F27  1  0.891746  0.038284  0.834451  1
  F  F28  1  0.608254  0.538284  0.334451  1
  F  F29  1  0.108254  0.961716  0.165549  1
  F  F30  1  0.608254  0.961716  0.334451  1
  F  F31  1  0.391746  0.038284  0.665549  1
  F  F32  1  0.442239  0.250000  0.136222  1
  F  F33  1  0.557761  0.750000  0.863778  1
  F  F34  1  0.057761  0.750000  0.636222  1
  F  F35  1  0.942239  0.250000  0.363778  1
