# generated using pymatgen
data_YHo2Er5(ReB6)4
_symmetry_space_group_name_H-M   'P 1'
_cell_length_a   3.66511800
_cell_length_b   9.14747300
_cell_length_c   11.52790200
_cell_angle_alpha   89.99796935
_cell_angle_beta   90.00000000
_cell_angle_gamma   90.00000000
_symmetry_Int_Tables_number   1
_chemical_formula_structural   YHo2Er5(ReB6)4
_chemical_formula_sum   'Y1 Ho2 Er5 Re4 B24'
_cell_volume   386.49098957
_cell_formula_units_Z   1
loop_
 _symmetry_equiv_pos_site_id
 _symmetry_equiv_pos_as_xyz
  1  'x, y, z'
loop_
 _atom_site_type_symbol
 _atom_site_label
 _atom_site_symmetry_multiplicity
 _atom_site_fract_x
 _atom_site_fract_y
 _atom_site_fract_z
 _atom_site_occupancy
  Y  Y0  1  0.000000  0.323230  0.413921  1
  Ho  Ho1  1  0.000000  0.676657  0.586157  1
  Ho  Ho2  1  0.000000  0.823380  0.086058  1
  Er  Er3  1  0.000000  0.176487  0.913914  1
  Er  Er4  1  0.000000  0.943118  0.370108  1
  Er  Er5  1  0.000000  0.056790  0.629986  1
  Er  Er6  1  0.000000  0.443136  0.129667  1
  Er  Er7  1  0.000000  0.556859  0.870229  1
  Re  Re8  1  0.000000  0.638990  0.320553  1
  Re  Re9  1  0.000000  0.361161  0.679722  1
  Re  Re10  1  0.000000  0.138612  0.178960  1
  Re  Re11  1  0.000000  0.861433  0.820765  1
  B  B12  1  0.500000  0.553548  0.433004  1
  B  B13  1  0.500000  0.446834  0.567293  1
  B  B14  1  0.500000  0.053313  0.066761  1
  B  B15  1  0.500000  0.946935  0.933025  1
  B  B16  1  0.500000  0.749713  0.418758  1
  B  B17  1  0.500000  0.250246  0.581673  1
  B  B18  1  0.500000  0.249603  0.080901  1
  B  B19  1  0.500000  0.750464  0.918736  1
  B  B20  1  0.500000  0.792455  0.265315  1
  B  B21  1  0.500000  0.207447  0.734920  1
  B  B22  1  0.500000  0.292329  0.234243  1
  B  B23  1  0.500000  0.707623  0.765420  1
  B  B24  1  0.500000  0.630715  0.185198  1
  B  B25  1  0.500000  0.369147  0.814937  1
  B  B26  1  0.500000  0.130439  0.314465  1
  B  B27  1  0.500000  0.869393  0.685377  1
  B  B28  1  0.500000  0.981897  0.211949  1
  B  B29  1  0.500000  0.018320  0.788101  1
  B  B30  1  0.500000  0.482161  0.287674  1
  B  B31  1  0.500000  0.518088  0.712215  1
  B  B32  1  0.500000  0.599580  0.027794  1
  B  B33  1  0.500000  0.400154  0.972072  1
  B  B34  1  0.500000  0.099241  0.472291  1
  B  B35  1  0.500000  0.900501  0.527839  1
