# generated using pymatgen
data_LuTh2(GeIr)3
_symmetry_space_group_name_H-M   'P 1'
_cell_length_a   7.25028887
_cell_length_b   7.31167673
_cell_length_c   3.95484300
_cell_angle_alpha   90.00000000
_cell_angle_beta   90.00000000
_cell_angle_gamma   120.28047518
_symmetry_Int_Tables_number   1
_chemical_formula_structural   LuTh2(GeIr)3
_chemical_formula_sum   'Lu1 Th2 Ge3 Ir3'
_cell_volume   181.04969334
_cell_formula_units_Z   1
loop_
 _symmetry_equiv_pos_site_id
 _symmetry_equiv_pos_as_xyz
  1  'x, y, z'
loop_
 _atom_site_type_symbol
 _atom_site_label
 _atom_site_symmetry_multiplicity
 _atom_site_fract_x
 _atom_site_fract_y
 _atom_site_fract_z
 _atom_site_occupancy
  Lu  Lu0  1  0.000000  0.596684  0.500001  1
  Th  Th1  1  0.587846  0.001464  0.500001  1
  Th  Th2  1  0.412153  0.413618  0.500001  1
  Ge  Ge3  1  0.240098  0.989079  0.000000  1
  Ge  Ge4  1  0.000000  0.255833  0.000000  1
  Ge  Ge5  1  0.759902  0.748980  0.000000  1
  Ir  Ir6  1  0.666912  0.332432  0.000000  1
  Ir  Ir7  1  0.333088  0.665520  0.000000  1
  Ir  Ir8  1  0.000000  0.996389  0.500001  1
