# generated using pymatgen
data_CdBi3(Ru2O7)2
_symmetry_space_group_name_H-M   'P 1'
_cell_length_a   7.27414394
_cell_length_b   7.27414389
_cell_length_c   7.27414396
_cell_angle_alpha   60.72528680
_cell_angle_beta   60.72529151
_cell_angle_gamma   60.72528587
_symmetry_Int_Tables_number   1
_chemical_formula_structural   CdBi3(Ru2O7)2
_chemical_formula_sum   'Cd1 Bi3 Ru4 O14'
_cell_volume   276.61853984
_cell_formula_units_Z   1
loop_
 _symmetry_equiv_pos_site_id
 _symmetry_equiv_pos_as_xyz
  1  'x, y, z'
loop_
 _atom_site_type_symbol
 _atom_site_label
 _atom_site_symmetry_multiplicity
 _atom_site_fract_x
 _atom_site_fract_y
 _atom_site_fract_z
 _atom_site_occupancy
  Cd  Cd0  1  0.125000  0.125000  0.125000  1
  Bi  Bi1  1  0.125000  0.625000  0.125000  1
  Bi  Bi2  1  0.125000  0.125000  0.625000  1
  Bi  Bi3  1  0.625000  0.125000  0.125000  1
  Ru  Ru4  1  0.625000  0.125000  0.625000  1
  Ru  Ru5  1  0.625000  0.625000  0.125000  1
  Ru  Ru6  1  0.125000  0.625000  0.625000  1
  Ru  Ru7  1  0.625000  0.625000  0.625000  1
  O  O8  1  0.705396  0.705396  0.296713  1
  O  O9  1  0.953287  0.544604  0.544604  1
  O  O10  1  0.561089  0.948481  0.948481  1
  O  O11  1  0.948481  0.948481  0.561089  1
  O  O12  1  0.948481  0.561089  0.948481  1
  O  O13  1  0.544604  0.953287  0.544604  1
  O  O14  1  0.301519  0.688911  0.301519  1
  O  O15  1  0.296713  0.705396  0.705396  1
  O  O16  1  0.688911  0.301519  0.301519  1
  O  O17  1  0.705396  0.296713  0.705396  1
  O  O18  1  0.544604  0.544604  0.953287  1
  O  O19  1  0.301519  0.301519  0.688911  1
  O  O20  1  0.244603  0.244603  0.244603  1
  O  O21  1  0.005397  0.005397  0.005397  1
