# generated using pymatgen
data_Dy2Lu3P12Ru19
_symmetry_space_group_name_H-M   'P 1'
_cell_length_a   12.51601800
_cell_length_b   12.51601840
_cell_length_c   3.97052500
_cell_angle_alpha   90.00000000
_cell_angle_beta   90.00000000
_cell_angle_gamma   119.99999895
_symmetry_Int_Tables_number   1
_chemical_formula_structural   Dy2Lu3P12Ru19
_chemical_formula_sum   'Dy2 Lu3 P12 Ru19'
_cell_volume   538.65530700
_cell_formula_units_Z   1
loop_
 _symmetry_equiv_pos_site_id
 _symmetry_equiv_pos_as_xyz
  1  'x, y, z'
loop_
 _atom_site_type_symbol
 _atom_site_label
 _atom_site_symmetry_multiplicity
 _atom_site_fract_x
 _atom_site_fract_y
 _atom_site_fract_z
 _atom_site_occupancy
  Dy  Dy0  1  0.666667  0.333333  0.000000  1
  Dy  Dy1  1  0.333333  0.666667  0.000000  1
  Lu  Lu2  1  0.817326  0.000000  0.500000  1
  Lu  Lu3  1  0.182674  0.182674  0.500000  1
  Lu  Lu4  1  0.000000  0.817326  0.500000  1
  P  P5  1  0.627104  0.000000  0.000000  1
  P  P6  1  0.372896  0.372896  0.000000  1
  P  P7  1  0.000000  0.627104  0.000000  1
  P  P8  1  0.693630  0.522869  0.500000  1
  P  P9  1  0.829240  0.306370  0.500000  1
  P  P10  1  0.306370  0.829240  0.500000  1
  P  P11  1  0.522869  0.693630  0.500000  1
  P  P12  1  0.182988  0.000000  0.000000  1
  P  P13  1  0.817012  0.817012  0.000000  1
  P  P14  1  0.000000  0.182988  0.000000  1
  P  P15  1  0.477131  0.170760  0.500000  1
  P  P16  1  0.170760  0.477131  0.500000  1
  Ru  Ru17  1  0.625067  0.809951  0.000000  1
  Ru  Ru18  1  0.184884  0.374933  0.000000  1
  Ru  Ru19  1  0.374933  0.184884  0.000000  1
  Ru  Ru20  1  0.190049  0.815116  0.000000  1
  Ru  Ru21  1  0.809951  0.625067  0.000000  1
  Ru  Ru22  1  0.874031  0.508326  0.500000  1
  Ru  Ru23  1  0.491674  0.365705  0.500000  1
  Ru  Ru24  1  0.634295  0.125969  0.500000  1
  Ru  Ru25  1  0.125969  0.634295  0.500000  1
  Ru  Ru26  1  0.365705  0.491674  0.500000  1
  Ru  Ru27  1  0.508326  0.874031  0.500000  1
  Ru  Ru28  1  0.000000  0.000000  0.000000  1
  Ru  Ru29  1  0.718801  0.718801  0.500000  1
  Ru  Ru30  1  0.000000  0.281199  0.500000  1
  Ru  Ru31  1  0.444672  0.000000  0.000000  1
  Ru  Ru32  1  0.555328  0.555328  0.000000  1
  Ru  Ru33  1  0.000000  0.444672  0.000000  1
  Ru  Ru34  1  0.815116  0.190049  0.000000  1
  Ru  Ru35  1  0.281199  0.000000  0.500000  1
