# generated using pymatgen
data_CePr3DyP12Ru19
_symmetry_space_group_name_H-M   'P 1'
_cell_length_a   12.62933400
_cell_length_b   12.62933393
_cell_length_c   4.01965900
_cell_angle_alpha   90.00000000
_cell_angle_beta   90.00000000
_cell_angle_gamma   120.00000017
_symmetry_Int_Tables_number   1
_chemical_formula_structural   CePr3DyP12Ru19
_chemical_formula_sum   'Ce1 Pr3 Dy1 P12 Ru19'
_cell_volume   555.23999109
_cell_formula_units_Z   1
loop_
 _symmetry_equiv_pos_site_id
 _symmetry_equiv_pos_as_xyz
  1  'x, y, z'
loop_
 _atom_site_type_symbol
 _atom_site_label
 _atom_site_symmetry_multiplicity
 _atom_site_fract_x
 _atom_site_fract_y
 _atom_site_fract_z
 _atom_site_occupancy
  Ce  Ce0  1  0.666667  0.333333  0.000000  1
  Pr  Pr1  1  0.184725  0.184752  0.500000  1
  Pr  Pr2  1  0.815248  0.999973  0.500000  1
  Pr  Pr3  1  0.000027  0.815275  0.500000  1
  Dy  Dy4  1  0.333333  0.666667  0.000000  1
  P  P5  1  0.811511  0.812175  0.000000  1
  P  P6  1  0.187825  0.999336  0.000000  1
  P  P7  1  0.000664  0.188489  0.000000  1
  P  P8  1  0.173545  0.478299  0.500000  1
  P  P9  1  0.521701  0.695246  0.500000  1
  P  P10  1  0.304754  0.826455  0.500000  1
  P  P11  1  0.695531  0.523496  0.500000  1
  P  P12  1  0.827965  0.304469  0.500000  1
  P  P13  1  0.476504  0.172035  0.500000  1
  P  P14  1  0.374403  0.374863  0.000000  1
  P  P15  1  0.625137  0.999540  0.000000  1
  P  P16  1  0.000460  0.625597  0.000000  1
  Ru  Ru17  1  0.554108  0.554106  0.000000  1
  Ru  Ru18  1  0.445894  0.000002  0.000000  1
  Ru  Ru19  1  0.999998  0.445892  0.000000  1
  Ru  Ru20  1  0.713421  0.713853  0.500000  1
  Ru  Ru21  1  0.286147  0.999567  0.500000  1
  Ru  Ru22  1  0.000433  0.286579  0.500000  1
  Ru  Ru23  1  0.185403  0.380748  0.000000  1
  Ru  Ru24  1  0.619252  0.804654  0.000000  1
  Ru  Ru25  1  0.195346  0.814597  0.000000  1
  Ru  Ru26  1  0.804457  0.619384  0.000000  1
  Ru  Ru27  1  0.814926  0.195543  0.000000  1
  Ru  Ru28  1  0.380616  0.185074  0.000000  1
  Ru  Ru29  1  0.367619  0.493888  0.500000  1
  Ru  Ru30  1  0.506112  0.873732  0.500000  1
  Ru  Ru31  1  0.126268  0.632381  0.500000  1
  Ru  Ru32  1  0.873875  0.506175  0.500000  1
  Ru  Ru33  1  0.632300  0.126125  0.500000  1
  Ru  Ru34  1  0.493825  0.367700  0.500000  1
  Ru  Ru35  1  0.000000  0.000000  0.000000  1
