# generated using pymatgen
data_Dy8Ho4Co3Si8Ni
_symmetry_space_group_name_H-M   'P 1'
_cell_length_a   4.09917500
_cell_length_b   11.11940604
_cell_length_c   11.31394823
_cell_angle_alpha   90.08041394
_cell_angle_beta   90.00000000
_cell_angle_gamma   90.00000000
_symmetry_Int_Tables_number   1
_chemical_formula_structural   Dy8Ho4Co3Si8Ni
_chemical_formula_sum   'Dy8 Ho4 Co3 Si8 Ni1'
_cell_volume   515.69367909
_cell_formula_units_Z   1
loop_
 _symmetry_equiv_pos_site_id
 _symmetry_equiv_pos_as_xyz
  1  'x, y, z'
loop_
 _atom_site_type_symbol
 _atom_site_label
 _atom_site_symmetry_multiplicity
 _atom_site_fract_x
 _atom_site_fract_y
 _atom_site_fract_z
 _atom_site_occupancy
  Dy  Dy0  1  0.250000  0.125490  0.558012  1
  Dy  Dy1  1  0.250000  0.372981  0.057963  1
  Dy  Dy2  1  0.750000  0.873584  0.441881  1
  Dy  Dy3  1  0.750000  0.623788  0.943084  1
  Dy  Dy4  1  0.250000  0.803384  0.714378  1
  Dy  Dy5  1  0.250000  0.698921  0.217041  1
  Dy  Dy6  1  0.750000  0.199204  0.282950  1
  Dy  Dy7  1  0.750000  0.301210  0.783325  1
  Ho  Ho8  1  0.250000  0.059852  0.882077  1
  Ho  Ho9  1  0.250000  0.441073  0.382408  1
  Ho  Ho10  1  0.750000  0.942010  0.118408  1
  Ho  Ho11  1  0.750000  0.558623  0.618336  1
  Co  Co12  1  0.250000  0.364654  0.630466  1
  Co  Co13  1  0.250000  0.135020  0.130212  1
  Co  Co14  1  0.750000  0.634531  0.369860  1
  Si  Si15  1  0.250000  0.815247  0.974705  1
  Si  Si16  1  0.250000  0.683908  0.474777  1
  Si  Si17  1  0.750000  0.183344  0.024879  1
  Si  Si18  1  0.750000  0.316310  0.525668  1
  Si  Si19  1  0.250000  0.495279  0.801441  1
  Si  Si20  1  0.250000  0.005078  0.301581  1
  Si  Si21  1  0.750000  0.505004  0.198352  1
  Si  Si22  1  0.750000  0.995902  0.697324  1
  Ni  Ni23  1  0.750000  0.865604  0.870869  1
