# generated using pymatgen
data_Tb3P2S
_symmetry_space_group_name_H-M   'P 1'
_cell_length_a   6.93825048
_cell_length_b   6.93825088
_cell_length_c   6.93825038
_cell_angle_alpha   146.52311141
_cell_angle_beta   132.08884583
_cell_angle_gamma   59.70909086
_symmetry_Int_Tables_number   1
_chemical_formula_structural   Tb3P2S
_chemical_formula_sum   'Tb3 P2 S1'
_cell_volume   135.49668935
_cell_formula_units_Z   1
loop_
 _symmetry_equiv_pos_site_id
 _symmetry_equiv_pos_as_xyz
  1  'x, y, z'
loop_
 _atom_site_type_symbol
 _atom_site_label
 _atom_site_symmetry_multiplicity
 _atom_site_fract_x
 _atom_site_fract_y
 _atom_site_fract_z
 _atom_site_occupancy
  Tb  Tb0  1  0.500000  0.000000  0.500000  1
  Tb  Tb1  1  0.171142  0.671142  0.500000  1
  Tb  Tb2  1  0.828858  0.328858  0.500000  1
  P  P3  1  0.665553  0.665553  0.000000  1
  P  P4  1  0.334447  0.334447  0.000000  1
  S  S5  1  0.000000  0.000000  0.000000  1
