# generated using pymatgen
data_Er16Lu4(Ir3Rh)3
_symmetry_space_group_name_H-M   'P 1'
_cell_length_a   10.76306400
_cell_length_b   10.76306400
_cell_length_c   6.33021200
_cell_angle_alpha   90.00000000
_cell_angle_beta   90.00000000
_cell_angle_gamma   90.00000000
_symmetry_Int_Tables_number   1
_chemical_formula_structural   Er16Lu4(Ir3Rh)3
_chemical_formula_sum   'Er16 Lu4 Ir9 Rh3'
_cell_volume   733.31420924
_cell_formula_units_Z   1
loop_
 _symmetry_equiv_pos_site_id
 _symmetry_equiv_pos_as_xyz
  1  'x, y, z'
loop_
 _atom_site_type_symbol
 _atom_site_label
 _atom_site_symmetry_multiplicity
 _atom_site_fract_x
 _atom_site_fract_y
 _atom_site_fract_z
 _atom_site_occupancy
  Er  Er0  1  0.289986  0.087936  0.378432  1
  Er  Er1  1  0.289871  0.911714  0.878253  1
  Er  Er2  1  0.710129  0.088286  0.878253  1
  Er  Er3  1  0.710014  0.912064  0.378432  1
  Er  Er4  1  0.588286  0.789871  0.878253  1
  Er  Er5  1  0.587936  0.210014  0.378432  1
  Er  Er6  1  0.412064  0.789986  0.378432  1
  Er  Er7  1  0.411714  0.210129  0.878253  1
  Er  Er8  1  0.209292  0.412020  0.620507  1
  Er  Er9  1  0.209579  0.588237  0.122828  1
  Er  Er10  1  0.790421  0.411763  0.122828  1
  Er  Er11  1  0.790708  0.587980  0.620507  1
  Er  Er12  1  0.911763  0.709579  0.122828  1
  Er  Er13  1  0.912020  0.290708  0.620507  1
  Er  Er14  1  0.087980  0.709292  0.620507  1
  Er  Er15  1  0.088237  0.290421  0.122828  1
  Lu  Lu16  1  0.000000  0.000000  0.500350  1
  Lu  Lu17  1  0.000000  0.000000  0.000308  1
  Lu  Lu18  1  0.500000  0.500000  0.000308  1
  Lu  Lu19  1  0.500000  0.500000  0.500350  1
  Ir  Ir20  1  0.846849  0.151901  0.249890  1
  Ir  Ir21  1  0.847085  0.847675  0.750048  1
  Ir  Ir22  1  0.152915  0.152325  0.750048  1
  Ir  Ir23  1  0.153151  0.848099  0.249890  1
  Ir  Ir24  1  0.652325  0.347085  0.750048  1
  Ir  Ir25  1  0.651901  0.653151  0.249890  1
  Ir  Ir26  1  0.348099  0.346849  0.249890  1
  Ir  Ir27  1  0.347675  0.652915  0.750048  1
  Ir  Ir28  1  0.000000  0.500000  0.375680  1
  Rh  Rh29  1  0.500000  0.000000  0.122719  1
  Rh  Rh30  1  0.500000  0.000000  0.622708  1
  Rh  Rh31  1  0.000000  0.500000  0.877745  1
