# generated using pymatgen
data_Tb3ThNi4
_symmetry_space_group_name_H-M   'P 1'
_cell_length_a   3.72626200
_cell_length_b   4.32345700
_cell_length_c   10.18788700
_cell_angle_alpha   90.00000000
_cell_angle_beta   90.00000000
_cell_angle_gamma   90.00000000
_symmetry_Int_Tables_number   1
_chemical_formula_structural   Tb3ThNi4
_chemical_formula_sum   'Tb3 Th1 Ni4'
_cell_volume   164.13025751
_cell_formula_units_Z   1
loop_
 _symmetry_equiv_pos_site_id
 _symmetry_equiv_pos_as_xyz
  1  'x, y, z'
loop_
 _atom_site_type_symbol
 _atom_site_label
 _atom_site_symmetry_multiplicity
 _atom_site_fract_x
 _atom_site_fract_y
 _atom_site_fract_z
 _atom_site_occupancy
  Tb  Tb0  1  0.000000  0.500000  0.861735  1
  Tb  Tb1  1  0.000000  0.000000  0.133062  1
  Tb  Tb2  1  0.500000  0.000000  0.644722  1
  Th  Th3  1  0.500000  0.500000  0.362336  1
  Ni  Ni4  1  0.500000  0.500000  0.076174  1
  Ni  Ni5  1  0.000000  0.500000  0.573448  1
  Ni  Ni6  1  0.000000  0.000000  0.422137  1
  Ni  Ni7  1  0.500000  0.000000  0.926387  1
