# generated using pymatgen
data_Li4PrNd3(Co4P3)4
_symmetry_space_group_name_H-M   'P 1'
_cell_length_a   3.74895400
_cell_length_b   10.42285303
_cell_length_c   12.04652603
_cell_angle_alpha   90.00847607
_cell_angle_beta   90.00000000
_cell_angle_gamma   90.00000000
_symmetry_Int_Tables_number   1
_chemical_formula_structural   Li4PrNd3(Co4P3)4
_chemical_formula_sum   'Li4 Pr1 Nd3 Co16 P12'
_cell_volume   470.71554875
_cell_formula_units_Z   1
loop_
 _symmetry_equiv_pos_site_id
 _symmetry_equiv_pos_as_xyz
  1  'x, y, z'
loop_
 _atom_site_type_symbol
 _atom_site_label
 _atom_site_symmetry_multiplicity
 _atom_site_fract_x
 _atom_site_fract_y
 _atom_site_fract_z
 _atom_site_occupancy
  Li  Li0  1  0.250000  0.700586  0.993553  1
  Li  Li1  1  0.250000  0.799267  0.493366  1
  Li  Li2  1  0.750000  0.299420  0.006715  1
  Li  Li3  1  0.750000  0.200735  0.506520  1
  Pr  Pr4  1  0.750000  0.080876  0.799627  1
  Nd  Nd5  1  0.250000  0.580814  0.700474  1
  Nd  Nd6  1  0.250000  0.919139  0.200442  1
  Nd  Nd7  1  0.750000  0.419188  0.299471  1
  Co  Co8  1  0.250000  0.406804  0.487926  1
  Co  Co9  1  0.250000  0.092879  0.988802  1
  Co  Co10  1  0.750000  0.593208  0.511977  1
  Co  Co11  1  0.750000  0.906425  0.012270  1
  Co  Co12  1  0.250000  0.220751  0.171743  1
  Co  Co13  1  0.250000  0.279721  0.671466  1
  Co  Co14  1  0.750000  0.779075  0.828411  1
  Co  Co15  1  0.750000  0.720644  0.328318  1
  Co  Co16  1  0.250000  0.880598  0.698854  1
  Co  Co17  1  0.250000  0.618918  0.199144  1
  Co  Co18  1  0.750000  0.118932  0.300792  1
  Co  Co19  1  0.750000  0.381557  0.800883  1
  Co  Co20  1  0.250000  0.468284  0.933382  1
  Co  Co21  1  0.250000  0.032079  0.432956  1
  Co  Co22  1  0.750000  0.532158  0.066820  1
  Co  Co23  1  0.750000  0.967680  0.566394  1
  P  P24  1  0.250000  0.423669  0.112741  1
  P  P25  1  0.250000  0.076280  0.612050  1
  P  P26  1  0.750000  0.576418  0.887341  1
  P  P27  1  0.750000  0.923631  0.387121  1
  P  P28  1  0.250000  0.278611  0.857467  1
  P  P29  1  0.250000  0.222537  0.357497  1
  P  P30  1  0.750000  0.722478  0.142539  1
  P  P31  1  0.750000  0.777415  0.642478  1
  P  P32  1  0.250000  0.604609  0.395046  1
  P  P33  1  0.250000  0.894584  0.895473  1
  P  P34  1  0.750000  0.395394  0.604925  1
  P  P35  1  0.750000  0.104637  0.105016  1
