# generated using pymatgen
data_Y4Mg4IrRh3
_symmetry_space_group_name_H-M   'P 1'
_cell_length_a   4.12773600
_cell_length_b   7.11401157
_cell_length_c   8.55832438
_cell_angle_alpha   90.46952472
_cell_angle_beta   90.00000000
_cell_angle_gamma   90.00000000
_symmetry_Int_Tables_number   1
_chemical_formula_structural   Y4Mg4IrRh3
_chemical_formula_sum   'Y4 Mg4 Ir1 Rh3'
_cell_volume   251.30471731
_cell_formula_units_Z   1
loop_
 _symmetry_equiv_pos_site_id
 _symmetry_equiv_pos_as_xyz
  1  'x, y, z'
loop_
 _atom_site_type_symbol
 _atom_site_label
 _atom_site_symmetry_multiplicity
 _atom_site_fract_x
 _atom_site_fract_y
 _atom_site_fract_z
 _atom_site_occupancy
  Y  Y0  1  0.250000  0.540616  0.178081  1
  Y  Y1  1  0.750000  0.462925  0.824814  1
  Y  Y2  1  0.250000  0.033645  0.323683  1
  Y  Y3  1  0.750000  0.960646  0.674597  1
  Mg  Mg4  1  0.250000  0.137199  0.941107  1
  Mg  Mg5  1  0.750000  0.863654  0.059454  1
  Mg  Mg6  1  0.250000  0.636410  0.559452  1
  Mg  Mg7  1  0.750000  0.363438  0.440633  1
  Ir  Ir8  1  0.750000  0.745675  0.369863  1
  Rh  Rh9  1  0.250000  0.253314  0.630335  1
  Rh  Rh10  1  0.750000  0.248497  0.128202  1
  Rh  Rh11  1  0.250000  0.753982  0.869781  1
