# generated using pymatgen
data_Zr4ZnAs
_symmetry_space_group_name_H-M   'P 1'
_cell_length_a   5.44178652
_cell_length_b   5.44178759
_cell_length_c   5.44178695
_cell_angle_alpha   104.57547596
_cell_angle_beta   104.57548142
_cell_angle_gamma   119.78123748
_symmetry_Int_Tables_number   1
_chemical_formula_structural   Zr4ZnAs
_chemical_formula_sum   'Zr4 Zn1 As1'
_cell_volume   120.99272453
_cell_formula_units_Z   1
loop_
 _symmetry_equiv_pos_site_id
 _symmetry_equiv_pos_as_xyz
  1  'x, y, z'
loop_
 _atom_site_type_symbol
 _atom_site_label
 _atom_site_symmetry_multiplicity
 _atom_site_fract_x
 _atom_site_fract_y
 _atom_site_fract_z
 _atom_site_occupancy
  Zr  Zr0  1  0.153949  0.653949  0.807899  1
  Zr  Zr1  1  0.346051  0.153949  0.500000  1
  Zr  Zr2  1  0.653949  0.846051  0.500000  1
  Zr  Zr3  1  0.846051  0.346051  0.192101  1
  Zn  Zn4  1  0.750000  0.750000  0.000000  1
  As  As5  1  0.250000  0.250000  0.000000  1
