# generated using pymatgen
data_Tm12TlFe2TcHg
_symmetry_space_group_name_H-M   'P 1'
_cell_length_a   8.25440683
_cell_length_b   8.25430805
_cell_length_c   8.25440893
_cell_angle_alpha   109.42339927
_cell_angle_beta   108.48312077
_cell_angle_gamma   110.51403315
_symmetry_Int_Tables_number   1
_chemical_formula_structural   Tm12TlFe2TcHg
_chemical_formula_sum   'Tm12 Tl1 Fe2 Tc1 Hg1'
_cell_volume   432.80385412
_cell_formula_units_Z   1
loop_
 _symmetry_equiv_pos_site_id
 _symmetry_equiv_pos_as_xyz
  1  'x, y, z'
loop_
 _atom_site_type_symbol
 _atom_site_label
 _atom_site_symmetry_multiplicity
 _atom_site_fract_x
 _atom_site_fract_y
 _atom_site_fract_z
 _atom_site_occupancy
  Tm  Tm0  1  0.191919  0.435404  0.243485  1
  Tm  Tm1  1  0.808081  0.564596  0.756515  1
  Tm  Tm2  1  0.191947  0.948454  0.756507  1
  Tm  Tm3  1  0.956133  0.191643  0.764536  1
  Tm  Tm4  1  0.808053  0.051546  0.243493  1
  Tm  Tm5  1  0.043867  0.808357  0.235464  1
  Tm  Tm6  1  0.427106  0.191643  0.235511  1
  Tm  Tm7  1  0.572894  0.808357  0.764489  1
  Tm  Tm8  1  0.308435  0.309180  0.617594  1
  Tm  Tm9  1  0.691565  0.690820  0.382406  1
  Tm  Tm10  1  0.691586  0.309180  0.000745  1
  Tm  Tm11  1  0.308414  0.690820  0.999255  1
  Tl  Tl12  1  0.500000  0.000000  0.500000  1
  Fe  Fe13  1  0.383687  0.383638  0.999951  1
  Fe  Fe14  1  0.616313  0.616362  0.000049  1
  Tc  Tc15  1  0.000000  0.000000  0.000000  1
  Hg  Hg16  1  0.000000  0.500000  0.500000  1
