# generated using pymatgen
data_Hf6Al12Si4Ir7
_symmetry_space_group_name_H-M   'P 1'
_cell_length_a   8.64697150
_cell_length_b   8.67671114
_cell_length_c   8.67671156
_cell_angle_alpha   59.79359264
_cell_angle_beta   59.64073510
_cell_angle_gamma   59.64073476
_symmetry_Int_Tables_number   1
_chemical_formula_structural   Hf6Al12Si4Ir7
_chemical_formula_sum   'Hf6 Al12 Si4 Ir7'
_cell_volume   457.09334914
_cell_formula_units_Z   1
loop_
 _symmetry_equiv_pos_site_id
 _symmetry_equiv_pos_as_xyz
  1  'x, y, z'
loop_
 _atom_site_type_symbol
 _atom_site_label
 _atom_site_symmetry_multiplicity
 _atom_site_fract_x
 _atom_site_fract_y
 _atom_site_fract_z
 _atom_site_occupancy
  Hf  Hf0  1  0.685833  0.314857  0.314857  1
  Hf  Hf1  1  0.313814  0.686723  0.686723  1
  Hf  Hf2  1  0.313953  0.686065  0.313844  1
  Hf  Hf3  1  0.686603  0.314328  0.685385  1
  Hf  Hf4  1  0.313953  0.313844  0.686065  1
  Hf  Hf5  1  0.686603  0.685385  0.314328  1
  Al  Al6  1  0.662859  0.663447  0.012632  1
  Al  Al7  1  0.662859  0.012632  0.663447  1
  Al  Al8  1  0.984462  0.338595  0.338595  1
  Al  Al9  1  0.011853  0.663443  0.663443  1
  Al  Al10  1  0.117374  0.121538  0.121538  1
  Al  Al11  1  0.881503  0.880352  0.880352  1
  Al  Al12  1  0.117640  0.121004  0.638772  1
  Al  Al13  1  0.117640  0.638772  0.121004  1
  Al  Al14  1  0.882170  0.881453  0.359174  1
  Al  Al15  1  0.882170  0.359174  0.881453  1
  Al  Al16  1  0.636107  0.120884  0.120884  1
  Al  Al17  1  0.359566  0.881330  0.881330  1
  Si  Si18  1  0.342523  0.345358  0.345358  1
  Si  Si19  1  0.657990  0.658130  0.658130  1
  Si  Si20  1  0.343006  0.345493  0.965924  1
  Si  Si21  1  0.343006  0.965924  0.345493  1
  Ir  Ir22  1  0.491382  0.007824  0.007824  1
  Ir  Ir23  1  0.999908  0.500032  0.500032  1
  Ir  Ir24  1  0.007319  0.496512  0.999894  1
  Ir  Ir25  1  0.495389  0.000849  0.496249  1
  Ir  Ir26  1  0.007319  0.999894  0.496512  1
  Ir  Ir27  1  0.495389  0.496249  0.000849  1
  Ir  Ir28  1  0.999812  0.999909  0.999909  1
