# generated using pymatgen
data_YbEr19Rh12
_symmetry_space_group_name_H-M   'P 1'
_cell_length_a   10.83464162
_cell_length_b   10.84635646
_cell_length_c   6.33133300
_cell_angle_alpha   89.92354120
_cell_angle_beta   90.03982017
_cell_angle_gamma   90.04802343
_symmetry_Int_Tables_number   1
_chemical_formula_structural   YbEr19Rh12
_chemical_formula_sum   'Yb1 Er19 Rh12'
_cell_volume   744.03426395
_cell_formula_units_Z   1
loop_
 _symmetry_equiv_pos_site_id
 _symmetry_equiv_pos_as_xyz
  1  'x, y, z'
loop_
 _atom_site_type_symbol
 _atom_site_label
 _atom_site_symmetry_multiplicity
 _atom_site_fract_x
 _atom_site_fract_y
 _atom_site_fract_z
 _atom_site_occupancy
  Yb  Yb0  1  0.090186  0.290633  0.121059  1
  Er  Er1  1  0.291765  0.088682  0.380651  1
  Er  Er2  1  0.290365  0.911079  0.879563  1
  Er  Er3  1  0.708169  0.088313  0.880359  1
  Er  Er4  1  0.708387  0.911541  0.380422  1
  Er  Er5  1  0.587970  0.791352  0.881965  1
  Er  Er6  1  0.587880  0.209648  0.380788  1
  Er  Er7  1  0.410738  0.790926  0.380998  1
  Er  Er8  1  0.411753  0.208881  0.878210  1
  Er  Er9  1  0.208515  0.412660  0.617624  1
  Er  Er10  1  0.208776  0.588104  0.119521  1
  Er  Er11  1  0.793029  0.410453  0.119675  1
  Er  Er12  1  0.792585  0.589496  0.619966  1
  Er  Er13  1  0.911823  0.708868  0.118375  1
  Er  Er14  1  0.910233  0.291684  0.617741  1
  Er  Er15  1  0.087481  0.708535  0.618800  1
  Er  Er16  1  0.000179  0.998989  0.501017  1
  Er  Er17  1  0.999512  0.002214  0.000307  1
  Er  Er18  1  0.500869  0.499588  0.001907  1
  Er  Er19  1  0.501114  0.500633  0.501629  1
  Rh  Rh20  1  0.839881  0.148944  0.255916  1
  Rh  Rh21  1  0.846072  0.847694  0.750952  1
  Rh  Rh22  1  0.154332  0.152701  0.741638  1
  Rh  Rh23  1  0.153588  0.847333  0.248649  1
  Rh  Rh24  1  0.654625  0.345855  0.751387  1
  Rh  Rh25  1  0.655085  0.652690  0.249056  1
  Rh  Rh26  1  0.351813  0.346536  0.253469  1
  Rh  Rh27  1  0.345927  0.652781  0.750837  1
  Rh  Rh28  1  0.499155  0.999963  0.127378  1
  Rh  Rh29  1  0.499366  0.999635  0.627825  1
  Rh  Rh30  1  0.999238  0.502023  0.870198  1
  Rh  Rh31  1  0.999587  0.501570  0.372118  1
