# generated using pymatgen
data_Ho8MgZn(SiB4)4
_symmetry_space_group_name_H-M   'P 1'
_cell_length_a   7.14539300
_cell_length_b   7.14539300
_cell_length_c   7.74284500
_cell_angle_alpha   90.00000000
_cell_angle_beta   90.00000000
_cell_angle_gamma   90.00000000
_symmetry_Int_Tables_number   1
_chemical_formula_structural   Ho8MgZn(SiB4)4
_chemical_formula_sum   'Ho8 Mg1 Zn1 Si4 B16'
_cell_volume   395.32365845
_cell_formula_units_Z   1
loop_
 _symmetry_equiv_pos_site_id
 _symmetry_equiv_pos_as_xyz
  1  'x, y, z'
loop_
 _atom_site_type_symbol
 _atom_site_label
 _atom_site_symmetry_multiplicity
 _atom_site_fract_x
 _atom_site_fract_y
 _atom_site_fract_z
 _atom_site_occupancy
  Ho  Ho0  1  0.683108  0.182372  0.233903  1
  Ho  Ho1  1  0.316892  0.817628  0.766097  1
  Ho  Ho2  1  0.316892  0.817628  0.233903  1
  Ho  Ho3  1  0.817628  0.683108  0.233903  1
  Ho  Ho4  1  0.817628  0.683108  0.766097  1
  Ho  Ho5  1  0.683108  0.182372  0.766097  1
  Ho  Ho6  1  0.182372  0.316892  0.766097  1
  Ho  Ho7  1  0.182372  0.316892  0.233903  1
  Mg  Mg8  1  0.500000  0.500000  0.500000  1
  Zn  Zn9  1  0.000000  0.000000  0.500000  1
  Si  Si10  1  0.114536  0.616124  0.500000  1
  Si  Si11  1  0.885464  0.383876  0.500000  1
  Si  Si12  1  0.383876  0.114536  0.500000  1
  Si  Si13  1  0.616124  0.885464  0.500000  1
  B  B14  1  0.174250  0.039728  0.000000  1
  B  B15  1  0.825750  0.960272  0.000000  1
  B  B16  1  0.960272  0.174250  0.000000  1
  B  B17  1  0.326583  0.539684  0.000000  1
  B  B18  1  0.039728  0.825750  0.000000  1
  B  B19  1  0.673417  0.460316  0.000000  1
  B  B20  1  0.539684  0.673417  0.000000  1
  B  B21  1  0.460316  0.326583  0.000000  1
  B  B22  1  0.089131  0.588651  0.000000  1
  B  B23  1  0.910869  0.411349  0.000000  1
  B  B24  1  0.411349  0.089131  0.000000  1
  B  B25  1  0.588651  0.910869  0.000000  1
  B  B26  1  0.000000  0.000000  0.163579  1
  B  B27  1  0.000000  0.000000  0.836421  1
  B  B28  1  0.500000  0.500000  0.834792  1
  B  B29  1  0.500000  0.500000  0.165208  1
