# generated using pymatgen
data_Zr8Ta7Nb5Ge16
_symmetry_space_group_name_H-M   'P 1'
_cell_length_a   6.84924534
_cell_length_b   6.99473828
_cell_length_c   13.34671112
_cell_angle_alpha   90.00078596
_cell_angle_beta   89.98468355
_cell_angle_gamma   89.96741922
_symmetry_Int_Tables_number   1
_chemical_formula_structural   Zr8Ta7Nb5Ge16
_chemical_formula_sum   'Zr8 Ta7 Nb5 Ge16'
_cell_volume   639.42316677
_cell_formula_units_Z   1
loop_
 _symmetry_equiv_pos_site_id
 _symmetry_equiv_pos_as_xyz
  1  'x, y, z'
loop_
 _atom_site_type_symbol
 _atom_site_label
 _atom_site_symmetry_multiplicity
 _atom_site_fract_x
 _atom_site_fract_y
 _atom_site_fract_z
 _atom_site_occupancy
  Zr  Zr0  1  0.489349  0.673519  0.591944  1
  Zr  Zr1  1  0.989288  0.826251  0.908451  1
  Zr  Zr2  1  0.510749  0.326220  0.091544  1
  Zr  Zr3  1  0.010263  0.174042  0.408524  1
  Zr  Zr4  1  0.510497  0.325751  0.408098  1
  Zr  Zr5  1  0.010679  0.174379  0.091852  1
  Zr  Zr6  1  0.489261  0.674097  0.908095  1
  Zr  Zr7  1  0.989517  0.825855  0.591936  1
  Ta  Ta8  1  0.840971  0.665363  0.125006  1
  Ta  Ta9  1  0.658831  0.165155  0.874929  1
  Ta  Ta10  1  0.159141  0.334744  0.625156  1
  Ta  Ta11  1  0.836418  0.491070  0.749944  1
  Ta  Ta12  1  0.336449  0.008968  0.750052  1
  Ta  Ta13  1  0.163276  0.508404  0.249695  1
  Ta  Ta14  1  0.664027  0.991228  0.249798  1
  Nb  Nb15  1  0.659301  0.164812  0.624720  1
  Nb  Nb16  1  0.159341  0.335367  0.875223  1
  Nb  Nb17  1  0.340743  0.835063  0.124735  1
  Nb  Nb18  1  0.840960  0.665006  0.375134  1
  Nb  Nb19  1  0.340807  0.834945  0.375142  1
  Ge  Ge20  1  0.681402  0.960783  0.459568  1
  Ge  Ge21  1  0.181250  0.539155  0.040494  1
  Ge  Ge22  1  0.318769  0.039241  0.959555  1
  Ge  Ge23  1  0.818890  0.460681  0.540409  1
  Ge  Ge24  1  0.318033  0.039555  0.540299  1
  Ge  Ge25  1  0.818025  0.460420  0.959891  1
  Ge  Ge26  1  0.682162  0.960582  0.040078  1
  Ge  Ge27  1  0.181730  0.539291  0.459894  1
  Ge  Ge28  1  0.462422  0.387218  0.749864  1
  Ge  Ge29  1  0.962157  0.112926  0.750165  1
  Ge  Ge30  1  0.537621  0.612770  0.249853  1
  Ge  Ge31  1  0.037784  0.887130  0.250029  1
  Ge  Ge32  1  0.692620  0.849628  0.750030  1
  Ge  Ge33  1  0.192565  0.650441  0.749991  1
  Ge  Ge34  1  0.307313  0.150341  0.249961  1
  Ge  Ge35  1  0.807388  0.349597  0.249942  1
