# generated using pymatgen
data_Ho(Sc3Bi2)3
_symmetry_space_group_name_H-M   'P 1'
_cell_length_a   7.82930100
_cell_length_b   9.03066900
_cell_length_c   11.46455900
_cell_angle_alpha   90.00000000
_cell_angle_beta   90.00000000
_cell_angle_gamma   90.00000000
_symmetry_Int_Tables_number   1
_chemical_formula_structural   Ho(Sc3Bi2)3
_chemical_formula_sum   'Ho2 Sc18 Bi12'
_cell_volume   810.58818278
_cell_formula_units_Z   2
loop_
 _symmetry_equiv_pos_site_id
 _symmetry_equiv_pos_as_xyz
  1  'x, y, z'
loop_
 _atom_site_type_symbol
 _atom_site_label
 _atom_site_symmetry_multiplicity
 _atom_site_fract_x
 _atom_site_fract_y
 _atom_site_fract_z
 _atom_site_occupancy
  Ho  Ho0  1  0.685295  0.750000  0.780615  1
  Ho  Ho1  1  0.185295  0.750000  0.719385  1
  Sc  Sc2  1  0.351821  0.750000  0.220612  1
  Sc  Sc3  1  0.851821  0.750000  0.279388  1
  Sc  Sc4  1  0.649106  0.250000  0.782068  1
  Sc  Sc5  1  0.149106  0.250000  0.717932  1
  Sc  Sc6  1  0.694781  0.566983  0.061580  1
  Sc  Sc7  1  0.194781  0.933017  0.438420  1
  Sc  Sc8  1  0.306177  0.068184  0.940493  1
  Sc  Sc9  1  0.806177  0.431816  0.559507  1
  Sc  Sc10  1  0.306177  0.431816  0.940493  1
  Sc  Sc11  1  0.806177  0.068184  0.559507  1
  Sc  Sc12  1  0.694781  0.933017  0.061580  1
  Sc  Sc13  1  0.194781  0.566983  0.438420  1
  Sc  Sc14  1  0.479544  0.250000  0.487455  1
  Sc  Sc15  1  0.979544  0.250000  0.012545  1
  Sc  Sc16  1  0.518896  0.750000  0.508615  1
  Sc  Sc17  1  0.018896  0.750000  0.991385  1
  Sc  Sc18  1  0.313572  0.250000  0.218294  1
  Sc  Sc19  1  0.813572  0.250000  0.281706  1
  Bi  Bi20  1  0.402196  0.750000  0.966149  1
  Bi  Bi21  1  0.902196  0.750000  0.533851  1
  Bi  Bi22  1  0.593869  0.250000  0.040496  1
  Bi  Bi23  1  0.093869  0.250000  0.459504  1
  Bi  Bi24  1  0.566254  0.996227  0.325824  1
  Bi  Bi25  1  0.066254  0.503773  0.174176  1
  Bi  Bi26  1  0.435639  0.489389  0.671578  1
  Bi  Bi27  1  0.935639  0.010611  0.828422  1
  Bi  Bi28  1  0.435639  0.010611  0.671578  1
  Bi  Bi29  1  0.935639  0.489389  0.828422  1
  Bi  Bi30  1  0.566254  0.503773  0.325824  1
  Bi  Bi31  1  0.066254  0.996227  0.174176  1
