# generated using pymatgen
data_La16Cd4Ni3Ir
_symmetry_space_group_name_H-M   'P 1'
_cell_length_a   10.09225552
_cell_length_b   10.09225593
_cell_length_c   10.09225570
_cell_angle_alpha   59.70041109
_cell_angle_beta   59.70041003
_cell_angle_gamma   59.70041066
_symmetry_Int_Tables_number   1
_chemical_formula_structural   La16Cd4Ni3Ir
_chemical_formula_sum   'La16 Cd4 Ni3 Ir1'
_cell_volume   721.91191596
_cell_formula_units_Z   1
loop_
 _symmetry_equiv_pos_site_id
 _symmetry_equiv_pos_as_xyz
  1  'x, y, z'
loop_
 _atom_site_type_symbol
 _atom_site_label
 _atom_site_symmetry_multiplicity
 _atom_site_fract_x
 _atom_site_fract_y
 _atom_site_fract_z
 _atom_site_occupancy
  La  La0  1  0.596462  0.596462  0.596462  1
  La  La1  1  0.599646  0.599646  0.207583  1
  La  La2  1  0.599646  0.207583  0.599646  1
  La  La3  1  0.207583  0.599646  0.599646  1
  La  La4  1  0.058593  0.439777  0.439777  1
  La  La5  1  0.441566  0.056027  0.056027  1
  La  La6  1  0.439777  0.058593  0.439777  1
  La  La7  1  0.056027  0.441566  0.056027  1
  La  La8  1  0.439777  0.439777  0.058593  1
  La  La9  1  0.056027  0.056027  0.441566  1
  La  La10  1  0.189582  0.813332  0.813332  1
  La  La11  1  0.801625  0.191461  0.191461  1
  La  La12  1  0.813332  0.189582  0.813332  1
  La  La13  1  0.191461  0.801625  0.191461  1
  La  La14  1  0.813332  0.813332  0.189582  1
  La  La15  1  0.191461  0.191461  0.801625  1
  Cd  Cd16  1  0.829480  0.829480  0.829480  1
  Cd  Cd17  1  0.828946  0.828946  0.512791  1
  Cd  Cd18  1  0.828946  0.512791  0.828946  1
  Cd  Cd19  1  0.512791  0.828946  0.828946  1
  Ni  Ni20  1  0.392922  0.392922  0.825243  1
  Ni  Ni21  1  0.392922  0.825243  0.392922  1
  Ni  Ni22  1  0.825243  0.392922  0.392922  1
  Ir  Ir23  1  0.392857  0.392857  0.392857  1
