# generated using pymatgen
data_NdLuSe2
_symmetry_space_group_name_H-M   'P 1'
_cell_length_a   7.32066165
_cell_length_b   7.32066147
_cell_length_c   7.32066105
_cell_angle_alpha   32.11755991
_cell_angle_beta   32.11756184
_cell_angle_gamma   32.11756379
_symmetry_Int_Tables_number   1
_chemical_formula_structural   NdLuSe2
_chemical_formula_sum   'Nd1 Lu1 Se2'
_cell_volume   98.54870809
_cell_formula_units_Z   1
loop_
 _symmetry_equiv_pos_site_id
 _symmetry_equiv_pos_as_xyz
  1  'x, y, z'
loop_
 _atom_site_type_symbol
 _atom_site_label
 _atom_site_symmetry_multiplicity
 _atom_site_fract_x
 _atom_site_fract_y
 _atom_site_fract_z
 _atom_site_occupancy
  Nd  Nd0  1  0.000000  0.000000  0.000000  1
  Lu  Lu1  1  0.500000  0.500000  0.500000  1
  Se  Se2  1  0.757588  0.757588  0.757588  1
  Se  Se3  1  0.242412  0.242412  0.242412  1
