# generated using pymatgen
data_Mg4Si6Pt7
_symmetry_space_group_name_H-M   'P 1'
_cell_length_a   7.01848173
_cell_length_b   7.01848277
_cell_length_c   7.01848200
_cell_angle_alpha   109.47121842
_cell_angle_beta   109.47122142
_cell_angle_gamma   109.47122502
_symmetry_Int_Tables_number   1
_chemical_formula_structural   Mg4Si6Pt7
_chemical_formula_sum   'Mg4 Si6 Pt7'
_cell_volume   266.13849417
_cell_formula_units_Z   1
loop_
 _symmetry_equiv_pos_site_id
 _symmetry_equiv_pos_as_xyz
  1  'x, y, z'
loop_
 _atom_site_type_symbol
 _atom_site_label
 _atom_site_symmetry_multiplicity
 _atom_site_fract_x
 _atom_site_fract_y
 _atom_site_fract_z
 _atom_site_occupancy
  Mg  Mg0  1  0.500000  0.500000  0.500000  1
  Mg  Mg1  1  0.000000  0.500000  0.000000  1
  Mg  Mg2  1  0.000000  0.000000  0.500000  1
  Mg  Mg3  1  0.500000  0.000000  0.000000  1
  Si  Si4  1  0.682258  0.000000  0.682258  1
  Si  Si5  1  0.317742  0.000000  0.317742  1
  Si  Si6  1  0.000000  0.317742  0.317742  1
  Si  Si7  1  0.000000  0.682258  0.682258  1
  Si  Si8  1  0.682258  0.682258  0.000000  1
  Si  Si9  1  0.317742  0.317742  0.000000  1
  Pt  Pt10  1  0.250000  0.500000  0.750000  1
  Pt  Pt11  1  0.250000  0.750000  0.500000  1
  Pt  Pt12  1  0.500000  0.250000  0.750000  1
  Pt  Pt13  1  0.500000  0.750000  0.250000  1
  Pt  Pt14  1  0.750000  0.500000  0.250000  1
  Pt  Pt15  1  0.000000  0.000000  0.000000  1
  Pt  Pt16  1  0.750000  0.250000  0.500000  1
