# generated using pymatgen
data_Y16Al4IrPt3
_symmetry_space_group_name_H-M   'P 1'
_cell_length_a   9.64070888
_cell_length_b   9.64070902
_cell_length_c   9.64071007
_cell_angle_alpha   59.88597728
_cell_angle_beta   59.88597622
_cell_angle_gamma   59.88598114
_symmetry_Int_Tables_number   1
_chemical_formula_structural   Y16Al4IrPt3
_chemical_formula_sum   'Y16 Al4 Ir1 Pt3'
_cell_volume   631.95621526
_cell_formula_units_Z   1
loop_
 _symmetry_equiv_pos_site_id
 _symmetry_equiv_pos_as_xyz
  1  'x, y, z'
loop_
 _atom_site_type_symbol
 _atom_site_label
 _atom_site_symmetry_multiplicity
 _atom_site_fract_x
 _atom_site_fract_y
 _atom_site_fract_z
 _atom_site_occupancy
  Y  Y0  1  0.806121  0.194071  0.806121  1
  Y  Y1  1  0.934590  0.563975  0.563975  1
  Y  Y2  1  0.563975  0.934590  0.563975  1
  Y  Y3  1  0.810874  0.192306  0.192306  1
  Y  Y4  1  0.192306  0.810874  0.192306  1
  Y  Y5  1  0.352483  0.939216  0.352483  1
  Y  Y6  1  0.937366  0.937366  0.560051  1
  Y  Y7  1  0.560051  0.937366  0.937366  1
  Y  Y8  1  0.194071  0.806121  0.806121  1
  Y  Y9  1  0.352483  0.352483  0.939216  1
  Y  Y10  1  0.563975  0.563975  0.934590  1
  Y  Y11  1  0.354001  0.354001  0.354001  1
  Y  Y12  1  0.192306  0.192306  0.810874  1
  Y  Y13  1  0.806121  0.806121  0.194071  1
  Y  Y14  1  0.937366  0.560051  0.937366  1
  Y  Y15  1  0.939216  0.352483  0.352483  1
  Al  Al16  1  0.579234  0.579234  0.579234  1
  Al  Al17  1  0.578191  0.266756  0.578191  1
  Al  Al18  1  0.578191  0.578191  0.266756  1
  Al  Al19  1  0.266756  0.578191  0.578191  1
  Ir  Ir20  1  0.142776  0.142776  0.142776  1
  Pt  Pt21  1  0.143164  0.143164  0.571223  1
  Pt  Pt22  1  0.571223  0.143164  0.143164  1
  Pt  Pt23  1  0.143164  0.571223  0.143164  1
