# generated using pymatgen
data_Ba6Tb2(OsO6)3
_symmetry_space_group_name_H-M   'P 1'
_cell_length_a   10.37289143
_cell_length_b   10.37289118
_cell_length_c   10.37289271
_cell_angle_alpha   146.54554319
_cell_angle_beta   131.88276283
_cell_angle_gamma   59.87203947
_symmetry_Int_Tables_number   1
_chemical_formula_structural   Ba6Tb2(OsO6)3
_chemical_formula_sum   'Ba6 Tb2 Os3 O18'
_cell_volume   453.93546892
_cell_formula_units_Z   1
loop_
 _symmetry_equiv_pos_site_id
 _symmetry_equiv_pos_as_xyz
  1  'x, y, z'
loop_
 _atom_site_type_symbol
 _atom_site_label
 _atom_site_symmetry_multiplicity
 _atom_site_fract_x
 _atom_site_fract_y
 _atom_site_fract_z
 _atom_site_occupancy
  Ba  Ba0  1  0.773996  0.500000  0.273996  1
  Ba  Ba1  1  0.395678  0.158509  0.237169  1
  Ba  Ba2  1  0.078658  0.841491  0.237169  1
  Ba  Ba3  1  0.226004  0.500000  0.726004  1
  Ba  Ba4  1  0.921342  0.158509  0.762831  1
  Ba  Ba5  1  0.604322  0.841491  0.762831  1
  Tb  Tb6  1  0.665678  0.665678  0.000000  1
  Tb  Tb7  1  0.334322  0.334322  0.000000  1
  Os  Os8  1  0.500000  0.000000  0.500000  1
  Os  Os9  1  0.168406  0.668406  0.500000  1
  Os  Os10  1  0.831594  0.331594  0.500000  1
  O  O11  1  0.720255  0.000000  0.720255  1
  O  O12  1  0.402723  0.668074  0.734648  1
  O  O13  1  0.066574  0.331926  0.734648  1
  O  O14  1  0.577834  0.844761  0.266925  1
  O  O15  1  0.245962  0.512969  0.267006  1
  O  O16  1  0.905879  0.179871  0.273991  1
  O  O17  1  0.422166  0.689091  0.266925  1
  O  O18  1  0.094121  0.368112  0.273991  1
  O  O19  1  0.754038  0.021043  0.267006  1
  O  O20  1  0.279745  0.000000  0.279745  1
  O  O21  1  0.933426  0.668074  0.265352  1
  O  O22  1  0.597277  0.331926  0.265352  1
  O  O23  1  0.422166  0.155239  0.733075  1
  O  O24  1  0.094121  0.820129  0.726009  1
  O  O25  1  0.754038  0.487031  0.732994  1
  O  O26  1  0.577834  0.310909  0.733075  1
  O  O27  1  0.245962  0.978957  0.732994  1
  O  O28  1  0.905879  0.631889  0.726009  1
