# generated using pymatgen
data_LiNd2B2(PPd5)4
_symmetry_space_group_name_H-M   'P 1'
_cell_length_a   8.63751653
_cell_length_b   8.53765673
_cell_length_c   8.53765784
_cell_angle_alpha   60.77535194
_cell_angle_beta   59.61233481
_cell_angle_gamma   59.61233561
_symmetry_Int_Tables_number   1
_chemical_formula_structural   LiNd2B2(PPd5)4
_chemical_formula_sum   'Li1 Nd2 B2 P4 Pd20'
_cell_volume   445.07289651
_cell_formula_units_Z   1
loop_
 _symmetry_equiv_pos_site_id
 _symmetry_equiv_pos_as_xyz
  1  'x, y, z'
loop_
 _atom_site_type_symbol
 _atom_site_label
 _atom_site_symmetry_multiplicity
 _atom_site_fract_x
 _atom_site_fract_y
 _atom_site_fract_z
 _atom_site_occupancy
  Li  Li0  1  0.000000  0.000000  0.000000  1
  Nd  Nd1  1  0.250000  0.250000  0.250000  1
  Nd  Nd2  1  0.750000  0.750000  0.750000  1
  B  B3  1  0.737719  0.262281  0.262281  1
  B  B4  1  0.262281  0.737719  0.737719  1
  P  P5  1  0.261623  0.738377  0.261623  1
  P  P6  1  0.738377  0.261623  0.738377  1
  P  P7  1  0.261623  0.261623  0.738377  1
  P  P8  1  0.738377  0.738377  0.261623  1
  Pd  Pd9  1  0.392789  0.383286  0.383286  1
  Pd  Pd10  1  0.607211  0.616714  0.616714  1
  Pd  Pd11  1  0.383286  0.392789  0.840640  1
  Pd  Pd12  1  0.383286  0.840640  0.392789  1
  Pd  Pd13  1  0.616714  0.607211  0.159360  1
  Pd  Pd14  1  0.616714  0.159360  0.607211  1
  Pd  Pd15  1  0.840640  0.383286  0.383286  1
  Pd  Pd16  1  0.159360  0.616714  0.616714  1
  Pd  Pd17  1  0.342928  0.000000  0.000000  1
  Pd  Pd18  1  0.657072  0.000000  0.000000  1
  Pd  Pd19  1  0.000000  0.342928  0.657072  1
  Pd  Pd20  1  0.000000  0.657072  0.342928  1
  Pd  Pd21  1  0.989093  0.340623  0.010907  1
  Pd  Pd22  1  0.659377  0.010907  0.340623  1
  Pd  Pd23  1  0.010907  0.659377  0.989093  1
  Pd  Pd24  1  0.340623  0.989093  0.659377  1
  Pd  Pd25  1  0.989093  0.010907  0.340623  1
  Pd  Pd26  1  0.010907  0.989093  0.659377  1
  Pd  Pd27  1  0.659377  0.340623  0.010907  1
  Pd  Pd28  1  0.340623  0.659377  0.989093  1
