# generated using pymatgen
data_Sr4Er(TcO4)3
_symmetry_space_group_name_H-M   'P 1'
_cell_length_a   5.69633401
_cell_length_b   5.69196425
_cell_length_c   8.19354934
_cell_angle_alpha   90.07640816
_cell_angle_beta   90.21175895
_cell_angle_gamma   89.86147103
_symmetry_Int_Tables_number   1
_chemical_formula_structural   Sr4Er(TcO4)3
_chemical_formula_sum   'Sr4 Er1 Tc3 O12'
_cell_volume   265.65932641
_cell_formula_units_Z   1
loop_
 _symmetry_equiv_pos_site_id
 _symmetry_equiv_pos_as_xyz
  1  'x, y, z'
loop_
 _atom_site_type_symbol
 _atom_site_label
 _atom_site_symmetry_multiplicity
 _atom_site_fract_x
 _atom_site_fract_y
 _atom_site_fract_z
 _atom_site_occupancy
  Sr  Sr0  1  0.476262  0.000203  0.755692  1
  Sr  Sr1  1  0.980668  0.499805  0.757181  1
  Sr  Sr2  1  0.523738  0.999797  0.244308  1
  Sr  Sr3  1  0.019332  0.500195  0.242819  1
  Er  Er4  1  0.500000  0.500000  0.500000  1
  Tc  Tc5  1  0.000000  0.000000  0.000000  1
  Tc  Tc6  1  0.500000  0.500000  0.000000  1
  Tc  Tc7  1  0.000000  0.000000  0.500000  1
  O  O8  1  0.010356  0.943577  0.749777  1
  O  O9  1  0.510697  0.553525  0.761590  1
  O  O10  1  0.989644  0.056423  0.250223  1
  O  O11  1  0.489303  0.446475  0.238410  1
  O  O12  1  0.709046  0.180820  0.526961  1
  O  O13  1  0.235964  0.264694  0.974699  1
  O  O14  1  0.263901  0.763775  0.023315  1
  O  O15  1  0.816898  0.710998  0.470795  1
  O  O16  1  0.290954  0.819180  0.473039  1
  O  O17  1  0.764036  0.735306  0.025301  1
  O  O18  1  0.736099  0.236225  0.976685  1
  O  O19  1  0.183102  0.289002  0.529205  1
