# generated using pymatgen
data_ZrSc7(V3Si4)4
_symmetry_space_group_name_H-M   'P 1'
_cell_length_a   6.63236321
_cell_length_b   6.63307692
_cell_length_c   12.27342709
_cell_angle_alpha   90.01098855
_cell_angle_beta   90.00351279
_cell_angle_gamma   90.00924060
_symmetry_Int_Tables_number   1
_chemical_formula_structural   ZrSc7(V3Si4)4
_chemical_formula_sum   'Zr1 Sc7 V12 Si16'
_cell_volume   539.94455668
_cell_formula_units_Z   1
loop_
 _symmetry_equiv_pos_site_id
 _symmetry_equiv_pos_as_xyz
  1  'x, y, z'
loop_
 _atom_site_type_symbol
 _atom_site_label
 _atom_site_symmetry_multiplicity
 _atom_site_fract_x
 _atom_site_fract_y
 _atom_site_fract_z
 _atom_site_occupancy
  Zr  Zr0  1  0.004173  0.660779  0.030697  1
  Sc  Sc1  1  0.838048  0.501407  0.279686  1
  Sc  Sc2  1  0.162428  0.498064  0.779291  1
  Sc  Sc3  1  0.501562  0.837847  0.720346  1
  Sc  Sc4  1  0.498564  0.161884  0.219812  1
  Sc  Sc5  1  0.998418  0.337468  0.529894  1
  Sc  Sc6  1  0.662884  0.001608  0.970706  1
  Sc  Sc7  1  0.337752  0.998242  0.469828  1
  V  V8  1  0.330580  0.334353  0.999861  1
  V  V9  1  0.168262  0.831074  0.249982  1
  V  V10  1  0.831894  0.168102  0.750306  1
  V  V11  1  0.668555  0.668457  0.500096  1
  V  V12  1  0.006014  0.157577  0.125846  1
  V  V13  1  0.343168  0.507074  0.376551  1
  V  V14  1  0.656576  0.493621  0.877068  1
  V  V15  1  0.506765  0.343316  0.623395  1
  V  V16  1  0.492571  0.658325  0.122431  1
  V  V17  1  0.992365  0.842893  0.626884  1
  V  V18  1  0.155533  0.006639  0.873704  1
  V  V19  1  0.843137  0.991875  0.373246  1
  Si  Si20  1  0.294666  0.961988  0.064674  1
  Si  Si21  1  0.539922  0.793826  0.314253  1
  Si  Si22  1  0.459664  0.206393  0.814829  1
  Si  Si23  1  0.793972  0.539665  0.685606  1
  Si  Si24  1  0.208786  0.457905  0.186794  1
  Si  Si25  1  0.705717  0.040088  0.564871  1
  Si  Si26  1  0.958379  0.292538  0.934488  1
  Si  Si27  1  0.039926  0.705564  0.435383  1
  Si  Si28  1  0.703517  0.370287  0.070476  1
  Si  Si29  1  0.129265  0.202518  0.319828  1
  Si  Si30  1  0.869566  0.795617  0.820939  1
  Si  Si31  1  0.203644  0.129415  0.679900  1
  Si  Si32  1  0.795524  0.871199  0.179790  1
  Si  Si33  1  0.296364  0.630245  0.570019  1
  Si  Si34  1  0.371828  0.706042  0.928646  1
  Si  Si35  1  0.630008  0.296106  0.429873  1
