# generated using pymatgen
data_TbDyY2(OsC2)2
_symmetry_space_group_name_H-M   'P 1'
_cell_length_a   5.15840200
_cell_length_b   6.44572661
_cell_length_c   9.83371446
_cell_angle_alpha   90.08103003
_cell_angle_beta   90.00000000
_cell_angle_gamma   90.00000000
_symmetry_Int_Tables_number   1
_chemical_formula_structural   TbDyY2(OsC2)2
_chemical_formula_sum   'Tb2 Dy2 Y4 Os4 C8'
_cell_volume   326.96722757
_cell_formula_units_Z   2
loop_
 _symmetry_equiv_pos_site_id
 _symmetry_equiv_pos_as_xyz
  1  'x, y, z'
loop_
 _atom_site_type_symbol
 _atom_site_label
 _atom_site_symmetry_multiplicity
 _atom_site_fract_x
 _atom_site_fract_y
 _atom_site_fract_z
 _atom_site_occupancy
  Tb  Tb0  1  0.250000  0.523287  0.220212  1
  Tb  Tb1  1  0.750000  0.476713  0.779788  1
  Dy  Dy2  1  0.750000  0.976630  0.720497  1
  Dy  Dy3  1  0.250000  0.023370  0.279503  1
  Y  Y4  1  0.250000  0.686267  0.551696  1
  Y  Y5  1  0.750000  0.313733  0.448304  1
  Y  Y6  1  0.750000  0.813831  0.051718  1
  Y  Y7  1  0.250000  0.186169  0.948282  1
  Os  Os8  1  0.250000  0.727502  0.864585  1
  Os  Os9  1  0.750000  0.272498  0.135415  1
  Os  Os10  1  0.750000  0.772934  0.364540  1
  Os  Os11  1  0.250000  0.227066  0.635460  1
  C  C12  1  0.250000  0.463628  0.757766  1
  C  C13  1  0.750000  0.536372  0.242234  1
  C  C14  1  0.750000  0.036378  0.257922  1
  C  C15  1  0.250000  0.963622  0.742078  1
  C  C16  1  0.250000  0.822996  0.051887  1
  C  C17  1  0.750000  0.177004  0.948113  1
  C  C18  1  0.750000  0.678279  0.551784  1
  C  C19  1  0.250000  0.321721  0.448216  1
