# generated using pymatgen
data_Er24Tc7P
_symmetry_space_group_name_H-M   'P 1'
_cell_length_a   6.18817336
_cell_length_b   9.09634500
_cell_length_c   14.78584756
_cell_angle_alpha   90.00000000
_cell_angle_beta   89.93798854
_cell_angle_gamma   90.00000000
_symmetry_Int_Tables_number   1
_chemical_formula_structural   Er24Tc7P
_chemical_formula_sum   'Er24 Tc7 P1'
_cell_volume   832.29132011
_cell_formula_units_Z   1
loop_
 _symmetry_equiv_pos_site_id
 _symmetry_equiv_pos_as_xyz
  1  'x, y, z'
loop_
 _atom_site_type_symbol
 _atom_site_label
 _atom_site_symmetry_multiplicity
 _atom_site_fract_x
 _atom_site_fract_y
 _atom_site_fract_z
 _atom_site_occupancy
  Er  Er0  1  0.529318  0.750000  0.354776  1
  Er  Er1  1  0.032150  0.250000  0.145687  1
  Er  Er2  1  0.470105  0.250000  0.645824  1
  Er  Er3  1  0.963824  0.750000  0.855266  1
  Er  Er4  1  0.778402  0.750000  0.108716  1
  Er  Er5  1  0.274409  0.250000  0.390932  1
  Er  Er6  1  0.219710  0.250000  0.890279  1
  Er  Er7  1  0.735674  0.750000  0.606998  1
  Er  Er8  1  0.449736  0.936078  0.792085  1
  Er  Er9  1  0.934767  0.067472  0.711365  1
  Er  Er10  1  0.560069  0.435488  0.211535  1
  Er  Er11  1  0.060785  0.564855  0.286895  1
  Er  Er12  1  0.560069  0.064512  0.211535  1
  Er  Er13  1  0.060785  0.935145  0.286895  1
  Er  Er14  1  0.449736  0.563922  0.792085  1
  Er  Er15  1  0.934767  0.432528  0.711365  1
  Er  Er16  1  0.233326  0.937784  0.531110  1
  Er  Er17  1  0.741529  0.064512  0.967039  1
  Er  Er18  1  0.750400  0.435382  0.464159  1
  Er  Er19  1  0.255483  0.563799  0.035286  1
  Er  Er20  1  0.750400  0.064618  0.464159  1
  Er  Er21  1  0.255483  0.936201  0.035286  1
  Er  Er22  1  0.233326  0.562216  0.531110  1
  Er  Er23  1  0.741529  0.435488  0.967039  1
  Tc  Tc24  1  0.929437  0.750000  0.440061  1
  Tc  Tc25  1  0.426700  0.250000  0.059254  1
  Tc  Tc26  1  0.069854  0.250000  0.561903  1
  Tc  Tc27  1  0.567958  0.750000  0.940423  1
  Tc  Tc28  1  0.354302  0.750000  0.183675  1
  Tc  Tc29  1  0.853722  0.250000  0.315794  1
  Tc  Tc30  1  0.648945  0.250000  0.815979  1
  P  P31  1  0.173302  0.750000  0.685485  1
