# generated using pymatgen
data_Tm19Sc(Al3Ni)2
_symmetry_space_group_name_H-M   'P 1'
_cell_length_a   9.21332100
_cell_length_b   9.21332072
_cell_length_c   9.35306700
_cell_angle_alpha   90.00000000
_cell_angle_beta   90.00000000
_cell_angle_gamma   119.99999743
_symmetry_Int_Tables_number   1
_chemical_formula_structural   Tm19Sc(Al3Ni)2
_chemical_formula_sum   'Tm19 Sc1 Al6 Ni2'
_cell_volume   687.57025468
_cell_formula_units_Z   1
loop_
 _symmetry_equiv_pos_site_id
 _symmetry_equiv_pos_as_xyz
  1  'x, y, z'
loop_
 _atom_site_type_symbol
 _atom_site_label
 _atom_site_symmetry_multiplicity
 _atom_site_fract_x
 _atom_site_fract_y
 _atom_site_fract_z
 _atom_site_occupancy
  Tm  Tm0  1  0.000000  0.000000  0.000000  1
  Tm  Tm1  1  0.543619  0.456381  0.250303  1
  Tm  Tm2  1  0.543619  0.087237  0.250303  1
  Tm  Tm3  1  0.912763  0.456381  0.250303  1
  Tm  Tm4  1  0.456381  0.543619  0.749697  1
  Tm  Tm5  1  0.456381  0.912763  0.749697  1
  Tm  Tm6  1  0.087237  0.543619  0.749697  1
  Tm  Tm7  1  0.207123  0.792877  0.439539  1
  Tm  Tm8  1  0.207123  0.414247  0.439539  1
  Tm  Tm9  1  0.585753  0.792877  0.439539  1
  Tm  Tm10  1  0.792877  0.207123  0.560461  1
  Tm  Tm11  1  0.792877  0.585753  0.560461  1
  Tm  Tm12  1  0.414247  0.207123  0.560461  1
  Tm  Tm13  1  0.791627  0.208373  0.941213  1
  Tm  Tm14  1  0.791627  0.583254  0.941213  1
  Tm  Tm15  1  0.416746  0.208373  0.941213  1
  Tm  Tm16  1  0.208373  0.791627  0.058787  1
  Tm  Tm17  1  0.208373  0.416746  0.058787  1
  Tm  Tm18  1  0.583254  0.791627  0.058787  1
  Sc  Sc19  1  0.000000  0.000000  0.500000  1
  Al  Al20  1  0.891690  0.108310  0.255040  1
  Al  Al21  1  0.891690  0.783382  0.255040  1
  Al  Al22  1  0.216618  0.108310  0.255040  1
  Al  Al23  1  0.108310  0.891690  0.744960  1
  Al  Al24  1  0.108310  0.216618  0.744960  1
  Al  Al25  1  0.783382  0.891690  0.744960  1
  Ni  Ni26  1  0.333333  0.666667  0.249859  1
  Ni  Ni27  1  0.666667  0.333333  0.750141  1
