# generated using pymatgen
data_YLu3(B4W)4
_symmetry_space_group_name_H-M   'P 1'
_cell_length_a   3.60285200
_cell_length_b   6.00138337
_cell_length_c   11.59468522
_cell_angle_alpha   89.93098364
_cell_angle_beta   90.00000000
_cell_angle_gamma   90.00000000
_symmetry_Int_Tables_number   1
_chemical_formula_structural   YLu3(B4W)4
_chemical_formula_sum   'Y1 Lu3 B16 W4'
_cell_volume   250.70121593
_cell_formula_units_Z   1
loop_
 _symmetry_equiv_pos_site_id
 _symmetry_equiv_pos_as_xyz
  1  'x, y, z'
loop_
 _atom_site_type_symbol
 _atom_site_label
 _atom_site_symmetry_multiplicity
 _atom_site_fract_x
 _atom_site_fract_y
 _atom_site_fract_z
 _atom_site_occupancy
  Y  Y0  1  0.000000  0.372614  0.649722  1
  Lu  Lu1  1  0.000000  0.127380  0.149355  1
  Lu  Lu2  1  0.000000  0.872536  0.851043  1
  Lu  Lu3  1  0.000000  0.627521  0.350374  1
  B  B4  1  0.500000  0.477010  0.194349  1
  B  B5  1  0.500000  0.524536  0.807051  1
  B  B6  1  0.500000  0.976885  0.305199  1
  B  B7  1  0.500000  0.021980  0.694366  1
  B  B8  1  0.500000  0.288668  0.312522  1
  B  B9  1  0.500000  0.713114  0.687388  1
  B  B10  1  0.500000  0.788682  0.186880  1
  B  B11  1  0.500000  0.210595  0.814226  1
  B  B12  1  0.500000  0.367428  0.466800  1
  B  B13  1  0.500000  0.632870  0.530924  1
  B  B14  1  0.500000  0.867783  0.032262  1
  B  B15  1  0.500000  0.132035  0.968628  1
  B  B16  1  0.500000  0.385084  0.048406  1
  B  B17  1  0.500000  0.615438  0.952485  1
  B  B18  1  0.500000  0.884585  0.451175  1
  B  B19  1  0.500000  0.113176  0.546936  1
  W  W20  1  0.000000  0.131247  0.414090  1
  W  W21  1  0.000000  0.868471  0.584496  1
  W  W22  1  0.000000  0.631913  0.085388  1
  W  W23  1  0.000000  0.368446  0.915935  1
