# generated using pymatgen
data_Tm12InFe2ReAg
_symmetry_space_group_name_H-M   'P 1'
_cell_length_a   8.21907932
_cell_length_b   8.21907815
_cell_length_c   8.21907853
_cell_angle_alpha   107.17418391
_cell_angle_beta   110.47255938
_cell_angle_gamma   110.79122247
_symmetry_Int_Tables_number   1
_chemical_formula_structural   Tm12InFe2ReAg
_chemical_formula_sum   'Tm12 In1 Fe2 Re1 Ag1'
_cell_volume   426.89667538
_cell_formula_units_Z   1
loop_
 _symmetry_equiv_pos_site_id
 _symmetry_equiv_pos_as_xyz
  1  'x, y, z'
loop_
 _atom_site_type_symbol
 _atom_site_label
 _atom_site_symmetry_multiplicity
 _atom_site_fract_x
 _atom_site_fract_y
 _atom_site_fract_z
 _atom_site_occupancy
  Tm  Tm0  1  0.192654  0.423430  0.230776  1
  Tm  Tm1  1  0.807346  0.576570  0.769224  1
  Tm  Tm2  1  0.192654  0.961880  0.769224  1
  Tm  Tm3  1  0.943169  0.193797  0.749372  1
  Tm  Tm4  1  0.807346  0.038120  0.230776  1
  Tm  Tm5  1  0.056831  0.806203  0.250628  1
  Tm  Tm6  1  0.444425  0.193797  0.250628  1
  Tm  Tm7  1  0.555575  0.806203  0.749372  1
  Tm  Tm8  1  0.306394  0.311004  0.617396  1
  Tm  Tm9  1  0.693606  0.688996  0.382604  1
  Tm  Tm10  1  0.693606  0.311004  0.004610  1
  Tm  Tm11  1  0.306394  0.688996  0.995390  1
  In  In12  1  0.000000  0.500000  0.500000  1
  Fe  Fe13  1  0.382521  0.382521  0.000000  1
  Fe  Fe14  1  0.617479  0.617479  0.000000  1
  Re  Re15  1  0.000000  0.000000  0.000000  1
  Ag  Ag16  1  0.500000  0.000000  0.500000  1
