# generated using pymatgen
data_CeThSe3
_symmetry_space_group_name_H-M   'P 1'
_cell_length_a   11.40332800
_cell_length_b   4.10362700
_cell_length_c   11.35392700
_cell_angle_alpha   90.00000000
_cell_angle_beta   90.00000000
_cell_angle_gamma   90.00000000
_symmetry_Int_Tables_number   1
_chemical_formula_structural   CeThSe3
_chemical_formula_sum   'Ce4 Th4 Se12'
_cell_volume   531.30706700
_cell_formula_units_Z   4
loop_
 _symmetry_equiv_pos_site_id
 _symmetry_equiv_pos_as_xyz
  1  'x, y, z'
loop_
 _atom_site_type_symbol
 _atom_site_label
 _atom_site_symmetry_multiplicity
 _atom_site_fract_x
 _atom_site_fract_y
 _atom_site_fract_z
 _atom_site_occupancy
  Ce  Ce0  1  0.482840  0.250000  0.185033  1
  Ce  Ce1  1  0.982840  0.250000  0.314967  1
  Ce  Ce2  1  0.517160  0.750000  0.814967  1
  Ce  Ce3  1  0.017160  0.750000  0.685033  1
  Th  Th4  1  0.694367  0.750000  0.490241  1
  Th  Th5  1  0.194367  0.750000  0.009759  1
  Th  Th6  1  0.305633  0.250000  0.509759  1
  Th  Th7  1  0.805633  0.250000  0.990241  1
  Se  Se8  1  0.551811  0.250000  0.623215  1
  Se  Se9  1  0.051811  0.250000  0.876785  1
  Se  Se10  1  0.448189  0.750000  0.376785  1
  Se  Se11  1  0.948189  0.750000  0.123215  1
  Se  Se12  1  0.623844  0.750000  0.055039  1
  Se  Se13  1  0.123844  0.750000  0.444961  1
  Se  Se14  1  0.376156  0.250000  0.944961  1
  Se  Se15  1  0.876156  0.250000  0.555039  1
  Se  Se16  1  0.721490  0.250000  0.297395  1
  Se  Se17  1  0.221490  0.250000  0.202605  1
  Se  Se18  1  0.278510  0.750000  0.702605  1
  Se  Se19  1  0.778510  0.750000  0.797395  1
