# generated using pymatgen
data_Ce4BiRh4Au
_symmetry_space_group_name_H-M   'P 1'
_cell_length_a   7.68471500
_cell_length_b   7.68471500
_cell_length_c   3.71022500
_cell_angle_alpha   90.00000000
_cell_angle_beta   90.00000000
_cell_angle_gamma   90.00000000
_symmetry_Int_Tables_number   1
_chemical_formula_structural   Ce4BiRh4Au
_chemical_formula_sum   'Ce4 Bi1 Rh4 Au1'
_cell_volume   219.10676092
_cell_formula_units_Z   1
loop_
 _symmetry_equiv_pos_site_id
 _symmetry_equiv_pos_as_xyz
  1  'x, y, z'
loop_
 _atom_site_type_symbol
 _atom_site_label
 _atom_site_symmetry_multiplicity
 _atom_site_fract_x
 _atom_site_fract_y
 _atom_site_fract_z
 _atom_site_occupancy
  Ce  Ce0  1  0.679236  0.165819  0.500000  1
  Ce  Ce1  1  0.320764  0.834181  0.500000  1
  Ce  Ce2  1  0.165819  0.320764  0.500000  1
  Ce  Ce3  1  0.834181  0.679236  0.500000  1
  Bi  Bi4  1  0.500000  0.500000  0.000000  1
  Rh  Rh5  1  0.129973  0.636503  0.000000  1
  Rh  Rh6  1  0.870027  0.363497  0.000000  1
  Rh  Rh7  1  0.636503  0.870027  0.000000  1
  Rh  Rh8  1  0.363497  0.129973  0.000000  1
  Au  Au9  1  0.000000  0.000000  0.000000  1
