# generated using pymatgen
data_CaNiPdO4
_symmetry_space_group_name_H-M   'P 1'
_cell_length_a   5.24854500
_cell_length_b   6.10676900
_cell_length_c   10.99265200
_cell_angle_alpha   90.00000000
_cell_angle_beta   90.00000000
_cell_angle_gamma   90.00000000
_symmetry_Int_Tables_number   1
_chemical_formula_structural   CaNiPdO4
_chemical_formula_sum   'Ca4 Ni4 Pd4 O16'
_cell_volume   352.33265537
_cell_formula_units_Z   4
loop_
 _symmetry_equiv_pos_site_id
 _symmetry_equiv_pos_as_xyz
  1  'x, y, z'
loop_
 _atom_site_type_symbol
 _atom_site_label
 _atom_site_symmetry_multiplicity
 _atom_site_fract_x
 _atom_site_fract_y
 _atom_site_fract_z
 _atom_site_occupancy
  Ca  Ca0  1  0.835479  0.000000  0.500000  1
  Ca  Ca1  1  0.164521  0.500000  0.000000  1
  Ca  Ca2  1  0.496832  0.000000  0.000000  1
  Ca  Ca3  1  0.503168  0.500000  0.500000  1
  Ni  Ni4  1  0.504702  0.500000  0.238891  1
  Ni  Ni5  1  0.504702  0.500000  0.761109  1
  Ni  Ni6  1  0.495298  0.000000  0.261109  1
  Ni  Ni7  1  0.495298  0.000000  0.738891  1
  Pd  Pd8  1  0.000000  0.250000  0.250000  1
  Pd  Pd9  1  0.000000  0.750000  0.750000  1
  Pd  Pd10  1  0.000000  0.750000  0.250000  1
  Pd  Pd11  1  0.000000  0.250000  0.750000  1
  O  O12  1  0.847855  0.500000  0.150807  1
  O  O13  1  0.847855  0.500000  0.849193  1
  O  O14  1  0.152145  0.000000  0.349193  1
  O  O15  1  0.152145  0.000000  0.650807  1
  O  O16  1  0.171700  0.500000  0.342588  1
  O  O17  1  0.171700  0.500000  0.657412  1
  O  O18  1  0.828300  0.000000  0.157412  1
  O  O19  1  0.828300  0.000000  0.842588  1
  O  O20  1  0.673374  0.253250  0.354555  1
  O  O21  1  0.673374  0.746750  0.645445  1
  O  O22  1  0.326626  0.753250  0.145445  1
  O  O23  1  0.326626  0.246750  0.854555  1
  O  O24  1  0.326626  0.246750  0.145445  1
  O  O25  1  0.326626  0.753250  0.854555  1
  O  O26  1  0.673374  0.746750  0.354555  1
  O  O27  1  0.673374  0.253250  0.645445  1
