# generated using pymatgen
data_NdY5Zn4IrPd12
_symmetry_space_group_name_H-M   'P 1'
_cell_length_a   8.27529821
_cell_length_b   8.27529776
_cell_length_c   8.27529769
_cell_angle_alpha   109.42446675
_cell_angle_beta   109.49459303
_cell_angle_gamma   109.49461266
_symmetry_Int_Tables_number   1
_chemical_formula_structural   NdY5Zn4IrPd12
_chemical_formula_sum   'Nd1 Y5 Zn4 Ir1 Pd12'
_cell_volume   436.24332839
_cell_formula_units_Z   1
loop_
 _symmetry_equiv_pos_site_id
 _symmetry_equiv_pos_as_xyz
  1  'x, y, z'
loop_
 _atom_site_type_symbol
 _atom_site_label
 _atom_site_symmetry_multiplicity
 _atom_site_fract_x
 _atom_site_fract_y
 _atom_site_fract_z
 _atom_site_occupancy
  Nd  Nd0  1  0.000000  0.708168  0.708168  1
  Y  Y1  1  0.704587  0.705175  0.000589  1
  Y  Y2  1  0.295413  0.000589  0.296002  1
  Y  Y3  1  0.000000  0.297035  0.297035  1
  Y  Y4  1  0.295413  0.296002  0.000589  1
  Y  Y5  1  0.704587  0.000589  0.705175  1
  Zn  Zn6  1  0.000000  0.000067  0.497139  1
  Zn  Zn7  1  0.000000  0.497139  0.000067  1
  Zn  Zn8  1  0.502928  0.000067  0.000067  1
  Zn  Zn9  1  0.497072  0.497139  0.497139  1
  Ir  Ir10  1  0.000000  0.006350  0.006350  1
  Pd  Pd11  1  0.334766  0.334378  0.669144  1
  Pd  Pd12  1  0.665234  0.999612  0.334378  1
  Pd  Pd13  1  0.000000  0.667468  0.330889  1
  Pd  Pd14  1  0.665234  0.334378  0.999612  1
  Pd  Pd15  1  0.334766  0.669144  0.334378  1
  Pd  Pd16  1  0.000000  0.330889  0.667468  1
  Pd  Pd17  1  0.335989  0.664364  0.000352  1
  Pd  Pd18  1  0.335989  0.000352  0.664364  1
  Pd  Pd19  1  0.663420  0.330889  0.330889  1
  Pd  Pd20  1  0.664011  0.664364  0.328375  1
  Pd  Pd21  1  0.664011  0.328375  0.664364  1
  Pd  Pd22  1  0.336580  0.667468  0.667468  1
