# generated using pymatgen
data_La9ErGa6
_symmetry_space_group_name_H-M   'P 1'
_cell_length_a   7.94434800
_cell_length_b   7.94434800
_cell_length_c   15.05716400
_cell_angle_alpha   90.00000000
_cell_angle_beta   90.00000000
_cell_angle_gamma   90.00000000
_symmetry_Int_Tables_number   1
_chemical_formula_structural   La9ErGa6
_chemical_formula_sum   'La18 Er2 Ga12'
_cell_volume   950.29774957
_cell_formula_units_Z   2
loop_
 _symmetry_equiv_pos_site_id
 _symmetry_equiv_pos_as_xyz
  1  'x, y, z'
loop_
 _atom_site_type_symbol
 _atom_site_label
 _atom_site_symmetry_multiplicity
 _atom_site_fract_x
 _atom_site_fract_y
 _atom_site_fract_z
 _atom_site_occupancy
  La  La0  1  0.338130  0.311382  0.104438  1
  La  La1  1  0.838130  0.811382  0.895562  1
  La  La2  1  0.840160  0.183454  0.396278  1
  La  La3  1  0.161870  0.188618  0.895562  1
  La  La4  1  0.661870  0.688618  0.104438  1
  La  La5  1  0.000000  0.500000  0.707055  1
  La  La6  1  0.816546  0.840160  0.603722  1
  La  La7  1  0.316546  0.340160  0.396278  1
  La  La8  1  0.188618  0.838130  0.104438  1
  La  La9  1  0.183454  0.159840  0.603722  1
  La  La10  1  0.811382  0.161870  0.104438  1
  La  La11  1  0.340160  0.683454  0.603722  1
  La  La12  1  0.500000  0.000000  0.292945  1
  La  La13  1  0.688618  0.338130  0.895562  1
  La  La14  1  0.659840  0.316546  0.603722  1
  La  La15  1  0.311382  0.661870  0.895562  1
  La  La16  1  0.159840  0.816546  0.396278  1
  La  La17  1  0.683454  0.659840  0.396278  1
  Er  Er18  1  0.500000  0.000000  0.774609  1
  Er  Er19  1  0.000000  0.500000  0.225391  1
  Ga  Ga20  1  0.623969  0.384011  0.249078  1
  Ga  Ga21  1  0.876031  0.115989  0.750922  1
  Ga  Ga22  1  0.500000  0.000000  0.499091  1
  Ga  Ga23  1  0.884011  0.876031  0.249078  1
  Ga  Ga24  1  0.000000  0.500000  0.019716  1
  Ga  Ga25  1  0.123969  0.884011  0.750922  1
  Ga  Ga26  1  0.384011  0.376031  0.750922  1
  Ga  Ga27  1  0.115989  0.123969  0.249078  1
  Ga  Ga28  1  0.376031  0.615989  0.249078  1
  Ga  Ga29  1  0.615989  0.623969  0.750922  1
  Ga  Ga30  1  0.500000  0.000000  0.980284  1
  Ga  Ga31  1  0.000000  0.500000  0.500909  1
