# generated using pymatgen
data_Ta5Ti3(MoN6)2
_symmetry_space_group_name_H-M   'P 1'
_cell_length_a   5.15573502
_cell_length_b   5.15415883
_cell_length_c   10.27970200
_cell_angle_alpha   89.99934265
_cell_angle_beta   89.99730660
_cell_angle_gamma   120.02057096
_symmetry_Int_Tables_number   1
_chemical_formula_structural   Ta5Ti3(MoN6)2
_chemical_formula_sum   'Ta5 Ti3 Mo2 N12'
_cell_volume   236.52087772
_cell_formula_units_Z   1
loop_
 _symmetry_equiv_pos_site_id
 _symmetry_equiv_pos_as_xyz
  1  'x, y, z'
loop_
 _atom_site_type_symbol
 _atom_site_label
 _atom_site_symmetry_multiplicity
 _atom_site_fract_x
 _atom_site_fract_y
 _atom_site_fract_z
 _atom_site_occupancy
  Ta  Ta0  1  0.000845  0.323656  0.752210  1
  Ta  Ta1  1  0.323064  0.325034  0.248325  1
  Ta  Ta2  1  0.675637  0.999515  0.248327  1
  Ta  Ta3  1  0.001127  0.677179  0.248296  1
  Ta  Ta4  1  0.665755  0.333440  0.496450  1
  Ti  Ti5  1  0.665666  0.333872  0.004134  1
  Ti  Ti6  1  0.334624  0.668320  0.003666  1
  Ti  Ti7  1  0.334621  0.667886  0.495404  1
  Mo  Mo8  1  0.674416  0.673270  0.751414  1
  Mo  Mo9  1  0.324758  0.997092  0.751348  1
  N  N10  1  0.659700  0.661852  0.379819  1
  N  N11  1  0.338724  0.999085  0.379826  1
  N  N12  1  0.001497  0.341112  0.379690  1
  N  N13  1  0.342970  0.343830  0.624237  1
  N  N14  1  0.655748  0.998569  0.624179  1
  N  N15  1  0.000761  0.655514  0.624246  1
  N  N16  1  0.345753  0.345008  0.877323  1
  N  N17  1  0.654400  0.999577  0.877281  1
  N  N18  1  0.999913  0.653968  0.877207  1
  N  N19  1  0.656581  0.657110  0.118755  1
  N  N20  1  0.343645  0.000901  0.118773  1
  N  N21  1  0.999795  0.344210  0.119090  1
