# generated using pymatgen
data_Nd3Sm3Ti2(Co4P3)4
_symmetry_space_group_name_H-M   'P 1'
_cell_length_a   3.73551200
_cell_length_b   10.67987811
_cell_length_c   12.39070813
_cell_angle_alpha   89.98348637
_cell_angle_beta   90.00000000
_cell_angle_gamma   90.00000000
_symmetry_Int_Tables_number   1
_chemical_formula_structural   Nd3Sm3Ti2(Co4P3)4
_chemical_formula_sum   'Nd3 Sm3 Ti2 Co16 P12'
_cell_volume   494.32496124
_cell_formula_units_Z   1
loop_
 _symmetry_equiv_pos_site_id
 _symmetry_equiv_pos_as_xyz
  1  'x, y, z'
loop_
 _atom_site_type_symbol
 _atom_site_label
 _atom_site_symmetry_multiplicity
 _atom_site_fract_x
 _atom_site_fract_y
 _atom_site_fract_z
 _atom_site_occupancy
  Nd  Nd0  1  0.000000  0.500108  0.525228  1
  Nd  Nd1  1  0.500000  0.999954  0.474219  1
  Nd  Nd2  1  0.000000  0.320251  0.795225  1
  Sm  Sm3  1  0.500000  0.819615  0.204686  1
  Sm  Sm4  1  0.500000  0.180300  0.204061  1
  Sm  Sm5  1  0.000000  0.680423  0.795918  1
  Ti  Ti6  1  0.500000  0.500108  0.151514  1
  Ti  Ti7  1  0.000000  0.999627  0.848704  1
  Co  Co8  1  0.500000  0.501451  0.704303  1
  Co  Co9  1  0.000000  0.999770  0.295415  1
  Co  Co10  1  0.000000  0.500592  0.988636  1
  Co  Co11  1  0.500000  0.999456  0.012511  1
  Co  Co12  1  0.500000  0.332522  0.995344  1
  Co  Co13  1  0.500000  0.668200  0.995157  1
  Co  Co14  1  0.000000  0.167472  0.006010  1
  Co  Co15  1  0.000000  0.832120  0.005649  1
  Co  Co16  1  0.500000  0.295865  0.430310  1
  Co  Co17  1  0.500000  0.704072  0.431171  1
  Co  Co18  1  0.000000  0.203734  0.567532  1
  Co  Co19  1  0.000000  0.795984  0.568674  1
  Co  Co20  1  0.500000  0.879630  0.707557  1
  Co  Co21  1  0.500000  0.119335  0.706532  1
  Co  Co22  1  0.000000  0.620048  0.292875  1
  Co  Co23  1  0.000000  0.379878  0.292341  1
  P  P24  1  0.500000  0.501229  0.886623  1
  P  P25  1  0.000000  0.999649  0.114569  1
  P  P26  1  0.500000  0.499964  0.348872  1
  P  P27  1  0.000000  0.999916  0.650998  1
  P  P28  1  0.500000  0.306192  0.613635  1
  P  P29  1  0.500000  0.693541  0.615386  1
  P  P30  1  0.000000  0.193106  0.383905  1
  P  P31  1  0.000000  0.806505  0.384713  1
  P  P32  1  0.500000  0.843791  0.893829  1
  P  P33  1  0.500000  0.155274  0.894735  1
  P  P34  1  0.000000  0.656476  0.106779  1
  P  P35  1  0.000000  0.343838  0.106384  1
