# generated using pymatgen
data_PrTh3(Zn5Ge)2
_symmetry_space_group_name_H-M   'P 1'
_cell_length_a   8.40727006
_cell_length_b   8.40727125
_cell_length_c   8.92162304
_cell_angle_alpha   89.93749632
_cell_angle_beta   90.06250460
_cell_angle_gamma   149.29143376
_symmetry_Int_Tables_number   1
_chemical_formula_structural   PrTh3(Zn5Ge)2
_chemical_formula_sum   'Pr1 Th3 Zn10 Ge2'
_cell_volume   322.02919240
_cell_formula_units_Z   1
loop_
 _symmetry_equiv_pos_site_id
 _symmetry_equiv_pos_as_xyz
  1  'x, y, z'
loop_
 _atom_site_type_symbol
 _atom_site_label
 _atom_site_symmetry_multiplicity
 _atom_site_fract_x
 _atom_site_fract_y
 _atom_site_fract_z
 _atom_site_occupancy
  Pr  Pr0  1  0.000000  0.000000  0.000000  1
  Th  Th1  1  0.202247  0.797753  0.250224  1
  Th  Th2  1  0.797753  0.202247  0.749776  1
  Th  Th3  1  0.000000  0.000000  0.500000  1
  Zn  Zn4  1  0.814986  0.185014  0.393212  1
  Zn  Zn5  1  0.185014  0.814986  0.606788  1
  Zn  Zn6  1  0.815324  0.184676  0.106990  1
  Zn  Zn7  1  0.184676  0.815324  0.893010  1
  Zn  Zn8  1  0.652250  0.347750  0.480141  1
  Zn  Zn9  1  0.347750  0.652250  0.519859  1
  Zn  Zn10  1  0.652223  0.347777  0.020997  1
  Zn  Zn11  1  0.347777  0.652223  0.979003  1
  Zn  Zn12  1  0.402138  0.597862  0.250808  1
  Zn  Zn13  1  0.597862  0.402138  0.749192  1
  Ge  Ge14  1  0.556771  0.443229  0.252480  1
  Ge  Ge15  1  0.443229  0.556771  0.747520  1
