# generated using pymatgen
data_Ho2Er2HfIr3
_symmetry_space_group_name_H-M   'P 1'
_cell_length_a   10.78075000
_cell_length_b   10.78075000
_cell_length_c   6.22552900
_cell_angle_alpha   90.00000000
_cell_angle_beta   90.00000000
_cell_angle_gamma   90.00000000
_symmetry_Int_Tables_number   1
_chemical_formula_structural   Ho2Er2HfIr3
_chemical_formula_sum   'Ho8 Er8 Hf4 Ir12'
_cell_volume   723.55943455
_cell_formula_units_Z   4
loop_
 _symmetry_equiv_pos_site_id
 _symmetry_equiv_pos_as_xyz
  1  'x, y, z'
loop_
 _atom_site_type_symbol
 _atom_site_label
 _atom_site_symmetry_multiplicity
 _atom_site_fract_x
 _atom_site_fract_y
 _atom_site_fract_z
 _atom_site_occupancy
  Ho  Ho0  1  0.289369  0.086388  0.374287  1
  Ho  Ho1  1  0.289369  0.913612  0.874287  1
  Ho  Ho2  1  0.710631  0.086388  0.874287  1
  Ho  Ho3  1  0.710631  0.913612  0.374287  1
  Ho  Ho4  1  0.586388  0.789369  0.874287  1
  Ho  Ho5  1  0.586388  0.210631  0.374287  1
  Ho  Ho6  1  0.413612  0.789369  0.374287  1
  Ho  Ho7  1  0.413612  0.210631  0.874287  1
  Er  Er8  1  0.210104  0.414054  0.625376  1
  Er  Er9  1  0.210104  0.585946  0.125376  1
  Er  Er10  1  0.789896  0.414054  0.125376  1
  Er  Er11  1  0.789896  0.585946  0.625376  1
  Er  Er12  1  0.914054  0.710104  0.125376  1
  Er  Er13  1  0.914054  0.289896  0.625376  1
  Er  Er14  1  0.085946  0.710104  0.625376  1
  Er  Er15  1  0.085946  0.289896  0.125376  1
  Hf  Hf16  1  0.000000  0.000000  0.500372  1
  Hf  Hf17  1  0.000000  0.000000  0.000372  1
  Hf  Hf18  1  0.500000  0.500000  0.000372  1
  Hf  Hf19  1  0.500000  0.500000  0.500372  1
  Ir  Ir20  1  0.856434  0.144366  0.250146  1
  Ir  Ir21  1  0.856434  0.855634  0.750146  1
  Ir  Ir22  1  0.143566  0.144366  0.750146  1
  Ir  Ir23  1  0.143566  0.855634  0.250146  1
  Ir  Ir24  1  0.644366  0.356434  0.750146  1
  Ir  Ir25  1  0.644366  0.643566  0.250146  1
  Ir  Ir26  1  0.355634  0.356434  0.250146  1
  Ir  Ir27  1  0.355634  0.643566  0.750146  1
  Ir  Ir28  1  0.500000  0.000000  0.121919  1
  Ir  Ir29  1  0.500000  0.000000  0.621919  1
  Ir  Ir30  1  0.000000  0.500000  0.878096  1
  Ir  Ir31  1  0.000000  0.500000  0.378096  1
