# generated using pymatgen
data_YbHo7(B6Ru)4
_symmetry_space_group_name_H-M   'P 1'
_cell_length_a   3.64971600
_cell_length_b   9.12700878
_cell_length_c   11.50980150
_cell_angle_alpha   89.91059947
_cell_angle_beta   90.00000000
_cell_angle_gamma   90.00000000
_symmetry_Int_Tables_number   1
_chemical_formula_structural   YbHo7(B6Ru)4
_chemical_formula_sum   'Yb1 Ho7 B24 Ru4'
_cell_volume   383.40241567
_cell_formula_units_Z   1
loop_
 _symmetry_equiv_pos_site_id
 _symmetry_equiv_pos_as_xyz
  1  'x, y, z'
loop_
 _atom_site_type_symbol
 _atom_site_label
 _atom_site_symmetry_multiplicity
 _atom_site_fract_x
 _atom_site_fract_y
 _atom_site_fract_z
 _atom_site_occupancy
  Yb  Yb0  1  0.000000  0.323930  0.413614  1
  Ho  Ho1  1  0.000000  0.675549  0.584918  1
  Ho  Ho2  1  0.000000  0.822911  0.086430  1
  Ho  Ho3  1  0.000000  0.177573  0.914542  1
  Ho  Ho4  1  0.000000  0.944085  0.371307  1
  Ho  Ho5  1  0.000000  0.057828  0.627962  1
  Ho  Ho6  1  0.000000  0.443052  0.129503  1
  Ho  Ho7  1  0.000000  0.556097  0.872143  1
  B  B8  1  0.500000  0.553866  0.432617  1
  B  B9  1  0.500000  0.445856  0.567222  1
  B  B10  1  0.500000  0.053287  0.066588  1
  B  B11  1  0.500000  0.946036  0.932704  1
  B  B12  1  0.500000  0.748102  0.419466  1
  B  B13  1  0.500000  0.252219  0.580695  1
  B  B14  1  0.500000  0.247625  0.080397  1
  B  B15  1  0.500000  0.751797  0.919773  1
  B  B16  1  0.500000  0.791591  0.266246  1
  B  B17  1  0.500000  0.209447  0.733981  1
  B  B18  1  0.500000  0.290030  0.233598  1
  B  B19  1  0.500000  0.709130  0.766272  1
  B  B20  1  0.500000  0.632241  0.185839  1
  B  B21  1  0.500000  0.368176  0.815085  1
  B  B22  1  0.500000  0.131643  0.314086  1
  B  B23  1  0.500000  0.868191  0.685168  1
  B  B24  1  0.500000  0.983507  0.212039  1
  B  B25  1  0.500000  0.016514  0.787247  1
  B  B26  1  0.500000  0.484011  0.287774  1
  B  B27  1  0.500000  0.516351  0.712607  1
  B  B28  1  0.500000  0.608359  0.030189  1
  B  B29  1  0.500000  0.391736  0.970425  1
  B  B30  1  0.500000  0.105089  0.470850  1
  B  B31  1  0.500000  0.893689  0.529364  1
  Ru  Ru32  1  0.000000  0.639542  0.320602  1
  Ru  Ru33  1  0.000000  0.361971  0.679998  1
  Ru  Ru34  1  0.000000  0.136782  0.177598  1
  Ru  Ru35  1  0.000000  0.862190  0.821151  1
