# generated using pymatgen
data_Tm3In3SnIr2
_symmetry_space_group_name_H-M   'P 1'
_cell_length_a   7.79036700
_cell_length_b   7.79036612
_cell_length_c   3.84636500
_cell_angle_alpha   90.00000000
_cell_angle_beta   90.00000000
_cell_angle_gamma   119.99999949
_symmetry_Int_Tables_number   1
_chemical_formula_structural   Tm3In3SnIr2
_chemical_formula_sum   'Tm3 In3 Sn1 Ir2'
_cell_volume   202.16078445
_cell_formula_units_Z   1
loop_
 _symmetry_equiv_pos_site_id
 _symmetry_equiv_pos_as_xyz
  1  'x, y, z'
loop_
 _atom_site_type_symbol
 _atom_site_label
 _atom_site_symmetry_multiplicity
 _atom_site_fract_x
 _atom_site_fract_y
 _atom_site_fract_z
 _atom_site_occupancy
  Tm  Tm0  1  0.967446  0.381645  0.500000  1
  Tm  Tm1  1  0.618355  0.585802  0.500000  1
  Tm  Tm2  1  0.414198  0.032554  0.500000  1
  In  In3  1  0.258265  0.250416  0.000000  1
  In  In4  1  0.992151  0.741735  0.000000  1
  In  In5  1  0.749584  0.007849  0.000000  1
  Sn  Sn6  1  0.333333  0.666667  0.000000  1
  Ir  Ir7  1  0.000000  0.000000  0.500000  1
  Ir  Ir8  1  0.666667  0.333333  0.000000  1
