# generated using pymatgen
data_Pr8Zn8Ir3Pd2Rh3
_symmetry_space_group_name_H-M   'P 1'
_cell_length_a   4.05326800
_cell_length_b   7.39963058
_cell_length_c   16.78850357
_cell_angle_alpha   89.92519032
_cell_angle_beta   90.00000000
_cell_angle_gamma   90.00000000
_symmetry_Int_Tables_number   1
_chemical_formula_structural   Pr8Zn8Ir3Pd2Rh3
_chemical_formula_sum   'Pr8 Zn8 Ir3 Pd2 Rh3'
_cell_volume   503.53188413
_cell_formula_units_Z   1
loop_
 _symmetry_equiv_pos_site_id
 _symmetry_equiv_pos_as_xyz
  1  'x, y, z'
loop_
 _atom_site_type_symbol
 _atom_site_label
 _atom_site_symmetry_multiplicity
 _atom_site_fract_x
 _atom_site_fract_y
 _atom_site_fract_z
 _atom_site_occupancy
  Pr  Pr0  1  0.750000  0.455085  0.218264  1
  Pr  Pr1  1  0.750000  0.950796  0.284978  1
  Pr  Pr2  1  0.750000  0.826805  0.059710  1
  Pr  Pr3  1  0.250000  0.045055  0.718484  1
  Pr  Pr4  1  0.250000  0.166399  0.935386  1
  Pr  Pr5  1  0.250000  0.548880  0.784923  1
  Pr  Pr6  1  0.750000  0.332680  0.435417  1
  Pr  Pr7  1  0.250000  0.673377  0.560296  1
  Zn  Zn8  1  0.250000  0.995568  0.437180  1
  Zn  Zn9  1  0.750000  0.504599  0.937179  1
  Zn  Zn10  1  0.750000  0.998905  0.560013  1
  Zn  Zn11  1  0.250000  0.623536  0.349991  1
  Zn  Zn12  1  0.750000  0.378902  0.653520  1
  Zn  Zn13  1  0.750000  0.876774  0.850326  1
  Zn  Zn14  1  0.250000  0.501429  0.060027  1
  Zn  Zn15  1  0.250000  0.121266  0.153530  1
  Ir  Ir16  1  0.250000  0.246807  0.313685  1
  Ir  Ir17  1  0.750000  0.252801  0.813346  1
  Ir  Ir18  1  0.250000  0.743129  0.935475  1
  Pd  Pd19  1  0.250000  0.241706  0.565955  1
  Pd  Pd20  1  0.750000  0.258853  0.066036  1
  Rh  Rh21  1  0.750000  0.751590  0.684992  1
  Rh  Rh22  1  0.750000  0.756586  0.435508  1
  Rh  Rh23  1  0.250000  0.748473  0.185781  1
