# generated using pymatgen
data_Er24ZnRu13
_symmetry_space_group_name_H-M   'P 1'
_cell_length_a   11.25040857
_cell_length_b   8.39541702
_cell_length_c   11.26296000
_cell_angle_alpha   56.22554334
_cell_angle_beta   89.95433310
_cell_angle_gamma   89.82689287
_symmetry_Int_Tables_number   1
_chemical_formula_structural   Er24ZnRu13
_chemical_formula_sum   'Er24 Zn1 Ru13'
_cell_volume   884.26684439
_cell_formula_units_Z   1
loop_
 _symmetry_equiv_pos_site_id
 _symmetry_equiv_pos_as_xyz
  1  'x, y, z'
loop_
 _atom_site_type_symbol
 _atom_site_label
 _atom_site_symmetry_multiplicity
 _atom_site_fract_x
 _atom_site_fract_y
 _atom_site_fract_z
 _atom_site_occupancy
  Er  Er0  1  0.706264  0.240620  0.532243  1
  Er  Er1  1  0.205209  0.755386  0.969033  1
  Er  Er2  1  0.848353  0.507181  0.657492  1
  Er  Er3  1  0.343716  0.491289  0.843854  1
  Er  Er4  1  0.152774  0.491887  0.345551  1
  Er  Er5  1  0.653186  0.488412  0.161506  1
  Er  Er6  1  0.006049  0.850686  0.361515  1
  Er  Er7  1  0.502197  0.152515  0.138873  1
  Er  Er8  1  0.994342  0.150337  0.638285  1
  Er  Er9  1  0.489212  0.849847  0.855650  1
  Er  Er10  1  0.799001  0.251412  0.027857  1
  Er  Er11  1  0.294191  0.756523  0.469064  1
  Er  Er12  1  0.933040  0.779675  0.089237  1
  Er  Er13  1  0.430339  0.221850  0.410507  1
  Er  Er14  1  0.071430  0.223600  0.909920  1
  Er  Er15  1  0.566904  0.780636  0.591310  1
  Er  Er16  1  0.303078  0.242655  0.674670  1
  Er  Er17  1  0.800605  0.761161  0.823782  1
  Er  Er18  1  0.698886  0.749996  0.340894  1
  Er  Er19  1  0.197635  0.240881  0.176387  1
  Er  Er20  1  0.926296  0.279193  0.292811  1
  Er  Er21  1  0.422663  0.718440  0.206629  1
  Er  Er22  1  0.074152  0.720997  0.706633  1
  Er  Er23  1  0.576418  0.288964  0.786130  1
  Zn  Zn24  1  0.656255  0.914602  0.036523  1
  Ru  Ru25  1  0.500636  0.504201  0.496997  1
  Ru  Ru26  1  0.000687  0.502049  0.999010  1
  Ru  Ru27  1  0.144865  0.077104  0.464698  1
  Ru  Ru28  1  0.351840  0.080646  0.962824  1
  Ru  Ru29  1  0.854272  0.925047  0.535328  1
  Ru  Ru30  1  0.399649  0.487460  0.102743  1
  Ru  Ru31  1  0.893282  0.519104  0.392982  1
  Ru  Ru32  1  0.602426  0.512688  0.898885  1
  Ru  Ru33  1  0.102699  0.484702  0.602872  1
  Ru  Ru34  1  0.815060  0.101672  0.849740  1
  Ru  Ru35  1  0.318473  0.902090  0.649837  1
  Ru  Ru36  1  0.182841  0.899155  0.150919  1
  Ru  Ru37  1  0.681074  0.095341  0.346812  1
