# generated using pymatgen
data_SmErSn5Rh3
_symmetry_space_group_name_H-M   'P 1'
_cell_length_a   13.48494005
_cell_length_b   13.48493980
_cell_length_c   7.26222700
_cell_angle_alpha   90.00000000
_cell_angle_beta   90.00000000
_cell_angle_gamma   160.99113763
_symmetry_Int_Tables_number   1
_chemical_formula_structural   SmErSn5Rh3
_chemical_formula_sum   'Sm2 Er2 Sn10 Rh6'
_cell_volume   430.13502984
_cell_formula_units_Z   2
loop_
 _symmetry_equiv_pos_site_id
 _symmetry_equiv_pos_as_xyz
  1  'x, y, z'
loop_
 _atom_site_type_symbol
 _atom_site_label
 _atom_site_symmetry_multiplicity
 _atom_site_fract_x
 _atom_site_fract_y
 _atom_site_fract_z
 _atom_site_occupancy
  Sm  Sm0  1  0.172385  0.827615  0.745298  1
  Sm  Sm1  1  0.827615  0.172385  0.245298  1
  Er  Er2  1  0.476068  0.523932  0.762429  1
  Er  Er3  1  0.523932  0.476068  0.262429  1
  Sn  Sn4  1  0.881186  0.118814  0.769417  1
  Sn  Sn5  1  0.118814  0.881186  0.269417  1
  Sn  Sn6  1  0.704583  0.295417  0.449803  1
  Sn  Sn7  1  0.295417  0.704583  0.949803  1
  Sn  Sn8  1  0.595508  0.404492  0.886102  1
  Sn  Sn9  1  0.404492  0.595508  0.386102  1
  Sn  Sn10  1  0.952875  0.047125  0.102108  1
  Sn  Sn11  1  0.047125  0.952875  0.602108  1
  Sn  Sn12  1  0.290777  0.709223  0.523614  1
  Sn  Sn13  1  0.709223  0.290777  0.023614  1
  Rh  Rh14  1  0.049861  0.950139  0.982853  1
  Rh  Rh15  1  0.950139  0.049861  0.482853  1
  Rh  Rh16  1  0.777662  0.222338  0.736188  1
  Rh  Rh17  1  0.222338  0.777662  0.236188  1
  Rh  Rh18  1  0.394869  0.605131  0.014189  1
  Rh  Rh19  1  0.605131  0.394869  0.514189  1
