# generated using pymatgen
data_Ba3Sr9(BN2)8
_symmetry_space_group_name_H-M   'P 1'
_cell_length_a   4.08892012
_cell_length_b   10.95204690
_cell_length_c   14.05955376
_cell_angle_alpha   90.63728922
_cell_angle_beta   90.22850882
_cell_angle_gamma   89.98622077
_symmetry_Int_Tables_number   1
_chemical_formula_structural   Ba3Sr9(BN2)8
_chemical_formula_sum   'Ba3 Sr9 B8 N16'
_cell_volume   629.57160266
_cell_formula_units_Z   1
loop_
 _symmetry_equiv_pos_site_id
 _symmetry_equiv_pos_as_xyz
  1  'x, y, z'
loop_
 _atom_site_type_symbol
 _atom_site_label
 _atom_site_symmetry_multiplicity
 _atom_site_fract_x
 _atom_site_fract_y
 _atom_site_fract_z
 _atom_site_occupancy
  Ba  Ba0  1  0.090933  0.810806  0.112559  1
  Ba  Ba1  1  0.398610  0.188608  0.619777  1
  Ba  Ba2  1  0.900707  0.312837  0.381702  1
  Sr  Sr3  1  0.870623  0.036513  0.834086  1
  Sr  Sr4  1  0.368565  0.459540  0.164828  1
  Sr  Sr5  1  0.127420  0.544820  0.670497  1
  Sr  Sr6  1  0.624826  0.957884  0.332696  1
  Sr  Sr7  1  0.717281  0.841780  0.594238  1
  Sr  Sr8  1  0.212210  0.661374  0.407613  1
  Sr  Sr9  1  0.296988  0.337109  0.907172  1
  Sr  Sr10  1  0.795209  0.164591  0.092530  1
  Sr  Sr11  1  0.599224  0.683563  0.881184  1
  B  B12  1  0.582468  0.508268  0.520819  1
  B  B13  1  0.082546  0.993755  0.481446  1
  B  B14  1  0.920455  0.496675  0.013670  1
  B  B15  1  0.421267  0.001574  0.979169  1
  B  B16  1  0.242462  0.856582  0.741805  1
  B  B17  1  0.737736  0.640701  0.262435  1
  B  B18  1  0.760793  0.362706  0.766270  1
  B  B19  1  0.261407  0.140433  0.235377  1
  N  N20  1  0.373466  0.966691  0.723212  1
  N  N21  1  0.879808  0.530991  0.273922  1
  N  N22  1  0.622158  0.473402  0.776409  1
  N  N23  1  0.117116  0.030630  0.226505  1
  N  N24  1  0.907516  0.096125  0.494522  1
  N  N25  1  0.410969  0.405162  0.506921  1
  N  N26  1  0.087086  0.599033  0.995082  1
  N  N27  1  0.582581  0.895353  0.985835  1
  N  N28  1  0.802114  0.383866  0.032853  1
  N  N29  1  0.300001  0.115998  0.969351  1
  N  N30  1  0.710125  0.621325  0.534481  1
  N  N31  1  0.212679  0.881113  0.468548  1
  N  N32  1  0.586174  0.749088  0.255281  1
  N  N33  1  0.092707  0.749089  0.756095  1
  N  N34  1  0.405080  0.250884  0.238714  1
  N  N35  1  0.898691  0.251134  0.762398  1
