# generated using pymatgen
data_HfTaBe9Re
_symmetry_space_group_name_H-M   'P 1'
_cell_length_a   7.52905140
_cell_length_b   7.52905243
_cell_length_c   7.52905183
_cell_angle_alpha   34.78524506
_cell_angle_beta   34.78523256
_cell_angle_gamma   34.78523191
_symmetry_Int_Tables_number   1
_chemical_formula_structural   HfTaBe9Re
_chemical_formula_sum   'Hf1 Ta1 Be9 Re1'
_cell_volume   123.98514710
_cell_formula_units_Z   1
loop_
 _symmetry_equiv_pos_site_id
 _symmetry_equiv_pos_as_xyz
  1  'x, y, z'
loop_
 _atom_site_type_symbol
 _atom_site_label
 _atom_site_symmetry_multiplicity
 _atom_site_fract_x
 _atom_site_fract_y
 _atom_site_fract_z
 _atom_site_occupancy
  Hf  Hf0  1  0.998358  0.998358  0.998358  1
  Ta  Ta1  1  0.144257  0.144257  0.144257  1
  Be  Be2  1  0.415461  0.919297  0.415461  1
  Be  Be3  1  0.415461  0.415461  0.919297  1
  Be  Be4  1  0.919297  0.415461  0.415461  1
  Be  Be5  1  0.586340  0.076646  0.586340  1
  Be  Be6  1  0.586340  0.586340  0.076646  1
  Be  Be7  1  0.076646  0.586340  0.586340  1
  Be  Be8  1  0.666589  0.666589  0.666589  1
  Be  Be9  1  0.334656  0.334656  0.334656  1
  Be  Be10  1  0.500327  0.500327  0.500327  1
  Re  Re11  1  0.856267  0.856267  0.856267  1
