# generated using pymatgen
data_H3SF7
_symmetry_space_group_name_H-M   'P 1'
_cell_length_a   4.22593498
_cell_length_b   4.90535923
_cell_length_c   7.27521245
_cell_angle_alpha   88.91082255
_cell_angle_beta   78.48772239
_cell_angle_gamma   79.32642187
_symmetry_Int_Tables_number   1
_chemical_formula_structural   H3SF7
_chemical_formula_sum   'H3 S1 F7'
_cell_volume   145.19703964
_cell_formula_units_Z   1
loop_
 _symmetry_equiv_pos_site_id
 _symmetry_equiv_pos_as_xyz
  1  'x, y, z'
loop_
 _atom_site_type_symbol
 _atom_site_label
 _atom_site_symmetry_multiplicity
 _atom_site_fract_x
 _atom_site_fract_y
 _atom_site_fract_z
 _atom_site_occupancy
  H  H0  1  0.362641  0.744237  0.241629  1
  H  H1  1  0.760274  0.454660  0.307038  1
  H  H2  1  0.083947  0.134040  0.353356  1
  S  S3  1  0.672394  0.933293  0.742968  1
  F  F4  1  0.162985  0.891140  0.243398  1
  F  F5  1  0.532529  0.674767  0.836262  1
  F  F6  1  0.758560  0.005164  0.948986  1
  F  F7  1  0.983436  0.314661  0.422593  1
  F  F8  1  0.621920  0.513778  0.212620  1
  F  F9  1  0.533631  0.858712  0.546654  1
  F  F10  1  0.357771  0.170804  0.788844  1
