# generated using pymatgen
data_Tb2Er2TmSn4
_symmetry_space_group_name_H-M   'P 1'
_cell_length_a   8.00515500
_cell_length_b   8.14752600
_cell_length_c   15.39877500
_cell_angle_alpha   90.00000000
_cell_angle_beta   90.00000000
_cell_angle_gamma   90.00000000
_symmetry_Int_Tables_number   1
_chemical_formula_structural   Tb2Er2TmSn4
_chemical_formula_sum   'Tb8 Er8 Tm4 Sn16'
_cell_volume   1004.34211364
_cell_formula_units_Z   4
loop_
 _symmetry_equiv_pos_site_id
 _symmetry_equiv_pos_as_xyz
  1  'x, y, z'
loop_
 _atom_site_type_symbol
 _atom_site_label
 _atom_site_symmetry_multiplicity
 _atom_site_fract_x
 _atom_site_fract_y
 _atom_site_fract_z
 _atom_site_occupancy
  Tb  Tb0  1  0.520690  0.320486  0.902722  1
  Tb  Tb1  1  0.020690  0.179514  0.597278  1
  Tb  Tb2  1  0.479310  0.679514  0.402722  1
  Tb  Tb3  1  0.979310  0.820486  0.097278  1
  Tb  Tb4  1  0.479310  0.679514  0.097278  1
  Tb  Tb5  1  0.979310  0.820486  0.402722  1
  Tb  Tb6  1  0.520690  0.320486  0.597278  1
  Tb  Tb7  1  0.020690  0.179514  0.902722  1
  Er  Er8  1  0.366958  0.836447  0.877437  1
  Er  Er9  1  0.866958  0.663553  0.622563  1
  Er  Er10  1  0.633042  0.163553  0.377437  1
  Er  Er11  1  0.133042  0.336447  0.122563  1
  Er  Er12  1  0.633042  0.163553  0.122563  1
  Er  Er13  1  0.133042  0.336447  0.377437  1
  Er  Er14  1  0.366958  0.836447  0.622563  1
  Er  Er15  1  0.866958  0.663553  0.877437  1
  Tm  Tm16  1  0.198110  0.503787  0.750000  1
  Tm  Tm17  1  0.698110  0.996213  0.750000  1
  Tm  Tm18  1  0.801890  0.496213  0.250000  1
  Tm  Tm19  1  0.301890  0.003787  0.250000  1
  Sn  Sn20  1  0.294493  0.037178  0.041791  1
  Sn  Sn21  1  0.794493  0.462822  0.458209  1
  Sn  Sn22  1  0.705507  0.962822  0.541791  1
  Sn  Sn23  1  0.205507  0.537178  0.958209  1
  Sn  Sn24  1  0.705507  0.962822  0.958209  1
  Sn  Sn25  1  0.205507  0.537178  0.541791  1
  Sn  Sn26  1  0.294493  0.037178  0.458209  1
  Sn  Sn27  1  0.794493  0.462822  0.041791  1
  Sn  Sn28  1  0.564272  0.620865  0.750000  1
  Sn  Sn29  1  0.064272  0.879135  0.750000  1
  Sn  Sn30  1  0.435728  0.379135  0.250000  1
  Sn  Sn31  1  0.935728  0.120865  0.250000  1
  Sn  Sn32  1  0.329532  0.146997  0.750000  1
  Sn  Sn33  1  0.829532  0.353003  0.750000  1
  Sn  Sn34  1  0.670468  0.853003  0.250000  1
  Sn  Sn35  1  0.170468  0.646997  0.250000  1
