# generated using pymatgen
data_TbCePuS3
_symmetry_space_group_name_H-M   'P 1'
_cell_length_a   3.99607600
_cell_length_b   3.99607521
_cell_length_c   9.72913600
_cell_angle_alpha   90.00000000
_cell_angle_beta   90.00000000
_cell_angle_gamma   119.99998996
_symmetry_Int_Tables_number   1
_chemical_formula_structural   TbCePuS3
_chemical_formula_sum   'Tb1 Ce1 Pu1 S3'
_cell_volume   134.54648086
_cell_formula_units_Z   1
loop_
 _symmetry_equiv_pos_site_id
 _symmetry_equiv_pos_as_xyz
  1  'x, y, z'
loop_
 _atom_site_type_symbol
 _atom_site_label
 _atom_site_symmetry_multiplicity
 _atom_site_fract_x
 _atom_site_fract_y
 _atom_site_fract_z
 _atom_site_occupancy
  Tb  Tb0  1  0.666667  0.333333  0.335068  1
  Ce  Ce1  1  0.000000  0.000000  0.999655  1
  Pu  Pu2  1  0.333333  0.666667  0.664624  1
  S  S3  1  0.333333  0.666667  0.175592  1
  S  S4  1  0.666667  0.333333  0.826043  1
  S  S5  1  0.000000  0.000000  0.499018  1
