# generated using pymatgen
data_Rb12CaLuSe8
_symmetry_space_group_name_H-M   'P 1'
_cell_length_a   11.14500800
_cell_length_b   11.14500845
_cell_length_c   8.45767600
_cell_angle_alpha   90.00000000
_cell_angle_beta   90.00000000
_cell_angle_gamma   120.00000459
_symmetry_Int_Tables_number   1
_chemical_formula_structural   Rb12CaLuSe8
_chemical_formula_sum   'Rb12 Ca1 Lu1 Se8'
_cell_volume   909.79268869
_cell_formula_units_Z   1
loop_
 _symmetry_equiv_pos_site_id
 _symmetry_equiv_pos_as_xyz
  1  'x, y, z'
loop_
 _atom_site_type_symbol
 _atom_site_label
 _atom_site_symmetry_multiplicity
 _atom_site_fract_x
 _atom_site_fract_y
 _atom_site_fract_z
 _atom_site_occupancy
  Rb  Rb0  1  0.140147  0.280293  0.200703  1
  Rb  Rb1  1  0.140147  0.859853  0.200703  1
  Rb  Rb2  1  0.719707  0.859853  0.200703  1
  Rb  Rb3  1  0.864058  0.728115  0.710091  1
  Rb  Rb4  1  0.864058  0.135942  0.710091  1
  Rb  Rb5  1  0.271885  0.135942  0.710091  1
  Rb  Rb6  1  0.528595  0.057189  0.390639  1
  Rb  Rb7  1  0.528595  0.471405  0.390639  1
  Rb  Rb8  1  0.942811  0.471405  0.390639  1
  Rb  Rb9  1  0.464672  0.929345  0.878501  1
  Rb  Rb10  1  0.464672  0.535328  0.878501  1
  Rb  Rb11  1  0.070655  0.535328  0.878501  1
  Ca  Ca12  1  0.333333  0.666667  0.489929  1
  Lu  Lu13  1  0.666667  0.333333  0.993187  1
  Se  Se14  1  0.333333  0.666667  0.155121  1
  Se  Se15  1  0.666667  0.333333  0.675259  1
  Se  Se16  1  0.797983  0.595965  0.099045  1
  Se  Se17  1  0.797983  0.202017  0.099045  1
  Se  Se18  1  0.404035  0.202017  0.099045  1
  Se  Se19  1  0.192764  0.385530  0.596467  1
  Se  Se20  1  0.192764  0.807236  0.596467  1
  Se  Se21  1  0.614470  0.807236  0.596467  1
