# generated using pymatgen
data_Nd2Ga2(Tc5C)3
_symmetry_space_group_name_H-M   'P 1'
_cell_length_a   6.99845951
_cell_length_b   6.99846111
_cell_length_c   6.97180276
_cell_angle_alpha   82.37220405
_cell_angle_beta   82.37219746
_cell_angle_gamma   82.72562058
_symmetry_Int_Tables_number   1
_chemical_formula_structural   Nd2Ga2(Tc5C)3
_chemical_formula_sum   'Nd2 Ga2 Tc15 C3'
_cell_volume   333.38034045
_cell_formula_units_Z   1
loop_
 _symmetry_equiv_pos_site_id
 _symmetry_equiv_pos_as_xyz
  1  'x, y, z'
loop_
 _atom_site_type_symbol
 _atom_site_label
 _atom_site_symmetry_multiplicity
 _atom_site_fract_x
 _atom_site_fract_y
 _atom_site_fract_z
 _atom_site_occupancy
  Nd  Nd0  1  0.655642  0.655642  0.653310  1
  Nd  Nd1  1  0.344358  0.344358  0.346690  1
  Ga  Ga2  1  0.500000  0.000000  0.000000  1
  Ga  Ga3  1  0.000000  0.500000  0.000000  1
  Tc  Tc4  1  0.000000  0.000000  0.500000  1
  Tc  Tc5  1  0.723123  0.276877  0.000000  1
  Tc  Tc6  1  0.003335  0.725499  0.275247  1
  Tc  Tc7  1  0.274501  0.996665  0.724753  1
  Tc  Tc8  1  0.996665  0.274501  0.724753  1
  Tc  Tc9  1  0.725499  0.003335  0.275247  1
  Tc  Tc10  1  0.276877  0.723123  0.000000  1
  Tc  Tc11  1  0.353997  0.853137  0.353646  1
  Tc  Tc12  1  0.348225  0.348225  0.854697  1
  Tc  Tc13  1  0.853137  0.353997  0.353646  1
  Tc  Tc14  1  0.646003  0.146863  0.646354  1
  Tc  Tc15  1  0.651775  0.651775  0.145303  1
  Tc  Tc16  1  0.146863  0.646003  0.646354  1
  Tc  Tc17  1  0.905498  0.905498  0.898641  1
  Tc  Tc18  1  0.094502  0.094502  0.101359  1
  C  C19  1  0.500000  0.500000  0.000000  1
  C  C20  1  0.000000  0.500000  0.500000  1
  C  C21  1  0.500000  0.000000  0.500000  1
