# generated using pymatgen
data_NdHo3(SiPd14)2
_symmetry_space_group_name_H-M   'P 1'
_cell_length_a   8.93456900
_cell_length_b   8.93456900
_cell_length_c   7.10926600
_cell_angle_alpha   90.00000000
_cell_angle_beta   90.00000000
_cell_angle_gamma   90.00000000
_symmetry_Int_Tables_number   1
_chemical_formula_structural   NdHo3(SiPd14)2
_chemical_formula_sum   'Nd1 Ho3 Si2 Pd28'
_cell_volume   567.50798740
_cell_formula_units_Z   1
loop_
 _symmetry_equiv_pos_site_id
 _symmetry_equiv_pos_as_xyz
  1  'x, y, z'
loop_
 _atom_site_type_symbol
 _atom_site_label
 _atom_site_symmetry_multiplicity
 _atom_site_fract_x
 _atom_site_fract_y
 _atom_site_fract_z
 _atom_site_occupancy
  Nd  Nd0  1  0.500000  0.000000  0.937190  1
  Ho  Ho1  1  0.000000  0.500000  0.065493  1
  Ho  Ho2  1  0.000000  0.000000  0.500829  1
  Ho  Ho3  1  0.500000  0.500000  0.500829  1
  Si  Si4  1  0.500000  0.000000  0.448728  1
  Si  Si5  1  0.000000  0.500000  0.553239  1
  Pd  Pd6  1  0.333315  0.833315  0.613119  1
  Pd  Pd7  1  0.333315  0.166685  0.613119  1
  Pd  Pd8  1  0.666685  0.833315  0.613119  1
  Pd  Pd9  1  0.666685  0.166685  0.613119  1
  Pd  Pd10  1  0.164431  0.664431  0.382888  1
  Pd  Pd11  1  0.164431  0.335569  0.382888  1
  Pd  Pd12  1  0.835569  0.664431  0.382888  1
  Pd  Pd13  1  0.835569  0.335569  0.382888  1
  Pd  Pd14  1  0.500000  0.767820  0.259849  1
  Pd  Pd15  1  0.500000  0.232180  0.259849  1
  Pd  Pd16  1  0.267820  0.000000  0.259849  1
  Pd  Pd17  1  0.732180  0.000000  0.259849  1
  Pd  Pd18  1  0.000000  0.729631  0.744007  1
  Pd  Pd19  1  0.000000  0.270369  0.744007  1
  Pd  Pd20  1  0.229631  0.500000  0.744007  1
  Pd  Pd21  1  0.770369  0.500000  0.744007  1
  Pd  Pd22  1  0.500000  0.349509  0.851592  1
  Pd  Pd23  1  0.500000  0.650491  0.851592  1
  Pd  Pd24  1  0.849509  0.000000  0.851592  1
  Pd  Pd25  1  0.150491  0.000000  0.851592  1
  Pd  Pd26  1  0.000000  0.150484  0.147339  1
  Pd  Pd27  1  0.000000  0.849516  0.147339  1
  Pd  Pd28  1  0.650484  0.500000  0.147339  1
  Pd  Pd29  1  0.349516  0.500000  0.147339  1
  Pd  Pd30  1  0.248215  0.748215  0.999629  1
  Pd  Pd31  1  0.248215  0.251785  0.999629  1
  Pd  Pd32  1  0.751785  0.748215  0.999629  1
  Pd  Pd33  1  0.751785  0.251785  0.999629  1
