# generated using pymatgen
data_MnAl2Ga3(NiPt4)2
_symmetry_space_group_name_H-M   'P 1'
_cell_length_a   3.98725600
_cell_length_b   5.39480273
_cell_length_c   10.79052544
_cell_angle_alpha   96.24104779
_cell_angle_beta   90.00000000
_cell_angle_gamma   90.00000000
_symmetry_Int_Tables_number   1
_chemical_formula_structural   MnAl2Ga3(NiPt4)2
_chemical_formula_sum   'Mn1 Al2 Ga3 Ni2 Pt8'
_cell_volume   230.73352785
_cell_formula_units_Z   1
loop_
 _symmetry_equiv_pos_site_id
 _symmetry_equiv_pos_as_xyz
  1  'x, y, z'
loop_
 _atom_site_type_symbol
 _atom_site_label
 _atom_site_symmetry_multiplicity
 _atom_site_fract_x
 _atom_site_fract_y
 _atom_site_fract_z
 _atom_site_occupancy
  Mn  Mn0  1  0.500000  0.276491  0.359620  1
  Al  Al1  1  0.500000  0.289138  0.857848  1
  Al  Al2  1  0.500000  0.711215  0.145443  1
  Ga  Ga3  1  0.500000  0.707699  0.643885  1
  Ga  Ga4  1  0.000000  0.003517  0.998986  1
  Ga  Ga5  1  0.000000  0.013750  0.491697  1
  Ni  Ni6  1  0.000000  0.492432  0.252114  1
  Ni  Ni7  1  0.000000  0.501942  0.751566  1
  Pt  Pt8  1  0.500000  0.771728  0.384905  1
  Pt  Pt9  1  0.500000  0.774830  0.889446  1
  Pt  Pt10  1  0.500000  0.229792  0.110080  1
  Pt  Pt11  1  0.500000  0.216387  0.614450  1
  Pt  Pt12  1  0.000000  0.988284  0.240811  1
  Pt  Pt13  1  0.000000  0.007355  0.754977  1
  Pt  Pt14  1  0.000000  0.505134  0.001135  1
  Pt  Pt15  1  0.000000  0.510304  0.503035  1
