# generated using pymatgen
data_Ba4DyU3O14
_symmetry_space_group_name_H-M   'P 1'
_cell_length_a   8.18014179
_cell_length_b   8.18014164
_cell_length_c   8.13011285
_cell_angle_alpha   120.40781846
_cell_angle_beta   118.44034265
_cell_angle_gamma   91.35306327
_symmetry_Int_Tables_number   1
_chemical_formula_structural   Ba4DyU3O14
_chemical_formula_sum   'Ba4 Dy1 U3 O14'
_cell_volume   386.62530100
_cell_formula_units_Z   1
loop_
 _symmetry_equiv_pos_site_id
 _symmetry_equiv_pos_as_xyz
  1  'x, y, z'
loop_
 _atom_site_type_symbol
 _atom_site_label
 _atom_site_symmetry_multiplicity
 _atom_site_fract_x
 _atom_site_fract_y
 _atom_site_fract_z
 _atom_site_occupancy
  Ba  Ba0  1  0.000000  0.000000  0.000000  1
  Ba  Ba1  1  0.500000  0.500000  0.000000  1
  Ba  Ba2  1  0.500000  0.000000  0.000000  1
  Ba  Ba3  1  0.500000  0.500000  0.500000  1
  Dy  Dy4  1  0.000000  0.500000  0.000000  1
  U  U5  1  0.000000  0.000000  0.500000  1
  U  U6  1  0.000000  0.500000  0.500000  1
  U  U7  1  0.500000  0.000000  0.500000  1
  O  O8  1  0.906343  0.762846  0.169189  1
  O  O9  1  0.687747  0.919306  0.368628  1
  O  O10  1  0.623755  0.911385  0.717967  1
  O  O11  1  0.671786  0.304866  0.754699  1
  O  O12  1  0.328214  0.695134  0.245301  1
  O  O13  1  0.312253  0.080694  0.631372  1
  O  O14  1  0.693419  0.405788  0.282033  1
  O  O15  1  0.050678  0.819119  0.631372  1
  O  O16  1  0.050167  0.417086  0.245301  1
  O  O17  1  0.093657  0.237154  0.830811  1
  O  O18  1  0.376245  0.088615  0.282033  1
  O  O19  1  0.949322  0.180881  0.368628  1
  O  O20  1  0.949833  0.582914  0.754699  1
  O  O21  1  0.306581  0.594212  0.717967  1
