# generated using pymatgen
data_PrNd(Bi3O7)2
_symmetry_space_group_name_H-M   'P 1'
_cell_length_a   6.75265615
_cell_length_b   6.97618103
_cell_length_c   7.96603918
_cell_angle_alpha   106.38360705
_cell_angle_beta   89.26734783
_cell_angle_gamma   99.62069978
_symmetry_Int_Tables_number   1
_chemical_formula_structural   PrNd(Bi3O7)2
_chemical_formula_sum   'Pr1 Nd1 Bi6 O14'
_cell_volume   354.72690405
_cell_formula_units_Z   1
loop_
 _symmetry_equiv_pos_site_id
 _symmetry_equiv_pos_as_xyz
  1  'x, y, z'
loop_
 _atom_site_type_symbol
 _atom_site_label
 _atom_site_symmetry_multiplicity
 _atom_site_fract_x
 _atom_site_fract_y
 _atom_site_fract_z
 _atom_site_occupancy
  Pr  Pr0  1  0.458701  0.997552  0.247925  1
  Nd  Nd1  1  0.541216  0.001973  0.751952  1
  Bi  Bi2  1  0.999963  0.999950  0.500301  1
  Bi  Bi3  1  0.000123  0.999994  0.999634  1
  Bi  Bi4  1  0.259834  0.505932  0.874127  1
  Bi  Bi5  1  0.740297  0.493716  0.125667  1
  Bi  Bi6  1  0.720477  0.473804  0.608038  1
  Bi  Bi7  1  0.279479  0.526463  0.392339  1
  O  O8  1  0.464533  0.642761  0.184107  1
  O  O9  1  0.535405  0.355439  0.815509  1
  O  O10  1  0.296213  0.938453  0.953942  1
  O  O11  1  0.704084  0.061766  0.044160  1
  O  O12  1  0.287907  0.909271  0.507589  1
  O  O13  1  0.712247  0.090844  0.494036  1
  O  O14  1  0.532999  0.355115  0.358951  1
  O  O15  1  0.467544  0.646574  0.641703  1
  O  O16  1  0.907362  0.683034  0.970342  1
  O  O17  1  0.092717  0.317068  0.029731  1
  O  O18  1  0.108953  0.319476  0.622063  1
  O  O19  1  0.891183  0.680647  0.377894  1
  O  O20  1  0.886688  0.924690  0.730864  1
  O  O21  1  0.112074  0.075478  0.269128  1
