# generated using pymatgen
data_Li4Ca3ThSi7Ge
_symmetry_space_group_name_H-M   'P 1'
_cell_length_a   3.83531000
_cell_length_b   7.88610676
_cell_length_c   10.63069018
_cell_angle_alpha   89.82847218
_cell_angle_beta   90.00000000
_cell_angle_gamma   90.00000000
_symmetry_Int_Tables_number   1
_chemical_formula_structural   Li4Ca3ThSi7Ge
_chemical_formula_sum   'Li4 Ca3 Th1 Si7 Ge1'
_cell_volume   321.53084354
_cell_formula_units_Z   1
loop_
 _symmetry_equiv_pos_site_id
 _symmetry_equiv_pos_as_xyz
  1  'x, y, z'
loop_
 _atom_site_type_symbol
 _atom_site_label
 _atom_site_symmetry_multiplicity
 _atom_site_fract_x
 _atom_site_fract_y
 _atom_site_fract_z
 _atom_site_occupancy
  Li  Li0  1  0.250000  0.996264  0.388191  1
  Li  Li1  1  0.750000  0.999321  0.605768  1
  Li  Li2  1  0.250000  0.495225  0.111826  1
  Li  Li3  1  0.750000  0.510362  0.887214  1
  Ca  Ca4  1  0.750000  0.867146  0.138872  1
  Ca  Ca5  1  0.250000  0.633576  0.634059  1
  Ca  Ca6  1  0.750000  0.363364  0.367893  1
  Th  Th7  1  0.250000  0.136022  0.864702  1
  Si  Si8  1  0.750000  0.268830  0.064862  1
  Si  Si9  1  0.750000  0.764513  0.431149  1
  Si  Si10  1  0.250000  0.229233  0.570927  1
  Si  Si11  1  0.750000  0.840784  0.817800  1
  Si  Si12  1  0.250000  0.165076  0.172718  1
  Si  Si13  1  0.750000  0.329412  0.683203  1
  Si  Si14  1  0.250000  0.664027  0.323899  1
  Ge  Ge15  1  0.250000  0.736844  0.936918  1
