# generated using pymatgen
data_Rb14Li3Tl3(VAs5)2
_symmetry_space_group_name_H-M   'P 1'
_cell_length_a   8.65036525
_cell_length_b   9.51933481
_cell_length_c   14.54303303
_cell_angle_alpha   85.21773596
_cell_angle_beta   82.49954930
_cell_angle_gamma   87.35786427
_symmetry_Int_Tables_number   1
_chemical_formula_structural   Rb14Li3Tl3(VAs5)2
_chemical_formula_sum   'Rb14 Li3 Tl3 V2 As10'
_cell_volume   1182.42490184
_cell_formula_units_Z   1
loop_
 _symmetry_equiv_pos_site_id
 _symmetry_equiv_pos_as_xyz
  1  'x, y, z'
loop_
 _atom_site_type_symbol
 _atom_site_label
 _atom_site_symmetry_multiplicity
 _atom_site_fract_x
 _atom_site_fract_y
 _atom_site_fract_z
 _atom_site_occupancy
  Rb  Rb0  1  0.839150  0.347881  0.662031  1
  Rb  Rb1  1  0.819906  0.803719  0.134365  1
  Rb  Rb2  1  0.250044  0.998984  0.474123  1
  Rb  Rb3  1  0.265738  0.259576  0.258378  1
  Rb  Rb4  1  0.731535  0.500034  0.977107  1
  Rb  Rb5  1  0.261651  0.494119  0.026120  1
  Rb  Rb6  1  0.663154  0.080386  0.886880  1
  Rb  Rb7  1  0.746528  0.998648  0.524355  1
  Rb  Rb8  1  0.736344  0.736038  0.739642  1
  Rb  Rb9  1  0.343438  0.353823  0.602739  1
  Rb  Rb10  1  0.149676  0.648384  0.339134  1
  Rb  Rb11  1  0.163889  0.201811  0.866522  1
  Rb  Rb12  1  0.321595  0.914718  0.110813  1
  Rb  Rb13  1  0.655582  0.632633  0.398823  1
  Li  Li14  1  0.132294  0.767697  0.670634  1
  Li  Li15  1  0.876224  0.241660  0.335911  1
  Li  Li16  1  0.689679  0.078014  0.279339  1
  Tl  Tl17  1  0.044672  0.821834  0.878310  1
  Tl  Tl18  1  0.954139  0.180169  0.122037  1
  Tl  Tl19  1  0.375346  0.972982  0.705401  1
  V  V20  1  0.351074  0.611261  0.772773  1
  V  V21  1  0.644702  0.381629  0.228904  1
  As  As22  1  0.915254  0.448860  0.210143  1
  As  As23  1  0.619076  0.195412  0.123477  1
  As  As24  1  0.079010  0.552338  0.792232  1
  As  As25  1  0.579509  0.275707  0.387511  1
  As  As26  1  0.422632  0.713041  0.611508  1
  As  As27  1  0.016444  0.017262  0.695243  1
  As  As28  1  0.502749  0.412850  0.807919  1
  As  As29  1  0.490374  0.583270  0.196177  1
  As  As30  1  0.382532  0.792856  0.877687  1
  As  As31  1  0.976062  0.982403  0.303760  1
