# generated using pymatgen
data_Nd3Al12Os3Pt
_symmetry_space_group_name_H-M   'P 1'
_cell_length_a   8.94102576
_cell_length_b   8.89957522
_cell_length_c   9.68694112
_cell_angle_alpha   89.99999767
_cell_angle_beta   90.04792161
_cell_angle_gamma   119.84676720
_symmetry_Int_Tables_number   1
_chemical_formula_structural   Nd3Al12Os3Pt
_chemical_formula_sum   'Nd6 Al24 Os6 Pt2'
_cell_volume   668.56283194
_cell_formula_units_Z   2
loop_
 _symmetry_equiv_pos_site_id
 _symmetry_equiv_pos_as_xyz
  1  'x, y, z'
loop_
 _atom_site_type_symbol
 _atom_site_label
 _atom_site_symmetry_multiplicity
 _atom_site_fract_x
 _atom_site_fract_y
 _atom_site_fract_z
 _atom_site_occupancy
  Nd  Nd0  1  0.189307  0.382863  0.251885  1
  Nd  Nd1  1  0.810693  0.617137  0.748115  1
  Nd  Nd2  1  0.618928  0.809464  0.250952  1
  Nd  Nd3  1  0.381072  0.190536  0.749048  1
  Nd  Nd4  1  0.189307  0.806446  0.251885  1
  Nd  Nd5  1  0.810693  0.193554  0.748115  1
  Al  Al6  1  0.328275  0.664138  0.019651  1
  Al  Al7  1  0.671725  0.335862  0.980349  1
  Al  Al8  1  0.666354  0.333177  0.519331  1
  Al  Al9  1  0.333646  0.666823  0.480669  1
  Al  Al10  1  0.164789  0.328474  0.573701  1
  Al  Al11  1  0.835211  0.671526  0.426299  1
  Al  Al12  1  0.671753  0.835876  0.572575  1
  Al  Al13  1  0.842175  0.674163  0.076409  1
  Al  Al14  1  0.328247  0.164124  0.427425  1
  Al  Al15  1  0.157825  0.325837  0.923591  1
  Al  Al16  1  0.164789  0.836315  0.573701  1
  Al  Al17  1  0.323792  0.161896  0.077188  1
  Al  Al18  1  0.835211  0.163685  0.426299  1
  Al  Al19  1  0.676208  0.838104  0.922812  1
  Al  Al20  1  0.842175  0.168012  0.076409  1
  Al  Al21  1  0.157825  0.831988  0.923591  1
  Al  Al22  1  0.563283  0.126689  0.252304  1
  Al  Al23  1  0.436717  0.873311  0.747696  1
  Al  Al24  1  0.875115  0.437558  0.249128  1
  Al  Al25  1  0.124885  0.562442  0.750872  1
  Al  Al26  1  0.563283  0.436594  0.252304  1
  Al  Al27  1  0.436717  0.563406  0.747696  1
  Al  Al28  1  0.997685  0.998842  0.250493  1
  Al  Al29  1  0.002315  0.001158  0.749507  1
  Os  Os30  1  0.000000  0.500000  0.000000  1
  Os  Os31  1  0.500000  0.000000  0.500000  1
  Os  Os32  1  0.000000  0.500000  0.500000  1
  Os  Os33  1  0.500000  0.500000  0.500000  1
  Os  Os34  1  0.000000  0.000000  0.000000  1
  Os  Os35  1  0.000000  0.000000  0.500000  1
  Pt  Pt36  1  0.500000  0.000000  0.000000  1
  Pt  Pt37  1  0.500000  0.500000  0.000000  1
