# generated using pymatgen
data_Pr2Sm3(SnPb)2
_symmetry_space_group_name_H-M   'P 1'
_cell_length_a   8.35731400
_cell_length_b   8.54683000
_cell_length_c   16.09299700
_cell_angle_alpha   90.00000000
_cell_angle_beta   90.00000000
_cell_angle_gamma   90.00000000
_symmetry_Int_Tables_number   1
_chemical_formula_structural   Pr2Sm3(SnPb)2
_chemical_formula_sum   'Pr8 Sm12 Sn8 Pb8'
_cell_volume   1149.49931236
_cell_formula_units_Z   4
loop_
 _symmetry_equiv_pos_site_id
 _symmetry_equiv_pos_as_xyz
  1  'x, y, z'
loop_
 _atom_site_type_symbol
 _atom_site_label
 _atom_site_symmetry_multiplicity
 _atom_site_fract_x
 _atom_site_fract_y
 _atom_site_fract_z
 _atom_site_occupancy
  Pr  Pr0  1  0.514165  0.321008  0.899122  1
  Pr  Pr1  1  0.014165  0.178992  0.600878  1
  Pr  Pr2  1  0.485835  0.678992  0.399122  1
  Pr  Pr3  1  0.985835  0.821008  0.100878  1
  Pr  Pr4  1  0.485835  0.678992  0.100878  1
  Pr  Pr5  1  0.985835  0.821008  0.399122  1
  Pr  Pr6  1  0.514165  0.321008  0.600878  1
  Pr  Pr7  1  0.014165  0.178992  0.899122  1
  Sm  Sm8  1  0.356690  0.837212  0.875240  1
  Sm  Sm9  1  0.856690  0.662788  0.624760  1
  Sm  Sm10  1  0.643310  0.162788  0.375240  1
  Sm  Sm11  1  0.143310  0.337212  0.124760  1
  Sm  Sm12  1  0.643310  0.162788  0.124760  1
  Sm  Sm13  1  0.143310  0.337212  0.375240  1
  Sm  Sm14  1  0.356690  0.837212  0.624760  1
  Sm  Sm15  1  0.856690  0.662788  0.875240  1
  Sm  Sm16  1  0.189962  0.500934  0.750000  1
  Sm  Sm17  1  0.689962  0.999066  0.750000  1
  Sm  Sm18  1  0.810038  0.499066  0.250000  1
  Sm  Sm19  1  0.310038  0.000934  0.250000  1
  Sn  Sn20  1  0.554186  0.621878  0.750000  1
  Sn  Sn21  1  0.054186  0.878122  0.750000  1
  Sn  Sn22  1  0.445814  0.378122  0.250000  1
  Sn  Sn23  1  0.945814  0.121878  0.250000  1
  Sn  Sn24  1  0.319780  0.145641  0.750000  1
  Sn  Sn25  1  0.819780  0.354359  0.750000  1
  Sn  Sn26  1  0.680220  0.854359  0.250000  1
  Sn  Sn27  1  0.180220  0.645641  0.250000  1
  Pb  Pb28  1  0.302350  0.040860  0.041522  1
  Pb  Pb29  1  0.802350  0.459140  0.458478  1
  Pb  Pb30  1  0.697650  0.959140  0.541522  1
  Pb  Pb31  1  0.197650  0.540860  0.958478  1
  Pb  Pb32  1  0.697650  0.959140  0.958478  1
  Pb  Pb33  1  0.197650  0.540860  0.541522  1
  Pb  Pb34  1  0.302350  0.040860  0.458478  1
  Pb  Pb35  1  0.802350  0.459140  0.041522  1
