# generated using pymatgen
data_Mn4AlPd10Au
_symmetry_space_group_name_H-M   'P 1'
_cell_length_a   4.04920900
_cell_length_b   5.51104970
_cell_length_c   10.94831814
_cell_angle_alpha   87.24092964
_cell_angle_beta   90.00000000
_cell_angle_gamma   90.00000000
_symmetry_Int_Tables_number   1
_chemical_formula_structural   Mn4AlPd10Au
_chemical_formula_sum   'Mn4 Al1 Pd10 Au1'
_cell_volume   244.03279526
_cell_formula_units_Z   1
loop_
 _symmetry_equiv_pos_site_id
 _symmetry_equiv_pos_as_xyz
  1  'x, y, z'
loop_
 _atom_site_type_symbol
 _atom_site_label
 _atom_site_symmetry_multiplicity
 _atom_site_fract_x
 _atom_site_fract_y
 _atom_site_fract_z
 _atom_site_occupancy
  Mn  Mn0  1  0.500000  0.194932  0.366162  1
  Mn  Mn1  1  0.500000  0.805068  0.633838  1
  Mn  Mn2  1  0.500000  0.718924  0.131384  1
  Mn  Mn3  1  0.500000  0.281076  0.868616  1
  Al  Al4  1  0.000000  0.500000  0.500000  1
  Pd  Pd5  1  0.500000  0.229198  0.126193  1
  Pd  Pd6  1  0.500000  0.770802  0.873807  1
  Pd  Pd7  1  0.500000  0.696212  0.393279  1
  Pd  Pd8  1  0.500000  0.303788  0.606721  1
  Pd  Pd9  1  0.000000  0.000000  0.500000  1
  Pd  Pd10  1  0.000000  0.500000  0.000000  1
  Pd  Pd11  1  0.000000  0.948426  0.252439  1
  Pd  Pd12  1  0.000000  0.051574  0.747561  1
  Pd  Pd13  1  0.000000  0.450323  0.262414  1
  Pd  Pd14  1  0.000000  0.549677  0.737586  1
  Au  Au15  1  0.000000  0.000000  0.000000  1
