# generated using pymatgen
data_TbPrFe2(P3Rh4)2
_symmetry_space_group_name_H-M   'P 1'
_cell_length_a   3.87841800
_cell_length_b   10.83940100
_cell_length_c   12.45442600
_cell_angle_alpha   90.00000000
_cell_angle_beta   90.00000000
_cell_angle_gamma   90.00000000
_symmetry_Int_Tables_number   1
_chemical_formula_structural   TbPrFe2(P3Rh4)2
_chemical_formula_sum   'Tb2 Pr2 Fe4 P12 Rh16'
_cell_volume   523.58068078
_cell_formula_units_Z   2
loop_
 _symmetry_equiv_pos_site_id
 _symmetry_equiv_pos_as_xyz
  1  'x, y, z'
loop_
 _atom_site_type_symbol
 _atom_site_label
 _atom_site_symmetry_multiplicity
 _atom_site_fract_x
 _atom_site_fract_y
 _atom_site_fract_z
 _atom_site_occupancy
  Tb  Tb0  1  0.750000  0.416981  0.291244  1
  Tb  Tb1  1  0.750000  0.083019  0.791244  1
  Pr  Pr2  1  0.250000  0.583070  0.708963  1
  Pr  Pr3  1  0.250000  0.916930  0.208963  1
  Fe  Fe4  1  0.250000  0.460413  0.934978  1
  Fe  Fe5  1  0.250000  0.039587  0.434978  1
  Fe  Fe6  1  0.750000  0.535387  0.068189  1
  Fe  Fe7  1  0.750000  0.964613  0.568189  1
  P  P8  1  0.250000  0.429179  0.106700  1
  P  P9  1  0.250000  0.070821  0.606700  1
  P  P10  1  0.750000  0.568709  0.896848  1
  P  P11  1  0.750000  0.931291  0.396848  1
  P  P12  1  0.250000  0.271675  0.869607  1
  P  P13  1  0.250000  0.228325  0.369607  1
  P  P14  1  0.750000  0.725449  0.127693  1
  P  P15  1  0.750000  0.774551  0.627693  1
  P  P16  1  0.250000  0.601450  0.389285  1
  P  P17  1  0.250000  0.898550  0.889285  1
  P  P18  1  0.750000  0.396343  0.609670  1
  P  P19  1  0.750000  0.103657  0.109670  1
  Rh  Rh20  1  0.250000  0.717115  0.991464  1
  Rh  Rh21  1  0.250000  0.782885  0.491464  1
  Rh  Rh22  1  0.750000  0.282989  0.008689  1
  Rh  Rh23  1  0.750000  0.217011  0.508689  1
  Rh  Rh24  1  0.250000  0.407592  0.478570  1
  Rh  Rh25  1  0.250000  0.092408  0.978570  1
  Rh  Rh26  1  0.750000  0.590497  0.516178  1
  Rh  Rh27  1  0.750000  0.909503  0.016178  1
  Rh  Rh28  1  0.250000  0.230191  0.174757  1
  Rh  Rh29  1  0.250000  0.269809  0.674757  1
  Rh  Rh30  1  0.750000  0.770899  0.825422  1
  Rh  Rh31  1  0.750000  0.729101  0.325422  1
  Rh  Rh32  1  0.250000  0.883777  0.701058  1
  Rh  Rh33  1  0.250000  0.616223  0.201058  1
  Rh  Rh34  1  0.750000  0.120734  0.300685  1
  Rh  Rh35  1  0.750000  0.379266  0.800685  1
