# generated using pymatgen
data_Ho2Pa(SnRh)3
_symmetry_space_group_name_H-M   'P 1'
_cell_length_a   7.51718053
_cell_length_b   7.65251218
_cell_length_c   3.86631900
_cell_angle_alpha   90.00000000
_cell_angle_beta   90.00000000
_cell_angle_gamma   120.59734442
_symmetry_Int_Tables_number   1
_chemical_formula_structural   Ho2Pa(SnRh)3
_chemical_formula_sum   'Ho2 Pa1 Sn3 Rh3'
_cell_volume   191.44393204
_cell_formula_units_Z   1
loop_
 _symmetry_equiv_pos_site_id
 _symmetry_equiv_pos_as_xyz
  1  'x, y, z'
loop_
 _atom_site_type_symbol
 _atom_site_label
 _atom_site_symmetry_multiplicity
 _atom_site_fract_x
 _atom_site_fract_y
 _atom_site_fract_z
 _atom_site_occupancy
  Ho  Ho0  1  0.595384  0.596161  0.000000  1
  Ho  Ho1  1  0.404616  0.000777  0.000000  1
  Pa  Pa2  1  0.000000  0.413049  0.000000  1
  Sn  Sn3  1  0.271974  0.259191  0.500000  1
  Sn  Sn4  1  0.000000  0.754650  0.500000  1
  Sn  Sn5  1  0.728026  0.987217  0.500000  1
  Rh  Rh6  1  0.696613  0.335490  0.500000  1
  Rh  Rh7  1  0.303387  0.638878  0.500000  1
  Rh  Rh8  1  0.000000  0.014587  0.000000  1
