# generated using pymatgen
data_Ca(PaN2)2
_symmetry_space_group_name_H-M   'P 1'
_cell_length_a   7.05102443
_cell_length_b   7.05105729
_cell_length_c   7.05102107
_cell_angle_alpha   119.99304862
_cell_angle_beta   90.01218069
_cell_angle_gamma   119.99307761
_symmetry_Int_Tables_number   1
_chemical_formula_structural   Ca(PaN2)2
_chemical_formula_sum   'Ca2 Pa4 N8'
_cell_volume   247.90676295
_cell_formula_units_Z   2
loop_
 _symmetry_equiv_pos_site_id
 _symmetry_equiv_pos_as_xyz
  1  'x, y, z'
loop_
 _atom_site_type_symbol
 _atom_site_label
 _atom_site_symmetry_multiplicity
 _atom_site_fract_x
 _atom_site_fract_y
 _atom_site_fract_z
 _atom_site_occupancy
  Ca  Ca0  1  0.999998  0.999994  0.999997  1
  Ca  Ca1  1  0.749997  0.499996  0.249998  1
  Pa  Pa2  1  0.375003  0.750010  0.125010  1
  Pa  Pa3  1  0.375005  0.750009  0.624999  1
  Pa  Pa4  1  0.375003  0.249993  0.624996  1
  Pa  Pa5  1  0.874992  0.249995  0.624999  1
  N  N6  1  0.604207  0.208477  0.395727  1
  N  N7  1  0.187251  0.791521  0.395726  1
  N  N8  1  0.604273  0.791522  0.395793  1
  N  N9  1  0.145726  0.291520  0.437246  1
  N  N10  1  0.604273  0.208479  0.812751  1
  N  N11  1  0.145728  0.708479  0.854207  1
  N  N12  1  0.145793  0.291523  0.854274  1
  N  N13  1  0.562751  0.708481  0.854274  1
