# generated using pymatgen
data_DyEr3AlCo
_symmetry_space_group_name_H-M   'P 1'
_cell_length_a   9.36543284
_cell_length_b   9.36543284
_cell_length_c   9.36543300
_cell_angle_alpha   60.00000296
_cell_angle_beta   60.00000297
_cell_angle_gamma   59.99999993
_symmetry_Int_Tables_number   1
_chemical_formula_structural   DyEr3AlCo
_chemical_formula_sum   'Dy4 Er12 Al4 Co4'
_cell_volume   580.85614777
_cell_formula_units_Z   4
loop_
 _symmetry_equiv_pos_site_id
 _symmetry_equiv_pos_as_xyz
  1  'x, y, z'
loop_
 _atom_site_type_symbol
 _atom_site_label
 _atom_site_symmetry_multiplicity
 _atom_site_fract_x
 _atom_site_fract_y
 _atom_site_fract_z
 _atom_site_occupancy
  Dy  Dy0  1  0.349592  0.349592  0.349592  1
  Dy  Dy1  1  0.349592  0.349592  0.951224  1
  Dy  Dy2  1  0.349592  0.951224  0.349592  1
  Dy  Dy3  1  0.951224  0.349592  0.349592  1
  Er  Er4  1  0.808184  0.191816  0.191816  1
  Er  Er5  1  0.191816  0.808184  0.808184  1
  Er  Er6  1  0.191816  0.808184  0.191816  1
  Er  Er7  1  0.808184  0.191816  0.808184  1
  Er  Er8  1  0.191816  0.191816  0.808184  1
  Er  Er9  1  0.808184  0.808184  0.191816  1
  Er  Er10  1  0.937973  0.562027  0.562027  1
  Er  Er11  1  0.562027  0.937973  0.937973  1
  Er  Er12  1  0.562027  0.937973  0.562027  1
  Er  Er13  1  0.937973  0.562027  0.937973  1
  Er  Er14  1  0.562027  0.562027  0.937973  1
  Er  Er15  1  0.937973  0.937973  0.562027  1
  Al  Al16  1  0.577540  0.577540  0.577540  1
  Al  Al17  1  0.577540  0.577540  0.267379  1
  Al  Al18  1  0.577540  0.267379  0.577540  1
  Al  Al19  1  0.267379  0.577540  0.577540  1
  Co  Co20  1  0.140320  0.140320  0.140320  1
  Co  Co21  1  0.140320  0.140320  0.579040  1
  Co  Co22  1  0.140320  0.579040  0.140320  1
  Co  Co23  1  0.579040  0.140320  0.140320  1
