# generated using pymatgen
data_PrEr2RuO7
_symmetry_space_group_name_H-M   'P 1'
_cell_length_a   6.42565700
_cell_length_b   6.42565602
_cell_length_c   7.49790000
_cell_angle_alpha   90.00000000
_cell_angle_beta   90.00000000
_cell_angle_gamma   110.00985014
_symmetry_Int_Tables_number   1
_chemical_formula_structural   PrEr2RuO7
_chemical_formula_sum   'Pr2 Er4 Ru2 O14'
_cell_volume   290.89301335
_cell_formula_units_Z   2
loop_
 _symmetry_equiv_pos_site_id
 _symmetry_equiv_pos_as_xyz
  1  'x, y, z'
loop_
 _atom_site_type_symbol
 _atom_site_label
 _atom_site_symmetry_multiplicity
 _atom_site_fract_x
 _atom_site_fract_y
 _atom_site_fract_z
 _atom_site_occupancy
  Pr  Pr0  1  0.000000  0.000000  0.500000  1
  Pr  Pr1  1  0.000000  0.000000  0.000000  1
  Er  Er2  1  0.482968  0.932284  0.750000  1
  Er  Er3  1  0.517032  0.067716  0.250000  1
  Er  Er4  1  0.932284  0.482968  0.750000  1
  Er  Er5  1  0.067716  0.517032  0.250000  1
  Ru  Ru6  1  0.500000  0.500000  0.500000  1
  Ru  Ru7  1  0.500000  0.500000  0.000000  1
  O  O8  1  0.591078  0.591078  0.750000  1
  O  O9  1  0.408922  0.408922  0.250000  1
  O  O10  1  0.835899  0.120507  0.750000  1
  O  O11  1  0.164101  0.879493  0.250000  1
  O  O12  1  0.120507  0.835899  0.750000  1
  O  O13  1  0.879493  0.164101  0.250000  1
  O  O14  1  0.440589  0.180371  0.963252  1
  O  O15  1  0.559411  0.819629  0.463252  1
  O  O16  1  0.180371  0.440589  0.963252  1
  O  O17  1  0.819629  0.559411  0.463252  1
  O  O18  1  0.440589  0.180371  0.536748  1
  O  O19  1  0.559411  0.819629  0.036748  1
  O  O20  1  0.819629  0.559411  0.036748  1
  O  O21  1  0.180371  0.440589  0.536748  1
