# generated using pymatgen
data_Tb4CoNi7(PRh)12
_symmetry_space_group_name_H-M   'P 1'
_cell_length_a   3.80389900
_cell_length_b   10.72810388
_cell_length_c   12.27732419
_cell_angle_alpha   90.06818258
_cell_angle_beta   90.00000000
_cell_angle_gamma   90.00000000
_symmetry_Int_Tables_number   1
_chemical_formula_structural   Tb4CoNi7(PRh)12
_chemical_formula_sum   'Tb4 Co1 Ni7 P12 Rh12'
_cell_volume   501.02034740
_cell_formula_units_Z   1
loop_
 _symmetry_equiv_pos_site_id
 _symmetry_equiv_pos_as_xyz
  1  'x, y, z'
loop_
 _atom_site_type_symbol
 _atom_site_label
 _atom_site_symmetry_multiplicity
 _atom_site_fract_x
 _atom_site_fract_y
 _atom_site_fract_z
 _atom_site_occupancy
  Tb  Tb0  1  0.250000  0.582845  0.707938  1
  Tb  Tb1  1  0.250000  0.916822  0.208642  1
  Tb  Tb2  1  0.750000  0.417276  0.292123  1
  Tb  Tb3  1  0.750000  0.083482  0.791197  1
  Co  Co4  1  0.750000  0.964261  0.566356  1
  Ni  Ni5  1  0.250000  0.886481  0.698308  1
  Ni  Ni6  1  0.250000  0.612409  0.197024  1
  Ni  Ni7  1  0.750000  0.110746  0.302210  1
  Ni  Ni8  1  0.750000  0.387049  0.802963  1
  Ni  Ni9  1  0.250000  0.464511  0.933969  1
  Ni  Ni10  1  0.250000  0.035734  0.433164  1
  Ni  Ni11  1  0.750000  0.535530  0.065908  1
  P  P12  1  0.250000  0.424135  0.112332  1
  P  P13  1  0.250000  0.071408  0.611640  1
  P  P14  1  0.750000  0.575563  0.887413  1
  P  P15  1  0.750000  0.924899  0.390754  1
  P  P16  1  0.250000  0.271814  0.872000  1
  P  P17  1  0.250000  0.228610  0.373831  1
  P  P18  1  0.750000  0.728256  0.127548  1
  P  P19  1  0.750000  0.773894  0.626279  1
  P  P20  1  0.250000  0.600693  0.383704  1
  P  P21  1  0.250000  0.899999  0.884510  1
  P  P22  1  0.750000  0.399394  0.616075  1
  P  P23  1  0.750000  0.099964  0.116123  1
  Rh  Rh24  1  0.250000  0.711691  0.989043  1
  Rh  Rh25  1  0.250000  0.786917  0.490179  1
  Rh  Rh26  1  0.750000  0.288393  0.011120  1
  Rh  Rh27  1  0.750000  0.215575  0.506931  1
  Rh  Rh28  1  0.250000  0.410294  0.481266  1
  Rh  Rh29  1  0.250000  0.091617  0.981111  1
  Rh  Rh30  1  0.750000  0.591815  0.519331  1
  Rh  Rh31  1  0.750000  0.908627  0.019085  1
  Rh  Rh32  1  0.250000  0.225546  0.183108  1
  Rh  Rh33  1  0.250000  0.272988  0.680975  1
  Rh  Rh34  1  0.750000  0.774487  0.817682  1
  Rh  Rh35  1  0.750000  0.726279  0.318156  1
