# generated using pymatgen
data_Nd2OsN3
_symmetry_space_group_name_H-M   'P 1'
_cell_length_a   3.61439481
_cell_length_b   3.81830269
_cell_length_c   6.98202826
_cell_angle_alpha   105.86894872
_cell_angle_beta   105.00099048
_cell_angle_gamma   90.00000532
_symmetry_Int_Tables_number   1
_chemical_formula_structural   Nd2OsN3
_chemical_formula_sum   'Nd2 Os1 N3'
_cell_volume   89.26697954
_cell_formula_units_Z   1
loop_
 _symmetry_equiv_pos_site_id
 _symmetry_equiv_pos_as_xyz
  1  'x, y, z'
loop_
 _atom_site_type_symbol
 _atom_site_label
 _atom_site_symmetry_multiplicity
 _atom_site_fract_x
 _atom_site_fract_y
 _atom_site_fract_z
 _atom_site_occupancy
  Nd  Nd0  1  0.650025  0.650026  0.300054  1
  Nd  Nd1  1  0.349974  0.349974  0.699947  1
  Os  Os2  1  0.000000  0.000000  0.000000  1
  N  N3  1  0.000001  0.499999  0.999999  1
  N  N4  1  0.162123  0.162123  0.324247  1
  N  N5  1  0.837876  0.837876  0.675753  1
