# generated using pymatgen
data_Y2Al9PtRh2
_symmetry_space_group_name_H-M   'P 1'
_cell_length_a   7.57998648
_cell_length_b   7.57998706
_cell_length_c   9.46970123
_cell_angle_alpha   90.01263845
_cell_angle_beta   90.01264102
_cell_angle_gamma   119.60208518
_symmetry_Int_Tables_number   1
_chemical_formula_structural   Y2Al9PtRh2
_chemical_formula_sum   'Y4 Al18 Pt2 Rh4'
_cell_volume   473.07631464
_cell_formula_units_Z   2
loop_
 _symmetry_equiv_pos_site_id
 _symmetry_equiv_pos_as_xyz
  1  'x, y, z'
loop_
 _atom_site_type_symbol
 _atom_site_label
 _atom_site_symmetry_multiplicity
 _atom_site_fract_x
 _atom_site_fract_y
 _atom_site_fract_z
 _atom_site_occupancy
  Y  Y0  1  0.995155  0.670054  0.250235  1
  Y  Y1  1  0.004845  0.329946  0.749765  1
  Y  Y2  1  0.670054  0.995155  0.250235  1
  Y  Y3  1  0.329946  0.004845  0.749765  1
  Al  Al4  1  0.126733  0.126733  0.251185  1
  Al  Al5  1  0.873267  0.873267  0.748815  1
  Al  Al6  1  0.000705  0.330504  0.077774  1
  Al  Al7  1  0.999295  0.669496  0.922226  1
  Al  Al8  1  0.000328  0.665270  0.574040  1
  Al  Al9  1  0.334730  0.999672  0.425960  1
  Al  Al10  1  0.999672  0.334730  0.425960  1
  Al  Al11  1  0.665270  0.000328  0.574040  1
  Al  Al12  1  0.669496  0.999295  0.922226  1
  Al  Al13  1  0.330504  0.000705  0.077774  1
  Al  Al14  1  0.331911  0.331911  0.551025  1
  Al  Al15  1  0.668089  0.668089  0.448975  1
  Al  Al16  1  0.669823  0.669823  0.055772  1
  Al  Al17  1  0.330177  0.330177  0.944228  1
  Al  Al18  1  0.340277  0.546846  0.254331  1
  Al  Al19  1  0.659723  0.453154  0.745669  1
  Al  Al20  1  0.546846  0.340277  0.254331  1
  Al  Al21  1  0.453154  0.659723  0.745669  1
  Pt  Pt22  1  0.671989  0.328011  0.000000  1
  Pt  Pt23  1  0.328011  0.671989  0.000000  1
  Rh  Rh24  1  0.328014  0.671986  0.500000  1
  Rh  Rh25  1  0.671986  0.328014  0.500000  1
  Rh  Rh26  1  0.000000  0.000000  0.000000  1
  Rh  Rh27  1  0.000000  0.000000  0.500000  1
