# generated using pymatgen
data_Tm8Lu4ZnInCo4
_symmetry_space_group_name_H-M   'P 1'
_cell_length_a   8.17482757
_cell_length_b   8.17482764
_cell_length_c   8.17482713
_cell_angle_alpha   111.50399992
_cell_angle_beta   110.51373491
_cell_angle_gamma   106.43945192
_symmetry_Int_Tables_number   1
_chemical_formula_structural   Tm8Lu4ZnInCo4
_chemical_formula_sum   'Tm8 Lu4 Zn1 In1 Co4'
_cell_volume   419.63599704
_cell_formula_units_Z   1
loop_
 _symmetry_equiv_pos_site_id
 _symmetry_equiv_pos_as_xyz
  1  'x, y, z'
loop_
 _atom_site_type_symbol
 _atom_site_label
 _atom_site_symmetry_multiplicity
 _atom_site_fract_x
 _atom_site_fract_y
 _atom_site_fract_z
 _atom_site_occupancy
  Tm  Tm0  1  0.431209  0.227664  0.203544  1
  Tm  Tm1  1  0.568791  0.772336  0.796456  1
  Tm  Tm2  1  0.024120  0.227664  0.796456  1
  Tm  Tm3  1  0.975880  0.772336  0.203544  1
  Tm  Tm4  1  0.184691  0.284563  0.469253  1
  Tm  Tm5  1  0.815309  0.715437  0.530747  1
  Tm  Tm6  1  0.184691  0.715437  0.900129  1
  Tm  Tm7  1  0.815309  0.284563  0.099871  1
  Lu  Lu8  1  0.315935  0.619679  0.303742  1
  Lu  Lu9  1  0.684065  0.380321  0.696258  1
  Lu  Lu10  1  0.315935  0.012193  0.696258  1
  Lu  Lu11  1  0.684065  0.987807  0.303742  1
  Zn  Zn12  1  0.000000  0.000000  0.000000  1
  In  In13  1  0.500000  0.500000  0.000000  1
  Co  Co14  1  0.373396  0.000000  0.373396  1
  Co  Co15  1  0.626604  0.000000  0.626604  1
  Co  Co16  1  0.114509  0.614509  0.500000  1
  Co  Co17  1  0.885491  0.385491  0.500000  1
