# generated using pymatgen
data_TbHo(SbO4)2
_symmetry_space_group_name_H-M   'P 1'
_cell_length_a   5.40559306
_cell_length_b   7.67275948
_cell_length_c   7.56703142
_cell_angle_alpha   81.02690536
_cell_angle_beta   90.40349430
_cell_angle_gamma   92.33156159
_symmetry_Int_Tables_number   1
_chemical_formula_structural   TbHo(SbO4)2
_chemical_formula_sum   'Tb2 Ho2 Sb4 O16'
_cell_volume   309.75109862
_cell_formula_units_Z   2
loop_
 _symmetry_equiv_pos_site_id
 _symmetry_equiv_pos_as_xyz
  1  'x, y, z'
loop_
 _atom_site_type_symbol
 _atom_site_label
 _atom_site_symmetry_multiplicity
 _atom_site_fract_x
 _atom_site_fract_y
 _atom_site_fract_z
 _atom_site_occupancy
  Tb  Tb0  1  0.261349  0.132913  0.614150  1
  Tb  Tb1  1  0.738651  0.867087  0.385850  1
  Ho  Ho2  1  0.211115  0.159018  0.108632  1
  Ho  Ho3  1  0.788885  0.840982  0.891368  1
  Sb  Sb4  1  0.240374  0.662805  0.194343  1
  Sb  Sb5  1  0.759626  0.337195  0.805657  1
  Sb  Sb6  1  0.724904  0.335105  0.307470  1
  Sb  Sb7  1  0.275096  0.664895  0.692530  1
  O  O8  1  0.086377  0.435799  0.689587  1
  O  O9  1  0.913624  0.564201  0.310413  1
  O  O10  1  0.611542  0.324074  0.560309  1
  O  O11  1  0.388458  0.675926  0.439691  1
  O  O12  1  0.873222  0.332150  0.060849  1
  O  O13  1  0.126778  0.667850  0.939151  1
  O  O14  1  0.399295  0.429733  0.197695  1
  O  O15  1  0.600705  0.570267  0.802305  1
  O  O16  1  0.045054  0.885780  0.171436  1
  O  O17  1  0.954946  0.114220  0.828564  1
  O  O18  1  0.508088  0.111100  0.319684  1
  O  O19  1  0.491912  0.888900  0.680316  1
  O  O20  1  0.462570  0.191107  0.879281  1
  O  O21  1  0.537430  0.808893  0.120719  1
  O  O22  1  0.990475  0.167243  0.379179  1
  O  O23  1  0.009525  0.832757  0.620821  1
