# generated using pymatgen
data_SmTm2Rh9
_symmetry_space_group_name_H-M   'P 1'
_cell_length_a   5.25550001
_cell_length_b   5.25545212
_cell_length_c   17.47713900
_cell_angle_alpha   89.99988903
_cell_angle_beta   90.00083879
_cell_angle_gamma   120.00073128
_symmetry_Int_Tables_number   1
_chemical_formula_structural   SmTm2Rh9
_chemical_formula_sum   'Sm2 Tm4 Rh18'
_cell_volume   418.04390538
_cell_formula_units_Z   2
loop_
 _symmetry_equiv_pos_site_id
 _symmetry_equiv_pos_as_xyz
  1  'x, y, z'
loop_
 _atom_site_type_symbol
 _atom_site_label
 _atom_site_symmetry_multiplicity
 _atom_site_fract_x
 _atom_site_fract_y
 _atom_site_fract_z
 _atom_site_occupancy
  Sm  Sm0  1  0.333327  0.666673  0.750009  1
  Sm  Sm1  1  0.666670  0.333332  0.250007  1
  Tm  Tm2  1  0.333333  0.666662  0.541361  1
  Tm  Tm3  1  0.666660  0.333342  0.041382  1
  Tm  Tm4  1  0.666667  0.333329  0.458604  1
  Tm  Tm5  1  0.333328  0.666670  0.958654  1
  Rh  Rh6  1  0.665070  0.832538  0.124680  1
  Rh  Rh7  1  0.832489  0.664989  0.624624  1
  Rh  Rh8  1  0.167456  0.334923  0.124678  1
  Rh  Rh9  1  0.167457  0.832537  0.124678  1
  Rh  Rh10  1  0.832484  0.167506  0.624621  1
  Rh  Rh11  1  0.335002  0.167507  0.624624  1
  Rh  Rh12  1  0.832484  0.664992  0.875426  1
  Rh  Rh13  1  0.832487  0.167510  0.875428  1
  Rh  Rh14  1  0.335007  0.167511  0.875425  1
  Rh  Rh15  1  0.665075  0.832531  0.375259  1
  Rh  Rh16  1  0.167464  0.832537  0.375263  1
  Rh  Rh17  1  0.167463  0.334919  0.375259  1
  Rh  Rh18  1  0.000007  0.999985  0.249993  1
  Rh  Rh19  1  0.999987  0.000007  0.750043  1
  Rh  Rh20  1  0.333319  0.666674  0.249995  1
  Rh  Rh21  1  0.666663  0.333331  0.750041  1
  Rh  Rh22  1  0.999997  0.000000  0.999964  1
  Rh  Rh23  1  0.000006  0.000001  0.499980  1
