# generated using pymatgen
data_Pr4Lu6Si7Ag
_symmetry_space_group_name_H-M   'P 1'
_cell_length_a   7.51219989
_cell_length_b   7.70828715
_cell_length_c   14.74171200
_cell_angle_alpha   90.00000000
_cell_angle_beta   90.00000000
_cell_angle_gamma   90.48622794
_symmetry_Int_Tables_number   1
_chemical_formula_structural   Pr4Lu6Si7Ag
_chemical_formula_sum   'Pr8 Lu12 Si14 Ag2'
_cell_volume   853.60569522
_cell_formula_units_Z   2
loop_
 _symmetry_equiv_pos_site_id
 _symmetry_equiv_pos_as_xyz
  1  'x, y, z'
loop_
 _atom_site_type_symbol
 _atom_site_label
 _atom_site_symmetry_multiplicity
 _atom_site_fract_x
 _atom_site_fract_y
 _atom_site_fract_z
 _atom_site_occupancy
  Pr  Pr0  1  0.012603  0.172040  0.400320  1
  Pr  Pr1  1  0.517271  0.323977  0.400043  1
  Pr  Pr2  1  0.482729  0.676023  0.900043  1
  Pr  Pr3  1  0.489032  0.676966  0.600084  1
  Pr  Pr4  1  0.984332  0.830246  0.598672  1
  Pr  Pr5  1  0.987397  0.827960  0.900320  1
  Pr  Pr6  1  0.510968  0.323034  0.100084  1
  Pr  Pr7  1  0.015668  0.169754  0.098672  1
  Lu  Lu8  1  0.334582  0.173378  0.624847  1
  Lu  Lu9  1  0.670993  0.823331  0.376440  1
  Lu  Lu10  1  0.662711  0.994924  0.750226  1
  Lu  Lu11  1  0.170861  0.675523  0.374942  1
  Lu  Lu12  1  0.829139  0.324477  0.874942  1
  Lu  Lu13  1  0.824684  0.325291  0.623066  1
  Lu  Lu14  1  0.837221  0.496416  0.252545  1
  Lu  Lu15  1  0.337289  0.005076  0.250226  1
  Lu  Lu16  1  0.329007  0.176669  0.876440  1
  Lu  Lu17  1  0.175316  0.674709  0.123066  1
  Lu  Lu18  1  0.665418  0.826622  0.124847  1
  Lu  Lu19  1  0.162779  0.503584  0.752545  1
  Si  Si20  1  0.283771  0.879335  0.749418  1
  Si  Si21  1  0.464238  0.616953  0.250225  1
  Si  Si22  1  0.033203  0.120130  0.750623  1
  Si  Si23  1  0.535762  0.383047  0.750225  1
  Si  Si24  1  0.966797  0.879870  0.250623  1
  Si  Si25  1  0.716229  0.120665  0.249418  1
  Si  Si26  1  0.348936  0.965531  0.038484  1
  Si  Si27  1  0.157377  0.463794  0.958545  1
  Si  Si28  1  0.651064  0.034469  0.538484  1
  Si  Si29  1  0.346815  0.963805  0.460889  1
  Si  Si30  1  0.842623  0.536206  0.458545  1
  Si  Si31  1  0.784509  0.621989  0.750564  1
  Si  Si32  1  0.215491  0.378011  0.250564  1
  Si  Si33  1  0.653185  0.036195  0.960889  1
  Ag  Ag34  1  0.155383  0.463092  0.540067  1
  Ag  Ag35  1  0.844617  0.536908  0.040067  1
