# generated using pymatgen
data_Hf4GaFe6Ge
_symmetry_space_group_name_H-M   'P 1'
_cell_length_a   4.99576420
_cell_length_b   4.99576449
_cell_length_c   8.12557607
_cell_angle_alpha   90.00428560
_cell_angle_beta   89.99571271
_cell_angle_gamma   120.01066633
_symmetry_Int_Tables_number   1
_chemical_formula_structural   Hf4GaFe6Ge
_chemical_formula_sum   'Hf4 Ga1 Fe6 Ge1'
_cell_volume   175.60706737
_cell_formula_units_Z   1
loop_
 _symmetry_equiv_pos_site_id
 _symmetry_equiv_pos_as_xyz
  1  'x, y, z'
loop_
 _atom_site_type_symbol
 _atom_site_label
 _atom_site_symmetry_multiplicity
 _atom_site_fract_x
 _atom_site_fract_y
 _atom_site_fract_z
 _atom_site_occupancy
  Hf  Hf0  1  0.666661  0.333339  0.564763  1
  Hf  Hf1  1  0.333339  0.666661  0.435237  1
  Hf  Hf2  1  0.333342  0.666658  0.066186  1
  Hf  Hf3  1  0.666658  0.333342  0.933814  1
  Ga  Ga4  1  0.000000  0.000000  0.500000  1
  Fe  Fe5  1  0.173034  0.346052  0.750215  1
  Fe  Fe6  1  0.173042  0.826958  0.750247  1
  Fe  Fe7  1  0.653948  0.826966  0.750215  1
  Fe  Fe8  1  0.826966  0.653948  0.249785  1
  Fe  Fe9  1  0.826958  0.173042  0.249753  1
  Fe  Fe10  1  0.346052  0.173034  0.249785  1
  Ge  Ge11  1  0.000000  0.000000  0.000000  1
