# generated using pymatgen
data_HoLu9(GaCo5)2
_symmetry_space_group_name_H-M   'P 1'
_cell_length_a   5.36505788
_cell_length_b   5.36505806
_cell_length_c   20.26890852
_cell_angle_alpha   89.95911780
_cell_angle_beta   90.04088246
_cell_angle_gamma   136.54128782
_symmetry_Int_Tables_number   1
_chemical_formula_structural   HoLu9(GaCo5)2
_chemical_formula_sum   'Ho1 Lu9 Ga2 Co10'
_cell_volume   401.29269198
_cell_formula_units_Z   1
loop_
 _symmetry_equiv_pos_site_id
 _symmetry_equiv_pos_as_xyz
  1  'x, y, z'
loop_
 _atom_site_type_symbol
 _atom_site_label
 _atom_site_symmetry_multiplicity
 _atom_site_fract_x
 _atom_site_fract_y
 _atom_site_fract_z
 _atom_site_occupancy
  Ho  Ho0  1  0.293113  0.706887  0.066074  1
  Lu  Lu1  1  0.290916  0.709084  0.250883  1
  Lu  Lu2  1  0.996803  0.003197  0.841794  1
  Lu  Lu3  1  0.709275  0.290725  0.749651  1
  Lu  Lu4  1  0.707606  0.292394  0.566183  1
  Lu  Lu5  1  0.003269  0.996731  0.342680  1
  Lu  Lu6  1  0.996460  0.003540  0.657594  1
  Lu  Lu7  1  0.707021  0.292979  0.932535  1
  Lu  Lu8  1  0.003599  0.996401  0.159071  1
  Lu  Lu9  1  0.292270  0.707730  0.433909  1
  Ga  Ga10  1  0.000013  0.999987  0.500048  1
  Ga  Ga11  1  0.000982  0.999018  0.999354  1
  Co  Co12  1  0.291725  0.708275  0.654722  1
  Co  Co13  1  0.583704  0.416296  0.441466  1
  Co  Co14  1  0.414750  0.585250  0.749969  1
  Co  Co15  1  0.417237  0.582763  0.940341  1
  Co  Co16  1  0.584562  0.415438  0.250476  1
  Co  Co17  1  0.416247  0.583753  0.558639  1
  Co  Co18  1  0.708369  0.291631  0.345460  1
  Co  Co19  1  0.707103  0.292897  0.155622  1
  Co  Co20  1  0.583456  0.416544  0.058530  1
  Co  Co21  1  0.291519  0.708481  0.845000  1
