# generated using pymatgen
data_Ce2Ga2TcRh
_symmetry_space_group_name_H-M   'P 1'
_cell_length_a   4.76467400
_cell_length_b   6.90922900
_cell_length_c   7.27139900
_cell_angle_alpha   90.00000000
_cell_angle_beta   90.00000000
_cell_angle_gamma   90.00000000
_symmetry_Int_Tables_number   1
_chemical_formula_structural   Ce2Ga2TcRh
_chemical_formula_sum   'Ce4 Ga4 Tc2 Rh2'
_cell_volume   239.37608225
_cell_formula_units_Z   2
loop_
 _symmetry_equiv_pos_site_id
 _symmetry_equiv_pos_as_xyz
  1  'x, y, z'
loop_
 _atom_site_type_symbol
 _atom_site_label
 _atom_site_symmetry_multiplicity
 _atom_site_fract_x
 _atom_site_fract_y
 _atom_site_fract_z
 _atom_site_occupancy
  Ce  Ce0  1  0.250000  0.192177  0.965632  1
  Ce  Ce1  1  0.250000  0.307823  0.465632  1
  Ce  Ce2  1  0.750000  0.815439  0.027295  1
  Ce  Ce3  1  0.750000  0.684561  0.527295  1
  Ga  Ga4  1  0.250000  0.879365  0.304554  1
  Ga  Ga5  1  0.250000  0.620635  0.804554  1
  Ga  Ga6  1  0.750000  0.115994  0.699280  1
  Ga  Ga7  1  0.750000  0.384006  0.199280  1
  Tc  Tc8  1  0.250000  0.965340  0.653869  1
  Tc  Tc9  1  0.250000  0.534660  0.153869  1
  Rh  Rh10  1  0.750000  0.044312  0.349371  1
  Rh  Rh11  1  0.750000  0.455688  0.849371  1
