# generated using pymatgen
data_Tb4Dy7TmRu4
_symmetry_space_group_name_H-M   'P 1'
_cell_length_a   6.32072849
_cell_length_b   7.30537552
_cell_length_c   9.18923800
_cell_angle_alpha   89.98325383
_cell_angle_beta   90.15107249
_cell_angle_gamma   89.94741465
_symmetry_Int_Tables_number   1
_chemical_formula_structural   Tb4Dy7TmRu4
_chemical_formula_sum   'Tb4 Dy7 Tm1 Ru4'
_cell_volume   424.31410486
_cell_formula_units_Z   1
loop_
 _symmetry_equiv_pos_site_id
 _symmetry_equiv_pos_as_xyz
  1  'x, y, z'
loop_
 _atom_site_type_symbol
 _atom_site_label
 _atom_site_symmetry_multiplicity
 _atom_site_fract_x
 _atom_site_fract_y
 _atom_site_fract_z
 _atom_site_occupancy
  Tb  Tb0  1  0.633666  0.040434  0.250471  1
  Tb  Tb1  1  0.367162  0.960159  0.749601  1
  Tb  Tb2  1  0.132827  0.459384  0.749331  1
  Tb  Tb3  1  0.866299  0.539826  0.250594  1
  Dy  Dy4  1  0.169945  0.176887  0.064684  1
  Dy  Dy5  1  0.830110  0.823492  0.935207  1
  Dy  Dy6  1  0.669578  0.323062  0.934512  1
  Dy  Dy7  1  0.829790  0.823207  0.564620  1
  Dy  Dy8  1  0.330467  0.676669  0.064712  1
  Dy  Dy9  1  0.169794  0.176978  0.435746  1
  Dy  Dy10  1  0.330847  0.676035  0.435830  1
  Tm  Tm11  1  0.669388  0.323954  0.565186  1
  Ru  Ru12  1  0.461363  0.385315  0.251155  1
  Ru  Ru13  1  0.539494  0.613883  0.749313  1
  Ru  Ru14  1  0.959813  0.115100  0.749293  1
  Ru  Ru15  1  0.039453  0.885614  0.249744  1
