# generated using pymatgen
data_Tb9Dy(SnPb)4
_symmetry_space_group_name_H-M   'P 1'
_cell_length_a   8.20768600
_cell_length_b   8.25118400
_cell_length_c   15.69965700
_cell_angle_alpha   90.00000000
_cell_angle_beta   90.00000000
_cell_angle_gamma   90.00000000
_symmetry_Int_Tables_number   1
_chemical_formula_structural   Tb9Dy(SnPb)4
_chemical_formula_sum   'Tb18 Dy2 Sn8 Pb8'
_cell_volume   1063.22987115
_cell_formula_units_Z   2
loop_
 _symmetry_equiv_pos_site_id
 _symmetry_equiv_pos_as_xyz
  1  'x, y, z'
loop_
 _atom_site_type_symbol
 _atom_site_label
 _atom_site_symmetry_multiplicity
 _atom_site_fract_x
 _atom_site_fract_y
 _atom_site_fract_z
 _atom_site_occupancy
  Tb  Tb0  1  0.389364  0.836884  0.879065  1
  Tb  Tb1  1  0.889364  0.663116  0.620935  1
  Tb  Tb2  1  0.610609  0.163174  0.379139  1
  Tb  Tb3  1  0.110609  0.336826  0.120861  1
  Tb  Tb4  1  0.610609  0.163174  0.120861  1
  Tb  Tb5  1  0.110609  0.336826  0.379139  1
  Tb  Tb6  1  0.389364  0.836884  0.620935  1
  Tb  Tb7  1  0.889364  0.663116  0.879065  1
  Tb  Tb8  1  0.551621  0.327707  0.891051  1
  Tb  Tb9  1  0.051621  0.172293  0.608949  1
  Tb  Tb10  1  0.448417  0.672266  0.391098  1
  Tb  Tb11  1  0.948417  0.827734  0.108902  1
  Tb  Tb12  1  0.448417  0.672266  0.108902  1
  Tb  Tb13  1  0.948417  0.827734  0.391098  1
  Tb  Tb14  1  0.551621  0.327707  0.608949  1
  Tb  Tb15  1  0.051621  0.172293  0.891051  1
  Tb  Tb16  1  0.780357  0.498445  0.250000  1
  Tb  Tb17  1  0.280357  0.001555  0.250000  1
  Dy  Dy18  1  0.219719  0.501558  0.750000  1
  Dy  Dy19  1  0.719719  0.998442  0.750000  1
  Sn  Sn20  1  0.584335  0.627381  0.750000  1
  Sn  Sn21  1  0.084335  0.872619  0.750000  1
  Sn  Sn22  1  0.415292  0.372845  0.250000  1
  Sn  Sn23  1  0.915292  0.127155  0.250000  1
  Sn  Sn24  1  0.356207  0.144586  0.750000  1
  Sn  Sn25  1  0.856207  0.355414  0.750000  1
  Sn  Sn26  1  0.644087  0.855846  0.250000  1
  Sn  Sn27  1  0.144087  0.644154  0.250000  1
  Pb  Pb28  1  0.271009  0.020803  0.042502  1
  Pb  Pb29  1  0.771009  0.479197  0.457498  1
  Pb  Pb30  1  0.728982  0.979286  0.542684  1
  Pb  Pb31  1  0.228982  0.520714  0.957316  1
  Pb  Pb32  1  0.728982  0.979286  0.957316  1
  Pb  Pb33  1  0.228982  0.520714  0.542684  1
  Pb  Pb34  1  0.271009  0.020803  0.457498  1
  Pb  Pb35  1  0.771009  0.479197  0.042502  1
