# generated using pymatgen
data_TbPu4Re2C7
_symmetry_space_group_name_H-M   'P 1'
_cell_length_a   8.42231291
_cell_length_b   8.42231325
_cell_length_c   3.44054700
_cell_angle_alpha   90.00000000
_cell_angle_beta   90.00000000
_cell_angle_gamma   124.88087511
_symmetry_Int_Tables_number   1
_chemical_formula_structural   TbPu4Re2C7
_chemical_formula_sum   'Tb1 Pu4 Re2 C7'
_cell_volume   200.20993864
_cell_formula_units_Z   1
loop_
 _symmetry_equiv_pos_site_id
 _symmetry_equiv_pos_as_xyz
  1  'x, y, z'
loop_
 _atom_site_type_symbol
 _atom_site_label
 _atom_site_symmetry_multiplicity
 _atom_site_fract_x
 _atom_site_fract_y
 _atom_site_fract_z
 _atom_site_occupancy
  Tb  Tb0  1  0.500000  0.500000  0.000000  1
  Pu  Pu1  1  0.061505  0.322466  0.500000  1
  Pu  Pu2  1  0.938495  0.677534  0.500000  1
  Pu  Pu3  1  0.677534  0.938495  0.500000  1
  Pu  Pu4  1  0.322466  0.061505  0.500000  1
  Re  Re5  1  0.711715  0.288285  0.000000  1
  Re  Re6  1  0.288285  0.711715  0.000000  1
  C  C7  1  0.628549  0.371451  0.500000  1
  C  C8  1  0.371451  0.628549  0.500000  1
  C  C9  1  0.000000  0.000000  0.000000  1
  C  C10  1  0.174485  0.174485  0.000000  1
  C  C11  1  0.825515  0.825515  0.000000  1
  C  C12  1  0.000000  0.500000  0.000000  1
  C  C13  1  0.500000  0.000000  0.000000  1
