# generated using pymatgen
data_Tb3HoGa4(IrPd)2
_symmetry_space_group_name_H-M   'P 1'
_cell_length_a   4.43154800
_cell_length_b   6.88162390
_cell_length_c   7.71181562
_cell_angle_alpha   90.15011588
_cell_angle_beta   90.00000000
_cell_angle_gamma   90.00000000
_symmetry_Int_Tables_number   1
_chemical_formula_structural   Tb3HoGa4(IrPd)2
_chemical_formula_sum   'Tb3 Ho1 Ga4 Ir2 Pd2'
_cell_volume   235.18062400
_cell_formula_units_Z   1
loop_
 _symmetry_equiv_pos_site_id
 _symmetry_equiv_pos_as_xyz
  1  'x, y, z'
loop_
 _atom_site_type_symbol
 _atom_site_label
 _atom_site_symmetry_multiplicity
 _atom_site_fract_x
 _atom_site_fract_y
 _atom_site_fract_z
 _atom_site_occupancy
  Tb  Tb0  1  0.250000  0.026265  0.812622  1
  Tb  Tb1  1  0.250000  0.525440  0.686605  1
  Tb  Tb2  1  0.750000  0.984610  0.196237  1
  Ho  Ho3  1  0.750000  0.484529  0.303927  1
  Ga  Ga4  1  0.250000  0.161035  0.426958  1
  Ga  Ga5  1  0.250000  0.659882  0.073427  1
  Ga  Ga6  1  0.750000  0.833293  0.569261  1
  Ga  Ga7  1  0.750000  0.334009  0.930979  1
  Ir  Ir8  1  0.250000  0.771882  0.394632  1
  Ir  Ir9  1  0.250000  0.274165  0.106654  1
  Pd  Pd10  1  0.750000  0.223265  0.603416  1
  Pd  Pd11  1  0.750000  0.721626  0.895282  1
