# generated using pymatgen
data_Tm4Sc2B4Ir9Rh
_symmetry_space_group_name_H-M   'P 1'
_cell_length_a   3.15417800
_cell_length_b   9.73787676
_cell_length_c   9.73787676
_cell_angle_alpha   90.12468965
_cell_angle_beta   90.00000000
_cell_angle_gamma   90.00000000
_symmetry_Int_Tables_number   1
_chemical_formula_structural   Tm4Sc2B4Ir9Rh
_chemical_formula_sum   'Tm4 Sc2 B4 Ir9 Rh1'
_cell_volume   299.09814402
_cell_formula_units_Z   1
loop_
 _symmetry_equiv_pos_site_id
 _symmetry_equiv_pos_as_xyz
  1  'x, y, z'
loop_
 _atom_site_type_symbol
 _atom_site_label
 _atom_site_symmetry_multiplicity
 _atom_site_fract_x
 _atom_site_fract_y
 _atom_site_fract_z
 _atom_site_occupancy
  Tm  Tm0  1  0.000000  0.176250  0.676250  1
  Tm  Tm1  1  0.000000  0.823750  0.323750  1
  Tm  Tm2  1  0.000000  0.322808  0.177192  1
  Tm  Tm3  1  0.000000  0.677192  0.822808  1
  Sc  Sc4  1  0.000000  0.000000  0.000000  1
  Sc  Sc5  1  0.000000  0.500000  0.500000  1
  B  B6  1  0.000000  0.620371  0.120371  1
  B  B7  1  0.000000  0.379629  0.879629  1
  B  B8  1  0.000000  0.879405  0.620595  1
  B  B9  1  0.000000  0.120595  0.379405  1
  Ir  Ir10  1  0.500000  0.068435  0.225502  1
  Ir  Ir11  1  0.500000  0.931565  0.774498  1
  Ir  Ir12  1  0.500000  0.775351  0.069336  1
  Ir  Ir13  1  0.500000  0.430664  0.724649  1
  Ir  Ir14  1  0.500000  0.224649  0.930664  1
  Ir  Ir15  1  0.500000  0.569336  0.275351  1
  Ir  Ir16  1  0.500000  0.725502  0.568435  1
  Ir  Ir17  1  0.500000  0.274498  0.431565  1
  Ir  Ir18  1  0.500000  0.500000  0.000000  1
  Rh  Rh19  1  0.500000  0.000000  0.500000  1
