# generated using pymatgen
data_LaEu(PdO2)4
_symmetry_space_group_name_H-M   'P 1'
_cell_length_a   6.72095758
_cell_length_b   6.72095694
_cell_length_c   6.72095750
_cell_angle_alpha   126.90900978
_cell_angle_beta   126.90901957
_cell_angle_gamma   78.39916976
_symmetry_Int_Tables_number   1
_chemical_formula_structural   LaEu(PdO2)4
_chemical_formula_sum   'La1 Eu1 Pd4 O8'
_cell_volume   187.95907832
_cell_formula_units_Z   1
loop_
 _symmetry_equiv_pos_site_id
 _symmetry_equiv_pos_as_xyz
  1  'x, y, z'
loop_
 _atom_site_type_symbol
 _atom_site_label
 _atom_site_symmetry_multiplicity
 _atom_site_fract_x
 _atom_site_fract_y
 _atom_site_fract_z
 _atom_site_occupancy
  La  La0  1  0.000000  0.000000  0.000000  1
  Eu  Eu1  1  0.750000  0.250000  0.500000  1
  Pd  Pd2  1  0.375136  0.622998  0.248801  1
  Pd  Pd3  1  0.873665  0.624864  0.247862  1
  Pd  Pd4  1  0.377002  0.625803  0.752138  1
  Pd  Pd5  1  0.374197  0.126335  0.751199  1
  O  O6  1  0.592186  0.957313  0.956316  1
  O  O7  1  0.395351  0.843280  0.142721  1
  O  O8  1  0.700559  0.252629  0.857279  1
  O  O9  1  0.000995  0.635869  0.043684  1
  O  O10  1  0.156720  0.299441  0.552071  1
  O  O11  1  0.364131  0.407814  0.365127  1
  O  O12  1  0.747371  0.604649  0.447929  1
  O  O13  1  0.042687  0.999005  0.634873  1
