# generated using pymatgen
data_AcMgZn10
_symmetry_space_group_name_H-M   'P 1'
_cell_length_a   8.46437619
_cell_length_b   8.46437690
_cell_length_c   8.46437714
_cell_angle_alpha   100.00463153
_cell_angle_beta   100.00462040
_cell_angle_gamma   130.73371815
_symmetry_Int_Tables_number   1
_chemical_formula_structural   AcMgZn10
_chemical_formula_sum   'Ac2 Mg2 Zn20'
_cell_volume   417.70798861
_cell_formula_units_Z   2
loop_
 _symmetry_equiv_pos_site_id
 _symmetry_equiv_pos_as_xyz
  1  'x, y, z'
loop_
 _atom_site_type_symbol
 _atom_site_label
 _atom_site_symmetry_multiplicity
 _atom_site_fract_x
 _atom_site_fract_y
 _atom_site_fract_z
 _atom_site_occupancy
  Ac  Ac0  1  0.000000  0.000000  0.000000  1
  Ac  Ac1  1  0.250000  0.750000  0.500000  1
  Mg  Mg2  1  0.750000  0.250000  0.500000  1
  Mg  Mg3  1  0.500000  0.500000  0.000000  1
  Zn  Zn4  1  0.125000  0.375000  0.750000  1
  Zn  Zn5  1  0.625000  0.875000  0.250000  1
  Zn  Zn6  1  0.625000  0.375000  0.750000  1
  Zn  Zn7  1  0.625000  0.375000  0.250000  1
  Zn  Zn8  1  0.179376  0.509932  0.085186  1
  Zn  Zn9  1  0.179376  0.094189  0.669444  1
  Zn  Zn10  1  0.759932  0.929376  0.585186  1
  Zn  Zn11  1  0.759932  0.174747  0.830556  1
  Zn  Zn12  1  0.424747  0.509932  0.330556  1
  Zn  Zn13  1  0.424747  0.094189  0.914814  1
  Zn  Zn14  1  0.344189  0.929376  0.169444  1
  Zn  Zn15  1  0.344189  0.174747  0.414814  1
  Zn  Zn16  1  0.070624  0.240068  0.414814  1
  Zn  Zn17  1  0.070624  0.655811  0.830556  1
  Zn  Zn18  1  0.490068  0.820624  0.914814  1
  Zn  Zn19  1  0.490068  0.575253  0.669444  1
  Zn  Zn20  1  0.825253  0.240068  0.169444  1
  Zn  Zn21  1  0.825253  0.655811  0.585186  1
  Zn  Zn22  1  0.905811  0.820624  0.330556  1
  Zn  Zn23  1  0.905811  0.575253  0.085186  1
