# generated using pymatgen
data_Ca4Al18(PtRh)3
_symmetry_space_group_name_H-M   'P 1'
_cell_length_a   7.70502210
_cell_length_b   7.70502204
_cell_length_c   9.51981493
_cell_angle_alpha   89.97478076
_cell_angle_beta   89.97478296
_cell_angle_gamma   119.82807710
_symmetry_Int_Tables_number   1
_chemical_formula_structural   Ca4Al18(PtRh)3
_chemical_formula_sum   'Ca4 Al18 Pt3 Rh3'
_cell_volume   490.29392895
_cell_formula_units_Z   1
loop_
 _symmetry_equiv_pos_site_id
 _symmetry_equiv_pos_as_xyz
  1  'x, y, z'
loop_
 _atom_site_type_symbol
 _atom_site_label
 _atom_site_symmetry_multiplicity
 _atom_site_fract_x
 _atom_site_fract_y
 _atom_site_fract_z
 _atom_site_occupancy
  Ca  Ca0  1  0.994107  0.671817  0.250109  1
  Ca  Ca1  1  0.003282  0.326453  0.750157  1
  Ca  Ca2  1  0.673547  0.996718  0.249843  1
  Ca  Ca3  1  0.328183  0.005893  0.749891  1
  Al  Al4  1  0.134916  0.134588  0.250092  1
  Al  Al5  1  0.865412  0.865084  0.749908  1
  Al  Al6  1  0.005241  0.339012  0.074077  1
  Al  Al7  1  0.002450  0.665050  0.925394  1
  Al  Al8  1  0.000104  0.661582  0.573090  1
  Al  Al9  1  0.338418  0.999896  0.426910  1
  Al  Al10  1  0.001277  0.338174  0.427009  1
  Al  Al11  1  0.661826  0.998723  0.572991  1
  Al  Al12  1  0.660988  0.994759  0.925923  1
  Al  Al13  1  0.334950  0.997550  0.074606  1
  Al  Al14  1  0.336220  0.336184  0.548886  1
  Al  Al15  1  0.663816  0.663780  0.451114  1
  Al  Al16  1  0.662903  0.666310  0.051632  1
  Al  Al17  1  0.333690  0.337097  0.948368  1
  Al  Al18  1  0.339391  0.549106  0.250102  1
  Al  Al19  1  0.661077  0.454673  0.747168  1
  Al  Al20  1  0.545327  0.338923  0.252832  1
  Al  Al21  1  0.450894  0.660609  0.749898  1
  Pt  Pt22  1  0.671809  0.328191  0.000000  1
  Pt  Pt23  1  0.999930  0.000070  0.000000  1
  Pt  Pt24  1  0.000488  0.999512  0.500000  1
  Rh  Rh25  1  0.329064  0.670936  0.000000  1
  Rh  Rh26  1  0.329495  0.670505  0.500000  1
  Rh  Rh27  1  0.671199  0.328801  0.500000  1
