# generated using pymatgen
data_Ba7Pd16
_symmetry_space_group_name_H-M   'P 1'
_cell_length_a   9.88247047
_cell_length_b   9.88247057
_cell_length_c   9.88247100
_cell_angle_alpha   131.45435828
_cell_angle_beta   131.45437427
_cell_angle_gamma   71.09217866
_symmetry_Int_Tables_number   1
_chemical_formula_structural   Ba7Pd16
_chemical_formula_sum   'Ba7 Pd16'
_cell_volume   530.82327666
_cell_formula_units_Z   1
loop_
 _symmetry_equiv_pos_site_id
 _symmetry_equiv_pos_as_xyz
  1  'x, y, z'
loop_
 _atom_site_type_symbol
 _atom_site_label
 _atom_site_symmetry_multiplicity
 _atom_site_fract_x
 _atom_site_fract_y
 _atom_site_fract_z
 _atom_site_occupancy
  Ba  Ba0  1  0.104150  0.104150  0.424770  1
  Ba  Ba1  1  0.679379  0.679379  0.575230  1
  Ba  Ba2  1  0.895850  0.320621  0.000000  1
  Ba  Ba3  1  0.750000  0.250000  0.500000  1
  Ba  Ba4  1  0.500000  0.500000  0.000000  1
  Ba  Ba5  1  0.320621  0.895850  0.000000  1
  Ba  Ba6  1  0.250000  0.750000  0.500000  1
  Pd  Pd7  1  0.433638  0.191294  0.000000  1
  Pd  Pd8  1  0.683461  0.935062  0.488278  1
  Pd  Pd9  1  0.935062  0.683461  0.488278  1
  Pd  Pd10  1  0.191294  0.433638  0.000000  1
  Pd  Pd11  1  0.316539  0.804816  0.251600  1
  Pd  Pd12  1  0.940111  0.672924  0.000000  1
  Pd  Pd13  1  0.808706  0.808706  0.242345  1
  Pd  Pd14  1  0.064938  0.553215  0.748400  1
  Pd  Pd15  1  0.059889  0.059889  0.732813  1
  Pd  Pd16  1  0.672924  0.940111  0.000000  1
  Pd  Pd17  1  0.566362  0.566362  0.757655  1
  Pd  Pd18  1  0.804816  0.316539  0.251600  1
  Pd  Pd19  1  0.553215  0.064938  0.748400  1
  Pd  Pd20  1  0.195184  0.446785  0.511722  1
  Pd  Pd21  1  0.327076  0.327076  0.267187  1
  Pd  Pd22  1  0.446785  0.195184  0.511722  1
