# generated using pymatgen
data_Nd16Cd4Co3Ni
_symmetry_space_group_name_H-M   'P 1'
_cell_length_a   9.81993155
_cell_length_b   9.82548153
_cell_length_c   9.82548100
_cell_angle_alpha   59.99999841
_cell_angle_beta   59.98130081
_cell_angle_gamma   59.98130275
_symmetry_Int_Tables_number   1
_chemical_formula_structural   Nd16Cd4Co3Ni
_chemical_formula_sum   'Nd16 Cd4 Co3 Ni1'
_cell_volume   670.15972058
_cell_formula_units_Z   1
loop_
 _symmetry_equiv_pos_site_id
 _symmetry_equiv_pos_as_xyz
  1  'x, y, z'
loop_
 _atom_site_type_symbol
 _atom_site_label
 _atom_site_symmetry_multiplicity
 _atom_site_fract_x
 _atom_site_fract_y
 _atom_site_fract_z
 _atom_site_occupancy
  Nd  Nd0  1  0.594489  0.597531  0.597531  1
  Nd  Nd1  1  0.594489  0.597531  0.210449  1
  Nd  Nd2  1  0.594489  0.210449  0.597531  1
  Nd  Nd3  1  0.213995  0.595335  0.595335  1
  Nd  Nd4  1  0.064178  0.439421  0.439421  1
  Nd  Nd5  1  0.438679  0.061239  0.061239  1
  Nd  Nd6  1  0.438679  0.061239  0.438844  1
  Nd  Nd7  1  0.064178  0.439421  0.056980  1
  Nd  Nd8  1  0.438679  0.438844  0.061239  1
  Nd  Nd9  1  0.064178  0.056980  0.439421  1
  Nd  Nd10  1  0.186628  0.812317  0.812317  1
  Nd  Nd11  1  0.810234  0.188239  0.188239  1
  Nd  Nd12  1  0.810234  0.188239  0.813288  1
  Nd  Nd13  1  0.186628  0.812317  0.188739  1
  Nd  Nd14  1  0.810234  0.813288  0.188239  1
  Nd  Nd15  1  0.186628  0.188739  0.812317  1
  Cd  Cd16  1  0.829262  0.829253  0.829253  1
  Cd  Cd17  1  0.829262  0.829253  0.512231  1
  Cd  Cd18  1  0.829262  0.512231  0.829253  1
  Cd  Cd19  1  0.511886  0.829371  0.829371  1
  Co  Co20  1  0.392257  0.390446  0.390446  1
  Co  Co21  1  0.392257  0.390446  0.826851  1
  Co  Co22  1  0.392257  0.826851  0.390446  1
  Ni  Ni23  1  0.826937  0.391021  0.391021  1
