# generated using pymatgen
data_LiYHo(P3Pd10)2
_symmetry_space_group_name_H-M   'P 1'
_cell_length_a   8.64179165
_cell_length_b   8.64179217
_cell_length_c   8.64179200
_cell_angle_alpha   60.00000067
_cell_angle_beta   59.99999865
_cell_angle_gamma   60.00000333
_symmetry_Int_Tables_number   1
_chemical_formula_structural   LiYHo(P3Pd10)2
_chemical_formula_sum   'Li1 Y1 Ho1 P6 Pd20'
_cell_volume   456.34829158
_cell_formula_units_Z   1
loop_
 _symmetry_equiv_pos_site_id
 _symmetry_equiv_pos_as_xyz
  1  'x, y, z'
loop_
 _atom_site_type_symbol
 _atom_site_label
 _atom_site_symmetry_multiplicity
 _atom_site_fract_x
 _atom_site_fract_y
 _atom_site_fract_z
 _atom_site_occupancy
  Li  Li0  1  0.000000  0.000000  0.000000  1
  Y  Y1  1  0.250000  0.250000  0.250000  1
  Ho  Ho2  1  0.750000  0.750000  0.750000  1
  P  P3  1  0.739918  0.260082  0.260082  1
  P  P4  1  0.260082  0.739918  0.739918  1
  P  P5  1  0.260082  0.739918  0.260082  1
  P  P6  1  0.739918  0.260082  0.739918  1
  P  P7  1  0.260082  0.260082  0.739918  1
  P  P8  1  0.739918  0.739918  0.260082  1
  Pd  Pd9  1  0.385199  0.385199  0.385199  1
  Pd  Pd10  1  0.615224  0.615224  0.615224  1
  Pd  Pd11  1  0.385199  0.385199  0.844405  1
  Pd  Pd12  1  0.385199  0.844405  0.385199  1
  Pd  Pd13  1  0.615224  0.615224  0.154326  1
  Pd  Pd14  1  0.615224  0.154326  0.615224  1
  Pd  Pd15  1  0.844405  0.385199  0.385199  1
  Pd  Pd16  1  0.154326  0.615224  0.615224  1
  Pd  Pd17  1  0.345671  0.999893  0.999893  1
  Pd  Pd18  1  0.654544  0.999893  0.999893  1
  Pd  Pd19  1  0.999893  0.345671  0.654544  1
  Pd  Pd20  1  0.999893  0.654544  0.345671  1
  Pd  Pd21  1  0.999893  0.345671  0.999893  1
  Pd  Pd22  1  0.654544  0.999893  0.345671  1
  Pd  Pd23  1  0.999893  0.654544  0.999893  1
  Pd  Pd24  1  0.345671  0.999893  0.654544  1
  Pd  Pd25  1  0.999893  0.999893  0.345671  1
  Pd  Pd26  1  0.999893  0.999893  0.654544  1
  Pd  Pd27  1  0.654544  0.345671  0.999893  1
  Pd  Pd28  1  0.345671  0.654544  0.999893  1
