# generated using pymatgen
data_Sc8Re5Si16Mo7
_symmetry_space_group_name_H-M   'P 1'
_cell_length_a   6.50949018
_cell_length_b   6.78828104
_cell_length_c   12.58686251
_cell_angle_alpha   90.00203079
_cell_angle_beta   89.94804452
_cell_angle_gamma   90.03085765
_symmetry_Int_Tables_number   1
_chemical_formula_structural   Sc8Re5Si16Mo7
_chemical_formula_sum   'Sc8 Re5 Si16 Mo7'
_cell_volume   556.19110215
_cell_formula_units_Z   1
loop_
 _symmetry_equiv_pos_site_id
 _symmetry_equiv_pos_as_xyz
  1  'x, y, z'
loop_
 _atom_site_type_symbol
 _atom_site_label
 _atom_site_symmetry_multiplicity
 _atom_site_fract_x
 _atom_site_fract_y
 _atom_site_fract_z
 _atom_site_occupancy
  Sc  Sc0  1  0.493939  0.330083  0.090751  1
  Sc  Sc1  1  0.994470  0.170096  0.408873  1
  Sc  Sc2  1  0.503564  0.671233  0.591776  1
  Sc  Sc3  1  0.006691  0.830669  0.908886  1
  Sc  Sc4  1  0.507977  0.668554  0.908166  1
  Sc  Sc5  1  0.006000  0.831743  0.590920  1
  Sc  Sc6  1  0.493151  0.329989  0.409253  1
  Sc  Sc7  1  0.994512  0.169752  0.091029  1
  Re  Re8  1  0.823086  0.340050  0.622549  1
  Re  Re9  1  0.668811  0.980316  0.749432  1
  Re  Re10  1  0.168950  0.517884  0.749322  1
  Re  Re11  1  0.332594  0.017835  0.250184  1
  Re  Re12  1  0.832165  0.481848  0.250989  1
  Si  Si13  1  0.662998  0.040876  0.547216  1
  Si  Si14  1  0.164082  0.461652  0.953856  1
  Si  Si15  1  0.337240  0.961485  0.046009  1
  Si  Si16  1  0.835637  0.538357  0.454627  1
  Si  Si17  1  0.336826  0.961409  0.454079  1
  Si  Si18  1  0.837512  0.537547  0.045863  1
  Si  Si19  1  0.663046  0.038084  0.953708  1
  Si  Si20  1  0.161624  0.461435  0.546828  1
  Si  Si21  1  0.526345  0.375631  0.749040  1
  Si  Si22  1  0.024279  0.124122  0.748584  1
  Si  Si23  1  0.474526  0.623690  0.250663  1
  Si  Si24  1  0.975194  0.876397  0.250276  1
  Si  Si25  1  0.804493  0.640560  0.749935  1
  Si  Si26  1  0.302771  0.859064  0.750748  1
  Si  Si27  1  0.197020  0.358882  0.250035  1
  Si  Si28  1  0.696484  0.141097  0.249970  1
  Mo  Mo29  1  0.325109  0.162898  0.875343  1
  Mo  Mo30  1  0.174871  0.661864  0.124086  1
  Mo  Mo31  1  0.675995  0.838823  0.377480  1
  Mo  Mo32  1  0.173608  0.661297  0.377321  1
  Mo  Mo33  1  0.675044  0.836634  0.124052  1
  Mo  Mo34  1  0.825866  0.337069  0.874266  1
  Mo  Mo35  1  0.323526  0.161073  0.623881  1
