# generated using pymatgen
data_Tb6YbFeBr12
_symmetry_space_group_name_H-M   'P 1'
_cell_length_a   9.22969163
_cell_length_b   9.22969059
_cell_length_c   9.22969260
_cell_angle_alpha   106.98536197
_cell_angle_beta   106.98536824
_cell_angle_gamma   106.98537088
_symmetry_Int_Tables_number   1
_chemical_formula_structural   Tb6YbFeBr12
_chemical_formula_sum   'Tb6 Yb1 Fe1 Br12'
_cell_volume   655.05910109
_cell_formula_units_Z   1
loop_
 _symmetry_equiv_pos_site_id
 _symmetry_equiv_pos_as_xyz
  1  'x, y, z'
loop_
 _atom_site_type_symbol
 _atom_site_label
 _atom_site_symmetry_multiplicity
 _atom_site_fract_x
 _atom_site_fract_y
 _atom_site_fract_z
 _atom_site_occupancy
  Tb  Tb0  1  0.099196  0.024394  0.305450  1
  Tb  Tb1  1  0.305450  0.099196  0.024394  1
  Tb  Tb2  1  0.024394  0.305450  0.099196  1
  Tb  Tb3  1  0.900804  0.975606  0.694550  1
  Tb  Tb4  1  0.694550  0.900804  0.975606  1
  Tb  Tb5  1  0.975606  0.694550  0.900804  1
  Yb  Yb6  1  0.500000  0.500000  0.500000  1
  Fe  Fe7  1  0.000000  0.000000  0.000000  1
  Br  Br8  1  0.072949  0.683311  0.223821  1
  Br  Br9  1  0.223821  0.072949  0.683311  1
  Br  Br10  1  0.683311  0.223821  0.072949  1
  Br  Br11  1  0.927051  0.316689  0.776179  1
  Br  Br12  1  0.776179  0.927051  0.316689  1
  Br  Br13  1  0.316689  0.776179  0.927051  1
  Br  Br14  1  0.454952  0.157332  0.378639  1
  Br  Br15  1  0.378639  0.454952  0.157332  1
  Br  Br16  1  0.157332  0.378639  0.454952  1
  Br  Br17  1  0.545048  0.842668  0.621361  1
  Br  Br18  1  0.621361  0.545048  0.842668  1
  Br  Br19  1  0.842668  0.621361  0.545048  1
