# generated using pymatgen
data_Ac8AlPd6
_symmetry_space_group_name_H-M   'P 1'
_cell_length_a   8.08835613
_cell_length_b   8.08835624
_cell_length_c   8.08835610
_cell_angle_alpha   71.72541774
_cell_angle_beta   71.72541785
_cell_angle_gamma   71.72541344
_symmetry_Int_Tables_number   1
_chemical_formula_structural   Ac8AlPd6
_chemical_formula_sum   'Ac8 Al1 Pd6'
_cell_volume   463.32854230
_cell_formula_units_Z   1
loop_
 _symmetry_equiv_pos_site_id
 _symmetry_equiv_pos_as_xyz
  1  'x, y, z'
loop_
 _atom_site_type_symbol
 _atom_site_label
 _atom_site_symmetry_multiplicity
 _atom_site_fract_x
 _atom_site_fract_y
 _atom_site_fract_z
 _atom_site_occupancy
  Ac  Ac0  1  0.805753  0.805753  0.805753  1
  Ac  Ac1  1  0.194247  0.194247  0.194247  1
  Ac  Ac2  1  0.316063  0.631798  0.839433  1
  Ac  Ac3  1  0.839433  0.316063  0.631798  1
  Ac  Ac4  1  0.631797  0.839433  0.316063  1
  Ac  Ac5  1  0.683937  0.368202  0.160567  1
  Ac  Ac6  1  0.160567  0.683937  0.368202  1
  Ac  Ac7  1  0.368202  0.160567  0.683937  1
  Al  Al8  1  0.000000  0.000000  0.000000  1
  Pd  Pd9  1  0.150611  0.962942  0.594102  1
  Pd  Pd10  1  0.594102  0.150611  0.962942  1
  Pd  Pd11  1  0.962942  0.594102  0.150611  1
  Pd  Pd12  1  0.849389  0.037058  0.405898  1
  Pd  Pd13  1  0.405898  0.849389  0.037058  1
  Pd  Pd14  1  0.037058  0.405898  0.849389  1
