# generated using pymatgen
data_NdEu5(HfSb5)2
_symmetry_space_group_name_H-M   'P 1'
_cell_length_a   9.54129700
_cell_length_b   9.56016498
_cell_length_c   6.35979100
_cell_angle_alpha   90.00000000
_cell_angle_beta   90.00000000
_cell_angle_gamma   119.93473862
_symmetry_Int_Tables_number   1
_chemical_formula_structural   NdEu5(HfSb5)2
_chemical_formula_sum   'Nd1 Eu5 Hf2 Sb10'
_cell_volume   502.72617859
_cell_formula_units_Z   1
loop_
 _symmetry_equiv_pos_site_id
 _symmetry_equiv_pos_as_xyz
  1  'x, y, z'
loop_
 _atom_site_type_symbol
 _atom_site_label
 _atom_site_symmetry_multiplicity
 _atom_site_fract_x
 _atom_site_fract_y
 _atom_site_fract_z
 _atom_site_occupancy
  Nd  Nd0  1  0.616303  0.000000  0.250000  1
  Eu  Eu1  1  0.386530  0.000000  0.750000  1
  Eu  Eu2  1  0.997923  0.614678  0.250000  1
  Eu  Eu3  1  0.002938  0.389414  0.750000  1
  Eu  Eu4  1  0.383246  0.385322  0.250000  1
  Eu  Eu5  1  0.613524  0.610586  0.750000  1
  Hf  Hf6  1  0.999839  0.000000  0.000085  1
  Hf  Hf7  1  0.999839  0.000000  0.499915  1
  Sb  Sb8  1  0.259326  0.000000  0.250000  1
  Sb  Sb9  1  0.739919  0.000000  0.750000  1
  Sb  Sb10  1  0.998274  0.257835  0.250000  1
  Sb  Sb11  1  0.000497  0.742284  0.750000  1
  Sb  Sb12  1  0.740439  0.742165  0.250000  1
  Sb  Sb13  1  0.258214  0.257716  0.750000  1
  Sb  Sb14  1  0.336049  0.670505  0.006410  1
  Sb  Sb15  1  0.665545  0.329495  0.006410  1
  Sb  Sb16  1  0.665545  0.329495  0.493590  1
  Sb  Sb17  1  0.336049  0.670505  0.493590  1
