# generated using pymatgen
data_Tb4Dy2Ho6Co5Sn
_symmetry_space_group_name_H-M   'P 1'
_cell_length_a   8.26969038
_cell_length_b   8.26968897
_cell_length_c   8.26732186
_cell_angle_alpha   107.02962126
_cell_angle_beta   110.72942916
_cell_angle_gamma   110.69319915
_symmetry_Int_Tables_number   1
_chemical_formula_structural   Tb4Dy2Ho6Co5Sn
_chemical_formula_sum   'Tb4 Dy2 Ho6 Co5 Sn1'
_cell_volume   434.58065836
_cell_formula_units_Z   1
loop_
 _symmetry_equiv_pos_site_id
 _symmetry_equiv_pos_as_xyz
  1  'x, y, z'
loop_
 _atom_site_type_symbol
 _atom_site_label
 _atom_site_symmetry_multiplicity
 _atom_site_fract_x
 _atom_site_fract_y
 _atom_site_fract_z
 _atom_site_occupancy
  Tb  Tb0  1  0.479089  0.292491  0.187157  1
  Tb  Tb1  1  0.105334  0.291932  0.812843  1
  Tb  Tb2  1  0.894666  0.708068  0.187157  1
  Tb  Tb3  1  0.520911  0.707509  0.812843  1
  Dy  Dy4  1  0.192387  0.792066  0.984452  1
  Dy  Dy5  1  0.807613  0.207934  0.015548  1
  Ho  Ho6  1  0.306764  0.620232  0.314207  1
  Ho  Ho7  1  0.306024  0.992558  0.685793  1
  Ho  Ho8  1  0.693236  0.379768  0.685793  1
  Ho  Ho9  1  0.693976  0.007442  0.314207  1
  Ho  Ho10  1  0.192710  0.208077  0.400787  1
  Ho  Ho11  1  0.807290  0.791923  0.599213  1
  Co  Co12  1  0.500433  0.612712  0.113145  1
  Co  Co13  1  0.499567  0.387288  0.886855  1
  Co  Co14  1  0.377557  0.000272  0.377829  1
  Co  Co15  1  0.622443  0.999728  0.622171  1
  Co  Co16  1  0.000000  0.000000  0.000000  1
  Sn  Sn17  1  0.000000  0.500000  0.500000  1
