# generated using pymatgen
data_TiFe2P2Ru
_symmetry_space_group_name_H-M   'P 1'
_cell_length_a   3.61357500
_cell_length_b   6.01406600
_cell_length_c   6.62371200
_cell_angle_alpha   90.00000000
_cell_angle_beta   90.00000000
_cell_angle_gamma   90.00000000
_symmetry_Int_Tables_number   1
_chemical_formula_structural   TiFe2P2Ru
_chemical_formula_sum   'Ti2 Fe4 P4 Ru2'
_cell_volume   143.94835419
_cell_formula_units_Z   2
loop_
 _symmetry_equiv_pos_site_id
 _symmetry_equiv_pos_as_xyz
  1  'x, y, z'
loop_
 _atom_site_type_symbol
 _atom_site_label
 _atom_site_symmetry_multiplicity
 _atom_site_fract_x
 _atom_site_fract_y
 _atom_site_fract_z
 _atom_site_occupancy
  Ti  Ti0  1  0.750000  0.977114  0.173297  1
  Ti  Ti1  1  0.750000  0.477114  0.326703  1
  Fe  Fe2  1  0.250000  0.144982  0.441924  1
  Fe  Fe3  1  0.250000  0.644982  0.058076  1
  Fe  Fe4  1  0.750000  0.855760  0.565081  1
  Fe  Fe5  1  0.750000  0.355760  0.934919  1
  P  P6  1  0.250000  0.773402  0.382064  1
  P  P7  1  0.250000  0.273402  0.117936  1
  P  P8  1  0.750000  0.218514  0.628590  1
  P  P9  1  0.750000  0.718514  0.871410  1
  Ru  Ru10  1  0.250000  0.030229  0.837735  1
  Ru  Ru11  1  0.250000  0.530229  0.662265  1
