# generated using pymatgen
data_Dy8CdInRu2
_symmetry_space_group_name_H-M   'P 1'
_cell_length_a   9.67608799
_cell_length_b   9.62234834
_cell_length_c   9.62234902
_cell_angle_alpha   59.63588911
_cell_angle_beta   59.81508306
_cell_angle_gamma   59.81508473
_symmetry_Int_Tables_number   1
_chemical_formula_structural   Dy8CdInRu2
_chemical_formula_sum   'Dy16 Cd2 In2 Ru4'
_cell_volume   629.97715604
_cell_formula_units_Z   2
loop_
 _symmetry_equiv_pos_site_id
 _symmetry_equiv_pos_as_xyz
  1  'x, y, z'
loop_
 _atom_site_type_symbol
 _atom_site_label
 _atom_site_symmetry_multiplicity
 _atom_site_fract_x
 _atom_site_fract_y
 _atom_site_fract_z
 _atom_site_occupancy
  Dy  Dy0  1  0.440271  0.439698  0.059622  1
  Dy  Dy1  1  0.060408  0.439698  0.059622  1
  Dy  Dy2  1  0.441294  0.058706  0.058706  1
  Dy  Dy3  1  0.060408  0.059622  0.439698  1
  Dy  Dy4  1  0.440271  0.059622  0.439698  1
  Dy  Dy5  1  0.060581  0.439419  0.439419  1
  Dy  Dy6  1  0.809639  0.810048  0.190426  1
  Dy  Dy7  1  0.189887  0.810048  0.190426  1
  Dy  Dy8  1  0.808422  0.191578  0.191578  1
  Dy  Dy9  1  0.189887  0.190426  0.810048  1
  Dy  Dy10  1  0.809639  0.190426  0.810048  1
  Dy  Dy11  1  0.188518  0.811482  0.811482  1
  Dy  Dy12  1  0.653443  0.650556  0.042558  1
  Dy  Dy13  1  0.653443  0.042558  0.650556  1
  Dy  Dy14  1  0.042727  0.651711  0.651711  1
  Dy  Dy15  1  0.653852  0.651711  0.651711  1
  Cd  Cd16  1  0.418115  0.420887  0.742883  1
  Cd  Cd17  1  0.418115  0.742883  0.420887  1
  In  In18  1  0.744110  0.419746  0.419746  1
  In  In19  1  0.416398  0.419746  0.419746  1
  Ru  Ru20  1  0.860687  0.858655  0.419970  1
  Ru  Ru21  1  0.860687  0.419970  0.858655  1
  Ru  Ru22  1  0.418011  0.860402  0.860402  1
  Ru  Ru23  1  0.861184  0.860402  0.860402  1
