# generated using pymatgen
data_TbEu3AsP27
_symmetry_space_group_name_H-M   'P 1'
_cell_length_a   5.68984667
_cell_length_b   10.65138935
_cell_length_c   13.21656982
_cell_angle_alpha   55.41076959
_cell_angle_beta   89.40545917
_cell_angle_gamma   89.46544206
_symmetry_Int_Tables_number   1
_chemical_formula_structural   TbEu3AsP27
_chemical_formula_sum   'Tb1 Eu3 As1 P27'
_cell_volume   659.36592514
_cell_formula_units_Z   1
loop_
 _symmetry_equiv_pos_site_id
 _symmetry_equiv_pos_as_xyz
  1  'x, y, z'
loop_
 _atom_site_type_symbol
 _atom_site_label
 _atom_site_symmetry_multiplicity
 _atom_site_fract_x
 _atom_site_fract_y
 _atom_site_fract_z
 _atom_site_occupancy
  Tb  Tb0  1  0.097597  0.745619  0.787601  1
  Eu  Eu1  1  0.395519  0.754204  0.280515  1
  Eu  Eu2  1  0.894600  0.247688  0.216563  1
  Eu  Eu3  1  0.605744  0.247494  0.716769  1
  As  As4  1  0.450714  0.986018  0.594373  1
  P  P5  1  0.048383  0.000851  0.079698  1
  P  P6  1  0.547987  0.002695  0.412200  1
  P  P7  1  0.952100  0.004431  0.913092  1
  P  P8  1  0.278238  0.584217  0.057401  1
  P  P9  1  0.224239  0.582354  0.565830  1
  P  P10  1  0.715495  0.416276  0.942336  1
  P  P11  1  0.772585  0.416837  0.434581  1
  P  P12  1  0.289895  0.230608  0.528597  1
  P  P13  1  0.207009  0.221431  0.031696  1
  P  P14  1  0.710967  0.779069  0.471272  1
  P  P15  1  0.797733  0.780946  0.965411  1
  P  P16  1  0.287686  0.957416  0.854196  1
  P  P17  1  0.206258  0.960647  0.361720  1
  P  P18  1  0.708675  0.040373  0.138347  1
  P  P19  1  0.813346  0.032641  0.649671  1
  P  P20  1  0.430606  0.421357  0.353086  1
  P  P21  1  0.063731  0.422378  0.860715  1
  P  P22  1  0.567735  0.583154  0.644003  1
  P  P23  1  0.931655  0.581363  0.138007  1
  P  P24  1  0.401621  0.361842  0.217225  1
  P  P25  1  0.094278  0.363910  0.723974  1
  P  P26  1  0.595112  0.641412  0.783183  1
  P  P27  1  0.908046  0.635351  0.277215  1
  P  P28  1  0.445850  0.789353  0.036114  1
  P  P29  1  0.055563  0.786254  0.545031  1
  P  P30  1  0.553062  0.213023  0.957060  1
  P  P31  1  0.947970  0.208792  0.462517  1
