# generated using pymatgen
data_Ho4Er8TlCo4Pd
_symmetry_space_group_name_H-M   'P 1'
_cell_length_a   8.25874843
_cell_length_b   8.25874645
_cell_length_c   8.25874736
_cell_angle_alpha   110.90900201
_cell_angle_beta   110.63078321
_cell_angle_gamma   106.90410046
_symmetry_Int_Tables_number   1
_chemical_formula_structural   Ho4Er8TlCo4Pd
_chemical_formula_sum   'Ho4 Er8 Tl1 Co4 Pd1'
_cell_volume   432.97948001
_cell_formula_units_Z   1
loop_
 _symmetry_equiv_pos_site_id
 _symmetry_equiv_pos_as_xyz
  1  'x, y, z'
loop_
 _atom_site_type_symbol
 _atom_site_label
 _atom_site_symmetry_multiplicity
 _atom_site_fract_x
 _atom_site_fract_y
 _atom_site_fract_z
 _atom_site_occupancy
  Ho  Ho0  1  0.187734  0.292401  0.480137  1
  Ho  Ho1  1  0.812266  0.707599  0.519863  1
  Ho  Ho2  1  0.187734  0.707599  0.895333  1
  Ho  Ho3  1  0.812266  0.292401  0.104667  1
  Er  Er4  1  0.314059  0.618688  0.304629  1
  Er  Er5  1  0.685941  0.381312  0.695371  1
  Er  Er6  1  0.314059  0.009430  0.695371  1
  Er  Er7  1  0.685941  0.990570  0.304629  1
  Er  Er8  1  0.415373  0.215826  0.199545  1
  Er  Er9  1  0.584627  0.784174  0.800455  1
  Er  Er10  1  0.016281  0.215826  0.800455  1
  Er  Er11  1  0.983719  0.784174  0.199545  1
  Tl  Tl12  1  0.500000  0.500000  0.000000  1
  Co  Co13  1  0.112640  0.612640  0.500000  1
  Co  Co14  1  0.887360  0.387360  0.500000  1
  Co  Co15  1  0.379313  0.000000  0.379313  1
  Co  Co16  1  0.620687  0.000000  0.620687  1
  Pd  Pd17  1  0.000000  0.000000  0.000000  1
