# generated using pymatgen
data_SrNdCd2(Ir2O7)2
_symmetry_space_group_name_H-M   'P 1'
_cell_length_a   7.32591671
_cell_length_b   7.32591758
_cell_length_c   7.45669772
_cell_angle_alpha   59.60155807
_cell_angle_beta   59.60155713
_cell_angle_gamma   59.42937381
_symmetry_Int_Tables_number   1
_chemical_formula_structural   SrNdCd2(Ir2O7)2
_chemical_formula_sum   'Sr1 Nd1 Cd2 Ir4 O14'
_cell_volume   280.04531104
_cell_formula_units_Z   1
loop_
 _symmetry_equiv_pos_site_id
 _symmetry_equiv_pos_as_xyz
  1  'x, y, z'
loop_
 _atom_site_type_symbol
 _atom_site_label
 _atom_site_symmetry_multiplicity
 _atom_site_fract_x
 _atom_site_fract_y
 _atom_site_fract_z
 _atom_site_occupancy
  Sr  Sr0  1  0.125000  0.125000  0.125000  1
  Nd  Nd1  1  0.125000  0.125000  0.625000  1
  Cd  Cd2  1  0.625000  0.125000  0.125000  1
  Cd  Cd3  1  0.125000  0.625000  0.125000  1
  Ir  Ir4  1  0.125000  0.625000  0.625000  1
  Ir  Ir5  1  0.625000  0.125000  0.625000  1
  Ir  Ir6  1  0.625000  0.625000  0.125000  1
  Ir  Ir7  1  0.625000  0.625000  0.625000  1
  O  O8  1  0.693535  0.693535  0.306986  1
  O  O9  1  0.294931  0.294931  0.698669  1
  O  O10  1  0.702706  0.299901  0.696502  1
  O  O11  1  0.302234  0.692891  0.304860  1
  O  O12  1  0.299901  0.702706  0.696502  1
  O  O13  1  0.692891  0.302234  0.304860  1
  O  O14  1  0.556465  0.556465  0.943014  1
  O  O15  1  0.955069  0.955069  0.551331  1
  O  O16  1  0.547294  0.950099  0.553498  1
  O  O17  1  0.947766  0.557109  0.945140  1
  O  O18  1  0.950099  0.547294  0.553498  1
  O  O19  1  0.557109  0.947766  0.945140  1
  O  O20  1  0.264949  0.264949  0.244787  1
  O  O21  1  0.985051  0.985051  0.005213  1
