# generated using pymatgen
data_Hf3ScSi6Ir4Rh3
_symmetry_space_group_name_H-M   'P 1'
_cell_length_a   6.97819882
_cell_length_b   6.99380805
_cell_length_c   6.97976807
_cell_angle_alpha   109.52196586
_cell_angle_beta   109.43068954
_cell_angle_gamma   109.51037186
_symmetry_Int_Tables_number   1
_chemical_formula_structural   Hf3ScSi6Ir4Rh3
_chemical_formula_sum   'Hf3 Sc1 Si6 Ir4 Rh3'
_cell_volume   262.06621361
_cell_formula_units_Z   1
loop_
 _symmetry_equiv_pos_site_id
 _symmetry_equiv_pos_as_xyz
  1  'x, y, z'
loop_
 _atom_site_type_symbol
 _atom_site_label
 _atom_site_symmetry_multiplicity
 _atom_site_fract_x
 _atom_site_fract_y
 _atom_site_fract_z
 _atom_site_occupancy
  Hf  Hf0  1  0.999957  0.999983  0.499983  1
  Hf  Hf1  1  0.499529  0.999148  0.999510  1
  Hf  Hf2  1  0.499522  0.500383  0.500020  1
  Sc  Sc3  1  0.000516  0.500257  0.000255  1
  Si  Si4  1  0.682625  0.679599  0.999935  1
  Si  Si5  1  0.318243  0.998722  0.318215  1
  Si  Si6  1  0.999118  0.319539  0.317330  1
  Si  Si7  1  0.318246  0.319523  0.000028  1
  Si  Si8  1  0.682628  0.003029  0.682695  1
  Si  Si9  1  0.999116  0.679575  0.681785  1
  Ir  Ir10  1  0.250353  0.499058  0.748797  1
  Ir  Ir11  1  0.250351  0.751303  0.501551  1
  Ir  Ir12  1  0.502446  0.751220  0.251219  1
  Ir  Ir13  1  0.999940  0.999965  0.999969  1
  Rh  Rh14  1  0.748992  0.249746  0.498706  1
  Rh  Rh15  1  0.748999  0.499244  0.250287  1
  Rh  Rh16  1  0.499417  0.249708  0.749715  1
