# generated using pymatgen
data_Dy4Mn10Fe7(NiP4)3
_symmetry_space_group_name_H-M   'P 1'
_cell_length_a   3.64034900
_cell_length_b   10.37922781
_cell_length_c   12.12575167
_cell_angle_alpha   89.83447132
_cell_angle_beta   90.00000000
_cell_angle_gamma   90.00000000
_symmetry_Int_Tables_number   1
_chemical_formula_structural   Dy4Mn10Fe7(NiP4)3
_chemical_formula_sum   'Dy4 Mn10 Fe7 Ni3 P12'
_cell_volume   458.15762961
_cell_formula_units_Z   1
loop_
 _symmetry_equiv_pos_site_id
 _symmetry_equiv_pos_as_xyz
  1  'x, y, z'
loop_
 _atom_site_type_symbol
 _atom_site_label
 _atom_site_symmetry_multiplicity
 _atom_site_fract_x
 _atom_site_fract_y
 _atom_site_fract_z
 _atom_site_occupancy
  Dy  Dy0  1  0.250000  0.582029  0.710799  1
  Dy  Dy1  1  0.250000  0.915680  0.211471  1
  Dy  Dy2  1  0.750000  0.423301  0.290449  1
  Dy  Dy3  1  0.750000  0.078923  0.790856  1
  Mn  Mn4  1  0.250000  0.707327  0.995422  1
  Mn  Mn5  1  0.250000  0.790803  0.493034  1
  Mn  Mn6  1  0.750000  0.290208  0.009519  1
  Mn  Mn7  1  0.750000  0.210954  0.510163  1
  Mn  Mn8  1  0.250000  0.409658  0.493195  1
  Mn  Mn9  1  0.250000  0.090815  0.992756  1
  Mn  Mn10  1  0.750000  0.593021  0.508449  1
  Mn  Mn11  1  0.750000  0.903880  0.009517  1
  Mn  Mn12  1  0.250000  0.218914  0.173165  1
  Mn  Mn13  1  0.250000  0.281491  0.673103  1
  Fe  Fe14  1  0.250000  0.622753  0.197769  1
  Fe  Fe15  1  0.750000  0.127921  0.299523  1
  Fe  Fe16  1  0.750000  0.372713  0.800201  1
  Fe  Fe17  1  0.250000  0.460568  0.933546  1
  Fe  Fe18  1  0.250000  0.038913  0.433681  1
  Fe  Fe19  1  0.750000  0.536583  0.064493  1
  Fe  Fe20  1  0.750000  0.963717  0.566952  1
  Ni  Ni21  1  0.750000  0.772709  0.821134  1
  Ni  Ni22  1  0.750000  0.727487  0.325401  1
  Ni  Ni23  1  0.250000  0.878988  0.699445  1
  P  P24  1  0.250000  0.427041  0.111489  1
  P  P25  1  0.250000  0.077821  0.609352  1
  P  P26  1  0.750000  0.569099  0.887125  1
  P  P27  1  0.750000  0.931345  0.388463  1
  P  P28  1  0.250000  0.266031  0.867546  1
  P  P29  1  0.250000  0.234797  0.367632  1
  P  P30  1  0.750000  0.729011  0.134429  1
  P  P31  1  0.750000  0.766764  0.629027  1
  P  P32  1  0.250000  0.601019  0.384141  1
  P  P33  1  0.250000  0.898801  0.888700  1
  P  P34  1  0.750000  0.405152  0.614380  1
  P  P35  1  0.750000  0.093761  0.113667  1
