# generated using pymatgen
data_Mg3Mn2Ga(B2Rh5)2
_symmetry_space_group_name_H-M   'P 1'
_cell_length_a   9.43040374
_cell_length_b   9.43745481
_cell_length_c   2.93626400
_cell_angle_alpha   90.00000000
_cell_angle_beta   90.00000000
_cell_angle_gamma   90.20243074
_symmetry_Int_Tables_number   1
_chemical_formula_structural   Mg3Mn2Ga(B2Rh5)2
_chemical_formula_sum   'Mg3 Mn2 Ga1 B4 Rh10'
_cell_volume   261.32295540
_cell_formula_units_Z   1
loop_
 _symmetry_equiv_pos_site_id
 _symmetry_equiv_pos_as_xyz
  1  'x, y, z'
loop_
 _atom_site_type_symbol
 _atom_site_label
 _atom_site_symmetry_multiplicity
 _atom_site_fract_x
 _atom_site_fract_y
 _atom_site_fract_z
 _atom_site_occupancy
  Mg  Mg0  1  0.325335  0.821841  0.000000  1
  Mg  Mg1  1  0.178783  0.324948  0.000000  1
  Mg  Mg2  1  0.821568  0.674971  0.000000  1
  Mn  Mn3  1  0.674676  0.178574  0.000000  1
  Mn  Mn4  1  0.499222  0.502506  0.000000  1
  Ga  Ga5  1  0.002150  0.999245  0.000000  1
  B  B6  1  0.123771  0.624291  0.000000  1
  B  B7  1  0.872353  0.372196  0.000000  1
  B  B8  1  0.626508  0.875825  0.000000  1
  B  B9  1  0.375626  0.126642  0.000000  1
  Rh  Rh10  1  0.502473  0.002598  0.500000  1
  Rh  Rh11  1  0.998426  0.498386  0.500000  1
  Rh  Rh12  1  0.216863  0.070027  0.500000  1
  Rh  Rh13  1  0.784590  0.934972  0.500000  1
  Rh  Rh14  1  0.069374  0.783766  0.500000  1
  Rh  Rh15  1  0.715523  0.423568  0.500000  1
  Rh  Rh16  1  0.926098  0.212872  0.500000  1
  Rh  Rh17  1  0.280890  0.571451  0.500000  1
  Rh  Rh18  1  0.572865  0.719543  0.500000  1
  Rh  Rh19  1  0.432907  0.281781  0.500000  1
