# generated using pymatgen
data_TmScFe5(CoP)7
_symmetry_space_group_name_H-M   'P 1'
_cell_length_a   8.91175871
_cell_length_b   8.91325681
_cell_length_c   3.57617600
_cell_angle_alpha   90.00000000
_cell_angle_beta   90.00000000
_cell_angle_gamma   119.89373428
_symmetry_Int_Tables_number   1
_chemical_formula_structural   TmScFe5(CoP)7
_chemical_formula_sum   'Tm1 Sc1 Fe5 Co7 P7'
_cell_volume   246.27107371
_cell_formula_units_Z   1
loop_
 _symmetry_equiv_pos_site_id
 _symmetry_equiv_pos_as_xyz
  1  'x, y, z'
loop_
 _atom_site_type_symbol
 _atom_site_label
 _atom_site_symmetry_multiplicity
 _atom_site_fract_x
 _atom_site_fract_y
 _atom_site_fract_z
 _atom_site_occupancy
  Tm  Tm0  1  0.334015  0.667370  0.000000  1
  Sc  Sc1  1  0.999469  0.000160  0.500000  1
  Fe  Fe2  1  0.508471  0.057479  0.000000  1
  Fe  Fe3  1  0.548800  0.490420  0.000000  1
  Fe  Fe4  1  0.764060  0.207614  0.500000  1
  Fe  Fe5  1  0.439328  0.233242  0.500000  1
  Fe  Fe6  1  0.792505  0.556448  0.500000  1
  Co  Co7  1  0.729834  0.962589  0.000000  1
  Co  Co8  1  0.231748  0.269268  0.000000  1
  Co  Co9  1  0.038155  0.768529  0.000000  1
  Co  Co10  1  0.943006  0.450986  0.000000  1
  Co  Co11  1  0.103972  0.383112  0.500000  1
  Co  Co12  1  0.280220  0.897151  0.500000  1
  Co  Co13  1  0.618104  0.720776  0.500000  1
  P  P14  1  0.962243  0.216020  0.000000  1
  P  P15  1  0.254236  0.037252  0.000000  1
  P  P16  1  0.783229  0.746252  0.000000  1
  P  P17  1  0.069561  0.622438  0.500000  1
  P  P18  1  0.552625  0.931805  0.500000  1
  P  P19  1  0.380010  0.448461  0.500000  1
  P  P20  1  0.666409  0.332626  0.000000  1
