# generated using pymatgen
data_Nb12Al9V(CoC2)2
_symmetry_space_group_name_H-M   'P 1'
_cell_length_a   8.29375429
_cell_length_b   8.29375523
_cell_length_c   8.33347133
_cell_angle_alpha   60.06647671
_cell_angle_beta   60.06648097
_cell_angle_gamma   59.96164902
_symmetry_Int_Tables_number   1
_chemical_formula_structural   Nb12Al9V(CoC2)2
_chemical_formula_sum   'Nb12 Al9 V1 Co2 C4'
_cell_volume   405.62312159
_cell_formula_units_Z   1
loop_
 _symmetry_equiv_pos_site_id
 _symmetry_equiv_pos_as_xyz
  1  'x, y, z'
loop_
 _atom_site_type_symbol
 _atom_site_label
 _atom_site_symmetry_multiplicity
 _atom_site_fract_x
 _atom_site_fract_y
 _atom_site_fract_z
 _atom_site_occupancy
  Nb  Nb0  1  0.699719  0.307679  0.684025  1
  Nb  Nb1  1  0.942321  0.550281  0.565975  1
  Nb  Nb2  1  0.560528  0.938958  0.937499  1
  Nb  Nb3  1  0.938958  0.560528  0.937499  1
  Nb  Nb4  1  0.563330  0.563330  0.936183  1
  Nb  Nb5  1  0.942283  0.942283  0.563865  1
  Nb  Nb6  1  0.686670  0.686670  0.313817  1
  Nb  Nb7  1  0.307679  0.699719  0.684025  1
  Nb  Nb8  1  0.689472  0.311042  0.312501  1
  Nb  Nb9  1  0.307717  0.307717  0.686135  1
  Nb  Nb10  1  0.550281  0.942321  0.565975  1
  Nb  Nb11  1  0.311042  0.689472  0.312501  1
  Al  Al12  1  0.125000  0.125000  0.125000  1
  Al  Al13  1  0.338379  0.338379  0.323325  1
  Al  Al14  1  0.248581  0.903375  0.920474  1
  Al  Al15  1  0.903375  0.248581  0.920474  1
  Al  Al16  1  0.906572  0.906572  0.255804  1
  Al  Al17  1  0.346625  0.001419  0.329526  1
  Al  Al18  1  0.343428  0.343428  0.994196  1
  Al  Al19  1  0.001419  0.346625  0.329526  1
  Al  Al20  1  0.911621  0.911621  0.926675  1
  V  V21  1  0.125000  0.125000  0.625000  1
  Co  Co22  1  0.625000  0.125000  0.125000  1
  Co  Co23  1  0.125000  0.625000  0.125000  1
  C  C24  1  0.625000  0.625000  0.625000  1
  C  C25  1  0.125000  0.625000  0.625000  1
  C  C26  1  0.625000  0.125000  0.625000  1
  C  C27  1  0.625000  0.625000  0.125000  1
