# generated using pymatgen
data_Tm4Ga5AsIr7
_symmetry_space_group_name_H-M   'P 1'
_cell_length_a   7.25169346
_cell_length_b   7.25169277
_cell_length_c   7.25169359
_cell_angle_alpha   109.57150556
_cell_angle_beta   109.42111159
_cell_angle_gamma   109.42109947
_symmetry_Int_Tables_number   1
_chemical_formula_structural   Tm4Ga5AsIr7
_chemical_formula_sum   'Tm4 Ga5 As1 Ir7'
_cell_volume   293.55896392
_cell_formula_units_Z   1
loop_
 _symmetry_equiv_pos_site_id
 _symmetry_equiv_pos_as_xyz
  1  'x, y, z'
loop_
 _atom_site_type_symbol
 _atom_site_label
 _atom_site_symmetry_multiplicity
 _atom_site_fract_x
 _atom_site_fract_y
 _atom_site_fract_z
 _atom_site_occupancy
  Tm  Tm0  1  0.000000  0.003146  0.502135  1
  Tm  Tm1  1  0.000000  0.502135  0.003146  1
  Tm  Tm2  1  0.501011  0.003146  0.003146  1
  Tm  Tm3  1  0.498989  0.502135  0.502135  1
  Ga  Ga4  1  0.685604  0.687826  0.002221  1
  Ga  Ga5  1  0.314396  0.002221  0.316618  1
  Ga  Ga6  1  0.000000  0.306921  0.306921  1
  Ga  Ga7  1  0.314396  0.316618  0.002221  1
  Ga  Ga8  1  0.685604  0.002221  0.687826  1
  As  As9  1  0.000000  0.680134  0.680134  1
  Ir  Ir10  1  0.750600  0.250614  0.500013  1
  Ir  Ir11  1  0.750600  0.500013  0.250614  1
  Ir  Ir12  1  0.500000  0.251599  0.751599  1
  Ir  Ir13  1  0.249400  0.500013  0.749413  1
  Ir  Ir14  1  0.249400  0.749413  0.500013  1
  Ir  Ir15  1  0.500000  0.751599  0.251599  1
  Ir  Ir16  1  0.000000  0.990248  0.990248  1
