# generated using pymatgen
data_Sc8Co7Si14Rh
_symmetry_space_group_name_H-M   'P 1'
_cell_length_a   9.50660156
_cell_length_b   9.51328776
_cell_length_c   9.51406635
_cell_angle_alpha   94.13901761
_cell_angle_beta   94.10156702
_cell_angle_gamma   148.89658742
_symmetry_Int_Tables_number   1
_chemical_formula_structural   Sc8Co7Si14Rh
_chemical_formula_sum   'Sc8 Co7 Si14 Rh1'
_cell_volume   428.23238257
_cell_formula_units_Z   1
loop_
 _symmetry_equiv_pos_site_id
 _symmetry_equiv_pos_as_xyz
  1  'x, y, z'
loop_
 _atom_site_type_symbol
 _atom_site_label
 _atom_site_symmetry_multiplicity
 _atom_site_fract_x
 _atom_site_fract_y
 _atom_site_fract_z
 _atom_site_occupancy
  Sc  Sc0  1  0.138198  0.138198  0.276396  1
  Sc  Sc1  1  0.862032  0.862032  0.724065  1
  Sc  Sc2  1  0.861151  0.136455  0.000603  1
  Sc  Sc3  1  0.139452  0.864147  0.000603  1
  Sc  Sc4  1  0.498655  0.303385  0.804517  1
  Sc  Sc5  1  0.499735  0.695028  0.197126  1
  Sc  Sc6  1  0.697391  0.502098  0.197126  1
  Sc  Sc7  1  0.305862  0.501133  0.804517  1
  Co  Co8  1  0.106336  0.606336  0.212673  1
  Co  Co9  1  0.105826  0.895464  0.501071  1
  Co  Co10  1  0.395245  0.605608  0.501071  1
  Co  Co11  1  0.599103  0.398029  0.497279  1
  Co  Co12  1  0.898175  0.099249  0.497279  1
  Co  Co13  1  0.898686  0.398686  0.797371  1
  Co  Co14  1  0.601056  0.101056  0.202111  1
  Si  Si15  1  0.522661  0.116357  0.586299  1
  Si  Si16  1  0.508922  0.916942  0.408690  1
  Si  Si17  1  0.899767  0.491747  0.408690  1
  Si  Si18  1  0.063638  0.469942  0.586299  1
  Si  Si19  1  0.749717  0.750164  0.000444  1
  Si  Si20  1  0.250728  0.250280  0.000444  1
  Si  Si21  1  0.289353  0.289353  0.578706  1
  Si  Si22  1  0.710783  0.710783  0.421564  1
  Si  Si23  1  0.725599  0.305434  0.005074  1
  Si  Si24  1  0.279477  0.699640  0.005074  1
  Si  Si25  1  0.995773  0.296564  0.300400  1
  Si  Si26  1  0.980399  0.684652  0.697585  1
  Si  Si27  1  0.717186  0.012934  0.697585  1
  Si  Si28  1  0.304627  0.003836  0.300400  1
  Rh  Rh29  1  0.394468  0.894468  0.788936  1
