# generated using pymatgen
data_DyPu2(SnPt)3
_symmetry_space_group_name_H-M   'P 1'
_cell_length_a   7.54712269
_cell_length_b   7.47125421
_cell_length_c   4.06581900
_cell_angle_alpha   90.00000000
_cell_angle_beta   90.00000000
_cell_angle_gamma   119.66801811
_symmetry_Int_Tables_number   1
_chemical_formula_structural   DyPu2(SnPt)3
_chemical_formula_sum   'Dy1 Pu2 Sn3 Pt3'
_cell_volume   199.20339214
_cell_formula_units_Z   1
loop_
 _symmetry_equiv_pos_site_id
 _symmetry_equiv_pos_as_xyz
  1  'x, y, z'
loop_
 _atom_site_type_symbol
 _atom_site_label
 _atom_site_symmetry_multiplicity
 _atom_site_fract_x
 _atom_site_fract_y
 _atom_site_fract_z
 _atom_site_occupancy
  Dy  Dy0  1  0.000000  0.592896  0.500000  1
  Pu  Pu1  1  0.407876  0.410317  0.500000  1
  Pu  Pu2  1  0.592124  0.002442  0.500000  1
  Sn  Sn3  1  0.743389  0.742440  0.000000  1
  Sn  Sn4  1  0.256611  0.999051  0.000000  1
  Sn  Sn5  1  0.000000  0.257139  0.000000  1
  Pt  Pt6  1  0.664745  0.331084  0.000000  1
  Pt  Pt7  1  0.335255  0.666340  0.000000  1
  Pt  Pt8  1  0.000000  0.998293  0.500000  1
