# generated using pymatgen
data_Lu8Al(B8Ir)3
_symmetry_space_group_name_H-M   'P 1'
_cell_length_a   3.57393800
_cell_length_b   9.07110707
_cell_length_c   11.42172877
_cell_angle_alpha   90.02778668
_cell_angle_beta   90.00000000
_cell_angle_gamma   90.00000000
_symmetry_Int_Tables_number   1
_chemical_formula_structural   Lu8Al(B8Ir)3
_chemical_formula_sum   'Lu8 Al1 B24 Ir3'
_cell_volume   370.28754032
_cell_formula_units_Z   1
loop_
 _symmetry_equiv_pos_site_id
 _symmetry_equiv_pos_as_xyz
  1  'x, y, z'
loop_
 _atom_site_type_symbol
 _atom_site_label
 _atom_site_symmetry_multiplicity
 _atom_site_fract_x
 _atom_site_fract_y
 _atom_site_fract_z
 _atom_site_occupancy
  Lu  Lu0  1  0.000000  0.320907  0.415469  1
  Lu  Lu1  1  0.000000  0.683095  0.590074  1
  Lu  Lu2  1  0.000000  0.821427  0.082655  1
  Lu  Lu3  1  0.000000  0.176357  0.911697  1
  Lu  Lu4  1  0.000000  0.943976  0.373032  1
  Lu  Lu5  1  0.000000  0.054293  0.625594  1
  Lu  Lu6  1  0.000000  0.443093  0.125980  1
  Lu  Lu7  1  0.000000  0.556502  0.874218  1
  Al  Al8  1  0.000000  0.862579  0.821419  1
  B  B9  1  0.500000  0.553208  0.434963  1
  B  B10  1  0.500000  0.448255  0.566568  1
  B  B11  1  0.500000  0.051655  0.065031  1
  B  B12  1  0.500000  0.948953  0.935928  1
  B  B13  1  0.500000  0.750528  0.421805  1
  B  B14  1  0.500000  0.248541  0.579622  1
  B  B15  1  0.500000  0.248188  0.078069  1
  B  B16  1  0.500000  0.749862  0.922382  1
  B  B17  1  0.500000  0.793181  0.264322  1
  B  B18  1  0.500000  0.205145  0.734887  1
  B  B19  1  0.500000  0.293401  0.236416  1
  B  B20  1  0.500000  0.703579  0.763391  1
  B  B21  1  0.500000  0.632154  0.182676  1
  B  B22  1  0.500000  0.368348  0.815444  1
  B  B23  1  0.500000  0.132422  0.317595  1
  B  B24  1  0.500000  0.867633  0.682254  1
  B  B25  1  0.500000  0.981097  0.211825  1
  B  B26  1  0.500000  0.021619  0.787353  1
  B  B27  1  0.500000  0.480917  0.287305  1
  B  B28  1  0.500000  0.520748  0.713017  1
  B  B29  1  0.500000  0.606940  0.029849  1
  B  B30  1  0.500000  0.392176  0.970246  1
  B  B31  1  0.500000  0.106473  0.470371  1
  B  B32  1  0.500000  0.893048  0.528758  1
  Ir  Ir33  1  0.000000  0.637758  0.320964  1
  Ir  Ir34  1  0.000000  0.360588  0.677255  1
  Ir  Ir35  1  0.000000  0.141356  0.181563  1
