# generated using pymatgen
data_MoW11F36
_symmetry_space_group_name_H-M   'P 1'
_cell_length_a   4.24759200
_cell_length_b   8.25766700
_cell_length_c   28.59710400
_cell_angle_alpha   90.00000000
_cell_angle_beta   90.00000000
_cell_angle_gamma   90.00000000
_symmetry_Int_Tables_number   1
_chemical_formula_structural   MoW11F36
_chemical_formula_sum   'Mo1 W11 F36'
_cell_volume   1003.04915045
_cell_formula_units_Z   1
loop_
 _symmetry_equiv_pos_site_id
 _symmetry_equiv_pos_as_xyz
  1  'x, y, z'
loop_
 _atom_site_type_symbol
 _atom_site_label
 _atom_site_symmetry_multiplicity
 _atom_site_fract_x
 _atom_site_fract_y
 _atom_site_fract_z
 _atom_site_occupancy
  Mo  Mo0  1  0.000000  0.000000  0.500000  1
  W  W1  1  0.000000  0.500000  0.249588  1
  W  W2  1  0.000000  0.500000  0.750412  1
  W  W3  1  0.000000  0.250383  0.124376  1
  W  W4  1  0.000000  0.749617  0.875624  1
  W  W5  1  0.000000  0.749617  0.124376  1
  W  W6  1  0.000000  0.250383  0.875624  1
  W  W7  1  0.000000  0.000000  0.000000  1
  W  W8  1  0.000000  0.249354  0.374751  1
  W  W9  1  0.000000  0.750646  0.625249  1
  W  W10  1  0.000000  0.750646  0.374751  1
  W  W11  1  0.000000  0.249354  0.625249  1
  F  F12  1  0.000000  0.500000  0.105911  1
  F  F13  1  0.000000  0.500000  0.894089  1
  F  F14  1  0.000000  0.000000  0.142438  1
  F  F15  1  0.000000  0.000000  0.857562  1
  F  F16  1  0.000000  0.320152  0.196119  1
  F  F17  1  0.000000  0.679848  0.803881  1
  F  F18  1  0.000000  0.679848  0.196119  1
  F  F19  1  0.000000  0.320152  0.803881  1
  F  F20  1  0.000000  0.177087  0.446543  1
  F  F21  1  0.000000  0.822913  0.553457  1
  F  F22  1  0.000000  0.822913  0.446543  1
  F  F23  1  0.000000  0.177087  0.553457  1
  F  F24  1  0.500000  0.000000  0.000000  1
  F  F25  1  0.000000  0.500000  0.392607  1
  F  F26  1  0.000000  0.500000  0.607393  1
  F  F27  1  0.000000  0.000000  0.355766  1
  F  F28  1  0.000000  0.000000  0.644234  1
  F  F29  1  0.000000  0.320560  0.303209  1
  F  F30  1  0.000000  0.679440  0.696791  1
  F  F31  1  0.000000  0.679440  0.303209  1
  F  F32  1  0.000000  0.320560  0.696791  1
  F  F33  1  0.000000  0.182091  0.052639  1
  F  F34  1  0.000000  0.817909  0.947361  1
  F  F35  1  0.000000  0.817909  0.052639  1
  F  F36  1  0.000000  0.182091  0.947361  1
  F  F37  1  0.500000  0.249928  0.374279  1
  F  F38  1  0.500000  0.750072  0.625721  1
  F  F39  1  0.500000  0.750072  0.374279  1
  F  F40  1  0.500000  0.249928  0.625721  1
  F  F41  1  0.500000  0.500000  0.249089  1
  F  F42  1  0.500000  0.500000  0.750911  1
  F  F43  1  0.500000  0.250489  0.124305  1
  F  F44  1  0.500000  0.749511  0.875695  1
  F  F45  1  0.500000  0.749511  0.124305  1
  F  F46  1  0.500000  0.250489  0.875695  1
  F  F47  1  0.500000  0.000000  0.500000  1
