# generated using pymatgen
data_Tb7Pr(Si4W3)4
_symmetry_space_group_name_H-M   'P 1'
_cell_length_a   6.81740906
_cell_length_b   6.96941838
_cell_length_c   12.95448235
_cell_angle_alpha   89.85275924
_cell_angle_beta   90.00903621
_cell_angle_gamma   89.94873262
_symmetry_Int_Tables_number   1
_chemical_formula_structural   Tb7Pr(Si4W3)4
_chemical_formula_sum   'Tb7 Pr1 Si16 W12'
_cell_volume   615.50890510
_cell_formula_units_Z   1
loop_
 _symmetry_equiv_pos_site_id
 _symmetry_equiv_pos_as_xyz
  1  'x, y, z'
loop_
 _atom_site_type_symbol
 _atom_site_label
 _atom_site_symmetry_multiplicity
 _atom_site_fract_x
 _atom_site_fract_y
 _atom_site_fract_z
 _atom_site_occupancy
  Tb  Tb0  1  0.495579  0.667016  0.593639  1
  Tb  Tb1  1  0.995836  0.832593  0.906399  1
  Tb  Tb2  1  0.504721  0.332552  0.093781  1
  Tb  Tb3  1  0.004758  0.167268  0.405692  1
  Tb  Tb4  1  0.504752  0.333398  0.405872  1
  Tb  Tb5  1  0.004282  0.167747  0.093675  1
  Tb  Tb6  1  0.495570  0.666992  0.907269  1
  Pr  Pr7  1  0.996759  0.833934  0.591980  1
  Si  Si8  1  0.658731  0.957086  0.451302  1
  Si  Si9  1  0.161092  0.543334  0.047490  1
  Si  Si10  1  0.339029  0.043335  0.953114  1
  Si  Si11  1  0.837587  0.452668  0.546899  1
  Si  Si12  1  0.343055  0.045797  0.546603  1
  Si  Si13  1  0.839174  0.457090  0.952777  1
  Si  Si14  1  0.661041  0.956550  0.047439  1
  Si  Si15  1  0.161705  0.541303  0.451185  1
  Si  Si16  1  0.462983  0.369557  0.750602  1
  Si  Si17  1  0.962927  0.133326  0.751168  1
  Si  Si18  1  0.536509  0.630768  0.249497  1
  Si  Si19  1  0.036510  0.869144  0.250068  1
  Si  Si20  1  0.693778  0.868963  0.751350  1
  Si  Si21  1  0.197871  0.628813  0.751305  1
  Si  Si22  1  0.303819  0.131683  0.249816  1
  Si  Si23  1  0.803517  0.368442  0.249774  1
  W  W24  1  0.665792  0.164730  0.626996  1
  W  W25  1  0.167711  0.336451  0.874800  1
  W  W26  1  0.332146  0.836576  0.125833  1
  W  W27  1  0.831552  0.662096  0.372995  1
  W  W28  1  0.333078  0.836274  0.373258  1
  W  W29  1  0.832743  0.663388  0.125922  1
  W  W30  1  0.667190  0.163889  0.874845  1
  W  W31  1  0.167814  0.336553  0.626041  1
  W  W32  1  0.833887  0.497297  0.750516  1
  W  W33  1  0.334965  0.003499  0.750817  1
  W  W34  1  0.165726  0.501638  0.249665  1
  W  W35  1  0.665817  0.998247  0.249615  1
