# generated using pymatgen
data_Li3Zn7Ag3
_symmetry_space_group_name_H-M   'P 1'
_cell_length_a   9.67522529
_cell_length_b   9.67522511
_cell_length_c   9.67522585
_cell_angle_alpha   30.69052854
_cell_angle_beta   30.69053007
_cell_angle_gamma   30.69052724
_symmetry_Int_Tables_number   1
_chemical_formula_structural   Li3Zn7Ag3
_chemical_formula_sum   'Li3 Zn7 Ag3'
_cell_volume   209.20983867
_cell_formula_units_Z   1
loop_
 _symmetry_equiv_pos_site_id
 _symmetry_equiv_pos_as_xyz
  1  'x, y, z'
loop_
 _atom_site_type_symbol
 _atom_site_label
 _atom_site_symmetry_multiplicity
 _atom_site_fract_x
 _atom_site_fract_y
 _atom_site_fract_z
 _atom_site_occupancy
  Li  Li0  1  0.833705  0.833705  0.833705  1
  Li  Li1  1  0.167486  0.167486  0.167486  1
  Li  Li2  1  0.651543  0.651543  0.651543  1
  Zn  Zn3  1  0.000002  0.000002  0.000002  1
  Zn  Zn4  1  0.909678  0.414660  0.909678  1
  Zn  Zn5  1  0.909678  0.909678  0.414660  1
  Zn  Zn6  1  0.414660  0.909678  0.909678  1
  Zn  Zn7  1  0.089886  0.586000  0.089886  1
  Zn  Zn8  1  0.089886  0.089886  0.586000  1
  Zn  Zn9  1  0.586000  0.089886  0.089886  1
  Ag  Ag10  1  0.345866  0.345866  0.345866  1
  Ag  Ag11  1  0.551216  0.551216  0.551216  1
  Ag  Ag12  1  0.450393  0.450393  0.450393  1
