# generated using pymatgen
data_Y15Lu5Ga12
_symmetry_space_group_name_H-M   'P 1'
_cell_length_a   7.58470608
_cell_length_b   7.58478704
_cell_length_c   14.23177013
_cell_angle_alpha   89.99287756
_cell_angle_beta   89.98579613
_cell_angle_gamma   89.99158431
_symmetry_Int_Tables_number   1
_chemical_formula_structural   Y15Lu5Ga12
_chemical_formula_sum   'Y15 Lu5 Ga12'
_cell_volume   818.73064490
_cell_formula_units_Z   1
loop_
 _symmetry_equiv_pos_site_id
 _symmetry_equiv_pos_as_xyz
  1  'x, y, z'
loop_
 _atom_site_type_symbol
 _atom_site_label
 _atom_site_symmetry_multiplicity
 _atom_site_fract_x
 _atom_site_fract_y
 _atom_site_fract_z
 _atom_site_occupancy
  Y  Y0  1  0.171475  0.167698  0.604171  1
  Y  Y1  1  0.832187  0.171494  0.396250  1
  Y  Y2  1  0.167678  0.828359  0.396266  1
  Y  Y3  1  0.328479  0.332286  0.396350  1
  Y  Y4  1  0.828503  0.166737  0.103208  1
  Y  Y5  1  0.327962  0.668365  0.896403  1
  Y  Y6  1  0.170604  0.832361  0.103225  1
  Y  Y7  1  0.332277  0.671751  0.604039  1
  Y  Y8  1  0.668134  0.671933  0.102900  1
  Y  Y9  1  0.667986  0.328483  0.604004  1
  Y  Y10  1  0.828432  0.832239  0.603741  1
  Y  Y11  1  0.672237  0.332118  0.896391  1
  Y  Y12  1  0.167221  0.170825  0.896407  1
  Y  Y13  1  0.671398  0.667610  0.396254  1
  Y  Y14  1  0.332499  0.328677  0.103327  1
  Lu  Lu15  1  0.833033  0.829324  0.895237  1
  Lu  Lu16  1  0.500940  0.999393  0.753821  1
  Lu  Lu17  1  0.999984  0.500189  0.246802  1
  Lu  Lu18  1  0.999444  0.500815  0.747440  1
  Lu  Lu19  1  0.500186  0.000018  0.253243  1
  Ga  Ga20  1  0.624534  0.375626  0.249900  1
  Ga  Ga21  1  0.375612  0.624506  0.249892  1
  Ga  Ga22  1  0.998330  0.501494  0.000907  1
  Ga  Ga23  1  0.501543  0.998344  0.997482  1
  Ga  Ga24  1  0.124622  0.124651  0.249942  1
  Ga  Ga25  1  0.375884  0.375850  0.750186  1
  Ga  Ga26  1  0.500121  0.999906  0.498219  1
  Ga  Ga27  1  0.999875  0.500111  0.501658  1
  Ga  Ga28  1  0.122953  0.875022  0.750913  1
  Ga  Ga29  1  0.875517  0.875476  0.249962  1
  Ga  Ga30  1  0.625364  0.625384  0.750651  1
  Ga  Ga31  1  0.874986  0.122957  0.750807  1
