# generated using pymatgen
data_Nd4Ga4PdRh3
_symmetry_space_group_name_H-M   'P 1'
_cell_length_a   4.45370200
_cell_length_b   7.12107110
_cell_length_c   7.83870357
_cell_angle_alpha   89.77962829
_cell_angle_beta   90.00000000
_cell_angle_gamma   90.00000000
_symmetry_Int_Tables_number   1
_chemical_formula_structural   Nd4Ga4PdRh3
_chemical_formula_sum   'Nd4 Ga4 Pd1 Rh3'
_cell_volume   248.60365294
_cell_formula_units_Z   1
loop_
 _symmetry_equiv_pos_site_id
 _symmetry_equiv_pos_as_xyz
  1  'x, y, z'
loop_
 _atom_site_type_symbol
 _atom_site_label
 _atom_site_symmetry_multiplicity
 _atom_site_fract_x
 _atom_site_fract_y
 _atom_site_fract_z
 _atom_site_occupancy
  Nd  Nd0  1  0.250000  0.024478  0.686893  1
  Nd  Nd1  1  0.250000  0.531165  0.810333  1
  Nd  Nd2  1  0.750000  0.974718  0.308041  1
  Nd  Nd3  1  0.750000  0.478263  0.195540  1
  Ga  Ga4  1  0.250000  0.157836  0.075965  1
  Ga  Ga5  1  0.250000  0.658903  0.425596  1
  Ga  Ga6  1  0.750000  0.833961  0.925675  1
  Ga  Ga7  1  0.750000  0.344087  0.571398  1
  Pd  Pd8  1  0.750000  0.215288  0.896546  1
  Rh  Rh9  1  0.250000  0.279375  0.397125  1
  Rh  Rh10  1  0.250000  0.780245  0.103288  1
  Rh  Rh11  1  0.750000  0.721682  0.603600  1
