# generated using pymatgen
data_Na2Nd(P2Rh3)3
_symmetry_space_group_name_H-M   'P 1'
_cell_length_a   3.95737200
_cell_length_b   11.28643700
_cell_length_c   12.58198000
_cell_angle_alpha   90.00000000
_cell_angle_beta   90.00000000
_cell_angle_gamma   90.00000000
_symmetry_Int_Tables_number   1
_chemical_formula_structural   Na2Nd(P2Rh3)3
_chemical_formula_sum   'Na4 Nd2 P12 Rh18'
_cell_volume   561.96947839
_cell_formula_units_Z   2
loop_
 _symmetry_equiv_pos_site_id
 _symmetry_equiv_pos_as_xyz
  1  'x, y, z'
loop_
 _atom_site_type_symbol
 _atom_site_label
 _atom_site_symmetry_multiplicity
 _atom_site_fract_x
 _atom_site_fract_y
 _atom_site_fract_z
 _atom_site_occupancy
  Na  Na0  1  0.500000  0.820645  0.204743  1
  Na  Na1  1  0.500000  0.179355  0.204743  1
  Na  Na2  1  0.000000  0.679355  0.795257  1
  Na  Na3  1  0.000000  0.320645  0.795257  1
  Nd  Nd4  1  0.000000  0.500000  0.528619  1
  Nd  Nd5  1  0.500000  0.000000  0.471381  1
  P  P6  1  0.500000  0.500000  0.882354  1
  P  P7  1  0.000000  0.000000  0.117646  1
  P  P8  1  0.500000  0.500000  0.345500  1
  P  P9  1  0.000000  0.000000  0.654500  1
  P  P10  1  0.500000  0.309679  0.621117  1
  P  P11  1  0.500000  0.690321  0.621117  1
  P  P12  1  0.000000  0.190321  0.378883  1
  P  P13  1  0.000000  0.809679  0.378883  1
  P  P14  1  0.500000  0.845440  0.893559  1
  P  P15  1  0.500000  0.154560  0.893559  1
  P  P16  1  0.000000  0.654560  0.106441  1
  P  P17  1  0.000000  0.345440  0.106441  1
  Rh  Rh18  1  0.500000  0.500000  0.164339  1
  Rh  Rh19  1  0.000000  0.000000  0.835661  1
  Rh  Rh20  1  0.500000  0.500000  0.699867  1
  Rh  Rh21  1  0.000000  0.000000  0.300133  1
  Rh  Rh22  1  0.000000  0.500000  0.985806  1
  Rh  Rh23  1  0.500000  0.000000  0.014194  1
  Rh  Rh24  1  0.500000  0.331803  0.992738  1
  Rh  Rh25  1  0.500000  0.668197  0.992738  1
  Rh  Rh26  1  0.000000  0.168197  0.007262  1
  Rh  Rh27  1  0.000000  0.831803  0.007262  1
  Rh  Rh28  1  0.500000  0.292559  0.429979  1
  Rh  Rh29  1  0.500000  0.707441  0.429979  1
  Rh  Rh30  1  0.000000  0.207441  0.570021  1
  Rh  Rh31  1  0.000000  0.792559  0.570021  1
  Rh  Rh32  1  0.500000  0.874796  0.711762  1
  Rh  Rh33  1  0.500000  0.125204  0.711762  1
  Rh  Rh34  1  0.000000  0.625204  0.288238  1
  Rh  Rh35  1  0.000000  0.374796  0.288238  1
