# generated using pymatgen
data_Dy9YOs3Ru
_symmetry_space_group_name_H-M   'P 1'
_cell_length_a   8.46252260
_cell_length_b   8.46570129
_cell_length_c   7.32072171
_cell_angle_alpha   83.26573809
_cell_angle_beta   83.23267747
_cell_angle_gamma   44.30115304
_symmetry_Int_Tables_number   1
_chemical_formula_structural   Dy9YOs3Ru
_chemical_formula_sum   'Dy9 Y1 Os3 Ru1'
_cell_volume   363.33974702
_cell_formula_units_Z   1
loop_
 _symmetry_equiv_pos_site_id
 _symmetry_equiv_pos_as_xyz
  1  'x, y, z'
loop_
 _atom_site_type_symbol
 _atom_site_label
 _atom_site_symmetry_multiplicity
 _atom_site_fract_x
 _atom_site_fract_y
 _atom_site_fract_z
 _atom_site_occupancy
  Dy  Dy0  1  0.021956  0.794045  0.915674  1
  Dy  Dy1  1  0.203512  0.360417  0.315939  1
  Dy  Dy2  1  0.640578  0.793882  0.185450  1
  Dy  Dy3  1  0.794870  0.640852  0.684651  1
  Dy  Dy4  1  0.360401  0.204548  0.815095  1
  Dy  Dy5  1  0.978550  0.207444  0.084063  1
  Dy  Dy6  1  0.792880  0.023171  0.414868  1
  Dy  Dy7  1  0.576780  0.423542  0.749516  1
  Dy  Dy8  1  0.422817  0.577338  0.250560  1
  Y  Y9  1  0.207628  0.976553  0.583782  1
  Os  Os10  1  0.176389  0.603370  0.576092  1
  Os  Os11  1  0.397614  0.822598  0.925371  1
  Os  Os12  1  0.822178  0.397687  0.423431  1
  Ru  Ru13  1  0.603849  0.174549  0.075510  1
