# generated using pymatgen
data_La2Y3(LuS4)3
_symmetry_space_group_name_H-M   'P 1'
_cell_length_a   3.94552400
_cell_length_b   10.97844934
_cell_length_c   11.24942500
_cell_angle_alpha   71.27200504
_cell_angle_beta   90.00000000
_cell_angle_gamma   90.00000000
_symmetry_Int_Tables_number   1
_chemical_formula_structural   La2Y3(LuS4)3
_chemical_formula_sum   'La2 Y3 Lu3 S12'
_cell_volume   461.47750403
_cell_formula_units_Z   1
loop_
 _symmetry_equiv_pos_site_id
 _symmetry_equiv_pos_as_xyz
  1  'x, y, z'
loop_
 _atom_site_type_symbol
 _atom_site_label
 _atom_site_symmetry_multiplicity
 _atom_site_fract_x
 _atom_site_fract_y
 _atom_site_fract_z
 _atom_site_occupancy
  La  La0  1  0.750000  0.550442  0.802956  1
  La  La1  1  0.250000  0.447741  0.198126  1
  Y  Y2  1  0.750000  0.179265  0.998782  1
  Y  Y3  1  0.250000  0.820071  0.003549  1
  Y  Y4  1  0.750000  0.944571  0.664221  1
  Lu  Lu5  1  0.250000  0.056739  0.333761  1
  Lu  Lu6  1  0.750000  0.660151  0.413540  1
  Lu  Lu7  1  0.250000  0.340898  0.586142  1
  S  S8  1  0.750000  0.981312  0.887141  1
  S  S9  1  0.250000  0.018511  0.116913  1
  S  S10  1  0.750000  0.302856  0.744799  1
  S  S11  1  0.250000  0.696048  0.255570  1
  S  S12  1  0.750000  0.893802  0.438171  1
  S  S13  1  0.250000  0.111722  0.552505  1
  S  S14  1  0.750000  0.418285  0.409900  1
  S  S15  1  0.250000  0.582524  0.590043  1
  S  S16  1  0.750000  0.229799  0.232502  1
  S  S17  1  0.250000  0.766258  0.770353  1
  S  S18  1  0.750000  0.619581  0.037596  1
  S  S19  1  0.250000  0.379427  0.963430  1
