# generated using pymatgen
data_Ho2Sn5PdRh2
_symmetry_space_group_name_H-M   'P 1'
_cell_length_a   13.45539092
_cell_length_b   13.45539109
_cell_length_c   7.38492200
_cell_angle_alpha   90.00000000
_cell_angle_beta   90.00000000
_cell_angle_gamma   161.18472417
_symmetry_Int_Tables_number   1
_chemical_formula_structural   Ho2Sn5PdRh2
_chemical_formula_sum   'Ho4 Sn10 Pd2 Rh4'
_cell_volume   431.21376387
_cell_formula_units_Z   2
loop_
 _symmetry_equiv_pos_site_id
 _symmetry_equiv_pos_as_xyz
  1  'x, y, z'
loop_
 _atom_site_type_symbol
 _atom_site_label
 _atom_site_symmetry_multiplicity
 _atom_site_fract_x
 _atom_site_fract_y
 _atom_site_fract_z
 _atom_site_occupancy
  Ho  Ho0  1  0.174356  0.825644  0.745030  1
  Ho  Ho1  1  0.825644  0.174356  0.245030  1
  Ho  Ho2  1  0.475556  0.524444  0.763650  1
  Ho  Ho3  1  0.524444  0.475556  0.263650  1
  Sn  Sn4  1  0.879483  0.120517  0.774719  1
  Sn  Sn5  1  0.120517  0.879483  0.274719  1
  Sn  Sn6  1  0.704509  0.295491  0.450591  1
  Sn  Sn7  1  0.295491  0.704509  0.950591  1
  Sn  Sn8  1  0.598230  0.401770  0.881812  1
  Sn  Sn9  1  0.401770  0.598230  0.381812  1
  Sn  Sn10  1  0.951713  0.048287  0.100687  1
  Sn  Sn11  1  0.048287  0.951713  0.600687  1
  Sn  Sn12  1  0.290448  0.709552  0.521647  1
  Sn  Sn13  1  0.709552  0.290448  0.021647  1
  Pd  Pd14  1  0.049874  0.950126  0.984930  1
  Pd  Pd15  1  0.950126  0.049874  0.484930  1
  Rh  Rh16  1  0.776561  0.223439  0.731936  1
  Rh  Rh17  1  0.223439  0.776561  0.231936  1
  Rh  Rh18  1  0.394464  0.605536  0.016996  1
  Rh  Rh19  1  0.605536  0.394464  0.516996  1
