# generated using pymatgen
data_Er6Al24Ir2(RuPt)3
_symmetry_space_group_name_H-M   'P 1'
_cell_length_a   8.82188100
_cell_length_b   8.83100047
_cell_length_c   9.47230459
_cell_angle_alpha   90.17522702
_cell_angle_beta   90.00000000
_cell_angle_gamma   119.96584182
_symmetry_Int_Tables_number   1
_chemical_formula_structural   Er6Al24Ir2(RuPt)3
_chemical_formula_sum   'Er6 Al24 Ir2 Ru3 Pt3'
_cell_volume   639.29905857
_cell_formula_units_Z   1
loop_
 _symmetry_equiv_pos_site_id
 _symmetry_equiv_pos_as_xyz
  1  'x, y, z'
loop_
 _atom_site_type_symbol
 _atom_site_label
 _atom_site_symmetry_multiplicity
 _atom_site_fract_x
 _atom_site_fract_y
 _atom_site_fract_z
 _atom_site_occupancy
  Er  Er0  1  0.192062  0.384125  0.250903  1
  Er  Er1  1  0.807938  0.615875  0.749097  1
  Er  Er2  1  0.616160  0.808768  0.249199  1
  Er  Er3  1  0.383840  0.191232  0.750801  1
  Er  Er4  1  0.192607  0.808768  0.249199  1
  Er  Er5  1  0.807393  0.191232  0.750801  1
  Al  Al6  1  0.331777  0.663556  0.032458  1
  Al  Al7  1  0.668223  0.336444  0.967542  1
  Al  Al8  1  0.663758  0.327516  0.532784  1
  Al  Al9  1  0.336242  0.672484  0.467216  1
  Al  Al10  1  0.162035  0.324068  0.577795  1
  Al  Al11  1  0.837965  0.675932  0.422205  1
  Al  Al12  1  0.674348  0.842010  0.577003  1
  Al  Al13  1  0.837072  0.674143  0.075221  1
  Al  Al14  1  0.325652  0.157990  0.422997  1
  Al  Al15  1  0.162928  0.325857  0.924779  1
  Al  Al16  1  0.167662  0.842010  0.577003  1
  Al  Al17  1  0.325252  0.166012  0.076636  1
  Al  Al18  1  0.832338  0.157990  0.422997  1
  Al  Al19  1  0.674748  0.833988  0.923364  1
  Al  Al20  1  0.840760  0.166012  0.076636  1
  Al  Al21  1  0.159240  0.833988  0.923364  1
  Al  Al22  1  0.562364  0.124728  0.253453  1
  Al  Al23  1  0.437636  0.875272  0.746547  1
  Al  Al24  1  0.874073  0.437316  0.248032  1
  Al  Al25  1  0.125927  0.562684  0.751968  1
  Al  Al26  1  0.563244  0.437316  0.248032  1
  Al  Al27  1  0.436756  0.562684  0.751968  1
  Al  Al28  1  0.000676  0.001354  0.249894  1
  Al  Al29  1  0.999324  0.998646  0.750106  1
  Ir  Ir30  1  0.000000  0.500000  0.000000  1
  Ir  Ir31  1  0.500000  0.500000  0.000000  1
  Ru  Ru32  1  0.500000  0.000000  0.500000  1
  Ru  Ru33  1  0.000000  0.000000  0.000000  1
  Ru  Ru34  1  0.000000  0.000000  0.500000  1
  Pt  Pt35  1  0.500000  0.000000  0.000000  1
  Pt  Pt36  1  0.000000  0.500000  0.500000  1
  Pt  Pt37  1  0.500000  0.500000  0.500000  1
