# generated using pymatgen
data_Ti3Ga3Ru5Au
_symmetry_space_group_name_H-M   'P 1'
_cell_length_a   4.33447400
_cell_length_b   6.25963000
_cell_length_c   12.94278700
_cell_angle_alpha   90.00000000
_cell_angle_beta   90.00268409
_cell_angle_gamma   90.00000000
_symmetry_Int_Tables_number   1
_chemical_formula_structural   Ti3Ga3Ru5Au
_chemical_formula_sum   'Ti6 Ga6 Ru10 Au2'
_cell_volume   351.16633036
_cell_formula_units_Z   2
loop_
 _symmetry_equiv_pos_site_id
 _symmetry_equiv_pos_as_xyz
  1  'x, y, z'
loop_
 _atom_site_type_symbol
 _atom_site_label
 _atom_site_symmetry_multiplicity
 _atom_site_fract_x
 _atom_site_fract_y
 _atom_site_fract_z
 _atom_site_occupancy
  Ti  Ti0  1  0.000000  0.500000  0.000000  1
  Ti  Ti1  1  0.499875  0.000000  0.181558  1
  Ti  Ti2  1  0.999911  0.500000  0.337216  1
  Ti  Ti3  1  0.500001  0.000000  0.500000  1
  Ti  Ti4  1  0.000089  0.500000  0.662785  1
  Ti  Ti5  1  0.500125  0.000000  0.818442  1
  Ga  Ga6  1  0.000000  0.000000  0.000000  1
  Ga  Ga7  1  0.499851  0.500000  0.176370  1
  Ga  Ga8  1  0.999874  0.000000  0.335237  1
  Ga  Ga9  1  0.500001  0.500000  0.500000  1
  Ga  Ga10  1  0.000126  0.000000  0.664763  1
  Ga  Ga11  1  0.500149  0.500000  0.823631  1
  Ru  Ru12  1  0.999907  0.250296  0.163316  1
  Ru  Ru13  1  0.999907  0.749704  0.163316  1
  Ru  Ru14  1  0.499899  0.248591  0.333607  1
  Ru  Ru15  1  0.499899  0.751409  0.333607  1
  Ru  Ru16  1  0.000000  0.251075  0.500000  1
  Ru  Ru17  1  0.000000  0.748925  0.500000  1
  Ru  Ru18  1  0.500101  0.248591  0.666393  1
  Ru  Ru19  1  0.500101  0.751409  0.666393  1
  Ru  Ru20  1  0.000093  0.250296  0.836684  1
  Ru  Ru21  1  0.000093  0.749704  0.836684  1
  Au  Au22  1  0.500001  0.247243  0.000000  1
  Au  Au23  1  0.500001  0.752757  0.000000  1
