# generated using pymatgen
data_La2Lu3(GaSi)2
_symmetry_space_group_name_H-M   'P 1'
_cell_length_a   7.79961900
_cell_length_b   7.79961900
_cell_length_c   14.43897600
_cell_angle_alpha   90.00000000
_cell_angle_beta   90.00000000
_cell_angle_gamma   90.00000000
_symmetry_Int_Tables_number   1
_chemical_formula_structural   La2Lu3(GaSi)2
_chemical_formula_sum   'La8 Lu12 Ga8 Si8'
_cell_volume   878.38148244
_cell_formula_units_Z   4
loop_
 _symmetry_equiv_pos_site_id
 _symmetry_equiv_pos_as_xyz
  1  'x, y, z'
loop_
 _atom_site_type_symbol
 _atom_site_label
 _atom_site_symmetry_multiplicity
 _atom_site_fract_x
 _atom_site_fract_y
 _atom_site_fract_z
 _atom_site_occupancy
  La  La0  1  0.646442  0.988588  0.460697  1
  La  La1  1  0.353558  0.011412  0.960697  1
  La  La2  1  0.988588  0.646442  0.539303  1
  La  La3  1  0.488588  0.853558  0.210697  1
  La  La4  1  0.511412  0.146442  0.710697  1
  La  La5  1  0.853558  0.488588  0.789303  1
  La  La6  1  0.146442  0.511412  0.289303  1
  La  La7  1  0.011412  0.353558  0.039303  1
  Lu  Lu8  1  0.490855  0.356227  0.122390  1
  Lu  Lu9  1  0.990855  0.143773  0.627610  1
  Lu  Lu10  1  0.856227  0.009145  0.872390  1
  Lu  Lu11  1  0.143773  0.990855  0.372390  1
  Lu  Lu12  1  0.509145  0.643773  0.622390  1
  Lu  Lu13  1  0.356227  0.490855  0.877610  1
  Lu  Lu14  1  0.643773  0.509145  0.377610  1
  Lu  Lu15  1  0.009145  0.856227  0.127610  1
  Lu  Lu16  1  0.319081  0.319081  0.500000  1
  Lu  Lu17  1  0.180919  0.819081  0.750000  1
  Lu  Lu18  1  0.819081  0.180919  0.250000  1
  Lu  Lu19  1  0.680919  0.680919  0.000000  1
  Ga  Ga20  1  0.286904  0.938080  0.563282  1
  Ga  Ga21  1  0.713096  0.061920  0.063282  1
  Ga  Ga22  1  0.938080  0.286904  0.436718  1
  Ga  Ga23  1  0.438080  0.213096  0.313282  1
  Ga  Ga24  1  0.561920  0.786904  0.813282  1
  Ga  Ga25  1  0.213096  0.438080  0.686718  1
  Ga  Ga26  1  0.786904  0.561920  0.186718  1
  Ga  Ga27  1  0.061920  0.713096  0.936718  1
  Si  Si28  1  0.796679  0.850869  0.690353  1
  Si  Si29  1  0.203321  0.149131  0.190353  1
  Si  Si30  1  0.850869  0.796679  0.309647  1
  Si  Si31  1  0.350869  0.703321  0.440353  1
  Si  Si32  1  0.649131  0.296679  0.940353  1
  Si  Si33  1  0.703321  0.350869  0.559647  1
  Si  Si34  1  0.296679  0.649131  0.059647  1
  Si  Si35  1  0.149131  0.203321  0.809647  1
