# generated using pymatgen
data_La4Si10Pt5Au
_symmetry_space_group_name_H-M   'P 1'
_cell_length_a   8.37557620
_cell_length_b   8.37557509
_cell_length_c   8.37557546
_cell_angle_alpha   136.54862634
_cell_angle_beta   106.36930063
_cell_angle_gamma   89.55390689
_symmetry_Int_Tables_number   1
_chemical_formula_structural   La4Si10Pt5Au
_chemical_formula_sum   'La4 Si10 Pt5 Au1'
_cell_volume   370.05460722
_cell_formula_units_Z   1
loop_
 _symmetry_equiv_pos_site_id
 _symmetry_equiv_pos_as_xyz
  1  'x, y, z'
loop_
 _atom_site_type_symbol
 _atom_site_label
 _atom_site_symmetry_multiplicity
 _atom_site_fract_x
 _atom_site_fract_y
 _atom_site_fract_z
 _atom_site_occupancy
  La  La0  1  0.106178  0.870192  0.231836  1
  La  La1  1  0.893822  0.125658  0.764013  1
  La  La2  1  0.638355  0.374342  0.268164  1
  La  La3  1  0.361645  0.629808  0.735987  1
  Si  Si4  1  0.000000  0.750000  0.750000  1
  Si  Si5  1  0.000000  0.250000  0.250000  1
  Si  Si6  1  0.268679  0.018679  0.750000  1
  Si  Si7  1  0.731321  0.481321  0.750000  1
  Si  Si8  1  0.735959  0.985959  0.250000  1
  Si  Si9  1  0.264041  0.514041  0.250000  1
  Si  Si10  1  0.765516  0.611344  0.140702  1
  Si  Si11  1  0.234484  0.375186  0.845828  1
  Si  Si12  1  0.470643  0.124814  0.359298  1
  Si  Si13  1  0.529357  0.888656  0.654172  1
  Pt  Pt14  1  0.500000  0.250000  0.750000  1
  Pt  Pt15  1  0.025120  0.635502  0.390682  1
  Pt  Pt16  1  0.974880  0.365562  0.610382  1
  Pt  Pt17  1  0.244819  0.134438  0.109318  1
  Pt  Pt18  1  0.755181  0.864498  0.889618  1
  Au  Au19  1  0.500000  0.750000  0.250000  1
