# generated using pymatgen
data_NaTbSiO4
_symmetry_space_group_name_H-M   'P 1'
_cell_length_a   5.19944400
_cell_length_b   6.50249900
_cell_length_c   11.30532300
_cell_angle_alpha   90.00000000
_cell_angle_beta   90.00000000
_cell_angle_gamma   90.00000000
_symmetry_Int_Tables_number   1
_chemical_formula_structural   NaTbSiO4
_chemical_formula_sum   'Na4 Tb4 Si4 O16'
_cell_volume   382.22595467
_cell_formula_units_Z   4
loop_
 _symmetry_equiv_pos_site_id
 _symmetry_equiv_pos_as_xyz
  1  'x, y, z'
loop_
 _atom_site_type_symbol
 _atom_site_label
 _atom_site_symmetry_multiplicity
 _atom_site_fract_x
 _atom_site_fract_y
 _atom_site_fract_z
 _atom_site_occupancy
  Na  Na0  1  0.500000  0.500000  0.000000  1
  Na  Na1  1  0.500000  0.000000  0.000000  1
  Na  Na2  1  0.000000  0.000000  0.500000  1
  Na  Na3  1  0.000000  0.500000  0.500000  1
  Tb  Tb4  1  0.498795  0.250000  0.280499  1
  Tb  Tb5  1  0.501205  0.750000  0.719501  1
  Tb  Tb6  1  0.001205  0.250000  0.780499  1
  Tb  Tb7  1  0.998795  0.750000  0.219501  1
  Si  Si8  1  0.561384  0.750000  0.400006  1
  Si  Si9  1  0.938616  0.750000  0.900006  1
  Si  Si10  1  0.438616  0.250000  0.599994  1
  Si  Si11  1  0.061384  0.250000  0.099994  1
  O  O12  1  0.749766  0.250000  0.113262  1
  O  O13  1  0.250234  0.750000  0.886738  1
  O  O14  1  0.750234  0.250000  0.613262  1
  O  O15  1  0.249766  0.750000  0.386738  1
  O  O16  1  0.833517  0.750000  0.036671  1
  O  O17  1  0.166483  0.250000  0.963329  1
  O  O18  1  0.666483  0.750000  0.536671  1
  O  O19  1  0.333517  0.250000  0.463329  1
  O  O20  1  0.700626  0.552865  0.328707  1
  O  O21  1  0.299374  0.052865  0.671293  1
  O  O22  1  0.799374  0.552865  0.828707  1
  O  O23  1  0.200626  0.052865  0.171293  1
  O  O24  1  0.200626  0.447135  0.171293  1
  O  O25  1  0.799374  0.947135  0.828707  1
  O  O26  1  0.299374  0.447135  0.671293  1
  O  O27  1  0.700626  0.947135  0.328707  1
