# generated using pymatgen
data_Ho2Tc(Ni3P2)3
_symmetry_space_group_name_H-M   'P 1'
_cell_length_a   3.70685400
_cell_length_b   10.44897700
_cell_length_c   11.87414000
_cell_angle_alpha   90.00000000
_cell_angle_beta   90.00000000
_cell_angle_gamma   90.00000000
_symmetry_Int_Tables_number   1
_chemical_formula_structural   Ho2Tc(Ni3P2)3
_chemical_formula_sum   'Ho4 Tc2 Ni18 P12'
_cell_volume   459.91907200
_cell_formula_units_Z   2
loop_
 _symmetry_equiv_pos_site_id
 _symmetry_equiv_pos_as_xyz
  1  'x, y, z'
loop_
 _atom_site_type_symbol
 _atom_site_label
 _atom_site_symmetry_multiplicity
 _atom_site_fract_x
 _atom_site_fract_y
 _atom_site_fract_z
 _atom_site_occupancy
  Ho  Ho0  1  0.250000  0.582939  0.704465  1
  Ho  Ho1  1  0.250000  0.917061  0.204465  1
  Ho  Ho2  1  0.750000  0.412607  0.295584  1
  Ho  Ho3  1  0.750000  0.087393  0.795584  1
  Tc  Tc4  1  0.250000  0.708582  0.988499  1
  Tc  Tc5  1  0.250000  0.791418  0.488499  1
  Ni  Ni6  1  0.750000  0.286504  0.010355  1
  Ni  Ni7  1  0.750000  0.213496  0.510355  1
  Ni  Ni8  1  0.250000  0.406798  0.486729  1
  Ni  Ni9  1  0.250000  0.093202  0.986729  1
  Ni  Ni10  1  0.750000  0.590666  0.511764  1
  Ni  Ni11  1  0.750000  0.909334  0.011764  1
  Ni  Ni12  1  0.250000  0.219466  0.176752  1
  Ni  Ni13  1  0.250000  0.280534  0.676752  1
  Ni  Ni14  1  0.750000  0.778631  0.820920  1
  Ni  Ni15  1  0.750000  0.721369  0.320920  1
  Ni  Ni16  1  0.250000  0.887472  0.704085  1
  Ni  Ni17  1  0.250000  0.612528  0.204085  1
  Ni  Ni18  1  0.750000  0.118056  0.299647  1
  Ni  Ni19  1  0.750000  0.381944  0.799647  1
  Ni  Ni20  1  0.250000  0.462762  0.931658  1
  Ni  Ni21  1  0.250000  0.037238  0.431658  1
  Ni  Ni22  1  0.750000  0.530117  0.069831  1
  Ni  Ni23  1  0.750000  0.969883  0.569831  1
  P  P24  1  0.250000  0.417426  0.114241  1
  P  P25  1  0.250000  0.082574  0.614241  1
  P  P26  1  0.750000  0.582057  0.887214  1
  P  P27  1  0.750000  0.917943  0.387214  1
  P  P28  1  0.250000  0.269056  0.868920  1
  P  P29  1  0.250000  0.230944  0.368920  1
  P  P30  1  0.750000  0.731314  0.129739  1
  P  P31  1  0.750000  0.768686  0.629739  1
  P  P32  1  0.250000  0.597022  0.391371  1
  P  P33  1  0.250000  0.902978  0.891371  1
  P  P34  1  0.750000  0.398401  0.608224  1
  P  P35  1  0.750000  0.101599  0.108224  1
