# generated using pymatgen
data_Er16Lu4GaBi11
_symmetry_space_group_name_H-M   'P 1'
_cell_length_a   8.10430531
_cell_length_b   9.39499300
_cell_length_c   11.85322500
_cell_angle_alpha   90.00000000
_cell_angle_beta   89.69702251
_cell_angle_gamma   90.00000000
_symmetry_Int_Tables_number   1
_chemical_formula_structural   Er16Lu4GaBi11
_chemical_formula_sum   'Er16 Lu4 Ga1 Bi11'
_cell_volume   902.49064898
_cell_formula_units_Z   1
loop_
 _symmetry_equiv_pos_site_id
 _symmetry_equiv_pos_as_xyz
  1  'x, y, z'
loop_
 _atom_site_type_symbol
 _atom_site_label
 _atom_site_symmetry_multiplicity
 _atom_site_fract_x
 _atom_site_fract_y
 _atom_site_fract_z
 _atom_site_occupancy
  Er  Er0  1  0.355352  0.250000  0.293954  1
  Er  Er1  1  0.647737  0.750000  0.716480  1
  Er  Er2  1  0.148262  0.750000  0.782587  1
  Er  Er3  1  0.853380  0.250000  0.215829  1
  Er  Er4  1  0.192848  0.250000  0.777304  1
  Er  Er5  1  0.810717  0.750000  0.218246  1
  Er  Er6  1  0.313222  0.750000  0.280733  1
  Er  Er7  1  0.673792  0.250000  0.711164  1
  Er  Er8  1  0.193640  0.065512  0.060535  1
  Er  Er9  1  0.806611  0.935083  0.940852  1
  Er  Er10  1  0.308348  0.949995  0.558929  1
  Er  Er11  1  0.806611  0.564917  0.940852  1
  Er  Er12  1  0.684769  0.071550  0.445071  1
  Er  Er13  1  0.193640  0.434488  0.060535  1
  Er  Er14  1  0.684769  0.428450  0.445071  1
  Er  Er15  1  0.308348  0.550005  0.558929  1
  Lu  Lu16  1  0.037167  0.250000  0.509796  1
  Lu  Lu17  1  0.979374  0.750000  0.490097  1
  Lu  Lu18  1  0.475558  0.750000  0.010920  1
  Lu  Lu19  1  0.525654  0.250000  0.988796  1
  Ga  Ga20  1  0.407705  0.250000  0.539525  1
  Bi  Bi21  1  0.594219  0.750000  0.457643  1
  Bi  Bi22  1  0.094562  0.750000  0.042458  1
  Bi  Bi23  1  0.907205  0.250000  0.954591  1
  Bi  Bi24  1  0.063351  0.002612  0.325170  1
  Bi  Bi25  1  0.934906  0.998018  0.674429  1
  Bi  Bi26  1  0.435396  0.996036  0.825880  1
  Bi  Bi27  1  0.934906  0.501982  0.674429  1
  Bi  Bi28  1  0.564602  0.004411  0.174071  1
  Bi  Bi29  1  0.063351  0.497388  0.325170  1
  Bi  Bi30  1  0.564602  0.495589  0.174071  1
  Bi  Bi31  1  0.435396  0.503964  0.825880  1
