# generated using pymatgen
data_Rb4HgCl6
_symmetry_space_group_name_H-M   'P 1'
_cell_length_a   9.07077103
_cell_length_b   9.07077119
_cell_length_c   9.07077115
_cell_angle_alpha   89.55641673
_cell_angle_beta   89.55641361
_cell_angle_gamma   89.55641509
_symmetry_Int_Tables_number   1
_chemical_formula_structural   Rb4HgCl6
_chemical_formula_sum   'Rb8 Hg2 Cl12'
_cell_volume   746.26621188
_cell_formula_units_Z   2
loop_
 _symmetry_equiv_pos_site_id
 _symmetry_equiv_pos_as_xyz
  1  'x, y, z'
loop_
 _atom_site_type_symbol
 _atom_site_label
 _atom_site_symmetry_multiplicity
 _atom_site_fract_x
 _atom_site_fract_y
 _atom_site_fract_z
 _atom_site_occupancy
  Rb  Rb0  1  0.250000  0.250000  0.250000  1
  Rb  Rb1  1  0.750000  0.750000  0.750000  1
  Rb  Rb2  1  0.372241  0.127759  0.750000  1
  Rb  Rb3  1  0.127759  0.750000  0.372241  1
  Rb  Rb4  1  0.750000  0.372241  0.127759  1
  Rb  Rb5  1  0.627759  0.872241  0.250000  1
  Rb  Rb6  1  0.250000  0.627759  0.872241  1
  Rb  Rb7  1  0.872241  0.250000  0.627759  1
  Hg  Hg8  1  0.000000  0.000000  0.000000  1
  Hg  Hg9  1  0.500000  0.500000  0.500000  1
  Cl  Cl10  1  0.940995  0.070537  0.288961  1
  Cl  Cl11  1  0.070537  0.288961  0.940995  1
  Cl  Cl12  1  0.288961  0.940995  0.070537  1
  Cl  Cl13  1  0.570537  0.440995  0.788961  1
  Cl  Cl14  1  0.788961  0.570537  0.440995  1
  Cl  Cl15  1  0.440995  0.788961  0.570537  1
  Cl  Cl16  1  0.211039  0.429463  0.559005  1
  Cl  Cl17  1  0.429463  0.559005  0.211039  1
  Cl  Cl18  1  0.559005  0.211039  0.429463  1
  Cl  Cl19  1  0.929463  0.711039  0.059005  1
  Cl  Cl20  1  0.059005  0.929463  0.711039  1
  Cl  Cl21  1  0.711039  0.059005  0.929463  1
