# generated using pymatgen
data_Yb12Ho8Si15Ge
_symmetry_space_group_name_H-M   'P 1'
_cell_length_a   7.37232903
_cell_length_b   7.80390603
_cell_length_c   15.09931700
_cell_angle_alpha   90.00000000
_cell_angle_beta   90.00000000
_cell_angle_gamma   89.98968295
_symmetry_Int_Tables_number   1
_chemical_formula_structural   Yb12Ho8Si15Ge
_chemical_formula_sum   'Yb12 Ho8 Si15 Ge1'
_cell_volume   868.70843195
_cell_formula_units_Z   1
loop_
 _symmetry_equiv_pos_site_id
 _symmetry_equiv_pos_as_xyz
  1  'x, y, z'
loop_
 _atom_site_type_symbol
 _atom_site_label
 _atom_site_symmetry_multiplicity
 _atom_site_fract_x
 _atom_site_fract_y
 _atom_site_fract_z
 _atom_site_occupancy
  Yb  Yb0  1  0.978634  0.816814  0.404921  1
  Yb  Yb1  1  0.478380  0.683491  0.095469  1
  Yb  Yb2  1  0.521774  0.316260  0.595432  1
  Yb  Yb3  1  0.021761  0.183649  0.904522  1
  Yb  Yb4  1  0.021761  0.183649  0.595478  1
  Yb  Yb5  1  0.521774  0.316260  0.904568  1
  Yb  Yb6  1  0.478380  0.683491  0.404531  1
  Yb  Yb7  1  0.978634  0.816814  0.095079  1
  Yb  Yb8  1  0.347518  0.020403  0.750000  1
  Yb  Yb9  1  0.847558  0.479406  0.750000  1
  Yb  Yb10  1  0.152819  0.520110  0.250000  1
  Yb  Yb11  1  0.651863  0.980362  0.250000  1
  Ho  Ho12  1  0.317260  0.176501  0.121290  1
  Ho  Ho13  1  0.817384  0.322384  0.378662  1
  Ho  Ho14  1  0.182206  0.676611  0.878504  1
  Ho  Ho15  1  0.682223  0.822985  0.621532  1
  Ho  Ho16  1  0.317260  0.176501  0.378710  1
  Ho  Ho17  1  0.817384  0.322384  0.121338  1
  Ho  Ho18  1  0.182206  0.676611  0.621496  1
  Ho  Ho19  1  0.682223  0.822985  0.878468  1
  Si  Si20  1  0.855478  0.533862  0.537647  1
  Si  Si21  1  0.355496  0.965740  0.962203  1
  Si  Si22  1  0.644211  0.033712  0.462458  1
  Si  Si23  1  0.144102  0.465895  0.037732  1
  Si  Si24  1  0.144102  0.465895  0.462268  1
  Si  Si25  1  0.644211  0.033712  0.037542  1
  Si  Si26  1  0.355496  0.965740  0.537797  1
  Si  Si27  1  0.855478  0.533862  0.962353  1
  Si  Si28  1  0.973072  0.882727  0.750000  1
  Si  Si29  1  0.473056  0.617066  0.750000  1
  Si  Si30  1  0.526167  0.380357  0.250000  1
  Si  Si31  1  0.026663  0.117001  0.250000  1
  Si  Si32  1  0.244301  0.394568  0.750000  1
  Si  Si33  1  0.744223  0.105258  0.750000  1
  Si  Si34  1  0.255648  0.894490  0.250000  1
  Ge  Ge35  1  0.759293  0.612442  0.250000  1
