# generated using pymatgen
data_TbDy(ZnPb)2
_symmetry_space_group_name_H-M   'P 1'
_cell_length_a   4.62235200
_cell_length_b   4.62235264
_cell_length_c   15.95056900
_cell_angle_alpha   90.00000000
_cell_angle_beta   90.00000000
_cell_angle_gamma   119.99999540
_symmetry_Int_Tables_number   1
_chemical_formula_structural   TbDy(ZnPb)2
_chemical_formula_sum   'Tb2 Dy2 Zn4 Pb4'
_cell_volume   295.14329519
_cell_formula_units_Z   2
loop_
 _symmetry_equiv_pos_site_id
 _symmetry_equiv_pos_as_xyz
  1  'x, y, z'
loop_
 _atom_site_type_symbol
 _atom_site_label
 _atom_site_symmetry_multiplicity
 _atom_site_fract_x
 _atom_site_fract_y
 _atom_site_fract_z
 _atom_site_occupancy
  Tb  Tb0  1  0.000000  0.000000  0.000000  1
  Tb  Tb1  1  0.000000  0.000000  0.500000  1
  Dy  Dy2  1  0.000000  0.000000  0.250000  1
  Dy  Dy3  1  0.000000  0.000000  0.750000  1
  Zn  Zn4  1  0.666666  0.333334  0.165133  1
  Zn  Zn5  1  0.666666  0.333334  0.334867  1
  Zn  Zn6  1  0.333334  0.666668  0.665133  1
  Zn  Zn7  1  0.333334  0.666668  0.834867  1
  Pb  Pb8  1  0.333334  0.666668  0.110121  1
  Pb  Pb9  1  0.333334  0.666668  0.389879  1
  Pb  Pb10  1  0.666666  0.333334  0.610121  1
  Pb  Pb11  1  0.666666  0.333334  0.889879  1
