# generated using pymatgen
data_Th3AlCd2PdPt2
_symmetry_space_group_name_H-M   'P 1'
_cell_length_a   7.69620604
_cell_length_b   7.60933258
_cell_length_c   4.05071100
_cell_angle_alpha   90.00000000
_cell_angle_beta   90.00000000
_cell_angle_gamma   119.62729737
_symmetry_Int_Tables_number   1
_chemical_formula_structural   Th3AlCd2PdPt2
_chemical_formula_sum   'Th3 Al1 Cd2 Pd1 Pt2'
_cell_volume   206.20726333
_cell_formula_units_Z   1
loop_
 _symmetry_equiv_pos_site_id
 _symmetry_equiv_pos_as_xyz
  1  'x, y, z'
loop_
 _atom_site_type_symbol
 _atom_site_label
 _atom_site_symmetry_multiplicity
 _atom_site_fract_x
 _atom_site_fract_y
 _atom_site_fract_z
 _atom_site_occupancy
  Th  Th0  1  0.412889  0.413726  0.500000  1
  Th  Th1  1  0.587111  0.000837  0.500000  1
  Th  Th2  1  0.000000  0.576719  0.500000  1
  Al  Al3  1  0.000000  0.243694  0.000000  1
  Cd  Cd4  1  0.758118  0.755360  0.000000  1
  Cd  Cd5  1  0.241882  0.997240  0.000000  1
  Pd  Pd6  1  0.000000  0.039073  0.500000  1
  Pt  Pt7  1  0.681059  0.327205  0.000000  1
  Pt  Pt8  1  0.318941  0.646147  0.000000  1
