# generated using pymatgen
data_ErCu2Bi2(SeO2)2
_symmetry_space_group_name_H-M   'P 1'
_cell_length_a   12.75154980
_cell_length_b   3.88175619
_cell_length_c   3.88175500
_cell_angle_alpha   90.00000000
_cell_angle_beta   98.75485562
_cell_angle_gamma   98.75485430
_symmetry_Int_Tables_number   1
_chemical_formula_structural   ErCu2Bi2(SeO2)2
_chemical_formula_sum   'Er1 Cu2 Bi2 Se2 O4'
_cell_volume   187.63657261
_cell_formula_units_Z   1
loop_
 _symmetry_equiv_pos_site_id
 _symmetry_equiv_pos_as_xyz
  1  'x, y, z'
loop_
 _atom_site_type_symbol
 _atom_site_label
 _atom_site_symmetry_multiplicity
 _atom_site_fract_x
 _atom_site_fract_y
 _atom_site_fract_z
 _atom_site_occupancy
  Er  Er0  1  0.000000  0.000000  0.000000  1
  Cu  Cu1  1  0.500000  0.750000  0.250000  1
  Cu  Cu2  1  0.500000  0.250000  0.750000  1
  Bi  Bi3  1  0.799322  0.399661  0.399661  1
  Bi  Bi4  1  0.200679  0.600338  0.600338  1
  Se  Se5  1  0.377362  0.188681  0.188681  1
  Se  Se6  1  0.622638  0.811318  0.811318  1
  O  O7  1  0.109473  0.554735  0.054736  1
  O  O8  1  0.890527  0.945264  0.445264  1
  O  O9  1  0.109473  0.054736  0.554735  1
  O  O10  1  0.890527  0.445264  0.945264  1
