# generated using pymatgen
data_Pr8Si12PtAu3
_symmetry_space_group_name_H-M   'P 1'
_cell_length_a   8.31645200
_cell_length_b   8.31645276
_cell_length_c   8.74116600
_cell_angle_alpha   90.00000000
_cell_angle_beta   90.00000000
_cell_angle_gamma   120.00000494
_symmetry_Int_Tables_number   1
_chemical_formula_structural   Pr8Si12PtAu3
_chemical_formula_sum   'Pr8 Si12 Pt1 Au3'
_cell_volume   523.57172884
_cell_formula_units_Z   1
loop_
 _symmetry_equiv_pos_site_id
 _symmetry_equiv_pos_as_xyz
  1  'x, y, z'
loop_
 _atom_site_type_symbol
 _atom_site_label
 _atom_site_symmetry_multiplicity
 _atom_site_fract_x
 _atom_site_fract_y
 _atom_site_fract_z
 _atom_site_occupancy
  Pr  Pr0  1  0.501055  0.498945  0.747859  1
  Pr  Pr1  1  0.501449  0.498551  0.252020  1
  Pr  Pr2  1  0.997889  0.498945  0.747859  1
  Pr  Pr3  1  0.997101  0.498551  0.252020  1
  Pr  Pr4  1  0.501055  0.002111  0.747859  1
  Pr  Pr5  1  0.501449  0.002899  0.252020  1
  Pr  Pr6  1  0.000000  0.000000  0.748741  1
  Pr  Pr7  1  0.000000  0.000000  0.251540  1
  Si  Si8  1  0.836215  0.163785  0.001034  1
  Si  Si9  1  0.163907  0.836093  0.999013  1
  Si  Si10  1  0.327570  0.163785  0.001034  1
  Si  Si11  1  0.162641  0.837359  0.499668  1
  Si  Si12  1  0.672185  0.836093  0.999013  1
  Si  Si13  1  0.832359  0.167641  0.500533  1
  Si  Si14  1  0.836215  0.672430  0.001034  1
  Si  Si15  1  0.674717  0.837359  0.499668  1
  Si  Si16  1  0.163907  0.327815  0.999013  1
  Si  Si17  1  0.335282  0.167641  0.500533  1
  Si  Si18  1  0.162641  0.325283  0.499668  1
  Si  Si19  1  0.832359  0.664718  0.500533  1
  Pt  Pt20  1  0.666667  0.333333  0.500375  1
  Au  Au21  1  0.666667  0.333333  0.998519  1
  Au  Au22  1  0.333333  0.666667  0.001081  1
  Au  Au23  1  0.333333  0.666667  0.499361  1
