# generated using pymatgen
data_Y3TmFe4(CoO5)4
_symmetry_space_group_name_H-M   'P 1'
_cell_length_a   5.76556400
_cell_length_b   7.27849324
_cell_length_c   8.50794180
_cell_angle_alpha   89.89177536
_cell_angle_beta   90.00000000
_cell_angle_gamma   90.00000000
_symmetry_Int_Tables_number   1
_chemical_formula_structural   Y3TmFe4(CoO5)4
_chemical_formula_sum   'Y3 Tm1 Fe4 Co4 O20'
_cell_volume   357.03189584
_cell_formula_units_Z   1
loop_
 _symmetry_equiv_pos_site_id
 _symmetry_equiv_pos_as_xyz
  1  'x, y, z'
loop_
 _atom_site_type_symbol
 _atom_site_label
 _atom_site_symmetry_multiplicity
 _atom_site_fract_x
 _atom_site_fract_y
 _atom_site_fract_z
 _atom_site_occupancy
  Y  Y0  1  0.500000  0.633652  0.669103  1
  Y  Y1  1  0.500000  0.134904  0.830147  1
  Y  Y2  1  0.500000  0.865240  0.169888  1
  Tm  Tm3  1  0.500000  0.364617  0.330356  1
  Fe  Fe4  1  0.000000  0.110567  0.147845  1
  Fe  Fe5  1  0.000000  0.890001  0.853367  1
  Fe  Fe6  1  0.000000  0.389834  0.645961  1
  Fe  Fe7  1  0.000000  0.608778  0.352747  1
  Co  Co8  1  0.250521  0.001084  0.499453  1
  Co  Co9  1  0.749479  0.001084  0.499453  1
  Co  Co10  1  0.749387  0.499540  0.000729  1
  Co  Co11  1  0.250613  0.499540  0.000729  1
  O  O12  1  0.233623  0.999831  0.000632  1
  O  O13  1  0.766377  0.999831  0.000632  1
  O  O14  1  0.764231  0.496968  0.498037  1
  O  O15  1  0.235769  0.496968  0.498037  1
  O  O16  1  0.000000  0.353508  0.068145  1
  O  O17  1  0.000000  0.646679  0.932235  1
  O  O18  1  0.000000  0.146307  0.568138  1
  O  O19  1  0.000000  0.853495  0.430117  1
  O  O20  1  0.260311  0.109566  0.298240  1
  O  O21  1  0.740801  0.895039  0.701964  1
  O  O22  1  0.259199  0.895039  0.701964  1
  O  O23  1  0.741197  0.395032  0.797780  1
  O  O24  1  0.739689  0.109566  0.298240  1
  O  O25  1  0.260719  0.602860  0.203253  1
  O  O26  1  0.739281  0.602860  0.203253  1
  O  O27  1  0.258803  0.395032  0.797780  1
  O  O28  1  0.500000  0.341253  0.058851  1
  O  O29  1  0.500000  0.657818  0.944150  1
  O  O30  1  0.500000  0.160349  0.555104  1
  O  O31  1  0.500000  0.843157  0.443669  1
