# generated using pymatgen
data_Np3ScGa12Rh
_symmetry_space_group_name_H-M   'P 1'
_cell_length_a   7.51496178
_cell_length_b   7.41796581
_cell_length_c   7.41796540
_cell_angle_alpha   109.20482503
_cell_angle_beta   109.73631219
_cell_angle_gamma   109.73632486
_symmetry_Int_Tables_number   1
_chemical_formula_structural   Np3ScGa12Rh
_chemical_formula_sum   'Np3 Sc1 Ga12 Rh1'
_cell_volume   317.28035916
_cell_formula_units_Z   1
loop_
 _symmetry_equiv_pos_site_id
 _symmetry_equiv_pos_as_xyz
  1  'x, y, z'
loop_
 _atom_site_type_symbol
 _atom_site_label
 _atom_site_symmetry_multiplicity
 _atom_site_fract_x
 _atom_site_fract_y
 _atom_site_fract_z
 _atom_site_occupancy
  Np  Np0  1  0.500000  0.500000  0.500000  1
  Np  Np1  1  0.000000  0.500000  0.000000  1
  Np  Np2  1  0.000000  0.000000  0.500000  1
  Sc  Sc3  1  0.500000  0.000000  0.000000  1
  Ga  Ga4  1  0.746890  0.246890  0.493779  1
  Ga  Ga5  1  0.002753  0.711191  0.711191  1
  Ga  Ga6  1  0.291562  0.000000  0.288809  1
  Ga  Ga7  1  0.500000  0.246890  0.753110  1
  Ga  Ga8  1  0.746890  0.493779  0.246890  1
  Ga  Ga9  1  0.253110  0.753110  0.506221  1
  Ga  Ga10  1  0.253110  0.506221  0.753110  1
  Ga  Ga11  1  0.708438  0.000000  0.711191  1
  Ga  Ga12  1  0.500000  0.753110  0.246890  1
  Ga  Ga13  1  0.708438  0.711191  0.000000  1
  Ga  Ga14  1  0.291562  0.288809  0.000000  1
  Ga  Ga15  1  0.997247  0.288809  0.288809  1
  Rh  Rh16  1  0.000000  0.000000  0.000000  1
