# generated using pymatgen
data_Sc3Co6SiB2
_symmetry_space_group_name_H-M   'P 1'
_cell_length_a   4.98305800
_cell_length_b   4.98305952
_cell_length_c   13.35705000
_cell_angle_alpha   90.00000000
_cell_angle_beta   90.00000000
_cell_angle_gamma   120.00000315
_symmetry_Int_Tables_number   1
_chemical_formula_structural   Sc3Co6SiB2
_chemical_formula_sum   'Sc6 Co12 Si2 B4'
_cell_volume   287.23224110
_cell_formula_units_Z   2
loop_
 _symmetry_equiv_pos_site_id
 _symmetry_equiv_pos_as_xyz
  1  'x, y, z'
loop_
 _atom_site_type_symbol
 _atom_site_label
 _atom_site_symmetry_multiplicity
 _atom_site_fract_x
 _atom_site_fract_y
 _atom_site_fract_z
 _atom_site_occupancy
  Sc  Sc0  1  0.333333  0.666667  0.250000  1
  Sc  Sc1  1  0.666667  0.333333  0.750000  1
  Sc  Sc2  1  0.333333  0.666667  0.035934  1
  Sc  Sc3  1  0.666667  0.333333  0.535934  1
  Sc  Sc4  1  0.666667  0.333333  0.964066  1
  Sc  Sc5  1  0.333333  0.666667  0.464066  1
  Co  Co6  1  0.832848  0.665696  0.143703  1
  Co  Co7  1  0.167152  0.832848  0.643703  1
  Co  Co8  1  0.665696  0.832848  0.643703  1
  Co  Co9  1  0.334304  0.167152  0.143703  1
  Co  Co10  1  0.832848  0.167152  0.143703  1
  Co  Co11  1  0.167152  0.334304  0.856297  1
  Co  Co12  1  0.167152  0.832848  0.856297  1
  Co  Co13  1  0.167152  0.334304  0.643703  1
  Co  Co14  1  0.665696  0.832848  0.856297  1
  Co  Co15  1  0.334304  0.167152  0.356297  1
  Co  Co16  1  0.832848  0.665696  0.356297  1
  Co  Co17  1  0.832848  0.167152  0.356297  1
  Si  Si18  1  0.000000  0.000000  0.000000  1
  Si  Si19  1  0.000000  0.000000  0.500000  1
  B  B20  1  0.000000  0.000000  0.250000  1
  B  B21  1  0.000000  0.000000  0.750000  1
  B  B22  1  0.333333  0.666667  0.750000  1
  B  B23  1  0.666667  0.333333  0.250000  1
