# generated using pymatgen
data_Er5BeP11Ir19
_symmetry_space_group_name_H-M   'P 1'
_cell_length_a   12.62986755
_cell_length_b   12.69957852
_cell_length_c   3.96211100
_cell_angle_alpha   90.00000000
_cell_angle_beta   90.00000000
_cell_angle_gamma   120.06208229
_symmetry_Int_Tables_number   1
_chemical_formula_structural   Er5BeP11Ir19
_chemical_formula_sum   'Er5 Be1 P11 Ir19'
_cell_volume   550.01349644
_cell_formula_units_Z   1
loop_
 _symmetry_equiv_pos_site_id
 _symmetry_equiv_pos_as_xyz
  1  'x, y, z'
loop_
 _atom_site_type_symbol
 _atom_site_label
 _atom_site_symmetry_multiplicity
 _atom_site_fract_x
 _atom_site_fract_y
 _atom_site_fract_z
 _atom_site_occupancy
  Er  Er0  1  0.667747  0.322340  0.000000  1
  Er  Er1  1  0.333601  0.666550  0.000000  1
  Er  Er2  1  0.817147  0.818693  0.500000  1
  Er  Er3  1  0.183917  0.001199  0.500000  1
  Er  Er4  1  0.993958  0.183267  0.500000  1
  Be  Be5  1  0.684609  0.165102  0.500000  1
  P  P6  1  0.829499  0.512473  0.500000  1
  P  P7  1  0.484675  0.311019  0.500000  1
  P  P8  1  0.174839  0.691972  0.500000  1
  P  P9  1  0.517161  0.827168  0.500000  1
  P  P10  1  0.311173  0.483128  0.500000  1
  P  P11  1  0.644360  0.643005  0.000000  1
  P  P12  1  0.363067  0.004232  0.000000  1
  P  P13  1  0.994620  0.355263  0.000000  1
  P  P14  1  0.175657  0.179769  0.000000  1
  P  P15  1  0.818206  0.999536  0.000000  1
  P  P16  1  0.000023  0.821501  0.000000  1
  Ir  Ir17  1  0.804735  0.178708  0.000000  1
  Ir  Ir18  1  0.819585  0.623554  0.000000  1
  Ir  Ir19  1  0.373919  0.197634  0.000000  1
  Ir  Ir20  1  0.182769  0.807917  0.000000  1
  Ir  Ir21  1  0.622121  0.816471  0.000000  1
  Ir  Ir22  1  0.191604  0.375426  0.000000  1
  Ir  Ir23  1  0.463875  0.461887  0.000000  1
  Ir  Ir24  1  0.551815  0.016344  0.000000  1
  Ir  Ir25  1  0.999321  0.538200  0.000000  1
  Ir  Ir26  1  0.283535  0.284852  0.500000  1
  Ir  Ir27  1  0.712300  0.998624  0.500000  1
  Ir  Ir28  1  0.000106  0.715291  0.500000  1
  Ir  Ir29  1  0.869068  0.358303  0.500000  1
  Ir  Ir30  1  0.640469  0.505534  0.500000  1
  Ir  Ir31  1  0.484864  0.129535  0.500000  1
  Ir  Ir32  1  0.365079  0.871535  0.500000  1
  Ir  Ir33  1  0.506995  0.637463  0.500000  1
  Ir  Ir34  1  0.134594  0.497174  0.500000  1
  Ir  Ir35  1  0.998988  0.999331  0.000000  1
