# generated using pymatgen
data_La2Pr(HgPd)3
_symmetry_space_group_name_H-M   'P 1'
_cell_length_a   7.91811809
_cell_length_b   7.91811856
_cell_length_c   4.00914700
_cell_angle_alpha   90.00000000
_cell_angle_beta   90.00000000
_cell_angle_gamma   120.23105235
_symmetry_Int_Tables_number   1
_chemical_formula_structural   La2Pr(HgPd)3
_chemical_formula_sum   'La2 Pr1 Hg3 Pd3'
_cell_volume   217.17545066
_cell_formula_units_Z   1
loop_
 _symmetry_equiv_pos_site_id
 _symmetry_equiv_pos_as_xyz
  1  'x, y, z'
loop_
 _atom_site_type_symbol
 _atom_site_label
 _atom_site_symmetry_multiplicity
 _atom_site_fract_x
 _atom_site_fract_y
 _atom_site_fract_z
 _atom_site_occupancy
  La  La0  1  0.598898  0.000944  0.500000  1
  La  La1  1  0.000944  0.598898  0.500000  1
  Pr  Pr2  1  0.399136  0.399136  0.500000  1
  Hg  Hg3  1  0.735825  0.735825  0.000000  1
  Hg  Hg4  1  0.261295  0.003130  0.000000  1
  Hg  Hg5  1  0.003130  0.261295  0.000000  1
  Pd  Pd6  1  0.668885  0.333732  0.000000  1
  Pd  Pd7  1  0.333732  0.668885  0.000000  1
  Pd  Pd8  1  0.998155  0.998155  0.500000  1
