# generated using pymatgen
data_NpCl4O
_symmetry_space_group_name_H-M   'P 1'
_cell_length_a   7.17742317
_cell_length_b   7.17742376
_cell_length_c   7.17742372
_cell_angle_alpha   94.66834826
_cell_angle_beta   94.66834456
_cell_angle_gamma   146.84815666
_symmetry_Int_Tables_number   1
_chemical_formula_structural   NpCl4O
_chemical_formula_sum   'Np1 Cl4 O1'
_cell_volume   193.79731379
_cell_formula_units_Z   1
loop_
 _symmetry_equiv_pos_site_id
 _symmetry_equiv_pos_as_xyz
  1  'x, y, z'
loop_
 _atom_site_type_symbol
 _atom_site_label
 _atom_site_symmetry_multiplicity
 _atom_site_fract_x
 _atom_site_fract_y
 _atom_site_fract_z
 _atom_site_occupancy
  Np  Np0  1  0.934809  0.934809  0.000000  1
  Cl  Cl1  1  0.178022  0.994727  0.308371  1
  Cl  Cl2  1  0.686355  0.869650  0.691629  1
  Cl  Cl3  1  0.869650  0.178022  0.183295  1
  Cl  Cl4  1  0.994727  0.686355  0.816705  1
  O  O5  1  0.435637  0.435637  0.000000  1
