# generated using pymatgen
data_Tb15DyZnIn3Rh4
_symmetry_space_group_name_H-M   'P 1'
_cell_length_a   9.66983953
_cell_length_b   9.67079465
_cell_length_c   9.67572937
_cell_angle_alpha   60.01687019
_cell_angle_beta   60.06804682
_cell_angle_gamma   59.99672431
_symmetry_Int_Tables_number   1
_chemical_formula_structural   Tb15DyZnIn3Rh4
_chemical_formula_sum   'Tb15 Dy1 Zn1 In3 Rh4'
_cell_volume   640.20287276
_cell_formula_units_Z   1
loop_
 _symmetry_equiv_pos_site_id
 _symmetry_equiv_pos_as_xyz
  1  'x, y, z'
loop_
 _atom_site_type_symbol
 _atom_site_label
 _atom_site_symmetry_multiplicity
 _atom_site_fract_x
 _atom_site_fract_y
 _atom_site_fract_z
 _atom_site_occupancy
  Tb  Tb0  1  0.689936  0.308692  0.311981  1
  Tb  Tb1  1  0.689936  0.689391  0.311981  1
  Tb  Tb2  1  0.310913  0.689395  0.310297  1
  Tb  Tb3  1  0.936890  0.937148  0.556930  1
  Tb  Tb4  1  0.148218  0.150806  0.550169  1
  Tb  Tb5  1  0.566135  0.938821  0.556223  1
  Tb  Tb6  1  0.149578  0.151951  0.150146  1
  Tb  Tb7  1  0.311118  0.308117  0.690885  1
  Tb  Tb8  1  0.936890  0.569031  0.556930  1
  Tb  Tb9  1  0.562945  0.563510  0.935429  1
  Tb  Tb10  1  0.562945  0.938116  0.935429  1
  Tb  Tb11  1  0.936820  0.564747  0.933685  1
  Tb  Tb12  1  0.149578  0.548323  0.150146  1
  Tb  Tb13  1  0.311118  0.689880  0.690885  1
  Tb  Tb14  1  0.690549  0.309223  0.691004  1
  Dy  Dy15  1  0.551694  0.150028  0.148248  1
  Zn  Zn16  1  0.916992  0.916082  0.250845  1
  In  In17  1  0.242082  0.916940  0.924037  1
  In  In18  1  0.917620  0.242588  0.923060  1
  In  In19  1  0.917620  0.916732  0.923060  1
  Rh  Rh20  1  0.358041  0.356733  0.356986  1
  Rh  Rh21  1  0.926100  0.357996  0.357910  1
  Rh  Rh22  1  0.358237  0.357509  0.926744  1
  Rh  Rh23  1  0.358041  0.928242  0.356986  1
