# generated using pymatgen
data_Be(VTe)4
_symmetry_space_group_name_H-M   'P 1'
_cell_length_a   4.46823200
_cell_length_b   10.51227600
_cell_length_c   18.30985600
_cell_angle_alpha   90.00000000
_cell_angle_beta   90.00000000
_cell_angle_gamma   90.00000000
_symmetry_Int_Tables_number   1
_chemical_formula_structural   Be(VTe)4
_chemical_formula_sum   'Be4 V16 Te16'
_cell_volume   860.03751971
_cell_formula_units_Z   4
loop_
 _symmetry_equiv_pos_site_id
 _symmetry_equiv_pos_as_xyz
  1  'x, y, z'
loop_
 _atom_site_type_symbol
 _atom_site_label
 _atom_site_symmetry_multiplicity
 _atom_site_fract_x
 _atom_site_fract_y
 _atom_site_fract_z
 _atom_site_occupancy
  Be  Be0  1  0.250007  0.500000  0.500000  1
  Be  Be1  1  0.749993  0.000000  0.000000  1
  Be  Be2  1  0.749993  0.500000  0.500000  1
  Be  Be3  1  0.250007  0.000000  0.000000  1
  V  V4  1  0.500000  0.560028  0.389364  1
  V  V5  1  0.500000  0.439972  0.610636  1
  V  V6  1  0.500000  0.060028  0.110636  1
  V  V7  1  0.500000  0.939972  0.889364  1
  V  V8  1  0.500000  0.693772  0.534278  1
  V  V9  1  0.500000  0.306228  0.465722  1
  V  V10  1  0.500000  0.193772  0.965722  1
  V  V11  1  0.500000  0.806228  0.034278  1
  V  V12  1  0.000000  0.679097  0.445502  1
  V  V13  1  0.000000  0.320903  0.554498  1
  V  V14  1  0.000000  0.179097  0.054498  1
  V  V15  1  0.000000  0.820903  0.945502  1
  V  V16  1  0.000000  0.405913  0.397569  1
  V  V17  1  0.000000  0.594087  0.602431  1
  V  V18  1  0.000000  0.905913  0.102431  1
  V  V19  1  0.000000  0.094087  0.897569  1
  Te  Te20  1  0.000000  0.841191  0.560603  1
  Te  Te21  1  0.000000  0.158809  0.439397  1
  Te  Te22  1  0.000000  0.341191  0.939397  1
  Te  Te23  1  0.000000  0.658809  0.060603  1
  Te  Te24  1  0.500000  0.334234  0.319076  1
  Te  Te25  1  0.500000  0.665766  0.680924  1
  Te  Te26  1  0.500000  0.834234  0.180924  1
  Te  Te27  1  0.500000  0.165766  0.819076  1
  Te  Te28  1  0.500000  0.816290  0.404206  1
  Te  Te29  1  0.500000  0.183710  0.595794  1
  Te  Te30  1  0.500000  0.316290  0.095794  1
  Te  Te31  1  0.500000  0.683710  0.904206  1
  Te  Te32  1  0.000000  0.604959  0.304274  1
  Te  Te33  1  0.000000  0.395041  0.695726  1
  Te  Te34  1  0.000000  0.104959  0.195726  1
  Te  Te35  1  0.000000  0.895041  0.804274  1
