# generated using pymatgen
data_Li4LaPt2
_symmetry_space_group_name_H-M   'P 1'
_cell_length_a   7.68303600
_cell_length_b   7.68303600
_cell_length_c   4.23258900
_cell_angle_alpha   90.00000000
_cell_angle_beta   90.00000000
_cell_angle_gamma   90.00000000
_symmetry_Int_Tables_number   1
_chemical_formula_structural   Li4LaPt2
_chemical_formula_sum   'Li8 La2 Pt4'
_cell_volume   249.84567460
_cell_formula_units_Z   2
loop_
 _symmetry_equiv_pos_site_id
 _symmetry_equiv_pos_as_xyz
  1  'x, y, z'
loop_
 _atom_site_type_symbol
 _atom_site_label
 _atom_site_symmetry_multiplicity
 _atom_site_fract_x
 _atom_site_fract_y
 _atom_site_fract_z
 _atom_site_occupancy
  Li  Li0  1  0.346907  0.094841  0.500000  1
  Li  Li1  1  0.653093  0.905159  0.500000  1
  Li  Li2  1  0.846907  0.405159  0.000000  1
  Li  Li3  1  0.153093  0.594841  0.000000  1
  Li  Li4  1  0.094841  0.346907  0.500000  1
  Li  Li5  1  0.905159  0.653093  0.500000  1
  Li  Li6  1  0.405159  0.846907  0.000000  1
  Li  Li7  1  0.594841  0.153093  0.000000  1
  La  La8  1  0.500000  0.500000  0.500000  1
  La  La9  1  0.000000  0.000000  0.000000  1
  Pt  Pt10  1  0.786637  0.213363  0.500000  1
  Pt  Pt11  1  0.213363  0.786637  0.500000  1
  Pt  Pt12  1  0.286637  0.286637  0.000000  1
  Pt  Pt13  1  0.713363  0.713363  0.000000  1
