# generated using pymatgen
data_Dy6Ho6Os3Rh
_symmetry_space_group_name_H-M   'P 1'
_cell_length_a   6.36089614
_cell_length_b   7.35481031
_cell_length_c   9.06851262
_cell_angle_alpha   90.00343893
_cell_angle_beta   90.06839338
_cell_angle_gamma   90.22163564
_symmetry_Int_Tables_number   1
_chemical_formula_structural   Dy6Ho6Os3Rh
_chemical_formula_sum   'Dy6 Ho6 Os3 Rh1'
_cell_volume   424.25042196
_cell_formula_units_Z   1
loop_
 _symmetry_equiv_pos_site_id
 _symmetry_equiv_pos_as_xyz
  1  'x, y, z'
loop_
 _atom_site_type_symbol
 _atom_site_label
 _atom_site_symmetry_multiplicity
 _atom_site_fract_x
 _atom_site_fract_y
 _atom_site_fract_z
 _atom_site_occupancy
  Dy  Dy0  1  0.333973  0.673629  0.061574  1
  Dy  Dy1  1  0.169291  0.177880  0.438191  1
  Dy  Dy2  1  0.869325  0.538122  0.250089  1
  Dy  Dy3  1  0.630404  0.040046  0.249939  1
  Dy  Dy4  1  0.129712  0.461652  0.749983  1
  Dy  Dy5  1  0.369240  0.961647  0.749998  1
  Ho  Ho6  1  0.669366  0.324286  0.563688  1
  Ho  Ho7  1  0.827560  0.823879  0.933551  1
  Ho  Ho8  1  0.669433  0.324141  0.936356  1
  Ho  Ho9  1  0.827520  0.823696  0.566411  1
  Ho  Ho10  1  0.334061  0.673421  0.438506  1
  Ho  Ho11  1  0.169292  0.177697  0.061718  1
  Os  Os12  1  0.459591  0.383680  0.249986  1
  Os  Os13  1  0.960771  0.115357  0.750236  1
  Os  Os14  1  0.539270  0.616466  0.749800  1
  Rh  Rh15  1  0.041191  0.884404  0.249973  1
