# generated using pymatgen
data_V4ZnTe8
_symmetry_space_group_name_H-M   'P 1'
_cell_length_a   7.81908367
_cell_length_b   7.81908449
_cell_length_c   7.81908500
_cell_angle_alpha   60.00000208
_cell_angle_beta   59.99999861
_cell_angle_gamma   60.00000255
_symmetry_Int_Tables_number   1
_chemical_formula_structural   V4ZnTe8
_chemical_formula_sum   'V4 Zn1 Te8'
_cell_volume   338.02802954
_cell_formula_units_Z   1
loop_
 _symmetry_equiv_pos_site_id
 _symmetry_equiv_pos_as_xyz
  1  'x, y, z'
loop_
 _atom_site_type_symbol
 _atom_site_label
 _atom_site_symmetry_multiplicity
 _atom_site_fract_x
 _atom_site_fract_y
 _atom_site_fract_z
 _atom_site_occupancy
  V  V0  1  0.426960  0.857680  0.857680  1
  V  V1  1  0.857680  0.426960  0.857680  1
  V  V2  1  0.857680  0.857680  0.857680  1
  V  V3  1  0.857680  0.857680  0.426960  1
  Zn  Zn4  1  0.250000  0.250000  0.250000  1
  Te  Te5  1  0.618932  0.618932  0.143203  1
  Te  Te6  1  0.618932  0.618932  0.618932  1
  Te  Te7  1  0.112397  0.112397  0.662807  1
  Te  Te8  1  0.112397  0.112397  0.112397  1
  Te  Te9  1  0.618932  0.143203  0.618932  1
  Te  Te10  1  0.143203  0.618932  0.618932  1
  Te  Te11  1  0.112397  0.662807  0.112397  1
  Te  Te12  1  0.662807  0.112397  0.112397  1
