# generated using pymatgen
data_Tb3GaAg2Pd3
_symmetry_space_group_name_H-M   'P 1'
_cell_length_a   7.35645500
_cell_length_b   7.46746210
_cell_length_c   3.91443200
_cell_angle_alpha   90.00000000
_cell_angle_beta   90.00000000
_cell_angle_gamma   119.50947485
_symmetry_Int_Tables_number   1
_chemical_formula_structural   Tb3GaAg2Pd3
_chemical_formula_sum   'Tb3 Ga1 Ag2 Pd3'
_cell_volume   187.13994519
_cell_formula_units_Z   1
loop_
 _symmetry_equiv_pos_site_id
 _symmetry_equiv_pos_as_xyz
  1  'x, y, z'
loop_
 _atom_site_type_symbol
 _atom_site_label
 _atom_site_symmetry_multiplicity
 _atom_site_fract_x
 _atom_site_fract_y
 _atom_site_fract_z
 _atom_site_occupancy
  Tb  Tb0  1  0.398141  0.403694  0.500000  1
  Tb  Tb1  1  0.596177  0.000000  0.500000  1
  Tb  Tb2  1  0.994447  0.596306  0.500000  1
  Ga  Ga3  1  0.260658  0.000000  0.000000  1
  Ag  Ag4  1  0.995615  0.250970  0.000000  1
  Ag  Ag5  1  0.744646  0.749030  0.000000  1
  Pd  Pd6  1  0.652600  0.328451  0.000000  1
  Pd  Pd7  1  0.033568  0.000000  0.500000  1
  Pd  Pd8  1  0.324148  0.671549  0.000000  1
