# generated using pymatgen
data_CeDy(CoC2)2
_symmetry_space_group_name_H-M   'P 1'
_cell_length_a   3.71230172
_cell_length_b   3.68921337
_cell_length_c   7.35898272
_cell_angle_alpha   82.44587455
_cell_angle_beta   82.43723405
_cell_angle_gamma   90.07727068
_symmetry_Int_Tables_number   1
_chemical_formula_structural   CeDy(CoC2)2
_chemical_formula_sum   'Ce1 Dy1 Co2 C4'
_cell_volume   99.02312197
_cell_formula_units_Z   1
loop_
 _symmetry_equiv_pos_site_id
 _symmetry_equiv_pos_as_xyz
  1  'x, y, z'
loop_
 _atom_site_type_symbol
 _atom_site_label
 _atom_site_symmetry_multiplicity
 _atom_site_fract_x
 _atom_site_fract_y
 _atom_site_fract_z
 _atom_site_occupancy
  Ce  Ce0  1  0.932071  0.065856  0.499280  1
  Dy  Dy1  1  0.066876  0.930687  0.001822  1
  Co  Co2  1  0.371528  0.511887  0.694655  1
  Co  Co3  1  0.510412  0.374768  0.192520  1
  C  C4  1  0.444851  0.593988  0.427329  1
  C  C5  1  0.592195  0.443352  0.928998  1
  C  C6  1  0.490524  0.856786  0.270860  1
  C  C7  1  0.858541  0.489675  0.778336  1
