# generated using pymatgen
data_LuCo4P3W
_symmetry_space_group_name_H-M   'P 1'
_cell_length_a   3.68661500
_cell_length_b   10.37648500
_cell_length_c   11.81748200
_cell_angle_alpha   90.00000000
_cell_angle_beta   90.00000000
_cell_angle_gamma   90.00000000
_symmetry_Int_Tables_number   1
_chemical_formula_structural   LuCo4P3W
_chemical_formula_sum   'Lu4 Co16 P12 W4'
_cell_volume   452.06720020
_cell_formula_units_Z   4
loop_
 _symmetry_equiv_pos_site_id
 _symmetry_equiv_pos_as_xyz
  1  'x, y, z'
loop_
 _atom_site_type_symbol
 _atom_site_label
 _atom_site_symmetry_multiplicity
 _atom_site_fract_x
 _atom_site_fract_y
 _atom_site_fract_z
 _atom_site_occupancy
  Lu  Lu0  1  0.250000  0.582892  0.704629  1
  Lu  Lu1  1  0.250000  0.917108  0.204629  1
  Lu  Lu2  1  0.750000  0.417108  0.295371  1
  Lu  Lu3  1  0.750000  0.082892  0.795371  1
  Co  Co4  1  0.250000  0.405689  0.488247  1
  Co  Co5  1  0.250000  0.094311  0.988247  1
  Co  Co6  1  0.750000  0.594311  0.511753  1
  Co  Co7  1  0.750000  0.905689  0.011753  1
  Co  Co8  1  0.250000  0.222659  0.178547  1
  Co  Co9  1  0.250000  0.277341  0.678547  1
  Co  Co10  1  0.750000  0.777341  0.821453  1
  Co  Co11  1  0.750000  0.722659  0.321453  1
  Co  Co12  1  0.250000  0.888730  0.701272  1
  Co  Co13  1  0.250000  0.611270  0.201272  1
  Co  Co14  1  0.750000  0.111270  0.298728  1
  Co  Co15  1  0.750000  0.388730  0.798728  1
  Co  Co16  1  0.250000  0.465464  0.933034  1
  Co  Co17  1  0.250000  0.034536  0.433034  1
  Co  Co18  1  0.750000  0.534536  0.066966  1
  Co  Co19  1  0.750000  0.965464  0.566966  1
  P  P20  1  0.250000  0.420048  0.116726  1
  P  P21  1  0.250000  0.079952  0.616726  1
  P  P22  1  0.750000  0.579952  0.883274  1
  P  P23  1  0.750000  0.920048  0.383274  1
  P  P24  1  0.250000  0.266750  0.864788  1
  P  P25  1  0.250000  0.233250  0.364788  1
  P  P26  1  0.750000  0.733250  0.135212  1
  P  P27  1  0.750000  0.766750  0.635212  1
  P  P28  1  0.250000  0.593029  0.390226  1
  P  P29  1  0.250000  0.906971  0.890226  1
  P  P30  1  0.750000  0.406971  0.609774  1
  P  P31  1  0.750000  0.093029  0.109774  1
  W  W32  1  0.250000  0.709553  0.987381  1
  W  W33  1  0.250000  0.790447  0.487381  1
  W  W34  1  0.750000  0.290447  0.012619  1
  W  W35  1  0.750000  0.209553  0.512619  1
