# generated using pymatgen
data_Er3ThAl17GaIr6
_symmetry_space_group_name_H-M   'P 1'
_cell_length_a   7.56426472
_cell_length_b   7.58118116
_cell_length_c   9.48014900
_cell_angle_alpha   90.00000000
_cell_angle_beta   90.00000000
_cell_angle_gamma   119.59164429
_symmetry_Int_Tables_number   1
_chemical_formula_structural   Er3ThAl17GaIr6
_chemical_formula_sum   'Er3 Th1 Al17 Ga1 Ir6'
_cell_volume   472.73938280
_cell_formula_units_Z   1
loop_
 _symmetry_equiv_pos_site_id
 _symmetry_equiv_pos_as_xyz
  1  'x, y, z'
loop_
 _atom_site_type_symbol
 _atom_site_label
 _atom_site_symmetry_multiplicity
 _atom_site_fract_x
 _atom_site_fract_y
 _atom_site_fract_z
 _atom_site_occupancy
  Er  Er0  1  0.001659  0.329237  0.250000  1
  Er  Er1  1  0.672491  0.998243  0.750000  1
  Er  Er2  1  0.329399  0.004825  0.250000  1
  Th  Th3  1  0.991107  0.666141  0.750000  1
  Al  Al4  1  0.129363  0.129801  0.750000  1
  Al  Al5  1  0.872812  0.875706  0.250000  1
  Al  Al6  1  0.003020  0.330392  0.571560  1
  Al  Al7  1  0.000420  0.665213  0.418331  1
  Al  Al8  1  0.000420  0.665213  0.081669  1
  Al  Al9  1  0.338969  0.004551  0.928276  1
  Al  Al10  1  0.003020  0.330392  0.928440  1
  Al  Al11  1  0.665276  0.000930  0.075892  1
  Al  Al12  1  0.665276  0.000930  0.424108  1
  Al  Al13  1  0.338969  0.004551  0.571724  1
  Al  Al14  1  0.331859  0.331572  0.059812  1
  Al  Al15  1  0.662714  0.666788  0.957000  1
  Al  Al16  1  0.662714  0.666788  0.543000  1
  Al  Al17  1  0.331859  0.331572  0.440188  1
  Al  Al18  1  0.346666  0.551164  0.750000  1
  Al  Al19  1  0.658979  0.449513  0.250000  1
  Al  Al20  1  0.450062  0.661981  0.250000  1
  Ga  Ga21  1  0.537765  0.335792  0.750000  1
  Ir  Ir22  1  0.674569  0.329555  0.498480  1
  Ir  Ir23  1  0.327230  0.671251  0.500333  1
  Ir  Ir24  1  0.327230  0.671251  0.999667  1
  Ir  Ir25  1  0.674569  0.329555  0.001520  1
  Ir  Ir26  1  0.000790  0.998547  0.500375  1
  Ir  Ir27  1  0.000790  0.998547  0.999625  1
