# generated using pymatgen
data_Ho6Al24Os3Ru3PtAu
_symmetry_space_group_name_H-M   'P 1'
_cell_length_a   8.77651530
_cell_length_b   8.81299769
_cell_length_c   9.53883900
_cell_angle_alpha   90.21987388
_cell_angle_beta   89.65915512
_cell_angle_gamma   119.56023525
_symmetry_Int_Tables_number   1
_chemical_formula_structural   Ho6Al24Os3Ru3PtAu
_chemical_formula_sum   'Ho6 Al24 Os3 Ru3 Pt1 Au1'
_cell_volume   641.75832548
_cell_formula_units_Z   1
loop_
 _symmetry_equiv_pos_site_id
 _symmetry_equiv_pos_as_xyz
  1  'x, y, z'
loop_
 _atom_site_type_symbol
 _atom_site_label
 _atom_site_symmetry_multiplicity
 _atom_site_fract_x
 _atom_site_fract_y
 _atom_site_fract_z
 _atom_site_occupancy
  Ho  Ho0  1  0.192311  0.385519  0.249699  1
  Ho  Ho1  1  0.807689  0.614481  0.750301  1
  Ho  Ho2  1  0.610749  0.810479  0.250412  1
  Ho  Ho3  1  0.389251  0.189521  0.749588  1
  Ho  Ho4  1  0.197082  0.809530  0.247240  1
  Ho  Ho5  1  0.802918  0.190470  0.752760  1
  Al  Al6  1  0.337080  0.669083  0.026049  1
  Al  Al7  1  0.662920  0.330917  0.973951  1
  Al  Al8  1  0.674071  0.329209  0.528250  1
  Al  Al9  1  0.325929  0.670791  0.471750  1
  Al  Al10  1  0.150722  0.321908  0.578935  1
  Al  Al11  1  0.849278  0.678092  0.421065  1
  Al  Al12  1  0.676779  0.847016  0.578814  1
  Al  Al13  1  0.832769  0.676281  0.077045  1
  Al  Al14  1  0.323221  0.152984  0.421186  1
  Al  Al15  1  0.167231  0.323719  0.922955  1
  Al  Al16  1  0.162665  0.835674  0.578550  1
  Al  Al17  1  0.326568  0.164768  0.075562  1
  Al  Al18  1  0.837335  0.164326  0.421450  1
  Al  Al19  1  0.673432  0.835232  0.924438  1
  Al  Al20  1  0.833097  0.159226  0.078569  1
  Al  Al21  1  0.166903  0.840774  0.921431  1
  Al  Al22  1  0.561289  0.124711  0.250442  1
  Al  Al23  1  0.438711  0.875289  0.749558  1
  Al  Al24  1  0.877059  0.439262  0.254013  1
  Al  Al25  1  0.122941  0.560738  0.745987  1
  Al  Al26  1  0.563898  0.435585  0.243644  1
  Al  Al27  1  0.436102  0.564415  0.756356  1
  Al  Al28  1  0.999410  0.002544  0.249688  1
  Al  Al29  1  0.000590  0.997456  0.750312  1
  Os  Os30  1  0.500000  0.000000  0.000000  1
  Os  Os31  1  0.500000  0.000000  0.500000  1
  Os  Os32  1  0.500000  0.500000  0.000000  1
  Ru  Ru33  1  0.000000  0.500000  0.500000  1
  Ru  Ru34  1  0.000000  0.000000  0.000000  1
  Ru  Ru35  1  0.000000  0.000000  0.500000  1
  Pt  Pt36  1  0.000000  0.500000  0.000000  1
  Au  Au37  1  0.500000  0.500000  0.500000  1
