# generated using pymatgen
data_Dy4Tm12In3HgRh4
_symmetry_space_group_name_H-M   'P 1'
_cell_length_a   9.54957773
_cell_length_b   9.53959291
_cell_length_c   9.54236674
_cell_angle_alpha   60.11263419
_cell_angle_beta   59.98511991
_cell_angle_gamma   60.03115630
_symmetry_Int_Tables_number   1
_chemical_formula_structural   Dy4Tm12In3HgRh4
_chemical_formula_sum   'Dy4 Tm12 In3 Hg1 Rh4'
_cell_volume   615.28566990
_cell_formula_units_Z   1
loop_
 _symmetry_equiv_pos_site_id
 _symmetry_equiv_pos_as_xyz
  1  'x, y, z'
loop_
 _atom_site_type_symbol
 _atom_site_label
 _atom_site_symmetry_multiplicity
 _atom_site_fract_x
 _atom_site_fract_y
 _atom_site_fract_z
 _atom_site_occupancy
  Dy  Dy0  1  0.061896  0.062030  0.438097  1
  Dy  Dy1  1  0.436753  0.066412  0.435010  1
  Dy  Dy2  1  0.063448  0.437742  0.062467  1
  Dy  Dy3  1  0.051955  0.648114  0.648897  1
  Tm  Tm4  1  0.438284  0.437240  0.063978  1
  Tm  Tm5  1  0.648050  0.051662  0.647810  1
  Tm  Tm6  1  0.188805  0.813455  0.188002  1
  Tm  Tm7  1  0.188207  0.187870  0.814428  1
  Tm  Tm8  1  0.810408  0.810449  0.190696  1
  Tm  Tm9  1  0.440923  0.060245  0.059186  1
  Tm  Tm10  1  0.813510  0.188627  0.188248  1
  Tm  Tm11  1  0.065028  0.437956  0.437051  1
  Tm  Tm12  1  0.809739  0.190629  0.811127  1
  Tm  Tm13  1  0.190479  0.810464  0.811894  1
  Tm  Tm14  1  0.648539  0.647528  0.052000  1
  Tm  Tm15  1  0.651539  0.652336  0.651820  1
  In  In16  1  0.746420  0.417796  0.418571  1
  In  In17  1  0.418586  0.746414  0.417417  1
  In  In18  1  0.418597  0.416792  0.747215  1
  Hg  Hg19  1  0.413268  0.414291  0.413135  1
  Rh  Rh20  1  0.857710  0.858667  0.425841  1
  Rh  Rh21  1  0.853949  0.859000  0.858645  1
  Rh  Rh22  1  0.427343  0.858126  0.859412  1
  Rh  Rh23  1  0.856560  0.426152  0.859048  1
