# generated using pymatgen
data_TbU2Ni3Bi4
_symmetry_space_group_name_H-M   'P 1'
_cell_length_a   8.35306006
_cell_length_b   8.35305965
_cell_length_c   8.35306024
_cell_angle_alpha   109.42923710
_cell_angle_beta   109.42923290
_cell_angle_gamma   109.55522516
_symmetry_Int_Tables_number   1
_chemical_formula_structural   TbU2Ni3Bi4
_chemical_formula_sum   'Tb2 U4 Ni6 Bi8'
_cell_volume   448.65675007
_cell_formula_units_Z   2
loop_
 _symmetry_equiv_pos_site_id
 _symmetry_equiv_pos_as_xyz
  1  'x, y, z'
loop_
 _atom_site_type_symbol
 _atom_site_label
 _atom_site_symmetry_multiplicity
 _atom_site_fract_x
 _atom_site_fract_y
 _atom_site_fract_z
 _atom_site_occupancy
  Tb  Tb0  1  0.125000  0.875000  0.250000  1
  Tb  Tb1  1  0.375000  0.625000  0.750000  1
  U  U2  1  0.875460  0.250000  0.125460  1
  U  U3  1  0.624540  0.750000  0.374540  1
  U  U4  1  0.250000  0.124540  0.874540  1
  U  U5  1  0.750000  0.375460  0.625460  1
  Ni  Ni6  1  0.625000  0.375000  0.250000  1
  Ni  Ni7  1  0.875000  0.125000  0.750000  1
  Ni  Ni8  1  0.377921  0.250000  0.627921  1
  Ni  Ni9  1  0.122079  0.750000  0.872079  1
  Ni  Ni10  1  0.250000  0.622079  0.372079  1
  Ni  Ni11  1  0.750000  0.877921  0.127921  1
  Bi  Bi12  1  0.333725  0.334447  0.335146  1
  Bi  Bi13  1  0.166275  0.501421  0.000722  1
  Bi  Bi14  1  0.000699  0.165553  0.499278  1
  Bi  Bi15  1  0.834447  0.833725  0.835146  1
  Bi  Bi16  1  0.499301  0.998579  0.164854  1
  Bi  Bi17  1  0.665553  0.500699  0.999278  1
  Bi  Bi18  1  0.498579  0.999301  0.664854  1
  Bi  Bi19  1  0.001421  0.666275  0.500722  1
