# generated using pymatgen
data_Pr9SmTlSi5
_symmetry_space_group_name_H-M   'P 1'
_cell_length_a   7.80749489
_cell_length_b   7.80749499
_cell_length_c   9.25760500
_cell_angle_alpha   114.94071068
_cell_angle_beta   114.94071102
_cell_angle_gamma   89.99999823
_symmetry_Int_Tables_number   1
_chemical_formula_structural   Pr9SmTlSi5
_chemical_formula_sum   'Pr9 Sm1 Tl1 Si5'
_cell_volume   452.99173303
_cell_formula_units_Z   1
loop_
 _symmetry_equiv_pos_site_id
 _symmetry_equiv_pos_as_xyz
  1  'x, y, z'
loop_
 _atom_site_type_symbol
 _atom_site_label
 _atom_site_symmetry_multiplicity
 _atom_site_fract_x
 _atom_site_fract_y
 _atom_site_fract_z
 _atom_site_occupancy
  Pr  Pr0  1  0.974231  0.974231  0.948463  1
  Pr  Pr1  1  0.976632  0.828859  0.279591  1
  Pr  Pr2  1  0.302958  0.450731  0.279591  1
  Pr  Pr3  1  0.828859  0.302958  0.279591  1
  Pr  Pr4  1  0.450731  0.976632  0.279591  1
  Pr  Pr5  1  0.049674  0.198263  0.721122  1
  Pr  Pr6  1  0.671449  0.522860  0.721122  1
  Pr  Pr7  1  0.198263  0.671449  0.721122  1
  Pr  Pr8  1  0.522860  0.049674  0.721122  1
  Sm  Sm9  1  0.522542  0.522542  0.045086  1
  Tl  Tl10  1  0.747920  0.747920  0.495840  1
  Si  Si11  1  0.250816  0.250816  0.501633  1
  Si  Si12  1  0.615412  0.883428  0.001532  1
  Si  Si13  1  0.386120  0.118104  0.001532  1
  Si  Si14  1  0.883428  0.386120  0.001532  1
  Si  Si15  1  0.118104  0.615412  0.001532  1
