# generated using pymatgen
data_Tb2Ti3P7Ir2Rh7
_symmetry_space_group_name_H-M   'P 1'
_cell_length_a   3.84423700
_cell_length_b   9.68294975
_cell_length_c   9.68068411
_cell_angle_alpha   119.91279119
_cell_angle_beta   90.00000132
_cell_angle_gamma   89.99982212
_symmetry_Int_Tables_number   1
_chemical_formula_structural   Tb2Ti3P7Ir2Rh7
_chemical_formula_sum   'Tb2 Ti3 P7 Ir2 Rh7'
_cell_volume   312.34566978
_cell_formula_units_Z   1
loop_
 _symmetry_equiv_pos_site_id
 _symmetry_equiv_pos_as_xyz
  1  'x, y, z'
loop_
 _atom_site_type_symbol
 _atom_site_label
 _atom_site_symmetry_multiplicity
 _atom_site_fract_x
 _atom_site_fract_y
 _atom_site_fract_z
 _atom_site_occupancy
  Tb  Tb0  1  0.261753  0.666397  0.333239  1
  Tb  Tb1  1  0.761789  0.333298  0.666905  1
  Ti  Ti2  1  0.762004  0.100046  0.878511  1
  Ti  Ti3  1  0.761997  0.121271  0.221465  1
  Ti  Ti4  1  0.762002  0.778362  0.900112  1
  P  P5  1  0.262366  0.001166  0.000374  1
  P  P6  1  0.761836  0.875682  0.588674  1
  P  P7  1  0.761848  0.410342  0.286975  1
  P  P8  1  0.761803  0.712539  0.124208  1
  P  P9  1  0.261893  0.116985  0.416774  1
  P  P10  1  0.261884  0.582798  0.699048  1
  P  P11  1  0.261861  0.301055  0.884460  1
  Ir  Ir12  1  0.261793  0.884063  0.159145  1
  Ir  Ir13  1  0.261877  0.840937  0.725288  1
  Rh  Rh14  1  0.261903  0.275060  0.115458  1
  Rh  Rh15  1  0.761926  0.609295  0.557541  1
  Rh  Rh16  1  0.761892  0.442208  0.052163  1
  Rh  Rh17  1  0.761855  0.947645  0.390770  1
  Rh  Rh18  1  0.261939  0.365321  0.436537  1
  Rh  Rh19  1  0.261920  0.562579  0.927018  1
  Rh  Rh20  1  0.261859  0.072949  0.635338  1
