# generated using pymatgen
data_ThAl10CrRh
_symmetry_space_group_name_H-M   'P 1'
_cell_length_a   6.88816052
_cell_length_b   6.88816030
_cell_length_c   9.20609325
_cell_angle_alpha   90.65519965
_cell_angle_beta   90.65519589
_cell_angle_gamma   97.26636316
_symmetry_Int_Tables_number   1
_chemical_formula_structural   ThAl10CrRh
_chemical_formula_sum   'Th2 Al20 Cr2 Rh2'
_cell_volume   433.22638132
_cell_formula_units_Z   2
loop_
 _symmetry_equiv_pos_site_id
 _symmetry_equiv_pos_as_xyz
  1  'x, y, z'
loop_
 _atom_site_type_symbol
 _atom_site_label
 _atom_site_symmetry_multiplicity
 _atom_site_fract_x
 _atom_site_fract_y
 _atom_site_fract_z
 _atom_site_occupancy
  Th  Th0  1  0.874288  0.125712  0.750000  1
  Th  Th1  1  0.125712  0.874288  0.250000  1
  Al  Al2  1  0.519723  0.776897  0.743850  1
  Al  Al3  1  0.480277  0.223103  0.256150  1
  Al  Al4  1  0.594282  0.863446  0.252758  1
  Al  Al5  1  0.776755  0.771685  0.002430  1
  Al  Al6  1  0.163448  0.843723  0.600739  1
  Al  Al7  1  0.223245  0.228315  0.997570  1
  Al  Al8  1  0.136554  0.405718  0.247242  1
  Al  Al9  1  0.625852  0.381714  0.950706  1
  Al  Al10  1  0.843723  0.163448  0.100739  1
  Al  Al11  1  0.381714  0.625852  0.450706  1
  Al  Al12  1  0.156277  0.836552  0.899261  1
  Al  Al13  1  0.223103  0.480277  0.756150  1
  Al  Al14  1  0.374148  0.618286  0.049294  1
  Al  Al15  1  0.836552  0.156277  0.399261  1
  Al  Al16  1  0.618286  0.374148  0.549294  1
  Al  Al17  1  0.405718  0.136554  0.747242  1
  Al  Al18  1  0.776897  0.519723  0.243850  1
  Al  Al19  1  0.771685  0.776755  0.502430  1
  Al  Al20  1  0.228315  0.223245  0.497570  1
  Al  Al21  1  0.863446  0.594282  0.752758  1
  Cr  Cr22  1  0.000000  0.500000  0.000000  1
  Cr  Cr23  1  0.500000  0.000000  0.500000  1
  Rh  Rh24  1  0.000000  0.500000  0.500000  1
  Rh  Rh25  1  0.500000  0.000000  0.000000  1
