# generated using pymatgen
data_La2CeSm(Si5Pt3)2
_symmetry_space_group_name_H-M   'P 1'
_cell_length_a   8.28766417
_cell_length_b   8.28557187
_cell_length_c   8.28557132
_cell_angle_alpha   136.54090603
_cell_angle_beta   105.58575353
_cell_angle_gamma   90.30853009
_symmetry_Int_Tables_number   1
_chemical_formula_structural   La2CeSm(Si5Pt3)2
_chemical_formula_sum   'La2 Ce1 Sm1 Si10 Pt6'
_cell_volume   359.29816287
_cell_formula_units_Z   1
loop_
 _symmetry_equiv_pos_site_id
 _symmetry_equiv_pos_as_xyz
  1  'x, y, z'
loop_
 _atom_site_type_symbol
 _atom_site_label
 _atom_site_symmetry_multiplicity
 _atom_site_fract_x
 _atom_site_fract_y
 _atom_site_fract_z
 _atom_site_occupancy
  La  La0  1  0.360984  0.628890  0.732094  1
  La  La1  1  0.103999  0.871121  0.232878  1
  Ce  Ce2  1  0.639550  0.370943  0.268607  1
  Sm  Sm3  1  0.897885  0.128955  0.768930  1
  Si  Si4  1  0.270891  0.521062  0.250212  1
  Si  Si5  1  0.729678  0.478202  0.748978  1
  Si  Si6  1  0.729678  0.980700  0.251475  1
  Si  Si7  1  0.270891  0.020680  0.749830  1
  Si  Si8  1  0.467048  0.115641  0.351407  1
  Si  Si9  1  0.537651  0.889018  0.648634  1
  Si  Si10  1  0.759991  0.611597  0.148395  1
  Si  Si11  1  0.238088  0.385410  0.852677  1
  Si  Si12  1  0.997512  0.249994  0.249293  1
  Si  Si13  1  0.997512  0.748221  0.747518  1
  Pt  Pt14  1  0.244753  0.136264  0.108487  1
  Pt  Pt15  1  0.752846  0.864033  0.888813  1
  Pt  Pt16  1  0.024175  0.635310  0.388864  1
  Pt  Pt17  1  0.973767  0.362582  0.611184  1
  Pt  Pt18  1  0.501550  0.250555  0.750727  1
  Pt  Pt19  1  0.501550  0.750823  0.250995  1
