# generated using pymatgen
data_Nd6Al24Os5PtRh2
_symmetry_space_group_name_H-M   'P 1'
_cell_length_a   8.88633796
_cell_length_b   8.90614092
_cell_length_c   9.68564834
_cell_angle_alpha   90.04042844
_cell_angle_beta   89.86234125
_cell_angle_gamma   119.46015690
_symmetry_Int_Tables_number   1
_chemical_formula_structural   Nd6Al24Os5PtRh2
_chemical_formula_sum   'Nd6 Al24 Os5 Pt1 Rh2'
_cell_volume   667.43237835
_cell_formula_units_Z   1
loop_
 _symmetry_equiv_pos_site_id
 _symmetry_equiv_pos_as_xyz
  1  'x, y, z'
loop_
 _atom_site_type_symbol
 _atom_site_label
 _atom_site_symmetry_multiplicity
 _atom_site_fract_x
 _atom_site_fract_y
 _atom_site_fract_z
 _atom_site_occupancy
  Nd  Nd0  1  0.186662  0.379850  0.250642  1
  Nd  Nd1  1  0.813338  0.620150  0.749358  1
  Nd  Nd2  1  0.616895  0.814183  0.251507  1
  Nd  Nd3  1  0.383105  0.185817  0.748493  1
  Nd  Nd4  1  0.192903  0.811020  0.249980  1
  Nd  Nd5  1  0.807097  0.188980  0.750020  1
  Al  Al6  1  0.337395  0.669368  0.018916  1
  Al  Al7  1  0.662605  0.330632  0.981084  1
  Al  Al8  1  0.667912  0.332837  0.519083  1
  Al  Al9  1  0.332088  0.667163  0.480917  1
  Al  Al10  1  0.161442  0.326704  0.574202  1
  Al  Al11  1  0.838558  0.673296  0.425798  1
  Al  Al12  1  0.672394  0.837786  0.575074  1
  Al  Al13  1  0.833000  0.674564  0.076286  1
  Al  Al14  1  0.327606  0.162214  0.424926  1
  Al  Al15  1  0.167000  0.325436  0.923714  1
  Al  Al16  1  0.163683  0.835314  0.574318  1
  Al  Al17  1  0.326571  0.162218  0.075780  1
  Al  Al18  1  0.836317  0.164686  0.425682  1
  Al  Al19  1  0.673429  0.837782  0.924220  1
  Al  Al20  1  0.831707  0.159089  0.076280  1
  Al  Al21  1  0.168293  0.840911  0.923720  1
  Al  Al22  1  0.560887  0.126605  0.249585  1
  Al  Al23  1  0.439113  0.873395  0.750415  1
  Al  Al24  1  0.872527  0.437895  0.252647  1
  Al  Al25  1  0.127473  0.562105  0.747353  1
  Al  Al26  1  0.561277  0.438491  0.249417  1
  Al  Al27  1  0.438723  0.561509  0.750583  1
  Al  Al28  1  0.998751  0.002291  0.250160  1
  Al  Al29  1  0.001249  0.997709  0.749840  1
  Os  Os30  1  0.500000  0.000000  0.000000  1
  Os  Os31  1  0.500000  0.000000  0.500000  1
  Os  Os32  1  0.000000  0.500000  0.500000  1
  Os  Os33  1  0.000000  0.000000  0.000000  1
  Os  Os34  1  0.000000  0.000000  0.500000  1
  Pt  Pt35  1  0.000000  0.500000  0.000000  1
  Rh  Rh36  1  0.500000  0.500000  0.000000  1
  Rh  Rh37  1  0.500000  0.500000  0.500000  1
