# generated using pymatgen
data_Ba2AgB2Pt7
_symmetry_space_group_name_H-M   'P 1'
_cell_length_a   5.72694300
_cell_length_b   5.72694214
_cell_length_c   7.64223700
_cell_angle_alpha   90.00000000
_cell_angle_beta   90.00000000
_cell_angle_gamma   119.99998762
_symmetry_Int_Tables_number   1
_chemical_formula_structural   Ba2AgB2Pt7
_chemical_formula_sum   'Ba2 Ag1 B2 Pt7'
_cell_volume   217.06851937
_cell_formula_units_Z   1
loop_
 _symmetry_equiv_pos_site_id
 _symmetry_equiv_pos_as_xyz
  1  'x, y, z'
loop_
 _atom_site_type_symbol
 _atom_site_label
 _atom_site_symmetry_multiplicity
 _atom_site_fract_x
 _atom_site_fract_y
 _atom_site_fract_z
 _atom_site_occupancy
  Ba  Ba0  1  0.000000  0.000000  0.500000  1
  Ba  Ba1  1  0.000000  0.000000  0.000000  1
  Ag  Ag2  1  0.666667  0.333333  0.000000  1
  B  B3  1  0.666667  0.333333  0.500000  1
  B  B4  1  0.333333  0.666667  0.500000  1
  Pt  Pt5  1  0.499345  0.500655  0.695301  1
  Pt  Pt6  1  0.499345  0.998690  0.695301  1
  Pt  Pt7  1  0.001310  0.500655  0.695301  1
  Pt  Pt8  1  0.499345  0.500655  0.304699  1
  Pt  Pt9  1  0.499345  0.998690  0.304699  1
  Pt  Pt10  1  0.001310  0.500655  0.304699  1
  Pt  Pt11  1  0.333333  0.666667  0.000000  1
