# generated using pymatgen
data_K2Zr6PCl17
_symmetry_space_group_name_H-M   'P 1'
_cell_length_a   9.79924672
_cell_length_b   9.79924591
_cell_length_c   9.79924700
_cell_angle_alpha   105.22455075
_cell_angle_beta   105.22454946
_cell_angle_gamma   118.34598357
_symmetry_Int_Tables_number   1
_chemical_formula_structural   K2Zr6PCl17
_chemical_formula_sum   'K2 Zr6 P1 Cl17'
_cell_volume   711.14666500
_cell_formula_units_Z   1
loop_
 _symmetry_equiv_pos_site_id
 _symmetry_equiv_pos_as_xyz
  1  'x, y, z'
loop_
 _atom_site_type_symbol
 _atom_site_label
 _atom_site_symmetry_multiplicity
 _atom_site_fract_x
 _atom_site_fract_y
 _atom_site_fract_z
 _atom_site_occupancy
  K  K0  1  0.250004  0.749997  0.500003  1
  K  K1  1  0.749996  0.250003  0.499997  1
  Zr  Zr2  1  0.242016  0.242016  0.999972  1
  Zr  Zr3  1  0.757984  0.757984  0.000028  1
  Zr  Zr4  1  0.194310  0.069430  0.263790  1
  Zr  Zr5  1  0.930533  0.194332  0.124870  1
  Zr  Zr6  1  0.805690  0.930570  0.736210  1
  Zr  Zr7  1  0.069467  0.805668  0.875130  1
  P  P8  1  0.000000  0.000000  0.000000  1
  Cl  Cl9  1  0.868949  0.723802  0.592568  1
  Cl  Cl10  1  0.276256  0.868806  0.145152  1
  Cl  Cl11  1  0.132114  0.603242  0.735343  1
  Cl  Cl12  1  0.541176  0.669769  0.723059  1
  Cl  Cl13  1  0.867886  0.396758  0.264657  1
  Cl  Cl14  1  0.458824  0.330231  0.276941  1
  Cl  Cl15  1  0.818206  0.541179  0.871552  1
  Cl  Cl16  1  0.396653  0.131948  0.528837  1
  Cl  Cl17  1  0.603347  0.868052  0.471163  1
  Cl  Cl18  1  0.131051  0.276198  0.407432  1
  Cl  Cl19  1  0.330238  0.053265  0.871343  1
  Cl  Cl20  1  0.946687  0.818133  0.277041  1
  Cl  Cl21  1  0.723744  0.131194  0.854848  1
  Cl  Cl22  1  0.500000  0.500000  0.000000  1
  Cl  Cl23  1  0.181794  0.458821  0.128448  1
  Cl  Cl24  1  0.053313  0.181867  0.722959  1
  Cl  Cl25  1  0.669762  0.946735  0.128657  1
