# generated using pymatgen
data_Al11Re3Os
_symmetry_space_group_name_H-M   'P 1'
_cell_length_a   5.18809440
_cell_length_b   5.17914593
_cell_length_c   9.01177045
_cell_angle_alpha   105.07962502
_cell_angle_beta   90.34922644
_cell_angle_gamma   100.27757885
_symmetry_Int_Tables_number   1
_chemical_formula_structural   Al11Re3Os
_chemical_formula_sum   'Al11 Re3 Os1'
_cell_volume   229.70399918
_cell_formula_units_Z   1
loop_
 _symmetry_equiv_pos_site_id
 _symmetry_equiv_pos_as_xyz
  1  'x, y, z'
loop_
 _atom_site_type_symbol
 _atom_site_label
 _atom_site_symmetry_multiplicity
 _atom_site_fract_x
 _atom_site_fract_y
 _atom_site_fract_z
 _atom_site_occupancy
  Al  Al0  1  0.802658  0.262851  0.634640  1
  Al  Al1  1  0.199040  0.741480  0.363978  1
  Al  Al2  1  0.147610  0.464976  0.872051  1
  Al  Al3  1  0.853678  0.533796  0.129348  1
  Al  Al4  1  0.998863  0.998683  0.001072  1
  Al  Al5  1  0.500705  0.095949  0.873087  1
  Al  Al6  1  0.499480  0.901775  0.127951  1
  Al  Al7  1  0.570398  0.319619  0.376742  1
  Al  Al8  1  0.430950  0.677598  0.621677  1
  Al  Al9  1  0.937772  0.807286  0.667845  1
  Al  Al10  1  0.058262  0.197488  0.330552  1
  Re  Re11  1  0.720578  0.847655  0.400094  1
  Re  Re12  1  0.662259  0.608442  0.864691  1
  Re  Re13  1  0.338548  0.386931  0.133294  1
  Os  Os14  1  0.279198  0.155471  0.602978  1
