# generated using pymatgen
data_CaY3V2(WO7)2
_symmetry_space_group_name_H-M   'P 1'
_cell_length_a   7.28641163
_cell_length_b   7.18694989
_cell_length_c   7.28099920
_cell_angle_alpha   60.89035396
_cell_angle_beta   61.03387446
_cell_angle_gamma   60.92025501
_symmetry_Int_Tables_number   1
_chemical_formula_structural   CaY3V2(WO7)2
_chemical_formula_sum   'Ca1 Y3 V2 W2 O14'
_cell_volume   275.36812608
_cell_formula_units_Z   1
loop_
 _symmetry_equiv_pos_site_id
 _symmetry_equiv_pos_as_xyz
  1  'x, y, z'
loop_
 _atom_site_type_symbol
 _atom_site_label
 _atom_site_symmetry_multiplicity
 _atom_site_fract_x
 _atom_site_fract_y
 _atom_site_fract_z
 _atom_site_occupancy
  Ca  Ca0  1  0.500000  0.000000  0.500000  1
  Y  Y1  1  0.000000  0.500000  0.500000  1
  Y  Y2  1  0.500000  0.500000  0.500000  1
  Y  Y3  1  0.500000  0.500000  0.000000  1
  V  V4  1  0.000000  0.500000  0.000000  1
  V  V5  1  0.000000  0.000000  0.000000  1
  W  W6  1  0.500000  0.000000  0.000000  1
  W  W7  1  0.000000  0.000000  0.500000  1
  O  O8  1  0.369027  0.385043  0.369499  1
  O  O9  1  0.630973  0.614957  0.630501  1
  O  O10  1  0.083318  0.666230  0.671591  1
  O  O11  1  0.336686  0.910821  0.926123  1
  O  O12  1  0.667399  0.092725  0.666653  1
  O  O13  1  0.075171  0.086926  0.664959  1
  O  O14  1  0.672203  0.665854  0.086433  1
  O  O15  1  0.077251  0.665981  0.075238  1
  O  O16  1  0.663314  0.089179  0.073877  1
  O  O17  1  0.327797  0.334146  0.913567  1
  O  O18  1  0.924829  0.913074  0.335041  1
  O  O19  1  0.916682  0.333770  0.328409  1
  O  O20  1  0.922749  0.334019  0.924762  1
  O  O21  1  0.332601  0.907275  0.333347  1
