# generated using pymatgen
data_Tb4ReOsC4
_symmetry_space_group_name_H-M   'P 1'
_cell_length_a   5.15320200
_cell_length_b   6.55697600
_cell_length_c   9.87384300
_cell_angle_alpha   90.00000000
_cell_angle_beta   90.00000000
_cell_angle_gamma   90.00000000
_symmetry_Int_Tables_number   1
_chemical_formula_structural   Tb4ReOsC4
_chemical_formula_sum   'Tb8 Re2 Os2 C8'
_cell_volume   333.63144628
_cell_formula_units_Z   2
loop_
 _symmetry_equiv_pos_site_id
 _symmetry_equiv_pos_as_xyz
  1  'x, y, z'
loop_
 _atom_site_type_symbol
 _atom_site_label
 _atom_site_symmetry_multiplicity
 _atom_site_fract_x
 _atom_site_fract_y
 _atom_site_fract_z
 _atom_site_occupancy
  Tb  Tb0  1  0.750000  0.820344  0.053810  1
  Tb  Tb1  1  0.250000  0.679656  0.553810  1
  Tb  Tb2  1  0.750000  0.317572  0.445467  1
  Tb  Tb3  1  0.250000  0.182428  0.945467  1
  Tb  Tb4  1  0.750000  0.469723  0.785190  1
  Tb  Tb5  1  0.250000  0.030277  0.285190  1
  Tb  Tb6  1  0.750000  0.971276  0.714043  1
  Tb  Tb7  1  0.250000  0.528724  0.214043  1
  Re  Re8  1  0.750000  0.774945  0.363413  1
  Re  Re9  1  0.250000  0.725055  0.863413  1
  Os  Os10  1  0.750000  0.275135  0.136083  1
  Os  Os11  1  0.250000  0.224865  0.636083  1
  C  C12  1  0.750000  0.178219  0.951757  1
  C  C13  1  0.250000  0.821502  0.049198  1
  C  C14  1  0.750000  0.678498  0.549198  1
  C  C15  1  0.250000  0.321781  0.451757  1
  C  C16  1  0.750000  0.041500  0.259552  1
  C  C17  1  0.250000  0.458500  0.759552  1
  C  C18  1  0.750000  0.540293  0.241487  1
  C  C19  1  0.250000  0.959707  0.741487  1
