# generated using pymatgen
data_Tb8Y8MgCo4Ag3
_symmetry_space_group_name_H-M   'P 1'
_cell_length_a   9.48705205
_cell_length_b   9.49249352
_cell_length_c   9.51833600
_cell_angle_alpha   59.90990935
_cell_angle_beta   59.89086511
_cell_angle_gamma   60.09726058
_symmetry_Int_Tables_number   1
_chemical_formula_structural   Tb8Y8MgCo4Ag3
_chemical_formula_sum   'Tb8 Y8 Mg1 Co4 Ag3'
_cell_volume   605.64663403
_cell_formula_units_Z   1
loop_
 _symmetry_equiv_pos_site_id
 _symmetry_equiv_pos_as_xyz
  1  'x, y, z'
loop_
 _atom_site_type_symbol
 _atom_site_label
 _atom_site_symmetry_multiplicity
 _atom_site_fract_x
 _atom_site_fract_y
 _atom_site_fract_z
 _atom_site_occupancy
  Tb  Tb0  1  0.345473  0.345222  0.344788  1
  Tb  Tb1  1  0.345473  0.345222  0.964517  1
  Tb  Tb2  1  0.346758  0.964008  0.344617  1
  Tb  Tb3  1  0.951970  0.350766  0.348632  1
  Tb  Tb4  1  0.808890  0.188825  0.190071  1
  Tb  Tb5  1  0.185527  0.812996  0.814131  1
  Tb  Tb6  1  0.185527  0.812996  0.187346  1
  Tb  Tb7  1  0.808890  0.188825  0.812214  1
  Y  Y8  1  0.185637  0.186198  0.814083  1
  Y  Y9  1  0.808301  0.810749  0.190475  1
  Y  Y10  1  0.935726  0.562928  0.562855  1
  Y  Y11  1  0.562800  0.936965  0.937201  1
  Y  Y12  1  0.562800  0.936965  0.563033  1
  Y  Y13  1  0.935726  0.562928  0.938490  1
  Y  Y14  1  0.561681  0.562525  0.937897  1
  Y  Y15  1  0.936626  0.939295  0.562040  1
  Mg  Mg16  1  0.290702  0.569012  0.570143  1
  Co  Co17  1  0.137839  0.141702  0.144048  1
  Co  Co18  1  0.137839  0.141702  0.576411  1
  Co  Co19  1  0.141972  0.576389  0.140820  1
  Co  Co20  1  0.576169  0.144251  0.139790  1
  Ag  Ag21  1  0.582771  0.583082  0.582283  1
  Ag  Ag22  1  0.582771  0.583082  0.251864  1
  Ag  Ag23  1  0.582130  0.253368  0.582251  1
