# generated using pymatgen
data_Cs8Pr2O7
_symmetry_space_group_name_H-M   'P 1'
_cell_length_a   20.16250300
_cell_length_b   7.57900953
_cell_length_c   7.77204285
_cell_angle_alpha   60.73960201
_cell_angle_beta   90.00000000
_cell_angle_gamma   90.00000000
_symmetry_Int_Tables_number   1
_chemical_formula_structural   Cs8Pr2O7
_chemical_formula_sum   'Cs16 Pr4 O14'
_cell_volume   1036.12316797
_cell_formula_units_Z   2
loop_
 _symmetry_equiv_pos_site_id
 _symmetry_equiv_pos_as_xyz
  1  'x, y, z'
loop_
 _atom_site_type_symbol
 _atom_site_label
 _atom_site_symmetry_multiplicity
 _atom_site_fract_x
 _atom_site_fract_y
 _atom_site_fract_z
 _atom_site_occupancy
  Cs  Cs0  1  0.503688  0.019760  0.242665  1
  Cs  Cs1  1  0.003688  0.480240  0.757335  1
  Cs  Cs2  1  0.496312  0.980240  0.757335  1
  Cs  Cs3  1  0.996312  0.519760  0.242665  1
  Cs  Cs4  1  0.704199  0.038007  0.229398  1
  Cs  Cs5  1  0.204199  0.461993  0.770602  1
  Cs  Cs6  1  0.295801  0.961993  0.770602  1
  Cs  Cs7  1  0.795801  0.538007  0.229398  1
  Cs  Cs8  1  0.091974  0.996667  0.349581  1
  Cs  Cs9  1  0.591974  0.503333  0.650419  1
  Cs  Cs10  1  0.908026  0.003333  0.650419  1
  Cs  Cs11  1  0.408026  0.496667  0.349581  1
  Cs  Cs12  1  0.806571  0.452787  0.780431  1
  Cs  Cs13  1  0.306571  0.047213  0.219569  1
  Cs  Cs14  1  0.193429  0.547213  0.219569  1
  Cs  Cs15  1  0.693429  0.952787  0.780431  1
  Pr  Pr16  1  0.598174  0.498938  0.156501  1
  Pr  Pr17  1  0.098174  0.001062  0.843499  1
  Pr  Pr18  1  0.401826  0.501062  0.843499  1
  Pr  Pr19  1  0.901826  0.998938  0.156501  1
  O  O20  1  0.500000  0.500000  0.000000  1
  O  O21  1  0.000000  0.000000  0.000000  1
  O  O22  1  0.180751  0.010887  0.039453  1
  O  O23  1  0.680751  0.489113  0.960547  1
  O  O24  1  0.819249  0.989113  0.960547  1
  O  O25  1  0.319249  0.510887  0.039453  1
  O  O26  1  0.891266  0.288825  0.172295  1
  O  O27  1  0.391266  0.211175  0.827705  1
  O  O28  1  0.108734  0.711175  0.827705  1
  O  O29  1  0.608734  0.788825  0.172295  1
  O  O30  1  0.600474  0.222780  0.459819  1
  O  O31  1  0.100474  0.277220  0.540181  1
  O  O32  1  0.399526  0.777220  0.540181  1
  O  O33  1  0.899526  0.722780  0.459819  1
