# generated using pymatgen
data_NdDy3AgIr
_symmetry_space_group_name_H-M   'P 1'
_cell_length_a   9.61444047
_cell_length_b   9.63331393
_cell_length_c   9.63329400
_cell_angle_alpha   60.01659500
_cell_angle_beta   60.06425520
_cell_angle_gamma   60.06439683
_symmetry_Int_Tables_number   1
_chemical_formula_structural   NdDy3AgIr
_chemical_formula_sum   'Nd4 Dy12 Ag4 Ir4'
_cell_volume   631.59060958
_cell_formula_units_Z   4
loop_
 _symmetry_equiv_pos_site_id
 _symmetry_equiv_pos_as_xyz
  1  'x, y, z'
loop_
 _atom_site_type_symbol
 _atom_site_label
 _atom_site_symmetry_multiplicity
 _atom_site_fract_x
 _atom_site_fract_y
 _atom_site_fract_z
 _atom_site_occupancy
  Nd  Nd0  1  0.564574  0.934916  0.564216  1
  Nd  Nd1  1  0.936297  0.564217  0.934909  1
  Nd  Nd2  1  0.564583  0.564217  0.934906  1
  Nd  Nd3  1  0.936293  0.934914  0.564210  1
  Dy  Dy4  1  0.355189  0.349553  0.349555  1
  Dy  Dy5  1  0.348654  0.355872  0.946830  1
  Dy  Dy6  1  0.348650  0.946828  0.355876  1
  Dy  Dy7  1  0.945700  0.349555  0.349559  1
  Dy  Dy8  1  0.814758  0.185241  0.185239  1
  Dy  Dy9  1  0.185282  0.814718  0.814717  1
  Dy  Dy10  1  0.189304  0.811703  0.187322  1
  Dy  Dy11  1  0.811668  0.187322  0.811704  1
  Dy  Dy12  1  0.189300  0.187322  0.811705  1
  Dy  Dy13  1  0.811669  0.811705  0.187325  1
  Dy  Dy14  1  0.946008  0.553991  0.553989  1
  Dy  Dy15  1  0.554734  0.945264  0.945264  1
  Ag  Ag16  1  0.583987  0.578803  0.578806  1
  Ag  Ag17  1  0.579008  0.585084  0.256896  1
  Ag  Ag18  1  0.579008  0.256897  0.585083  1
  Ag  Ag19  1  0.258412  0.578801  0.578799  1
  Ir  Ir20  1  0.146294  0.140579  0.140583  1
  Ir  Ir21  1  0.139043  0.149549  0.572367  1
  Ir  Ir22  1  0.139040  0.572366  0.149552  1
  Ir  Ir23  1  0.572543  0.140580  0.140585  1
