# generated using pymatgen
data_LaTb5Ir18
_symmetry_space_group_name_H-M   'P 1'
_cell_length_a   5.34013404
_cell_length_b   5.34130742
_cell_length_c   17.51767200
_cell_angle_alpha   90.00000000
_cell_angle_beta   90.00000000
_cell_angle_gamma   120.01023649
_symmetry_Int_Tables_number   1
_chemical_formula_structural   LaTb5Ir18
_chemical_formula_sum   'La1 Tb5 Ir18'
_cell_volume   432.67514551
_cell_formula_units_Z   1
loop_
 _symmetry_equiv_pos_site_id
 _symmetry_equiv_pos_as_xyz
  1  'x, y, z'
loop_
 _atom_site_type_symbol
 _atom_site_label
 _atom_site_symmetry_multiplicity
 _atom_site_fract_x
 _atom_site_fract_y
 _atom_site_fract_z
 _atom_site_occupancy
  La  La0  1  0.666647  0.333322  0.250000  1
  Tb  Tb1  1  0.333339  0.666663  0.541391  1
  Tb  Tb2  1  0.666619  0.333315  0.040051  1
  Tb  Tb3  1  0.666619  0.333315  0.459949  1
  Tb  Tb4  1  0.333339  0.666663  0.958609  1
  Tb  Tb5  1  0.333317  0.666662  0.750000  1
  Ir  Ir6  1  0.166926  0.334011  0.125676  1
  Ir  Ir7  1  0.833025  0.665978  0.626936  1
  Ir  Ir8  1  0.666075  0.833054  0.125606  1
  Ir  Ir9  1  0.166942  0.832933  0.125690  1
  Ir  Ir10  1  0.833019  0.167040  0.626943  1
  Ir  Ir11  1  0.334077  0.167030  0.626926  1
  Ir  Ir12  1  0.833025  0.665978  0.873064  1
  Ir  Ir13  1  0.833019  0.167040  0.873057  1
  Ir  Ir14  1  0.334077  0.167030  0.873074  1
  Ir  Ir15  1  0.666075  0.833054  0.374394  1
  Ir  Ir16  1  0.166942  0.832933  0.374310  1
  Ir  Ir17  1  0.166926  0.334011  0.374324  1
  Ir  Ir18  1  0.999329  0.999706  0.250000  1
  Ir  Ir19  1  0.000032  0.999999  0.750000  1
  Ir  Ir20  1  0.334109  0.666993  0.250000  1
  Ir  Ir21  1  0.666556  0.333307  0.750000  1
  Ir  Ir22  1  0.999982  0.999982  0.999519  1
  Ir  Ir23  1  0.999982  0.999982  0.500481  1
