# generated using pymatgen
data_Ce5Ho11(CdRu)4
_symmetry_space_group_name_H-M   'P 1'
_cell_length_a   9.54546487
_cell_length_b   9.63756460
_cell_length_c   9.63756398
_cell_angle_alpha   60.00375300
_cell_angle_beta   60.31562596
_cell_angle_gamma   60.31562099
_symmetry_Int_Tables_number   1
_chemical_formula_structural   Ce5Ho11(CdRu)4
_chemical_formula_sum   'Ce5 Ho11 Cd4 Ru4'
_cell_volume   629.91880002
_cell_formula_units_Z   1
loop_
 _symmetry_equiv_pos_site_id
 _symmetry_equiv_pos_as_xyz
  1  'x, y, z'
loop_
 _atom_site_type_symbol
 _atom_site_label
 _atom_site_symmetry_multiplicity
 _atom_site_fract_x
 _atom_site_fract_y
 _atom_site_fract_z
 _atom_site_occupancy
  Ce  Ce0  1  0.814376  0.185624  0.185624  1
  Ce  Ce1  1  0.346798  0.346812  0.959593  1
  Ce  Ce2  1  0.346798  0.959593  0.346812  1
  Ce  Ce3  1  0.958987  0.349269  0.349269  1
  Ce  Ce4  1  0.342476  0.349269  0.349269  1
  Ho  Ho5  1  0.561436  0.561875  0.937286  1
  Ho  Ho6  1  0.939405  0.561875  0.937286  1
  Ho  Ho7  1  0.564662  0.935338  0.935338  1
  Ho  Ho8  1  0.939405  0.937286  0.561875  1
  Ho  Ho9  1  0.561436  0.937286  0.561875  1
  Ho  Ho10  1  0.934256  0.565744  0.565744  1
  Ho  Ho11  1  0.192049  0.187358  0.808561  1
  Ho  Ho12  1  0.812032  0.187358  0.808561  1
  Ho  Ho13  1  0.187494  0.812506  0.812505  1
  Ho  Ho14  1  0.812032  0.808562  0.187358  1
  Ho  Ho15  1  0.192048  0.808561  0.187357  1
  Cd  Cd16  1  0.580940  0.583857  0.254263  1
  Cd  Cd17  1  0.580940  0.254263  0.583857  1
  Cd  Cd18  1  0.256673  0.580948  0.580948  1
  Cd  Cd19  1  0.581431  0.580948  0.580948  1
  Ru  Ru20  1  0.147770  0.141287  0.563174  1
  Ru  Ru21  1  0.147770  0.563174  0.141287  1
  Ru  Ru22  1  0.582515  0.150607  0.150607  1
  Ru  Ru23  1  0.116271  0.150607  0.150607  1
