# generated using pymatgen
data_Tl2WF5
_symmetry_space_group_name_H-M   'P 1'
_cell_length_a   6.13706100
_cell_length_b   8.02804700
_cell_length_c   12.74328100
_cell_angle_alpha   90.00000000
_cell_angle_beta   90.00000000
_cell_angle_gamma   90.00000000
_symmetry_Int_Tables_number   1
_chemical_formula_structural   Tl2WF5
_chemical_formula_sum   'Tl8 W4 F20'
_cell_volume   627.84379459
_cell_formula_units_Z   4
loop_
 _symmetry_equiv_pos_site_id
 _symmetry_equiv_pos_as_xyz
  1  'x, y, z'
loop_
 _atom_site_type_symbol
 _atom_site_label
 _atom_site_symmetry_multiplicity
 _atom_site_fract_x
 _atom_site_fract_y
 _atom_site_fract_z
 _atom_site_occupancy
  Tl  Tl0  1  0.250000  0.529874  0.253417  1
  Tl  Tl1  1  0.750000  0.470126  0.746583  1
  Tl  Tl2  1  0.250000  0.029874  0.246583  1
  Tl  Tl3  1  0.750000  0.970126  0.753417  1
  Tl  Tl4  1  0.250000  0.141976  0.590555  1
  Tl  Tl5  1  0.750000  0.858024  0.409445  1
  Tl  Tl6  1  0.250000  0.641976  0.909445  1
  Tl  Tl7  1  0.750000  0.358024  0.090555  1
  W  W8  1  0.250000  0.667164  0.555295  1
  W  W9  1  0.750000  0.332836  0.444705  1
  W  W10  1  0.250000  0.167164  0.944705  1
  W  W11  1  0.750000  0.832836  0.055295  1
  F  F12  1  0.508492  0.163096  0.397023  1
  F  F13  1  0.008492  0.836904  0.602977  1
  F  F14  1  0.991508  0.663096  0.102977  1
  F  F15  1  0.491508  0.336904  0.897023  1
  F  F16  1  0.491508  0.836904  0.602977  1
  F  F17  1  0.991508  0.163096  0.397023  1
  F  F18  1  0.008492  0.336904  0.897023  1
  F  F19  1  0.508492  0.663096  0.102977  1
  F  F20  1  0.250000  0.780702  0.403589  1
  F  F21  1  0.750000  0.219298  0.596411  1
  F  F22  1  0.250000  0.280702  0.096411  1
  F  F23  1  0.750000  0.719298  0.903589  1
  F  F24  1  0.500000  0.500000  0.500000  1
  F  F25  1  0.000000  0.500000  0.500000  1
  F  F26  1  0.000000  0.000000  0.000000  1
  F  F27  1  0.500000  0.000000  0.000000  1
  F  F28  1  0.750000  0.958618  0.200011  1
  F  F29  1  0.250000  0.041382  0.799989  1
  F  F30  1  0.750000  0.458618  0.299989  1
  F  F31  1  0.250000  0.541382  0.700011  1
