# generated using pymatgen
data_Dy5Tm15Sn13Sb3
_symmetry_space_group_name_H-M   'P 1'
_cell_length_a   8.02964747
_cell_length_b   8.07694832
_cell_length_c   15.23972927
_cell_angle_alpha   90.09822971
_cell_angle_beta   89.53505605
_cell_angle_gamma   89.97568054
_symmetry_Int_Tables_number   1
_chemical_formula_structural   Dy5Tm15Sn13Sb3
_chemical_formula_sum   'Dy5 Tm15 Sn13 Sb3'
_cell_volume   988.33927922
_cell_formula_units_Z   1
loop_
 _symmetry_equiv_pos_site_id
 _symmetry_equiv_pos_as_xyz
  1  'x, y, z'
loop_
 _atom_site_type_symbol
 _atom_site_label
 _atom_site_symmetry_multiplicity
 _atom_site_fract_x
 _atom_site_fract_y
 _atom_site_fract_z
 _atom_site_occupancy
  Dy  Dy0  1  0.969168  0.821750  0.099587  1
  Dy  Dy1  1  0.475021  0.675973  0.097388  1
  Dy  Dy2  1  0.973618  0.823767  0.400757  1
  Dy  Dy3  1  0.525882  0.323169  0.599018  1
  Dy  Dy4  1  0.024013  0.179670  0.901549  1
  Tm  Tm5  1  0.369846  0.838182  0.877212  1
  Tm  Tm6  1  0.873687  0.660213  0.622476  1
  Tm  Tm7  1  0.626592  0.159921  0.377654  1
  Tm  Tm8  1  0.129827  0.338605  0.123920  1
  Tm  Tm9  1  0.630928  0.161235  0.122777  1
  Tm  Tm10  1  0.128071  0.338218  0.377784  1
  Tm  Tm11  1  0.372265  0.838949  0.621955  1
  Tm  Tm12  1  0.869339  0.661477  0.875577  1
  Tm  Tm13  1  0.531295  0.327060  0.899591  1
  Tm  Tm14  1  0.039296  0.173448  0.603341  1
  Tm  Tm15  1  0.461009  0.673265  0.397192  1
  Tm  Tm16  1  0.200160  0.502677  0.749614  1
  Tm  Tm17  1  0.700172  0.997838  0.752635  1
  Tm  Tm18  1  0.799463  0.497678  0.248330  1
  Tm  Tm19  1  0.300124  0.002261  0.251795  1
  Sn  Sn20  1  0.210633  0.534399  0.957725  1
  Sn  Sn21  1  0.710316  0.963236  0.958041  1
  Sn  Sn22  1  0.212333  0.535888  0.541736  1
  Sn  Sn23  1  0.287717  0.035568  0.458331  1
  Sn  Sn24  1  0.792635  0.461789  0.040992  1
  Sn  Sn25  1  0.566227  0.622427  0.747959  1
  Sn  Sn26  1  0.067444  0.878709  0.749577  1
  Sn  Sn27  1  0.433945  0.377530  0.250198  1
  Sn  Sn28  1  0.932704  0.121520  0.251219  1
  Sn  Sn29  1  0.338627  0.149577  0.751288  1
  Sn  Sn30  1  0.836968  0.350699  0.748593  1
  Sn  Sn31  1  0.661253  0.850122  0.250868  1
  Sn  Sn32  1  0.162250  0.648160  0.249598  1
  Sb  Sb33  1  0.286840  0.033741  0.043749  1
  Sb  Sb34  1  0.780403  0.470698  0.455546  1
  Sb  Sb35  1  0.719929  0.970580  0.544429  1
