# generated using pymatgen
data_La15Eu5(Ir5Ru)2
_symmetry_space_group_name_H-M   'P 1'
_cell_length_a   11.30331539
_cell_length_b   11.39166279
_cell_length_c   6.57875500
_cell_angle_alpha   90.12164155
_cell_angle_beta   90.28658362
_cell_angle_gamma   90.10157219
_symmetry_Int_Tables_number   1
_chemical_formula_structural   La15Eu5(Ir5Ru)2
_chemical_formula_sum   'La15 Eu5 Ir10 Ru2'
_cell_volume   847.09004417
_cell_formula_units_Z   1
loop_
 _symmetry_equiv_pos_site_id
 _symmetry_equiv_pos_as_xyz
  1  'x, y, z'
loop_
 _atom_site_type_symbol
 _atom_site_label
 _atom_site_symmetry_multiplicity
 _atom_site_fract_x
 _atom_site_fract_y
 _atom_site_fract_z
 _atom_site_occupancy
  La  La0  1  0.293854  0.913803  0.892612  1
  La  La1  1  0.707595  0.087909  0.893602  1
  La  La2  1  0.707512  0.912436  0.394260  1
  La  La3  1  0.588983  0.791837  0.890503  1
  La  La4  1  0.584338  0.206444  0.392922  1
  La  La5  1  0.409866  0.796172  0.391953  1
  La  La6  1  0.410176  0.207180  0.892879  1
  La  La7  1  0.210624  0.407925  0.611421  1
  La  La8  1  0.212039  0.591387  0.109579  1
  La  La9  1  0.788722  0.407675  0.110885  1
  La  La10  1  0.788995  0.590500  0.610281  1
  La  La11  1  0.908814  0.710925  0.111479  1
  La  La12  1  0.907500  0.287719  0.612361  1
  La  La13  1  0.090948  0.711302  0.611703  1
  La  La14  1  0.091961  0.288532  0.111924  1
  Eu  Eu15  1  0.290307  0.088342  0.388718  1
  Eu  Eu16  1  0.003370  0.999852  0.493364  1
  Eu  Eu17  1  0.998968  0.999780  0.994811  1
  Eu  Eu18  1  0.500297  0.500402  0.993431  1
  Eu  Eu19  1  0.498763  0.501476  0.493884  1
  Ir  Ir20  1  0.843918  0.158273  0.250245  1
  Ir  Ir21  1  0.847449  0.839622  0.746367  1
  Ir  Ir22  1  0.153811  0.160929  0.755714  1
  Ir  Ir23  1  0.153528  0.838022  0.243109  1
  Ir  Ir24  1  0.656550  0.342582  0.747566  1
  Ir  Ir25  1  0.659082  0.656396  0.249006  1
  Ir  Ir26  1  0.340750  0.348901  0.243486  1
  Ir  Ir27  1  0.341268  0.659589  0.746727  1
  Ir  Ir28  1  0.999841  0.499647  0.880533  1
  Ir  Ir29  1  0.999575  0.499154  0.381682  1
  Ru  Ru30  1  0.504826  0.997965  0.122960  1
  Ru  Ru31  1  0.505770  0.997319  0.630027  1
