# generated using pymatgen
data_Y4ThPd15
_symmetry_space_group_name_H-M   'P 1'
_cell_length_a   4.15805900
_cell_length_b   4.15805900
_cell_length_c   20.70343700
_cell_angle_alpha   90.00000000
_cell_angle_beta   90.00000000
_cell_angle_gamma   90.00000000
_symmetry_Int_Tables_number   1
_chemical_formula_structural   Y4ThPd15
_chemical_formula_sum   'Y4 Th1 Pd15'
_cell_volume   357.95113506
_cell_formula_units_Z   1
loop_
 _symmetry_equiv_pos_site_id
 _symmetry_equiv_pos_as_xyz
  1  'x, y, z'
loop_
 _atom_site_type_symbol
 _atom_site_label
 _atom_site_symmetry_multiplicity
 _atom_site_fract_x
 _atom_site_fract_y
 _atom_site_fract_z
 _atom_site_occupancy
  Y  Y0  1  0.000000  0.000000  0.202305  1
  Y  Y1  1  0.000000  0.000000  0.399966  1
  Y  Y2  1  0.000000  0.000000  0.600034  1
  Y  Y3  1  0.000000  0.000000  0.797695  1
  Th  Th4  1  0.000000  0.000000  0.000000  1
  Pd  Pd5  1  0.500000  0.500000  0.000000  1
  Pd  Pd6  1  0.500000  0.500000  0.200094  1
  Pd  Pd7  1  0.500000  0.500000  0.400204  1
  Pd  Pd8  1  0.500000  0.500000  0.599796  1
  Pd  Pd9  1  0.500000  0.500000  0.799906  1
  Pd  Pd10  1  0.500000  0.000000  0.100476  1
  Pd  Pd11  1  0.500000  0.000000  0.300161  1
  Pd  Pd12  1  0.500000  0.000000  0.500000  1
  Pd  Pd13  1  0.500000  0.000000  0.699839  1
  Pd  Pd14  1  0.500000  0.000000  0.899524  1
  Pd  Pd15  1  0.000000  0.500000  0.100476  1
  Pd  Pd16  1  0.000000  0.500000  0.300161  1
  Pd  Pd17  1  0.000000  0.500000  0.500000  1
  Pd  Pd18  1  0.000000  0.500000  0.699839  1
  Pd  Pd19  1  0.000000  0.500000  0.899524  1
