# generated using pymatgen
data_Li4CaLa(ErSi4)2
_symmetry_space_group_name_H-M   'P 1'
_cell_length_a   3.81142200
_cell_length_b   7.77884761
_cell_length_c   10.36994688
_cell_angle_alpha   89.41466376
_cell_angle_beta   90.00000000
_cell_angle_gamma   90.00000000
_symmetry_Int_Tables_number   1
_chemical_formula_structural   Li4CaLa(ErSi4)2
_chemical_formula_sum   'Li4 Ca1 La1 Er2 Si8'
_cell_volume   307.43702435
_cell_formula_units_Z   1
loop_
 _symmetry_equiv_pos_site_id
 _symmetry_equiv_pos_as_xyz
  1  'x, y, z'
loop_
 _atom_site_type_symbol
 _atom_site_label
 _atom_site_symmetry_multiplicity
 _atom_site_fract_x
 _atom_site_fract_y
 _atom_site_fract_z
 _atom_site_occupancy
  Li  Li0  1  0.250000  0.998584  0.389183  1
  Li  Li1  1  0.750000  0.005120  0.610451  1
  Li  Li2  1  0.250000  0.488379  0.108564  1
  Li  Li3  1  0.750000  0.509328  0.895019  1
  Ca  Ca4  1  0.750000  0.361879  0.363830  1
  La  La5  1  0.250000  0.637312  0.635325  1
  Er  Er6  1  0.250000  0.128762  0.865996  1
  Er  Er7  1  0.750000  0.871447  0.132904  1
  Si  Si8  1  0.750000  0.260471  0.061190  1
  Si  Si9  1  0.250000  0.739100  0.940069  1
  Si  Si10  1  0.750000  0.777633  0.422725  1
  Si  Si11  1  0.250000  0.226222  0.574690  1
  Si  Si12  1  0.750000  0.843419  0.825724  1
  Si  Si13  1  0.250000  0.154360  0.172774  1
  Si  Si14  1  0.750000  0.330073  0.687047  1
  Si  Si15  1  0.250000  0.667910  0.314508  1
