# generated using pymatgen
data_La3Yb(GaIr2)2
_symmetry_space_group_name_H-M   'P 1'
_cell_length_a   5.81910169
_cell_length_b   5.78885893
_cell_length_c   7.94460877
_cell_angle_alpha   102.52250044
_cell_angle_beta   102.47997247
_cell_angle_gamma   58.37751826
_symmetry_Int_Tables_number   1
_chemical_formula_structural   La3Yb(GaIr2)2
_chemical_formula_sum   'La3 Yb1 Ga2 Ir4'
_cell_volume   220.76960863
_cell_formula_units_Z   1
loop_
 _symmetry_equiv_pos_site_id
 _symmetry_equiv_pos_as_xyz
  1  'x, y, z'
loop_
 _atom_site_type_symbol
 _atom_site_label
 _atom_site_symmetry_multiplicity
 _atom_site_fract_x
 _atom_site_fract_y
 _atom_site_fract_z
 _atom_site_occupancy
  La  La0  1  0.787555  0.501384  0.135552  1
  La  La1  1  0.503593  0.208182  0.355414  1
  La  La2  1  0.501089  0.790533  0.653011  1
  Yb  Yb3  1  0.205446  0.500379  0.853935  1
  Ga  Ga4  1  0.116510  0.882887  0.248147  1
  Ga  Ga5  1  0.887868  0.109707  0.751455  1
  Ir  Ir6  1  0.277925  0.996819  0.012201  1
  Ir  Ir7  1  0.008704  0.716003  0.487109  1
  Ir  Ir8  1  0.989356  0.279160  0.512272  1
  Ir  Ir9  1  0.721953  0.014944  0.990902  1
