# generated using pymatgen
data_SmEr6Sn23Ru6
_symmetry_space_group_name_H-M   'P 1'
_cell_length_a   9.83575800
_cell_length_b   9.83575825
_cell_length_c   10.06737600
_cell_angle_alpha   90.00000000
_cell_angle_beta   90.00000000
_cell_angle_gamma   120.00000590
_symmetry_Int_Tables_number   1
_chemical_formula_structural   SmEr6Sn23Ru6
_chemical_formula_sum   'Sm1 Er6 Sn23 Ru6'
_cell_volume   843.45627852
_cell_formula_units_Z   1
loop_
 _symmetry_equiv_pos_site_id
 _symmetry_equiv_pos_as_xyz
  1  'x, y, z'
loop_
 _atom_site_type_symbol
 _atom_site_label
 _atom_site_symmetry_multiplicity
 _atom_site_fract_x
 _atom_site_fract_y
 _atom_site_fract_z
 _atom_site_occupancy
  Sm  Sm0  1  0.000000  0.000000  0.000000  1
  Er  Er1  1  0.484949  0.515051  0.302725  1
  Er  Er2  1  0.515051  0.484949  0.697275  1
  Er  Er3  1  0.484949  0.969899  0.302725  1
  Er  Er4  1  0.515051  0.030101  0.697275  1
  Er  Er5  1  0.030101  0.515051  0.302725  1
  Er  Er6  1  0.969899  0.484949  0.697275  1
  Sn  Sn7  1  0.118944  0.881056  0.274558  1
  Sn  Sn8  1  0.881056  0.118944  0.725442  1
  Sn  Sn9  1  0.118944  0.237890  0.274558  1
  Sn  Sn10  1  0.881056  0.762110  0.725442  1
  Sn  Sn11  1  0.762110  0.881056  0.274558  1
  Sn  Sn12  1  0.237890  0.118944  0.725442  1
  Sn  Sn13  1  0.779756  0.220244  0.462637  1
  Sn  Sn14  1  0.220244  0.779756  0.537363  1
  Sn  Sn15  1  0.779756  0.559513  0.462637  1
  Sn  Sn16  1  0.220244  0.440487  0.537363  1
  Sn  Sn17  1  0.440487  0.220244  0.462637  1
  Sn  Sn18  1  0.559513  0.779756  0.537363  1
  Sn  Sn19  1  0.349419  0.000000  0.000000  1
  Sn  Sn20  1  0.650581  0.000000  0.000000  1
  Sn  Sn21  1  0.000000  0.349419  0.000000  1
  Sn  Sn22  1  0.000000  0.650581  0.000000  1
  Sn  Sn23  1  0.650581  0.650581  0.000000  1
  Sn  Sn24  1  0.349419  0.349419  0.000000  1
  Sn  Sn25  1  0.333333  0.666667  0.129010  1
  Sn  Sn26  1  0.666667  0.333333  0.870990  1
  Sn  Sn27  1  0.333333  0.666667  0.822399  1
  Sn  Sn28  1  0.666667  0.333333  0.177601  1
  Sn  Sn29  1  0.000000  0.000000  0.500000  1
  Ru  Ru30  1  0.829519  0.170481  0.202769  1
  Ru  Ru31  1  0.170481  0.829519  0.797231  1
  Ru  Ru32  1  0.829519  0.659039  0.202769  1
  Ru  Ru33  1  0.170481  0.340961  0.797231  1
  Ru  Ru34  1  0.340961  0.170481  0.202769  1
  Ru  Ru35  1  0.659039  0.829519  0.797231  1
