# generated using pymatgen
data_Dy16Hf4Ir5Rh7
_symmetry_space_group_name_H-M   'P 1'
_cell_length_a   10.85248445
_cell_length_b   10.85248445
_cell_length_c   6.24659855
_cell_angle_alpha   90.03409167
_cell_angle_beta   90.03409167
_cell_angle_gamma   90.04838690
_symmetry_Int_Tables_number   1
_chemical_formula_structural   Dy16Hf4Ir5Rh7
_chemical_formula_sum   'Dy16 Hf4 Ir5 Rh7'
_cell_volume   735.70148359
_cell_formula_units_Z   1
loop_
 _symmetry_equiv_pos_site_id
 _symmetry_equiv_pos_as_xyz
  1  'x, y, z'
loop_
 _atom_site_type_symbol
 _atom_site_label
 _atom_site_symmetry_multiplicity
 _atom_site_fract_x
 _atom_site_fract_y
 _atom_site_fract_z
 _atom_site_occupancy
  Dy  Dy0  1  0.288675  0.085652  0.375097  1
  Dy  Dy1  1  0.288561  0.912425  0.875868  1
  Dy  Dy2  1  0.711181  0.087334  0.875648  1
  Dy  Dy3  1  0.710743  0.912305  0.374567  1
  Dy  Dy4  1  0.584371  0.787552  0.876534  1
  Dy  Dy5  1  0.584266  0.212396  0.376419  1
  Dy  Dy6  1  0.413733  0.788145  0.376144  1
  Dy  Dy7  1  0.415357  0.212295  0.876236  1
  Dy  Dy8  1  0.212448  0.415629  0.623466  1
  Dy  Dy9  1  0.211855  0.586267  0.123856  1
  Dy  Dy10  1  0.787604  0.415734  0.123581  1
  Dy  Dy11  1  0.787705  0.584643  0.623764  1
  Dy  Dy12  1  0.914348  0.711325  0.124903  1
  Dy  Dy13  1  0.912666  0.288819  0.624352  1
  Dy  Dy14  1  0.087575  0.711439  0.624132  1
  Dy  Dy15  1  0.087695  0.289257  0.125433  1
  Hf  Hf16  1  0.000306  0.999504  0.500058  1
  Hf  Hf17  1  0.000496  0.999694  0.999942  1
  Hf  Hf18  1  0.499852  0.500072  0.000301  1
  Hf  Hf19  1  0.499928  0.500148  0.499699  1
  Ir  Ir20  1  0.142333  0.857667  0.250000  1
  Ir  Ir21  1  0.643905  0.356095  0.750000  1
  Ir  Ir22  1  0.644121  0.643764  0.250040  1
  Ir  Ir23  1  0.356236  0.355879  0.249960  1
  Ir  Ir24  1  0.356375  0.643625  0.750000  1
  Rh  Rh25  1  0.858019  0.141981  0.250000  1
  Rh  Rh26  1  0.856506  0.858086  0.749737  1
  Rh  Rh27  1  0.141914  0.143494  0.750263  1
  Rh  Rh28  1  0.501028  0.000245  0.117933  1
  Rh  Rh29  1  0.500673  0.000228  0.618912  1
  Rh  Rh30  1  0.999772  0.499327  0.881088  1
  Rh  Rh31  1  0.999755  0.498972  0.382067  1
