# generated using pymatgen
data_DyCo3B4Os
_symmetry_space_group_name_H-M   'P 1'
_cell_length_a   7.22920705
_cell_length_b   6.99540716
_cell_length_c   3.86829400
_cell_angle_alpha   90.00000000
_cell_angle_beta   90.00000000
_cell_angle_gamma   91.13025618
_symmetry_Int_Tables_number   1
_chemical_formula_structural   DyCo3B4Os
_chemical_formula_sum   'Dy2 Co6 B8 Os2'
_cell_volume   195.58638886
_cell_formula_units_Z   2
loop_
 _symmetry_equiv_pos_site_id
 _symmetry_equiv_pos_as_xyz
  1  'x, y, z'
loop_
 _atom_site_type_symbol
 _atom_site_label
 _atom_site_symmetry_multiplicity
 _atom_site_fract_x
 _atom_site_fract_y
 _atom_site_fract_z
 _atom_site_occupancy
  Dy  Dy0  1  0.000000  0.000000  0.940917  1
  Dy  Dy1  1  0.500000  0.500000  0.410217  1
  Co  Co2  1  0.337340  0.885316  0.399601  1
  Co  Co3  1  0.662660  0.114684  0.399601  1
  Co  Co4  1  0.115861  0.372008  0.621169  1
  Co  Co5  1  0.884139  0.627992  0.621169  1
  Co  Co6  1  0.125979  0.623399  0.121365  1
  Co  Co7  1  0.874021  0.376601  0.121365  1
  B  B8  1  0.816133  0.657845  0.118284  1
  B  B9  1  0.183867  0.342155  0.118284  1
  B  B10  1  0.837828  0.313075  0.616772  1
  B  B11  1  0.162172  0.686925  0.616772  1
  B  B12  1  0.727455  0.829512  0.400779  1
  B  B13  1  0.272545  0.170488  0.400779  1
  B  B14  1  0.669384  0.213756  0.901184  1
  B  B15  1  0.330616  0.786244  0.901184  1
  Os  Os16  1  0.386048  0.148729  0.895279  1
  Os  Os17  1  0.613952  0.851271  0.895279  1
