# generated using pymatgen
data_Tb8Sc12Ga15Ge
_symmetry_space_group_name_H-M   'P 1'
_cell_length_a   7.30626556
_cell_length_b   7.55043980
_cell_length_c   14.48883800
_cell_angle_alpha   90.00000000
_cell_angle_beta   90.00000000
_cell_angle_gamma   90.09569824
_symmetry_Int_Tables_number   1
_chemical_formula_structural   Tb8Sc12Ga15Ge
_chemical_formula_sum   'Tb8 Sc12 Ga15 Ge1'
_cell_volume   799.28314262
_cell_formula_units_Z   1
loop_
 _symmetry_equiv_pos_site_id
 _symmetry_equiv_pos_as_xyz
  1  'x, y, z'
loop_
 _atom_site_type_symbol
 _atom_site_label
 _atom_site_symmetry_multiplicity
 _atom_site_fract_x
 _atom_site_fract_y
 _atom_site_fract_z
 _atom_site_occupancy
  Tb  Tb0  1  0.011665  0.178924  0.095146  1
  Tb  Tb1  1  0.987873  0.819398  0.904186  1
  Tb  Tb2  1  0.487716  0.679402  0.904428  1
  Tb  Tb3  1  0.987873  0.819398  0.595814  1
  Tb  Tb4  1  0.511731  0.320114  0.094567  1
  Tb  Tb5  1  0.011665  0.178924  0.404854  1
  Tb  Tb6  1  0.511731  0.320114  0.405433  1
  Tb  Tb7  1  0.487716  0.679402  0.595572  1
  Sc  Sc8  1  0.160366  0.501347  0.750000  1
  Sc  Sc9  1  0.836423  0.497830  0.250000  1
  Sc  Sc10  1  0.337623  0.001426  0.250000  1
  Sc  Sc11  1  0.664114  0.996863  0.750000  1
  Sc  Sc12  1  0.332656  0.173006  0.623685  1
  Sc  Sc13  1  0.669911  0.827623  0.375972  1
  Sc  Sc14  1  0.169817  0.671890  0.375249  1
  Sc  Sc15  1  0.669911  0.827623  0.124028  1
  Sc  Sc16  1  0.828324  0.329755  0.623884  1
  Sc  Sc17  1  0.332656  0.173006  0.876315  1
  Sc  Sc18  1  0.828324  0.329755  0.876116  1
  Sc  Sc19  1  0.169817  0.671890  0.124751  1
  Ga  Ga20  1  0.032382  0.119862  0.750000  1
  Ga  Ga21  1  0.968239  0.882259  0.250000  1
  Ga  Ga22  1  0.468145  0.617482  0.250000  1
  Ga  Ga23  1  0.529509  0.386230  0.750000  1
  Ga  Ga24  1  0.285566  0.872798  0.750000  1
  Ga  Ga25  1  0.715172  0.127966  0.250000  1
  Ga  Ga26  1  0.215546  0.370781  0.250000  1
  Ga  Ga27  1  0.160860  0.464666  0.540897  1
  Ga  Ga28  1  0.838939  0.535330  0.459572  1
  Ga  Ga29  1  0.338386  0.963297  0.460125  1
  Ga  Ga30  1  0.838939  0.535330  0.040428  1
  Ga  Ga31  1  0.662700  0.035465  0.541220  1
  Ga  Ga32  1  0.160860  0.464666  0.959103  1
  Ga  Ga33  1  0.662700  0.035465  0.958780  1
  Ga  Ga34  1  0.338386  0.963297  0.039875  1
  Ge  Ge35  1  0.785767  0.627416  0.750000  1
