# generated using pymatgen
data_Tm6Ga6Co16Sb
_symmetry_space_group_name_H-M   'P 1'
_cell_length_a   8.44602234
_cell_length_b   8.44602288
_cell_length_c   8.44602300
_cell_angle_alpha   60.00000345
_cell_angle_beta   60.00000131
_cell_angle_gamma   60.00000075
_symmetry_Int_Tables_number   1
_chemical_formula_structural   Tm6Ga6Co16Sb
_chemical_formula_sum   'Tm6 Ga6 Co16 Sb1'
_cell_volume   426.03154701
_cell_formula_units_Z   1
loop_
 _symmetry_equiv_pos_site_id
 _symmetry_equiv_pos_as_xyz
  1  'x, y, z'
loop_
 _atom_site_type_symbol
 _atom_site_label
 _atom_site_symmetry_multiplicity
 _atom_site_fract_x
 _atom_site_fract_y
 _atom_site_fract_z
 _atom_site_occupancy
  Tm  Tm0  1  0.716627  0.283373  0.283373  1
  Tm  Tm1  1  0.283373  0.716627  0.716627  1
  Tm  Tm2  1  0.283373  0.716627  0.283373  1
  Tm  Tm3  1  0.283373  0.283373  0.716627  1
  Tm  Tm4  1  0.716627  0.283373  0.716627  1
  Tm  Tm5  1  0.716627  0.716627  0.283373  1
  Ga  Ga6  1  0.500000  0.000000  0.000000  1
  Ga  Ga7  1  0.000000  0.500000  0.500000  1
  Ga  Ga8  1  0.000000  0.500000  0.000000  1
  Ga  Ga9  1  0.000000  0.000000  0.500000  1
  Ga  Ga10  1  0.500000  0.000000  0.500000  1
  Ga  Ga11  1  0.500000  0.500000  0.000000  1
  Co  Co12  1  0.321886  0.321886  0.321886  1
  Co  Co13  1  0.321886  0.321886  0.034345  1
  Co  Co14  1  0.034345  0.321886  0.321886  1
  Co  Co15  1  0.321886  0.034345  0.321886  1
  Co  Co16  1  0.678114  0.678114  0.678114  1
  Co  Co17  1  0.678114  0.678114  0.965655  1
  Co  Co18  1  0.678114  0.965655  0.678114  1
  Co  Co19  1  0.965655  0.678114  0.678114  1
  Co  Co20  1  0.126839  0.126839  0.126839  1
  Co  Co21  1  0.126839  0.126839  0.619483  1
  Co  Co22  1  0.619483  0.126839  0.126839  1
  Co  Co23  1  0.126839  0.619483  0.126839  1
  Co  Co24  1  0.873161  0.873161  0.873161  1
  Co  Co25  1  0.873161  0.873161  0.380517  1
  Co  Co26  1  0.873161  0.380517  0.873161  1
  Co  Co27  1  0.380517  0.873161  0.873161  1
  Sb  Sb28  1  0.000000  0.000000  0.000000  1
