# generated using pymatgen
data_Dy3HoFe6(Ni7P6)2
_symmetry_space_group_name_H-M   'P 1'
_cell_length_a   3.70464200
_cell_length_b   10.30466733
_cell_length_c   11.88594950
_cell_angle_alpha   89.94209280
_cell_angle_beta   90.00000000
_cell_angle_gamma   90.00000000
_symmetry_Int_Tables_number   1
_chemical_formula_structural   Dy3HoFe6(Ni7P6)2
_chemical_formula_sum   'Dy3 Ho1 Fe6 Ni14 P12'
_cell_volume   453.74711932
_cell_formula_units_Z   1
loop_
 _symmetry_equiv_pos_site_id
 _symmetry_equiv_pos_as_xyz
  1  'x, y, z'
loop_
 _atom_site_type_symbol
 _atom_site_label
 _atom_site_symmetry_multiplicity
 _atom_site_fract_x
 _atom_site_fract_y
 _atom_site_fract_z
 _atom_site_occupancy
  Dy  Dy0  1  0.250000  0.924653  0.204373  1
  Dy  Dy1  1  0.750000  0.419470  0.295165  1
  Dy  Dy2  1  0.750000  0.080719  0.795131  1
  Ho  Ho3  1  0.250000  0.575021  0.704309  1
  Fe  Fe4  1  0.750000  0.125737  0.298858  1
  Fe  Fe5  1  0.750000  0.374485  0.798437  1
  Fe  Fe6  1  0.250000  0.465455  0.931835  1
  Fe  Fe7  1  0.250000  0.034629  0.432286  1
  Fe  Fe8  1  0.750000  0.539914  0.068595  1
  Fe  Fe9  1  0.750000  0.959914  0.568982  1
  Ni  Ni10  1  0.250000  0.717847  0.999179  1
  Ni  Ni11  1  0.250000  0.782099  0.499287  1
  Ni  Ni12  1  0.750000  0.289522  0.007803  1
  Ni  Ni13  1  0.750000  0.210420  0.508433  1
  Ni  Ni14  1  0.250000  0.406325  0.484913  1
  Ni  Ni15  1  0.250000  0.093850  0.984791  1
  Ni  Ni16  1  0.750000  0.589487  0.512318  1
  Ni  Ni17  1  0.750000  0.910523  0.011739  1
  Ni  Ni18  1  0.250000  0.227178  0.171736  1
  Ni  Ni19  1  0.250000  0.273081  0.671729  1
  Ni  Ni20  1  0.750000  0.772146  0.824007  1
  Ni  Ni21  1  0.750000  0.727498  0.324557  1
  Ni  Ni22  1  0.250000  0.874560  0.703635  1
  Ni  Ni23  1  0.250000  0.625497  0.203323  1
  P  P24  1  0.250000  0.430328  0.111170  1
  P  P25  1  0.250000  0.069749  0.611400  1
  P  P26  1  0.750000  0.568508  0.886261  1
  P  P27  1  0.750000  0.931373  0.386937  1
  P  P28  1  0.250000  0.272745  0.863704  1
  P  P29  1  0.250000  0.227292  0.363902  1
  P  P30  1  0.750000  0.734666  0.131996  1
  P  P31  1  0.750000  0.764803  0.632196  1
  P  P32  1  0.250000  0.604062  0.393339  1
  P  P33  1  0.250000  0.896066  0.893307  1
  P  P34  1  0.750000  0.392949  0.610205  1
  P  P35  1  0.750000  0.107425  0.110166  1
