# generated using pymatgen
data_Y4Ge5AsIr7
_symmetry_space_group_name_H-M   'P 1'
_cell_length_a   7.29156287
_cell_length_b   7.29156271
_cell_length_c   7.29156208
_cell_angle_alpha   109.34446326
_cell_angle_beta   109.72502820
_cell_angle_gamma   109.34446375
_symmetry_Int_Tables_number   1
_chemical_formula_structural   Y4Ge5AsIr7
_chemical_formula_sum   'Y4 Ge5 As1 Ir7'
_cell_volume   298.42387105
_cell_formula_units_Z   1
loop_
 _symmetry_equiv_pos_site_id
 _symmetry_equiv_pos_as_xyz
  1  'x, y, z'
loop_
 _atom_site_type_symbol
 _atom_site_label
 _atom_site_symmetry_multiplicity
 _atom_site_fract_x
 _atom_site_fract_y
 _atom_site_fract_z
 _atom_site_occupancy
  Y  Y0  1  0.999216  0.000000  0.499307  1
  Y  Y1  1  0.499307  0.000000  0.999216  1
  Y  Y2  1  0.999216  0.499909  0.999216  1
  Y  Y3  1  0.499307  0.500091  0.499307  1
  Ge  Ge4  1  0.679180  0.680300  0.998880  1
  Ge  Ge5  1  0.318581  0.319700  0.998880  1
  Ge  Ge6  1  0.998880  0.680300  0.679180  1
  Ge  Ge7  1  0.998880  0.319700  0.318581  1
  Ge  Ge8  1  0.684431  0.000000  0.684431  1
  As  As9  1  0.321679  0.000000  0.321679  1
  Ir  Ir10  1  0.000532  0.000000  0.000532  1
  Ir  Ir11  1  0.248975  0.500000  0.748975  1
  Ir  Ir12  1  0.750318  0.249607  0.500710  1
  Ir  Ir13  1  0.500710  0.249607  0.750318  1
  Ir  Ir14  1  0.500710  0.750393  0.251103  1
  Ir  Ir15  1  0.748975  0.500000  0.248975  1
  Ir  Ir16  1  0.251103  0.750393  0.500710  1
