# generated using pymatgen
data_Tm4Ir3PtF28
_symmetry_space_group_name_H-M   'P 1'
_cell_length_a   5.51262801
_cell_length_b   8.81092673
_cell_length_c   11.84841735
_cell_angle_alpha   62.73610392
_cell_angle_beta   90.13990389
_cell_angle_gamma   90.04217860
_symmetry_Int_Tables_number   1
_chemical_formula_structural   Tm4Ir3PtF28
_chemical_formula_sum   'Tm4 Ir3 Pt1 F28'
_cell_volume   511.55832435
_cell_formula_units_Z   1
loop_
 _symmetry_equiv_pos_site_id
 _symmetry_equiv_pos_as_xyz
  1  'x, y, z'
loop_
 _atom_site_type_symbol
 _atom_site_label
 _atom_site_symmetry_multiplicity
 _atom_site_fract_x
 _atom_site_fract_y
 _atom_site_fract_z
 _atom_site_occupancy
  Tm  Tm0  1  0.260503  0.815373  0.264240  1
  Tm  Tm1  1  0.738946  0.186706  0.734018  1
  Tm  Tm2  1  0.761235  0.184316  0.235657  1
  Tm  Tm3  1  0.239541  0.815167  0.765541  1
  Ir  Ir4  1  0.756682  0.726536  0.043666  1
  Ir  Ir5  1  0.242890  0.272923  0.956965  1
  Ir  Ir6  1  0.257885  0.274136  0.455255  1
  Pt  Pt7  1  0.741694  0.727512  0.543444  1
  F  F8  1  0.941751  0.701629  0.416060  1
  F  F9  1  0.058542  0.295260  0.583334  1
  F  F10  1  0.448702  0.294486  0.084398  1
  F  F11  1  0.552504  0.706100  0.915119  1
  F  F12  1  0.466393  0.730302  0.139476  1
  F  F13  1  0.532296  0.267161  0.862302  1
  F  F14  1  0.965742  0.273911  0.357381  1
  F  F15  1  0.034993  0.727805  0.638321  1
  F  F16  1  0.956452  0.746481  0.174625  1
  F  F17  1  0.042873  0.251668  0.826670  1
  F  F18  1  0.454109  0.254364  0.324632  1
  F  F19  1  0.546962  0.747411  0.675510  1
  F  F20  1  0.764739  0.479185  0.141417  1
  F  F21  1  0.234249  0.521262  0.857921  1
  F  F22  1  0.269654  0.521935  0.356427  1
  F  F23  1  0.730662  0.477423  0.644565  1
  F  F24  1  0.946068  0.281869  0.047036  1
  F  F25  1  0.054446  0.718787  0.952712  1
  F  F26  1  0.441019  0.718640  0.455755  1
  F  F27  1  0.558854  0.279400  0.546570  1
  F  F28  1  0.742417  0.977905  0.448557  1
  F  F29  1  0.255190  0.026622  0.550721  1
  F  F30  1  0.240500  0.024681  0.052106  1
  F  F31  1  0.758456  0.973904  0.948709  1
  F  F32  1  0.581335  0.970471  0.233104  1
  F  F33  1  0.419626  0.027923  0.768002  1
  F  F34  1  0.081292  0.027308  0.268105  1
  F  F35  1  0.920798  0.973443  0.731679  1
