# generated using pymatgen
data_Tb2Y8Cd3Os
_symmetry_space_group_name_H-M   'P 1'
_cell_length_a   9.64304070
_cell_length_b   9.64304160
_cell_length_c   9.90893895
_cell_angle_alpha   90.04345517
_cell_angle_beta   89.95654141
_cell_angle_gamma   120.00251088
_symmetry_Int_Tables_number   1
_chemical_formula_structural   Tb2Y8Cd3Os
_chemical_formula_sum   'Tb4 Y16 Cd6 Os2'
_cell_volume   797.94814416
_cell_formula_units_Z   2
loop_
 _symmetry_equiv_pos_site_id
 _symmetry_equiv_pos_as_xyz
  1  'x, y, z'
loop_
 _atom_site_type_symbol
 _atom_site_label
 _atom_site_symmetry_multiplicity
 _atom_site_fract_x
 _atom_site_fract_y
 _atom_site_fract_z
 _atom_site_occupancy
  Tb  Tb0  1  0.209692  0.790308  0.440132  1
  Tb  Tb1  1  0.209695  0.419462  0.440155  1
  Tb  Tb2  1  0.580538  0.790305  0.440155  1
  Tb  Tb3  1  0.790111  0.209889  0.560030  1
  Y  Y4  1  0.999965  0.000035  0.499909  1
  Y  Y5  1  0.000007  0.999993  0.000151  1
  Y  Y6  1  0.790383  0.580826  0.559551  1
  Y  Y7  1  0.419174  0.209617  0.559551  1
  Y  Y8  1  0.790406  0.209594  0.940450  1
  Y  Y9  1  0.790221  0.580577  0.940329  1
  Y  Y10  1  0.419423  0.209779  0.940329  1
  Y  Y11  1  0.209641  0.790359  0.059613  1
  Y  Y12  1  0.209616  0.419261  0.059568  1
  Y  Y13  1  0.580739  0.790384  0.059568  1
  Y  Y14  1  0.540223  0.459777  0.249996  1
  Y  Y15  1  0.540176  0.080462  0.250032  1
  Y  Y16  1  0.919538  0.459824  0.250032  1
  Y  Y17  1  0.459784  0.540216  0.750006  1
  Y  Y18  1  0.459751  0.919527  0.749990  1
  Y  Y19  1  0.080473  0.540249  0.749990  1
  Cd  Cd20  1  0.885530  0.114470  0.249761  1
  Cd  Cd21  1  0.885499  0.770963  0.249880  1
  Cd  Cd22  1  0.229037  0.114501  0.249880  1
  Cd  Cd23  1  0.114511  0.885489  0.750143  1
  Cd  Cd24  1  0.114579  0.229034  0.750207  1
  Cd  Cd25  1  0.770966  0.885421  0.750207  1
  Os  Os26  1  0.333361  0.666639  0.250869  1
  Os  Os27  1  0.666963  0.333037  0.749515  1
