# generated using pymatgen
data_NaYb2B2Pt7
_symmetry_space_group_name_H-M   'P 1'
_cell_length_a   8.26515908
_cell_length_b   8.26515837
_cell_length_c   8.26515875
_cell_angle_alpha   38.70402227
_cell_angle_beta   38.70402718
_cell_angle_gamma   38.70402463
_symmetry_Int_Tables_number   1
_chemical_formula_structural   NaYb2B2Pt7
_chemical_formula_sum   'Na1 Yb2 B2 Pt7'
_cell_volume   198.42582564
_cell_formula_units_Z   1
loop_
 _symmetry_equiv_pos_site_id
 _symmetry_equiv_pos_as_xyz
  1  'x, y, z'
loop_
 _atom_site_type_symbol
 _atom_site_label
 _atom_site_symmetry_multiplicity
 _atom_site_fract_x
 _atom_site_fract_y
 _atom_site_fract_z
 _atom_site_occupancy
  Na  Na0  1  0.855511  0.855511  0.855511  1
  Yb  Yb1  1  0.146424  0.146424  0.146424  1
  Yb  Yb2  1  0.997072  0.997072  0.997072  1
  B  B3  1  0.667886  0.667886  0.667886  1
  B  B4  1  0.332488  0.332488  0.332488  1
  Pt  Pt5  1  0.434770  0.932040  0.434770  1
  Pt  Pt6  1  0.434770  0.434770  0.932040  1
  Pt  Pt7  1  0.932040  0.434770  0.434770  1
  Pt  Pt8  1  0.565530  0.067970  0.565530  1
  Pt  Pt9  1  0.565530  0.565530  0.067970  1
  Pt  Pt10  1  0.067970  0.565530  0.565530  1
  Pt  Pt11  1  0.500007  0.500007  0.500007  1
