# generated using pymatgen
data_Be7VSiMo3
_symmetry_space_group_name_H-M   'P 1'
_cell_length_a   4.45065800
_cell_length_b   4.45065896
_cell_length_c   7.38615800
_cell_angle_alpha   90.00000000
_cell_angle_beta   90.00000000
_cell_angle_gamma   119.99999287
_symmetry_Int_Tables_number   1
_chemical_formula_structural   Be7VSiMo3
_chemical_formula_sum   'Be7 V1 Si1 Mo3'
_cell_volume   126.70617967
_cell_formula_units_Z   1
loop_
 _symmetry_equiv_pos_site_id
 _symmetry_equiv_pos_as_xyz
  1  'x, y, z'
loop_
 _atom_site_type_symbol
 _atom_site_label
 _atom_site_symmetry_multiplicity
 _atom_site_fract_x
 _atom_site_fract_y
 _atom_site_fract_z
 _atom_site_occupancy
  Be  Be0  1  0.000000  0.000000  0.000662  1
  Be  Be1  1  0.828814  0.171186  0.244128  1
  Be  Be2  1  0.828814  0.657627  0.244128  1
  Be  Be3  1  0.342373  0.171186  0.244128  1
  Be  Be4  1  0.171387  0.828613  0.756190  1
  Be  Be5  1  0.171387  0.342775  0.756190  1
  Be  Be6  1  0.657225  0.828613  0.756190  1
  V  V7  1  0.333333  0.666667  0.437418  1
  Si  Si8  1  0.000000  0.000000  0.498546  1
  Mo  Mo9  1  0.666667  0.333333  0.560938  1
  Mo  Mo10  1  0.666667  0.333333  0.938971  1
  Mo  Mo11  1  0.333333  0.666667  0.062513  1
