# generated using pymatgen
data_Nd7Y9(ErPb4)4
_symmetry_space_group_name_H-M   'P 1'
_cell_length_a   8.26784164
_cell_length_b   8.38506349
_cell_length_c   15.83211136
_cell_angle_alpha   89.75816163
_cell_angle_beta   90.30470682
_cell_angle_gamma   89.79352372
_symmetry_Int_Tables_number   1
_chemical_formula_structural   Nd7Y9(ErPb4)4
_chemical_formula_sum   'Nd7 Y9 Er4 Pb16'
_cell_volume   1097.55040679
_cell_formula_units_Z   1
loop_
 _symmetry_equiv_pos_site_id
 _symmetry_equiv_pos_as_xyz
  1  'x, y, z'
loop_
 _atom_site_type_symbol
 _atom_site_label
 _atom_site_symmetry_multiplicity
 _atom_site_fract_x
 _atom_site_fract_y
 _atom_site_fract_z
 _atom_site_occupancy
  Nd  Nd0  1  0.026719  0.178037  0.599076  1
  Nd  Nd1  1  0.473815  0.678171  0.402499  1
  Nd  Nd2  1  0.971797  0.821995  0.098141  1
  Nd  Nd3  1  0.472152  0.676470  0.097615  1
  Nd  Nd4  1  0.973965  0.821982  0.402243  1
  Nd  Nd5  1  0.525545  0.322408  0.597307  1
  Nd  Nd6  1  0.027626  0.178568  0.901498  1
  Y  Y7  1  0.369867  0.841850  0.878108  1
  Y  Y8  1  0.868011  0.658287  0.622333  1
  Y  Y9  1  0.630920  0.158595  0.377961  1
  Y  Y10  1  0.128999  0.341176  0.121213  1
  Y  Y11  1  0.628805  0.158486  0.121261  1
  Y  Y12  1  0.131448  0.341322  0.378259  1
  Y  Y13  1  0.368712  0.842333  0.623146  1
  Y  Y14  1  0.870262  0.657947  0.878571  1
  Y  Y15  1  0.531945  0.324539  0.900270  1
  Er  Er16  1  0.203907  0.504103  0.750918  1
  Er  Er17  1  0.703427  0.995302  0.750570  1
  Er  Er18  1  0.796106  0.494873  0.249274  1
  Er  Er19  1  0.296248  0.005021  0.249780  1
  Pb  Pb20  1  0.289299  0.037020  0.043812  1
  Pb  Pb21  1  0.791511  0.461403  0.456089  1
  Pb  Pb22  1  0.708645  0.961298  0.543775  1
  Pb  Pb23  1  0.214564  0.534480  0.955375  1
  Pb  Pb24  1  0.708783  0.964133  0.955937  1
  Pb  Pb25  1  0.207728  0.540171  0.543863  1
  Pb  Pb26  1  0.291356  0.038577  0.456865  1
  Pb  Pb27  1  0.787458  0.459468  0.041941  1
  Pb  Pb28  1  0.565429  0.626738  0.750225  1
  Pb  Pb29  1  0.065282  0.872441  0.750431  1
  Pb  Pb30  1  0.433989  0.372853  0.249689  1
  Pb  Pb31  1  0.934070  0.127497  0.249924  1
  Pb  Pb32  1  0.342527  0.153619  0.751765  1
  Pb  Pb33  1  0.837075  0.349364  0.750299  1
  Pb  Pb34  1  0.660594  0.848732  0.249914  1
  Pb  Pb35  1  0.161414  0.650740  0.250050  1
