# generated using pymatgen
data_Dy2Zr3(In2Pt)2
_symmetry_space_group_name_H-M   'P 1'
_cell_length_a   3.56705000
_cell_length_b   7.81802600
_cell_length_c   17.73697800
_cell_angle_alpha   90.00000000
_cell_angle_beta   90.00000000
_cell_angle_gamma   90.00000000
_symmetry_Int_Tables_number   1
_chemical_formula_structural   Dy2Zr3(In2Pt)2
_chemical_formula_sum   'Dy4 Zr6 In8 Pt4'
_cell_volume   494.63624288
_cell_formula_units_Z   2
loop_
 _symmetry_equiv_pos_site_id
 _symmetry_equiv_pos_as_xyz
  1  'x, y, z'
loop_
 _atom_site_type_symbol
 _atom_site_label
 _atom_site_symmetry_multiplicity
 _atom_site_fract_x
 _atom_site_fract_y
 _atom_site_fract_z
 _atom_site_occupancy
  Dy  Dy0  1  0.000000  0.243831  0.218048  1
  Dy  Dy1  1  0.000000  0.756169  0.781952  1
  Dy  Dy2  1  0.000000  0.256169  0.718048  1
  Dy  Dy3  1  0.000000  0.743831  0.281952  1
  Zr  Zr4  1  0.000000  0.125352  0.421347  1
  Zr  Zr5  1  0.000000  0.874648  0.578653  1
  Zr  Zr6  1  0.000000  0.374648  0.921347  1
  Zr  Zr7  1  0.000000  0.625352  0.078653  1
  Zr  Zr8  1  0.000000  0.000000  0.000000  1
  Zr  Zr9  1  0.000000  0.500000  0.500000  1
  In  In10  1  0.500000  0.422403  0.354038  1
  In  In11  1  0.500000  0.577597  0.645962  1
  In  In12  1  0.500000  0.077597  0.854038  1
  In  In13  1  0.500000  0.922403  0.145962  1
  In  In14  1  0.500000  0.294736  0.061181  1
  In  In15  1  0.500000  0.705264  0.938819  1
  In  In16  1  0.500000  0.205264  0.561181  1
  In  In17  1  0.500000  0.794736  0.438819  1
  Pt  Pt18  1  0.500000  0.035827  0.309383  1
  Pt  Pt19  1  0.500000  0.964173  0.690617  1
  Pt  Pt20  1  0.500000  0.464173  0.809383  1
  Pt  Pt21  1  0.500000  0.535827  0.190617  1
