# generated using pymatgen
data_Pr12B2AsPBr12
_symmetry_space_group_name_H-M   'P 1'
_cell_length_a   10.43693196
_cell_length_b   10.43691403
_cell_length_c   10.18677353
_cell_angle_alpha   109.16555439
_cell_angle_beta   109.16556920
_cell_angle_gamma   110.11818005
_symmetry_Int_Tables_number   1
_chemical_formula_structural   Pr12B2AsPBr12
_chemical_formula_sum   'Pr12 B2 As1 P1 Br12'
_cell_volume   853.76520469
_cell_formula_units_Z   1
loop_
 _symmetry_equiv_pos_site_id
 _symmetry_equiv_pos_as_xyz
  1  'x, y, z'
loop_
 _atom_site_type_symbol
 _atom_site_label
 _atom_site_symmetry_multiplicity
 _atom_site_fract_x
 _atom_site_fract_y
 _atom_site_fract_z
 _atom_site_occupancy
  Pr  Pr0  1  0.463751  0.488704  0.224962  1
  Pr  Pr1  1  0.774320  0.245662  0.277303  1
  Pr  Pr2  1  0.772066  0.027421  0.498172  1
  Pr  Pr3  1  0.230542  0.469042  0.490950  1
  Pr  Pr4  1  0.254340  0.725680  0.222698  1
  Pr  Pr5  1  0.030959  0.269461  0.009053  1
  Pr  Pr6  1  0.011293  0.036246  0.275037  1
  Pr  Pr7  1  0.472578  0.727935  0.001827  1
  Pr  Pr8  1  0.483414  0.243439  0.478286  1
  Pr  Pr9  1  0.020754  0.479246  0.750001  1
  Pr  Pr10  1  0.256562  0.016585  0.021714  1
  Pr  Pr11  1  0.231411  0.268588  0.750000  1
  B  B12  1  0.997476  0.248743  0.498967  1
  B  B13  1  0.251258  0.502526  0.001033  1
  As  As14  1  0.499919  0.000082  0.250000  1
  P  P15  1  0.249300  0.250697  0.249999  1
  Br  Br16  1  0.247941  0.755499  0.742069  1
  Br  Br17  1  0.514833  0.506581  0.758433  1
  Br  Br18  1  0.991320  0.744934  0.995050  1
  Br  Br19  1  0.744501  0.252058  0.757931  1
  Br  Br20  1  0.993417  0.985169  0.741565  1
  Br  Br21  1  0.249820  0.995969  0.505399  1
  Br  Br22  1  0.755065  0.508680  0.504949  1
  Br  Br23  1  0.504032  0.250181  0.994604  1
  Br  Br24  1  0.755231  0.744767  0.250003  1
  Br  Br25  1  0.745088  0.995051  0.990445  1
  Br  Br26  1  0.993856  0.506143  0.250000  1
  Br  Br27  1  0.504951  0.754911  0.509554  1
