# generated using pymatgen
data_Sc2(PaFe)3
_symmetry_space_group_name_H-M   'P 1'
_cell_length_a   6.32016400
_cell_length_b   7.50547077
_cell_length_c   7.50547200
_cell_angle_alpha   120.00000542
_cell_angle_beta   90.00000000
_cell_angle_gamma   90.00000000
_symmetry_Int_Tables_number   1
_chemical_formula_structural   Sc2(PaFe)3
_chemical_formula_sum   'Sc4 Pa6 Fe6'
_cell_volume   308.32937521
_cell_formula_units_Z   2
loop_
 _symmetry_equiv_pos_site_id
 _symmetry_equiv_pos_as_xyz
  1  'x, y, z'
loop_
 _atom_site_type_symbol
 _atom_site_label
 _atom_site_symmetry_multiplicity
 _atom_site_fract_x
 _atom_site_fract_y
 _atom_site_fract_z
 _atom_site_occupancy
  Sc  Sc0  1  0.000000  0.666667  0.333333  1
  Sc  Sc1  1  0.000000  0.333333  0.666667  1
  Sc  Sc2  1  0.500000  0.333333  0.666667  1
  Sc  Sc3  1  0.500000  0.666667  0.333333  1
  Pa  Pa4  1  0.750000  0.752727  0.752727  1
  Pa  Pa5  1  0.250000  0.247273  0.247273  1
  Pa  Pa6  1  0.750000  0.000000  0.247273  1
  Pa  Pa7  1  0.250000  0.000000  0.752727  1
  Pa  Pa8  1  0.750000  0.247273  0.000000  1
  Pa  Pa9  1  0.250000  0.752727  0.000000  1
  Fe  Fe10  1  0.750000  0.356794  0.356794  1
  Fe  Fe11  1  0.250000  0.643206  0.643206  1
  Fe  Fe12  1  0.750000  0.000000  0.643206  1
  Fe  Fe13  1  0.250000  0.000000  0.356794  1
  Fe  Fe14  1  0.750000  0.643206  0.000000  1
  Fe  Fe15  1  0.250000  0.356794  0.000000  1
