# generated using pymatgen
data_Ce3U3(TaSb5)2
_symmetry_space_group_name_H-M   'P 1'
_cell_length_a   9.30524923
_cell_length_b   9.29298393
_cell_length_c   6.15074600
_cell_angle_alpha   90.00000000
_cell_angle_beta   90.00000000
_cell_angle_gamma   120.35580233
_symmetry_Int_Tables_number   1
_chemical_formula_structural   Ce3U3(TaSb5)2
_chemical_formula_sum   'Ce3 U3 Ta2 Sb10'
_cell_volume   458.95843122
_cell_formula_units_Z   1
loop_
 _symmetry_equiv_pos_site_id
 _symmetry_equiv_pos_as_xyz
  1  'x, y, z'
loop_
 _atom_site_type_symbol
 _atom_site_label
 _atom_site_symmetry_multiplicity
 _atom_site_fract_x
 _atom_site_fract_y
 _atom_site_fract_z
 _atom_site_occupancy
  Ce  Ce0  1  0.617594  0.000456  0.750000  1
  Ce  Ce1  1  0.378703  0.997999  0.250000  1
  Ce  Ce2  1  0.002251  0.617992  0.750000  1
  U  U3  1  0.997191  0.379420  0.250000  1
  U  U4  1  0.388325  0.385571  0.750000  1
  U  U5  1  0.616141  0.616206  0.250000  1
  Ta  Ta6  1  0.000015  0.001492  0.500602  1
  Ta  Ta7  1  0.000015  0.001492  0.999398  1
  Sb  Sb8  1  0.265398  0.005070  0.750000  1
  Sb  Sb9  1  0.735101  0.998335  0.250000  1
  Sb  Sb10  1  0.005235  0.267750  0.750000  1
  Sb  Sb11  1  0.995154  0.734542  0.250000  1
  Sb  Sb12  1  0.734513  0.735018  0.750000  1
  Sb  Sb13  1  0.264100  0.267947  0.250000  1
  Sb  Sb14  1  0.333524  0.659911  0.498243  1
  Sb  Sb15  1  0.666609  0.335443  0.498135  1
  Sb  Sb16  1  0.666609  0.335443  0.001865  1
  Sb  Sb17  1  0.333524  0.659911  0.001757  1
