# generated using pymatgen
data_Tm3Sn3PtRh2
_symmetry_space_group_name_H-M   'P 1'
_cell_length_a   7.61109900
_cell_length_b   7.61109868
_cell_length_c   3.75460600
_cell_angle_alpha   90.00000000
_cell_angle_beta   90.00000000
_cell_angle_gamma   119.99999706
_symmetry_Int_Tables_number   1
_chemical_formula_structural   Tm3Sn3PtRh2
_chemical_formula_sum   'Tm3 Sn3 Pt1 Rh2'
_cell_volume   188.36045807
_cell_formula_units_Z   1
loop_
 _symmetry_equiv_pos_site_id
 _symmetry_equiv_pos_as_xyz
  1  'x, y, z'
loop_
 _atom_site_type_symbol
 _atom_site_label
 _atom_site_symmetry_multiplicity
 _atom_site_fract_x
 _atom_site_fract_y
 _atom_site_fract_z
 _atom_site_occupancy
  Tm  Tm0  1  0.003075  0.404833  0.000000  1
  Tm  Tm1  1  0.595167  0.598242  0.000000  1
  Tm  Tm2  1  0.401758  0.996925  0.000000  1
  Sn  Sn3  1  0.261774  0.265616  0.500000  1
  Sn  Sn4  1  0.003842  0.738226  0.500000  1
  Sn  Sn5  1  0.734384  0.996158  0.500000  1
  Pt  Pt6  1  0.666667  0.333333  0.500000  1
  Rh  Rh7  1  0.333333  0.666667  0.500000  1
  Rh  Rh8  1  0.000000  0.000000  0.000000  1
