# generated using pymatgen
data_TbYEr2(LuPt)4
_symmetry_space_group_name_H-M   'P 1'
_cell_length_a   4.74208500
_cell_length_b   7.09665000
_cell_length_c   8.61492445
_cell_angle_alpha   89.95713054
_cell_angle_beta   90.00000000
_cell_angle_gamma   90.00000000
_symmetry_Int_Tables_number   1
_chemical_formula_structural   TbYEr2(LuPt)4
_chemical_formula_sum   'Tb1 Y1 Er2 Lu4 Pt4'
_cell_volume   289.91726079
_cell_formula_units_Z   1
loop_
 _symmetry_equiv_pos_site_id
 _symmetry_equiv_pos_as_xyz
  1  'x, y, z'
loop_
 _atom_site_type_symbol
 _atom_site_label
 _atom_site_symmetry_multiplicity
 _atom_site_fract_x
 _atom_site_fract_y
 _atom_site_fract_z
 _atom_site_occupancy
  Tb  Tb0  1  0.250000  0.987261  0.328932  1
  Y  Y1  1  0.750000  0.513330  0.828058  1
  Er  Er2  1  0.250000  0.487611  0.168980  1
  Er  Er3  1  0.750000  0.012026  0.669947  1
  Lu  Lu4  1  0.250000  0.355682  0.577140  1
  Lu  Lu5  1  0.250000  0.857703  0.922184  1
  Lu  Lu6  1  0.750000  0.642315  0.422032  1
  Lu  Lu7  1  0.750000  0.144058  0.076832  1
  Pt  Pt8  1  0.250000  0.253182  0.906834  1
  Pt  Pt9  1  0.250000  0.754035  0.595597  1
  Pt  Pt10  1  0.750000  0.746335  0.095710  1
  Pt  Pt11  1  0.750000  0.246463  0.407754  1
