# generated using pymatgen
data_Hf3Sc(Al3Rh)6
_symmetry_space_group_name_H-M   'P 1'
_cell_length_a   7.44272369
_cell_length_b   7.43980414
_cell_length_c   9.22952100
_cell_angle_alpha   90.00000000
_cell_angle_beta   90.00000000
_cell_angle_gamma   119.74955218
_symmetry_Int_Tables_number   1
_chemical_formula_structural   Hf3Sc(Al3Rh)6
_chemical_formula_sum   'Hf3 Sc1 Al18 Rh6'
_cell_volume   443.70435326
_cell_formula_units_Z   1
loop_
 _symmetry_equiv_pos_site_id
 _symmetry_equiv_pos_as_xyz
  1  'x, y, z'
loop_
 _atom_site_type_symbol
 _atom_site_label
 _atom_site_symmetry_multiplicity
 _atom_site_fract_x
 _atom_site_fract_y
 _atom_site_fract_z
 _atom_site_occupancy
  Hf  Hf0  1  0.994738  0.672390  0.750000  1
  Hf  Hf1  1  0.005950  0.328677  0.250000  1
  Hf  Hf2  1  0.670864  0.993791  0.750000  1
  Sc  Sc3  1  0.328356  0.006203  0.250000  1
  Al  Al4  1  0.122882  0.123378  0.750000  1
  Al  Al5  1  0.876072  0.877592  0.250000  1
  Al  Al6  1  0.996774  0.334751  0.577572  1
  Al  Al7  1  0.003341  0.665482  0.422669  1
  Al  Al8  1  0.003341  0.665482  0.077331  1
  Al  Al9  1  0.334928  0.997431  0.921948  1
  Al  Al10  1  0.996774  0.334751  0.922428  1
  Al  Al11  1  0.665074  0.002704  0.077517  1
  Al  Al12  1  0.665074  0.002704  0.422483  1
  Al  Al13  1  0.334928  0.997431  0.578052  1
  Al  Al14  1  0.331087  0.330968  0.057804  1
  Al  Al15  1  0.669156  0.669027  0.939858  1
  Al  Al16  1  0.669156  0.669027  0.560142  1
  Al  Al17  1  0.331087  0.330968  0.442196  1
  Al  Al18  1  0.338016  0.553528  0.750000  1
  Al  Al19  1  0.663140  0.446247  0.250000  1
  Al  Al20  1  0.554867  0.338556  0.750000  1
  Al  Al21  1  0.444116  0.658498  0.250000  1
  Rh  Rh22  1  0.673795  0.327795  0.500998  1
  Rh  Rh23  1  0.327518  0.673080  0.501569  1
  Rh  Rh24  1  0.327518  0.673080  0.998431  1
  Rh  Rh25  1  0.673795  0.327795  0.999002  1
  Rh  Rh26  1  0.998824  0.999331  0.501267  1
  Rh  Rh27  1  0.998824  0.999331  0.998733  1
