# generated using pymatgen
data_Pr5Sn10(PdPt)2
_symmetry_space_group_name_H-M   'P 1'
_cell_length_a   14.28595700
_cell_length_b   14.25737900
_cell_length_c   4.70514600
_cell_angle_alpha   90.00000000
_cell_angle_beta   90.00000000
_cell_angle_gamma   90.00000000
_symmetry_Int_Tables_number   1
_chemical_formula_structural   Pr5Sn10(PdPt)2
_chemical_formula_sum   'Pr10 Sn20 Pd4 Pt4'
_cell_volume   958.34556448
_cell_formula_units_Z   2
loop_
 _symmetry_equiv_pos_site_id
 _symmetry_equiv_pos_as_xyz
  1  'x, y, z'
loop_
 _atom_site_type_symbol
 _atom_site_label
 _atom_site_symmetry_multiplicity
 _atom_site_fract_x
 _atom_site_fract_y
 _atom_site_fract_z
 _atom_site_occupancy
  Pr  Pr0  1  0.500000  0.500000  0.000000  1
  Pr  Pr1  1  0.000000  0.000000  0.000000  1
  Pr  Pr2  1  0.678981  0.181541  0.500000  1
  Pr  Pr3  1  0.321019  0.818459  0.500000  1
  Pr  Pr4  1  0.178981  0.318459  0.500000  1
  Pr  Pr5  1  0.821019  0.681541  0.500000  1
  Pr  Pr6  1  0.892146  0.391375  0.500000  1
  Pr  Pr7  1  0.107854  0.608625  0.500000  1
  Pr  Pr8  1  0.392146  0.108625  0.500000  1
  Pr  Pr9  1  0.607854  0.891375  0.500000  1
  Sn  Sn10  1  0.569889  0.069021  0.000000  1
  Sn  Sn11  1  0.430111  0.930979  0.000000  1
  Sn  Sn12  1  0.069889  0.430979  0.000000  1
  Sn  Sn13  1  0.930111  0.569021  0.000000  1
  Sn  Sn14  1  0.653528  0.702428  0.000000  1
  Sn  Sn15  1  0.346472  0.297572  0.000000  1
  Sn  Sn16  1  0.153528  0.797572  0.000000  1
  Sn  Sn17  1  0.846472  0.202428  0.000000  1
  Sn  Sn18  1  0.298633  0.651416  0.000000  1
  Sn  Sn19  1  0.701367  0.348584  0.000000  1
  Sn  Sn20  1  0.201367  0.151416  0.000000  1
  Sn  Sn21  1  0.798633  0.848584  0.000000  1
  Sn  Sn22  1  0.662880  0.503087  0.500000  1
  Sn  Sn23  1  0.337120  0.496913  0.500000  1
  Sn  Sn24  1  0.162880  0.996913  0.500000  1
  Sn  Sn25  1  0.837120  0.003087  0.500000  1
  Sn  Sn26  1  0.498096  0.660603  0.500000  1
  Sn  Sn27  1  0.501904  0.339397  0.500000  1
  Sn  Sn28  1  0.001904  0.160603  0.500000  1
  Sn  Sn29  1  0.998096  0.839397  0.500000  1
  Pd  Pd30  1  0.744344  0.532329  0.000000  1
  Pd  Pd31  1  0.255656  0.467671  0.000000  1
  Pd  Pd32  1  0.244344  0.967671  0.000000  1
  Pd  Pd33  1  0.755656  0.032329  0.000000  1
  Pt  Pt34  1  0.468205  0.744183  0.000000  1
  Pt  Pt35  1  0.531795  0.255817  0.000000  1
  Pt  Pt36  1  0.031795  0.244183  0.000000  1
  Pt  Pt37  1  0.968205  0.755817  0.000000  1
