# generated using pymatgen
data_TmPa(B2Ir)3
_symmetry_space_group_name_H-M   'P 1'
_cell_length_a   3.73502100
_cell_length_b   5.94278304
_cell_length_c   5.94278250
_cell_angle_alpha   94.07394580
_cell_angle_beta   90.00000000
_cell_angle_gamma   90.00000000
_symmetry_Int_Tables_number   1
_chemical_formula_structural   TmPa(B2Ir)3
_chemical_formula_sum   'Tm1 Pa1 B6 Ir3'
_cell_volume   131.57518558
_cell_formula_units_Z   1
loop_
 _symmetry_equiv_pos_site_id
 _symmetry_equiv_pos_as_xyz
  1  'x, y, z'
loop_
 _atom_site_type_symbol
 _atom_site_label
 _atom_site_symmetry_multiplicity
 _atom_site_fract_x
 _atom_site_fract_y
 _atom_site_fract_z
 _atom_site_occupancy
  Tm  Tm0  1  0.000000  0.729574  0.270426  1
  Pa  Pa1  1  0.000000  0.271720  0.728280  1
  B  B2  1  0.500000  0.914726  0.614788  1
  B  B3  1  0.500000  0.086173  0.387832  1
  B  B4  1  0.500000  0.612168  0.913827  1
  B  B5  1  0.500000  0.385212  0.085274  1
  B  B6  1  0.500000  0.604609  0.607655  1
  B  B7  1  0.500000  0.392345  0.395391  1
  Ir  Ir8  1  0.500000  0.002411  0.997589  1
  Ir  Ir9  1  0.000000  0.761722  0.760662  1
  Ir  Ir10  1  0.000000  0.239338  0.238278  1
