# generated using pymatgen
data_TbPr2Er7(In2Pd)4
_symmetry_space_group_name_H-M   'P 1'
_cell_length_a   3.61894000
_cell_length_b   8.19814145
_cell_length_c   18.35929849
_cell_angle_alpha   89.91139919
_cell_angle_beta   90.00000000
_cell_angle_gamma   90.00000000
_symmetry_Int_Tables_number   1
_chemical_formula_structural   TbPr2Er7(In2Pd)4
_chemical_formula_sum   'Tb1 Pr2 Er7 In8 Pd4'
_cell_volume   544.69370177
_cell_formula_units_Z   1
loop_
 _symmetry_equiv_pos_site_id
 _symmetry_equiv_pos_as_xyz
  1  'x, y, z'
loop_
 _atom_site_type_symbol
 _atom_site_label
 _atom_site_symmetry_multiplicity
 _atom_site_fract_x
 _atom_site_fract_y
 _atom_site_fract_z
 _atom_site_occupancy
  Tb  Tb0  1  0.000000  0.738004  0.281733  1
  Pr  Pr1  1  0.000000  0.500022  0.500007  1
  Pr  Pr2  1  0.000000  0.999999  0.999936  1
  Er  Er3  1  0.000000  0.261670  0.718546  1
  Er  Er4  1  0.000000  0.761790  0.781422  1
  Er  Er5  1  0.000000  0.238210  0.218549  1
  Er  Er6  1  0.000000  0.620009  0.084370  1
  Er  Er7  1  0.000000  0.380004  0.915456  1
  Er  Er8  1  0.000000  0.879989  0.584503  1
  Er  Er9  1  0.000000  0.120196  0.415564  1
  In  In10  1  0.500000  0.699476  0.931226  1
  In  In11  1  0.500000  0.300265  0.068768  1
  In  In12  1  0.500000  0.800835  0.431693  1
  In  In13  1  0.500000  0.199544  0.568789  1
  In  In14  1  0.500000  0.583717  0.653810  1
  In  In15  1  0.500000  0.415423  0.346295  1
  In  In16  1  0.500000  0.916890  0.153449  1
  In  In17  1  0.500000  0.083652  0.846203  1
  Pd  Pd18  1  0.500000  0.522663  0.195399  1
  Pd  Pd19  1  0.500000  0.476176  0.804146  1
  Pd  Pd20  1  0.500000  0.976188  0.695869  1
  Pd  Pd21  1  0.500000  0.025279  0.304268  1
