# generated using pymatgen
data_Tm(Zr5Os2)2
_symmetry_space_group_name_H-M   'P 1'
_cell_length_a   9.61853281
_cell_length_b   9.59045443
_cell_length_c   9.59045411
_cell_angle_alpha   59.96652821
_cell_angle_beta   59.90310776
_cell_angle_gamma   59.90310667
_symmetry_Int_Tables_number   1
_chemical_formula_structural   Tm(Zr5Os2)2
_chemical_formula_sum   'Tm2 Zr20 Os8'
_cell_volume   624.48921002
_cell_formula_units_Z   2
loop_
 _symmetry_equiv_pos_site_id
 _symmetry_equiv_pos_as_xyz
  1  'x, y, z'
loop_
 _atom_site_type_symbol
 _atom_site_label
 _atom_site_symmetry_multiplicity
 _atom_site_fract_x
 _atom_site_fract_y
 _atom_site_fract_z
 _atom_site_occupancy
  Tm  Tm0  1  0.801453  0.800377  0.199623  1
  Tm  Tm1  1  0.198547  0.800377  0.199623  1
  Zr  Zr2  1  0.799789  0.199469  0.200952  1
  Zr  Zr3  1  0.203949  0.203737  0.796263  1
  Zr  Zr4  1  0.796051  0.203737  0.796263  1
  Zr  Zr5  1  0.200211  0.799048  0.800531  1
  Zr  Zr6  1  0.618210  0.614578  0.149001  1
  Zr  Zr7  1  0.617155  0.148060  0.617630  1
  Zr  Zr8  1  0.151011  0.616047  0.619387  1
  Zr  Zr9  1  0.613554  0.616047  0.619387  1
  Zr  Zr10  1  0.382845  0.382370  0.851940  1
  Zr  Zr11  1  0.381790  0.850999  0.385422  1
  Zr  Zr12  1  0.848989  0.380613  0.383953  1
  Zr  Zr13  1  0.386446  0.380613  0.383953  1
  Zr  Zr14  1  0.834047  0.835574  0.496330  1
  Zr  Zr15  1  0.838326  0.486073  0.837275  1
  Zr  Zr16  1  0.491305  0.837011  0.834725  1
  Zr  Zr17  1  0.836958  0.837011  0.834725  1
  Zr  Zr18  1  0.161674  0.162725  0.513927  1
  Zr  Zr19  1  0.165953  0.503670  0.164426  1
  Zr  Zr20  1  0.508695  0.165275  0.162989  1
  Zr  Zr21  1  0.163042  0.165275  0.162989  1
  Os  Os22  1  0.000000  0.014661  0.985339  1
  Os  Os23  1  0.500000  0.499984  0.500016  1
  Os  Os24  1  0.001118  0.999624  0.500047  1
  Os  Os25  1  0.499211  0.999624  0.500047  1
  Os  Os26  1  0.000000  0.499005  0.500995  1
  Os  Os27  1  0.500789  0.499953  0.000376  1
  Os  Os28  1  0.998882  0.499953  0.000376  1
  Os  Os29  1  0.500000  0.998510  0.001490  1
