# generated using pymatgen
data_Sm6Zn4AgPt12
_symmetry_space_group_name_H-M   'P 1'
_cell_length_a   8.35124834
_cell_length_b   8.35124968
_cell_length_c   8.40162400
_cell_angle_alpha   109.35584323
_cell_angle_beta   109.35584645
_cell_angle_gamma   109.45907066
_symmetry_Int_Tables_number   1
_chemical_formula_structural   Sm6Zn4AgPt12
_chemical_formula_sum   'Sm6 Zn4 Ag1 Pt12'
_cell_volume   452.41705165
_cell_formula_units_Z   1
loop_
 _symmetry_equiv_pos_site_id
 _symmetry_equiv_pos_as_xyz
  1  'x, y, z'
loop_
 _atom_site_type_symbol
 _atom_site_label
 _atom_site_symmetry_multiplicity
 _atom_site_fract_x
 _atom_site_fract_y
 _atom_site_fract_z
 _atom_site_occupancy
  Sm  Sm0  1  0.706666  0.706666  0.008219  1
  Sm  Sm1  1  0.302607  0.993290  0.295897  1
  Sm  Sm2  1  0.993290  0.302607  0.295897  1
  Sm  Sm3  1  0.301552  0.301552  0.008219  1
  Sm  Sm4  1  0.698012  0.999335  0.697347  1
  Sm  Sm5  1  0.999335  0.698012  0.697347  1
  Zn  Zn6  1  0.997640  0.997640  0.500631  1
  Zn  Zn7  1  0.999513  0.499513  0.999027  1
  Zn  Zn8  1  0.499513  0.999513  0.999027  1
  Zn  Zn9  1  0.502991  0.502991  0.500631  1
  Ag  Ag10  1  0.329594  0.329594  0.659186  1
  Pt  Pt11  1  0.672625  0.000645  0.328801  1
  Pt  Pt12  1  0.000645  0.672625  0.328801  1
  Pt  Pt13  1  0.668931  0.331117  0.000048  1
  Pt  Pt14  1  0.328156  0.656175  0.328801  1
  Pt  Pt15  1  0.000526  0.329398  0.670530  1
  Pt  Pt16  1  0.331117  0.668931  0.000048  1
  Pt  Pt17  1  0.329398  0.000526  0.670530  1
  Pt  Pt18  1  0.656175  0.328156  0.328801  1
  Pt  Pt19  1  0.669860  0.669860  0.339721  1
  Pt  Pt20  1  0.670004  0.341134  0.670530  1
  Pt  Pt21  1  0.341134  0.670004  0.670530  1
  Pt  Pt22  1  0.000714  0.000714  0.001429  1
