# generated using pymatgen
data_Y5Co2O11F
_symmetry_space_group_name_H-M   'P 1'
_cell_length_a   6.70841054
_cell_length_b   6.76681051
_cell_length_c   7.20304300
_cell_angle_alpha   74.81971007
_cell_angle_beta   74.64580871
_cell_angle_gamma   50.19437497
_symmetry_Int_Tables_number   1
_chemical_formula_structural   Y5Co2O11F
_chemical_formula_sum   'Y5 Co2 O11 F1'
_cell_volume   240.33684603
_cell_formula_units_Z   1
loop_
 _symmetry_equiv_pos_site_id
 _symmetry_equiv_pos_as_xyz
  1  'x, y, z'
loop_
 _atom_site_type_symbol
 _atom_site_label
 _atom_site_symmetry_multiplicity
 _atom_site_fract_x
 _atom_site_fract_y
 _atom_site_fract_z
 _atom_site_occupancy
  Y  Y0  1  0.320846  0.294059  0.344683  1
  Y  Y1  1  0.671949  0.701120  0.650544  1
  Y  Y2  1  0.694950  0.689871  0.159162  1
  Y  Y3  1  0.315726  0.292515  0.850369  1
  Y  Y4  1  0.984519  0.032930  0.495707  1
  Co  Co5  1  0.759740  0.242631  0.997825  1
  Co  Co6  1  0.243657  0.752523  0.001815  1
  O  O7  1  0.999150  0.000787  0.176344  1
  O  O8  1  0.397601  0.902718  0.422349  1
  O  O9  1  0.504715  0.494878  0.176676  1
  O  O10  1  0.098846  0.579024  0.081727  1
  O  O11  1  0.907111  0.409488  0.429015  1
  O  O12  1  0.001782  0.995899  0.825214  1
  O  O13  1  0.592745  0.098670  0.577272  1
  O  O14  1  0.497937  0.498016  0.822304  1
  O  O15  1  0.585564  0.092563  0.080361  1
  O  O16  1  0.417470  0.898928  0.923368  1
  O  O17  1  0.906403  0.417441  0.911109  1
  F  F18  1  0.099289  0.605939  0.574153  1
