# generated using pymatgen
data_Te3SeCl16
_symmetry_space_group_name_H-M   'P 1'
_cell_length_a   10.52535443
_cell_length_b   10.52535426
_cell_length_c   12.74825500
_cell_angle_alpha   90.00000000
_cell_angle_beta   90.00000000
_cell_angle_gamma   102.65562226
_symmetry_Int_Tables_number   1
_chemical_formula_structural   Te3SeCl16
_chemical_formula_sum   'Te6 Se2 Cl32'
_cell_volume   1377.97873266
_cell_formula_units_Z   2
loop_
 _symmetry_equiv_pos_site_id
 _symmetry_equiv_pos_as_xyz
  1  'x, y, z'
loop_
 _atom_site_type_symbol
 _atom_site_label
 _atom_site_symmetry_multiplicity
 _atom_site_fract_x
 _atom_site_fract_y
 _atom_site_fract_z
 _atom_site_occupancy
  Te  Te0  1  0.537333  0.267756  0.997158  1
  Te  Te1  1  0.462667  0.732244  0.497158  1
  Te  Te2  1  0.732244  0.462667  0.497158  1
  Te  Te3  1  0.267756  0.537333  0.997158  1
  Te  Te4  1  0.139869  0.139869  0.732069  1
  Te  Te5  1  0.860131  0.860131  0.232069  1
  Se  Se6  1  0.671435  0.671435  0.976043  1
  Se  Se7  1  0.328565  0.328565  0.476043  1
  Cl  Cl8  1  0.729258  0.252109  0.088763  1
  Cl  Cl9  1  0.270742  0.747891  0.588763  1
  Cl  Cl10  1  0.747891  0.270742  0.588763  1
  Cl  Cl11  1  0.252109  0.729258  0.088763  1
  Cl  Cl12  1  0.565019  0.118321  0.864822  1
  Cl  Cl13  1  0.434981  0.881679  0.364822  1
  Cl  Cl14  1  0.881679  0.434981  0.364822  1
  Cl  Cl15  1  0.118321  0.565019  0.864822  1
  Cl  Cl16  1  0.403647  0.112064  0.107622  1
  Cl  Cl17  1  0.596353  0.887936  0.607622  1
  Cl  Cl18  1  0.887936  0.596353  0.607622  1
  Cl  Cl19  1  0.112064  0.403647  0.107622  1
  Cl  Cl20  1  0.003843  0.003843  0.611679  1
  Cl  Cl21  1  0.996157  0.996157  0.111679  1
  Cl  Cl22  1  0.175678  0.960675  0.830956  1
  Cl  Cl23  1  0.824322  0.039325  0.330956  1
  Cl  Cl24  1  0.039325  0.824322  0.330956  1
  Cl  Cl25  1  0.960675  0.175678  0.830956  1
  Cl  Cl26  1  0.645918  0.855454  0.084272  1
  Cl  Cl27  1  0.354082  0.144546  0.584272  1
  Cl  Cl28  1  0.144546  0.354082  0.584272  1
  Cl  Cl29  1  0.855454  0.645918  0.084272  1
  Cl  Cl30  1  0.796301  0.796301  0.860234  1
  Cl  Cl31  1  0.203699  0.203699  0.360234  1
  Cl  Cl32  1  0.692120  0.476585  0.876513  1
  Cl  Cl33  1  0.307880  0.523415  0.376513  1
  Cl  Cl34  1  0.523415  0.307880  0.376513  1
  Cl  Cl35  1  0.476585  0.692120  0.876513  1
  Cl  Cl36  1  0.504544  0.504544  0.109122  1
  Cl  Cl37  1  0.495456  0.495456  0.609122  1
  Cl  Cl38  1  0.306679  0.306679  0.887490  1
  Cl  Cl39  1  0.693321  0.693321  0.387490  1
