# generated using pymatgen
data_Zn2Bi3Sb3O14
_symmetry_space_group_name_H-M   'P 1'
_cell_length_a   7.32649930
_cell_length_b   7.32650152
_cell_length_c   7.32650634
_cell_angle_alpha   62.04534302
_cell_angle_beta   62.04537771
_cell_angle_gamma   62.04540955
_symmetry_Int_Tables_number   1
_chemical_formula_structural   Zn2Bi3Sb3O14
_chemical_formula_sum   'Zn2 Bi3 Sb3 O14'
_cell_volume   290.80156912
_cell_formula_units_Z   1
loop_
 _symmetry_equiv_pos_site_id
 _symmetry_equiv_pos_as_xyz
  1  'x, y, z'
loop_
 _atom_site_type_symbol
 _atom_site_label
 _atom_site_symmetry_multiplicity
 _atom_site_fract_x
 _atom_site_fract_y
 _atom_site_fract_z
 _atom_site_occupancy
  Zn  Zn0  1  0.000001  0.500005  0.999988  1
  Zn  Zn1  1  0.499993  0.999944  0.500067  1
  Bi  Bi2  1  0.000003  0.000006  0.499993  1
  Bi  Bi3  1  0.500007  0.000008  0.000007  1
  Bi  Bi4  1  0.499998  0.500001  0.499990  1
  Sb  Sb5  1  0.499999  0.500001  0.000000  1
  Sb  Sb6  1  0.000002  0.500003  0.499996  1
  Sb  Sb7  1  0.999999  0.000000  0.999998  1
  O  O8  1  0.608934  0.108929  0.608941  1
  O  O9  1  0.391065  0.891060  0.391072  1
  O  O10  1  0.078067  0.180734  0.680730  1
  O  O11  1  0.680736  0.180738  0.078051  1
  O  O12  1  0.680732  0.578077  0.680728  1
  O  O13  1  0.921934  0.819269  0.319264  1
  O  O14  1  0.319269  0.819271  0.921920  1
  O  O15  1  0.319265  0.421945  0.319262  1
  O  O16  1  0.652655  0.589787  0.089786  1
  O  O17  1  0.089788  0.589788  0.652651  1
  O  O18  1  0.089786  0.152657  0.089785  1
  O  O19  1  0.347345  0.410214  0.910213  1
  O  O20  1  0.910214  0.410214  0.347343  1
  O  O21  1  0.910212  0.847347  0.910212  1
