# generated using pymatgen
data_YEr2NiSn3Pt2
_symmetry_space_group_name_H-M   'P 1'
_cell_length_a   7.57746757
_cell_length_b   7.57746676
_cell_length_c   3.82741500
_cell_angle_alpha   90.00000000
_cell_angle_beta   90.00000000
_cell_angle_gamma   120.16197382
_symmetry_Int_Tables_number   1
_chemical_formula_structural   YEr2NiSn3Pt2
_chemical_formula_sum   'Y1 Er2 Ni1 Sn3 Pt2'
_cell_volume   190.00855715
_cell_formula_units_Z   1
loop_
 _symmetry_equiv_pos_site_id
 _symmetry_equiv_pos_as_xyz
  1  'x, y, z'
loop_
 _atom_site_type_symbol
 _atom_site_label
 _atom_site_symmetry_multiplicity
 _atom_site_fract_x
 _atom_site_fract_y
 _atom_site_fract_z
 _atom_site_occupancy
  Y  Y0  1  0.403677  0.403677  0.500000  1
  Er  Er1  1  0.596131  0.999972  0.500000  1
  Er  Er2  1  0.999972  0.596131  0.500000  1
  Ni  Ni3  1  0.999142  0.999142  0.500000  1
  Sn  Sn4  1  0.749837  0.749837  0.000000  1
  Sn  Sn5  1  0.250424  0.999397  0.000000  1
  Sn  Sn6  1  0.999397  0.250424  0.000000  1
  Pt  Pt7  1  0.668571  0.332849  0.000000  1
  Pt  Pt8  1  0.332849  0.668571  0.000000  1
