# generated using pymatgen
data_La16Ho3TmSn16
_symmetry_space_group_name_H-M   'P 1'
_cell_length_a   8.41207706
_cell_length_b   8.50720406
_cell_length_c   16.26285800
_cell_angle_alpha   90.00000000
_cell_angle_beta   90.00000000
_cell_angle_gamma   90.01395203
_symmetry_Int_Tables_number   1
_chemical_formula_structural   La16Ho3TmSn16
_chemical_formula_sum   'La16 Ho3 Tm1 Sn16'
_cell_volume   1163.82303850
_cell_formula_units_Z   1
loop_
 _symmetry_equiv_pos_site_id
 _symmetry_equiv_pos_as_xyz
  1  'x, y, z'
loop_
 _atom_site_type_symbol
 _atom_site_label
 _atom_site_symmetry_multiplicity
 _atom_site_fract_x
 _atom_site_fract_y
 _atom_site_fract_z
 _atom_site_occupancy
  La  La0  1  0.972957  0.818999  0.899453  1
  La  La1  1  0.472948  0.681044  0.600515  1
  La  La2  1  0.527128  0.318846  0.100534  1
  La  La3  1  0.026976  0.181013  0.399416  1
  La  La4  1  0.972957  0.818999  0.600547  1
  La  La5  1  0.472948  0.681044  0.899485  1
  La  La6  1  0.527128  0.318846  0.399466  1
  La  La7  1  0.026976  0.181013  0.100584  1
  La  La8  1  0.879759  0.660599  0.382382  1
  La  La9  1  0.380112  0.839545  0.117665  1
  La  La10  1  0.620081  0.160608  0.617573  1
  La  La11  1  0.120049  0.339454  0.882422  1
  La  La12  1  0.120049  0.339454  0.617578  1
  La  La13  1  0.620081  0.160608  0.882427  1
  La  La14  1  0.380112  0.839545  0.382335  1
  La  La15  1  0.879759  0.660599  0.117618  1
  Ho  Ho16  1  0.288130  0.002946  0.750000  1
  Ho  Ho17  1  0.788116  0.497075  0.750000  1
  Ho  Ho18  1  0.211877  0.502766  0.250000  1
  Tm  Tm19  1  0.712127  0.996990  0.250000  1
  Sn  Sn20  1  0.781171  0.470190  0.546087  1
  Sn  Sn21  1  0.281105  0.029794  0.953911  1
  Sn  Sn22  1  0.718847  0.970250  0.453775  1
  Sn  Sn23  1  0.218817  0.529802  0.046112  1
  Sn  Sn24  1  0.218817  0.529802  0.453888  1
  Sn  Sn25  1  0.718847  0.970250  0.046225  1
  Sn  Sn26  1  0.281105  0.029794  0.546089  1
  Sn  Sn27  1  0.781171  0.470190  0.953913  1
  Sn  Sn28  1  0.168598  0.644489  0.750000  1
  Sn  Sn29  1  0.668713  0.855506  0.750000  1
  Sn  Sn30  1  0.331230  0.144548  0.250000  1
  Sn  Sn31  1  0.831438  0.355278  0.250000  1
  Sn  Sn32  1  0.923281  0.117402  0.750000  1
  Sn  Sn33  1  0.423412  0.382540  0.750000  1
  Sn  Sn34  1  0.576599  0.617582  0.250000  1
  Sn  Sn35  1  0.076581  0.882589  0.250000  1
