# generated using pymatgen
data_SmTe19
_symmetry_space_group_name_H-M   'P 1'
_cell_length_a   8.01800484
_cell_length_b   9.02478963
_cell_length_c   10.16484400
_cell_angle_alpha   104.08862850
_cell_angle_beta   97.23290686
_cell_angle_gamma   106.97193268
_symmetry_Int_Tables_number   1
_chemical_formula_structural   SmTe19
_chemical_formula_sum   'Sm1 Te19'
_cell_volume   666.78472118
_cell_formula_units_Z   1
loop_
 _symmetry_equiv_pos_site_id
 _symmetry_equiv_pos_as_xyz
  1  'x, y, z'
loop_
 _atom_site_type_symbol
 _atom_site_label
 _atom_site_symmetry_multiplicity
 _atom_site_fract_x
 _atom_site_fract_y
 _atom_site_fract_z
 _atom_site_occupancy
  Sm  Sm0  1  0.000000  0.500000  0.000000  1
  Te  Te1  1  0.778789  0.587920  0.619732  1
  Te  Te2  1  0.650526  0.208900  0.212789  1
  Te  Te3  1  0.349474  0.791100  0.787211  1
  Te  Te4  1  0.602603  0.693852  0.198898  1
  Te  Te5  1  0.221211  0.412080  0.380268  1
  Te  Te6  1  0.397397  0.306148  0.801102  1
  Te  Te7  1  0.000000  0.000000  0.000000  1
  Te  Te8  1  0.195419  0.904365  0.393919  1
  Te  Te9  1  0.804581  0.095635  0.606081  1
  Te  Te10  1  0.692688  0.638555  0.907040  1
  Te  Te11  1  0.517447  0.259069  0.499760  1
  Te  Te12  1  0.715620  0.148167  0.907726  1
  Te  Te13  1  0.284380  0.851833  0.092274  1
  Te  Te14  1  0.482553  0.740931  0.500240  1
  Te  Te15  1  0.091173  0.459007  0.702742  1
  Te  Te16  1  0.307312  0.361445  0.092960  1
  Te  Te17  1  0.912465  0.043559  0.303478  1
  Te  Te18  1  0.087535  0.956441  0.696522  1
  Te  Te19  1  0.908827  0.540993  0.297258  1
