# generated using pymatgen
data_Y5B4(PdPt4)3
_symmetry_space_group_name_H-M   'P 1'
_cell_length_a   4.03666200
_cell_length_b   4.03666200
_cell_length_c   24.10652000
_cell_angle_alpha   90.00000000
_cell_angle_beta   90.00000000
_cell_angle_gamma   90.00000000
_symmetry_Int_Tables_number   1
_chemical_formula_structural   Y5B4(PdPt4)3
_chemical_formula_sum   'Y5 B4 Pd3 Pt12'
_cell_volume   392.80706752
_cell_formula_units_Z   1
loop_
 _symmetry_equiv_pos_site_id
 _symmetry_equiv_pos_as_xyz
  1  'x, y, z'
loop_
 _atom_site_type_symbol
 _atom_site_label
 _atom_site_symmetry_multiplicity
 _atom_site_fract_x
 _atom_site_fract_y
 _atom_site_fract_z
 _atom_site_occupancy
  Y  Y0  1  0.000000  0.000000  0.899965  1
  Y  Y1  1  0.000000  0.000000  0.100035  1
  Y  Y2  1  0.000000  0.000000  0.304755  1
  Y  Y3  1  0.000000  0.000000  0.500000  1
  Y  Y4  1  0.000000  0.000000  0.695245  1
  B  B5  1  0.500000  0.500000  0.163141  1
  B  B6  1  0.500000  0.500000  0.371264  1
  B  B7  1  0.500000  0.500000  0.628736  1
  B  B8  1  0.500000  0.500000  0.836859  1
  Pd  Pd9  1  0.500000  0.500000  0.500000  1
  Pd  Pd10  1  0.500000  0.000000  0.000000  1
  Pd  Pd11  1  0.000000  0.500000  0.000000  1
  Pt  Pt12  1  0.500000  0.500000  0.921568  1
  Pt  Pt13  1  0.500000  0.500000  0.078432  1
  Pt  Pt14  1  0.500000  0.500000  0.285614  1
  Pt  Pt15  1  0.500000  0.500000  0.714386  1
  Pt  Pt16  1  0.500000  0.000000  0.201849  1
  Pt  Pt17  1  0.500000  0.000000  0.408679  1
  Pt  Pt18  1  0.500000  0.000000  0.591321  1
  Pt  Pt19  1  0.500000  0.000000  0.798151  1
  Pt  Pt20  1  0.000000  0.500000  0.201849  1
  Pt  Pt21  1  0.000000  0.500000  0.408679  1
  Pt  Pt22  1  0.000000  0.500000  0.591321  1
  Pt  Pt23  1  0.000000  0.500000  0.798151  1
