# generated using pymatgen
data_Tm8ZnSi11Pt4
_symmetry_space_group_name_H-M   'P 1'
_cell_length_a   8.17671100
_cell_length_b   8.18629827
_cell_length_c   7.76315100
_cell_angle_alpha   90.00014974
_cell_angle_beta   90.00000000
_cell_angle_gamma   119.96126264
_symmetry_Int_Tables_number   1
_chemical_formula_structural   Tm8ZnSi11Pt4
_chemical_formula_sum   'Tm8 Zn1 Si11 Pt4'
_cell_volume   450.19873404
_cell_formula_units_Z   1
loop_
 _symmetry_equiv_pos_site_id
 _symmetry_equiv_pos_as_xyz
  1  'x, y, z'
loop_
 _atom_site_type_symbol
 _atom_site_label
 _atom_site_symmetry_multiplicity
 _atom_site_fract_x
 _atom_site_fract_y
 _atom_site_fract_z
 _atom_site_occupancy
  Tm  Tm0  1  0.512764  0.025527  0.247838  1
  Tm  Tm1  1  0.488662  0.977325  0.752508  1
  Tm  Tm2  1  0.978696  0.487904  0.246978  1
  Tm  Tm3  1  0.023918  0.512720  0.752808  1
  Tm  Tm4  1  0.509209  0.487904  0.246978  1
  Tm  Tm5  1  0.488801  0.512720  0.752808  1
  Tm  Tm6  1  0.997707  0.995414  0.251858  1
  Tm  Tm7  1  0.997400  0.994800  0.749416  1
  Zn  Zn8  1  0.163072  0.326143  0.002155  1
  Si  Si9  1  0.834794  0.669588  0.997838  1
  Si  Si10  1  0.669647  0.836384  0.002626  1
  Si  Si11  1  0.834726  0.669453  0.500151  1
  Si  Si12  1  0.329523  0.164549  0.996667  1
  Si  Si13  1  0.164828  0.329656  0.498935  1
  Si  Si14  1  0.166738  0.836384  0.002626  1
  Si  Si15  1  0.330191  0.164471  0.502245  1
  Si  Si16  1  0.835025  0.164549  0.996667  1
  Si  Si17  1  0.669156  0.834887  0.498809  1
  Si  Si18  1  0.834279  0.164471  0.502245  1
  Si  Si19  1  0.165732  0.834887  0.498809  1
  Pt  Pt20  1  0.337635  0.675270  0.038274  1
  Pt  Pt21  1  0.667275  0.334549  0.962558  1
  Pt  Pt22  1  0.666936  0.333871  0.537267  1
  Pt  Pt23  1  0.333286  0.666573  0.460938  1
