# generated using pymatgen
data_Y5Hf3(B6Ru)4
_symmetry_space_group_name_H-M   'P 1'
_cell_length_a   3.58257500
_cell_length_b   9.05456505
_cell_length_c   11.44025903
_cell_angle_alpha   89.98164650
_cell_angle_beta   90.00000000
_cell_angle_gamma   90.00000000
_symmetry_Int_Tables_number   1
_chemical_formula_structural   Y5Hf3(B6Ru)4
_chemical_formula_sum   'Y5 Hf3 B24 Ru4'
_cell_volume   371.10663527
_cell_formula_units_Z   1
loop_
 _symmetry_equiv_pos_site_id
 _symmetry_equiv_pos_as_xyz
  1  'x, y, z'
loop_
 _atom_site_type_symbol
 _atom_site_label
 _atom_site_symmetry_multiplicity
 _atom_site_fract_x
 _atom_site_fract_y
 _atom_site_fract_z
 _atom_site_occupancy
  Y  Y0  1  0.000000  0.321920  0.414778  1
  Y  Y1  1  0.000000  0.678209  0.587622  1
  Y  Y2  1  0.000000  0.821036  0.085075  1
  Y  Y3  1  0.000000  0.179139  0.913077  1
  Y  Y4  1  0.000000  0.944031  0.373795  1
  Hf  Hf5  1  0.000000  0.056818  0.628040  1
  Hf  Hf6  1  0.000000  0.444189  0.124504  1
  Hf  Hf7  1  0.000000  0.556196  0.874558  1
  B  B8  1  0.500000  0.552685  0.433201  1
  B  B9  1  0.500000  0.445136  0.567254  1
  B  B10  1  0.500000  0.055426  0.065656  1
  B  B11  1  0.500000  0.945402  0.933360  1
  B  B12  1  0.500000  0.747423  0.418313  1
  B  B13  1  0.500000  0.248064  0.582410  1
  B  B14  1  0.500000  0.253493  0.080328  1
  B  B15  1  0.500000  0.747291  0.918770  1
  B  B16  1  0.500000  0.790964  0.263722  1
  B  B17  1  0.500000  0.205550  0.736274  1
  B  B18  1  0.500000  0.295334  0.234110  1
  B  B19  1  0.500000  0.705164  0.764938  1
  B  B20  1  0.500000  0.628093  0.182518  1
  B  B21  1  0.500000  0.370951  0.817172  1
  B  B22  1  0.500000  0.132934  0.314656  1
  B  B23  1  0.500000  0.870576  0.683937  1
  B  B24  1  0.500000  0.984471  0.211154  1
  B  B25  1  0.500000  0.018107  0.786770  1
  B  B26  1  0.500000  0.480775  0.285697  1
  B  B27  1  0.500000  0.518780  0.713712  1
  B  B28  1  0.500000  0.600176  0.026673  1
  B  B29  1  0.500000  0.400070  0.972171  1
  B  B30  1  0.500000  0.104904  0.475951  1
  B  B31  1  0.500000  0.898242  0.531869  1
  Ru  Ru32  1  0.000000  0.636225  0.316442  1
  Ru  Ru33  1  0.000000  0.359513  0.682988  1
  Ru  Ru34  1  0.000000  0.144628  0.178667  1
  Ru  Ru35  1  0.000000  0.858086  0.819834  1
