# generated using pymatgen
data_Ac20Si15As
_symmetry_space_group_name_H-M   'P 1'
_cell_length_a   8.31115933
_cell_length_b   8.28236209
_cell_length_c   16.31393318
_cell_angle_alpha   90.11756050
_cell_angle_beta   89.38824392
_cell_angle_gamma   90.11865117
_symmetry_Int_Tables_number   1
_chemical_formula_structural   Ac20Si15As
_chemical_formula_sum   'Ac20 Si15 As1'
_cell_volume   1122.91767764
_cell_formula_units_Z   1
loop_
 _symmetry_equiv_pos_site_id
 _symmetry_equiv_pos_as_xyz
  1  'x, y, z'
loop_
 _atom_site_type_symbol
 _atom_site_label
 _atom_site_symmetry_multiplicity
 _atom_site_fract_x
 _atom_site_fract_y
 _atom_site_fract_z
 _atom_site_occupancy
  Ac  Ac0  1  0.373623  0.477534  0.375034  1
  Ac  Ac1  1  0.873455  0.022862  0.375703  1
  Ac  Ac2  1  0.976239  0.126373  0.123436  1
  Ac  Ac3  1  0.027561  0.873224  0.622483  1
  Ac  Ac4  1  0.625450  0.522585  0.873184  1
  Ac  Ac5  1  0.476818  0.371640  0.626764  1
  Ac  Ac6  1  0.522961  0.626169  0.126472  1
  Ac  Ac7  1  0.125272  0.976215  0.877052  1
  Ac  Ac8  1  0.986746  0.619971  0.053193  1
  Ac  Ac9  1  0.015174  0.379682  0.553273  1
  Ac  Ac10  1  0.619675  0.985979  0.946528  1
  Ac  Ac11  1  0.120073  0.513827  0.802548  1
  Ac  Ac12  1  0.875383  0.485183  0.301357  1
  Ac  Ac13  1  0.513672  0.120341  0.196238  1
  Ac  Ac14  1  0.488136  0.880591  0.697794  1
  Ac  Ac15  1  0.380610  0.013465  0.446590  1
  Ac  Ac16  1  0.686000  0.692884  0.500774  1
  Ac  Ac17  1  0.810144  0.189638  0.750698  1
  Ac  Ac18  1  0.191093  0.810795  0.247848  1
  Ac  Ac19  1  0.309394  0.310272  0.000960  1
  Si  Si20  1  0.917449  0.289440  0.940779  1
  Si  Si21  1  0.714396  0.082785  0.558610  1
  Si  Si22  1  0.209940  0.419585  0.191689  1
  Si  Si23  1  0.793039  0.580815  0.690537  1
  Si  Si24  1  0.416485  0.211566  0.809722  1
  Si  Si25  1  0.580252  0.788950  0.309262  1
  Si  Si26  1  0.289110  0.918379  0.059141  1
  Si  Si27  1  0.830201  0.802764  0.791624  1
  Si  Si28  1  0.169677  0.197981  0.293673  1
  Si  Si29  1  0.802610  0.829524  0.207031  1
  Si  Si30  1  0.316604  0.671168  0.549837  1
  Si  Si31  1  0.697138  0.329488  0.042404  1
  Si  Si32  1  0.671651  0.303553  0.457164  1
  Si  Si33  1  0.329559  0.697147  0.957275  1
  Si  Si34  1  0.195220  0.170441  0.707827  1
  As  As35  1  0.069193  0.707184  0.435497  1
