# generated using pymatgen
data_Li4ErPaS6
_symmetry_space_group_name_H-M   'P 1'
_cell_length_a   6.67051348
_cell_length_b   6.67051384
_cell_length_c   6.47585552
_cell_angle_alpha   99.83295406
_cell_angle_beta   99.83294947
_cell_angle_gamma   119.99995534
_symmetry_Int_Tables_number   1
_chemical_formula_structural   Li4ErPaS6
_chemical_formula_sum   'Li4 Er1 Pa1 S6'
_cell_volume   234.53680469
_cell_formula_units_Z   1
loop_
 _symmetry_equiv_pos_site_id
 _symmetry_equiv_pos_as_xyz
  1  'x, y, z'
loop_
 _atom_site_type_symbol
 _atom_site_label
 _atom_site_symmetry_multiplicity
 _atom_site_fract_x
 _atom_site_fract_y
 _atom_site_fract_z
 _atom_site_occupancy
  Li  Li0  1  0.500941  0.499060  0.000000  1
  Li  Li1  1  0.998319  0.001679  0.499998  1
  Li  Li2  1  0.663083  0.336917  0.500000  1
  Li  Li3  1  0.339089  0.660911  0.500000  1
  Er  Er4  1  0.833022  0.166979  0.000000  1
  Pa  Pa5  1  0.167043  0.832958  0.000000  1
  S  S6  1  0.925698  0.588351  0.246577  1
  S  S7  1  0.576624  0.921052  0.249830  1
  S  S8  1  0.243952  0.238368  0.251503  1
  S  S9  1  0.761632  0.756048  0.748498  1
  S  S10  1  0.078949  0.423378  0.750171  1
  S  S11  1  0.411650  0.074303  0.753424  1
