# generated using pymatgen
data_Tb3YbPa4(ReB6)4
_symmetry_space_group_name_H-M   'P 1'
_cell_length_a   3.71744200
_cell_length_b   9.21712340
_cell_length_c   11.51399750
_cell_angle_alpha   90.03377247
_cell_angle_beta   90.00000000
_cell_angle_gamma   90.00000000
_symmetry_Int_Tables_number   1
_chemical_formula_structural   Tb3YbPa4(ReB6)4
_chemical_formula_sum   'Tb3 Yb1 Pa4 Re4 B24'
_cell_volume   394.51694245
_cell_formula_units_Z   1
loop_
 _symmetry_equiv_pos_site_id
 _symmetry_equiv_pos_as_xyz
  1  'x, y, z'
loop_
 _atom_site_type_symbol
 _atom_site_label
 _atom_site_symmetry_multiplicity
 _atom_site_fract_x
 _atom_site_fract_y
 _atom_site_fract_z
 _atom_site_occupancy
  Tb  Tb0  1  0.000000  0.051916  0.620616  1
  Tb  Tb1  1  0.000000  0.446590  0.124725  1
  Tb  Tb2  1  0.000000  0.553770  0.875672  1
  Yb  Yb3  1  0.000000  0.947033  0.376446  1
  Pa  Pa4  1  0.000000  0.324072  0.411629  1
  Pa  Pa5  1  0.000000  0.675906  0.586741  1
  Pa  Pa6  1  0.000000  0.825504  0.089445  1
  Pa  Pa7  1  0.000000  0.175116  0.912687  1
  Re  Re8  1  0.000000  0.639946  0.322613  1
  Re  Re9  1  0.000000  0.360166  0.677674  1
  Re  Re10  1  0.000000  0.138920  0.177801  1
  Re  Re11  1  0.000000  0.861524  0.822583  1
  B  B12  1  0.500000  0.552504  0.433024  1
  B  B13  1  0.500000  0.447600  0.566865  1
  B  B14  1  0.500000  0.052153  0.067576  1
  B  B15  1  0.500000  0.947717  0.933124  1
  B  B16  1  0.500000  0.746793  0.420998  1
  B  B17  1  0.500000  0.253657  0.578017  1
  B  B18  1  0.500000  0.246089  0.079278  1
  B  B19  1  0.500000  0.754046  0.921324  1
  B  B20  1  0.500000  0.794882  0.268120  1
  B  B21  1  0.500000  0.205083  0.732062  1
  B  B22  1  0.500000  0.293488  0.232714  1
  B  B23  1  0.500000  0.705726  0.767437  1
  B  B24  1  0.500000  0.636462  0.187127  1
  B  B25  1  0.500000  0.363765  0.813253  1
  B  B26  1  0.500000  0.135132  0.313745  1
  B  B27  1  0.500000  0.863652  0.686023  1
  B  B28  1  0.500000  0.983989  0.214927  1
  B  B29  1  0.500000  0.016163  0.785381  1
  B  B30  1  0.500000  0.484507  0.286564  1
  B  B31  1  0.500000  0.516058  0.713702  1
  B  B32  1  0.500000  0.622121  0.034059  1
  B  B33  1  0.500000  0.378227  0.966243  1
  B  B34  1  0.500000  0.122913  0.465538  1
  B  B35  1  0.500000  0.876811  0.534269  1
