# generated using pymatgen
data_Tb7Yb12SmSn16
_symmetry_space_group_name_H-M   'P 1'
_cell_length_a   7.87083827
_cell_length_b   8.44240224
_cell_length_c   16.11942048
_cell_angle_alpha   89.98215189
_cell_angle_beta   89.97865987
_cell_angle_gamma   89.97905908
_symmetry_Int_Tables_number   1
_chemical_formula_structural   Tb7Yb12SmSn16
_chemical_formula_sum   'Tb7 Yb12 Sm1 Sn16'
_cell_volume   1071.11566982
_cell_formula_units_Z   1
loop_
 _symmetry_equiv_pos_site_id
 _symmetry_equiv_pos_as_xyz
  1  'x, y, z'
loop_
 _atom_site_type_symbol
 _atom_site_label
 _atom_site_symmetry_multiplicity
 _atom_site_fract_x
 _atom_site_fract_y
 _atom_site_fract_z
 _atom_site_occupancy
  Tb  Tb0  1  0.169769  0.332903  0.878032  1
  Tb  Tb1  1  0.330138  0.832816  0.122102  1
  Tb  Tb2  1  0.830157  0.667168  0.377741  1
  Tb  Tb3  1  0.330037  0.832804  0.377810  1
  Tb  Tb4  1  0.830132  0.667173  0.122093  1
  Tb  Tb5  1  0.669946  0.167113  0.878042  1
  Tb  Tb6  1  0.169906  0.333051  0.622044  1
  Yb  Yb7  1  0.501924  0.687224  0.593267  1
  Yb  Yb8  1  0.002097  0.812626  0.906775  1
  Yb  Yb9  1  0.497975  0.312688  0.093261  1
  Yb  Yb10  1  0.998027  0.187346  0.406704  1
  Yb  Yb11  1  0.497828  0.312731  0.406598  1
  Yb  Yb12  1  0.997938  0.187327  0.093259  1
  Yb  Yb13  1  0.502025  0.687316  0.906779  1
  Yb  Yb14  1  0.002232  0.812561  0.593228  1
  Yb  Yb15  1  0.832411  0.511498  0.750117  1
  Yb  Yb16  1  0.332273  0.988504  0.750084  1
  Yb  Yb17  1  0.167673  0.488657  0.250010  1
  Yb  Yb18  1  0.667643  0.011311  0.249951  1
  Sm  Sm19  1  0.669814  0.167508  0.621974  1
  Sn  Sn20  1  0.671759  0.964111  0.458904  1
  Sn  Sn21  1  0.171907  0.535146  0.040387  1
  Sn  Sn22  1  0.328175  0.035071  0.959618  1
  Sn  Sn23  1  0.829118  0.465772  0.540091  1
  Sn  Sn24  1  0.326842  0.034730  0.540100  1
  Sn  Sn25  1  0.828046  0.464848  0.959650  1
  Sn  Sn26  1  0.671910  0.964851  0.040397  1
  Sn  Sn27  1  0.172044  0.535255  0.459559  1
  Sn  Sn28  1  0.466756  0.377849  0.750358  1
  Sn  Sn29  1  0.968131  0.122617  0.750568  1
  Sn  Sn30  1  0.532608  0.622852  0.249997  1
  Sn  Sn31  1  0.032615  0.877065  0.250017  1
  Sn  Sn32  1  0.712835  0.871761  0.750414  1
  Sn  Sn33  1  0.212356  0.627826  0.750057  1
  Sn  Sn34  1  0.287439  0.127652  0.250009  1
  Sn  Sn35  1  0.787516  0.372271  0.250003  1
