# generated using pymatgen
data_Sc5TaH18
_symmetry_space_group_name_H-M   'P 1'
_cell_length_a   5.76514700
_cell_length_b   5.77854448
_cell_length_c   6.00820060
_cell_angle_alpha   89.91933083
_cell_angle_beta   90.00050637
_cell_angle_gamma   119.92337169
_symmetry_Int_Tables_number   1
_chemical_formula_structural   Sc5TaH18
_chemical_formula_sum   'Sc5 Ta1 H18'
_cell_volume   173.47550445
_cell_formula_units_Z   1
loop_
 _symmetry_equiv_pos_site_id
 _symmetry_equiv_pos_as_xyz
  1  'x, y, z'
loop_
 _atom_site_type_symbol
 _atom_site_label
 _atom_site_symmetry_multiplicity
 _atom_site_fract_x
 _atom_site_fract_y
 _atom_site_fract_z
 _atom_site_occupancy
  Sc  Sc0  1  0.667777  0.000017  0.750002  1
  Sc  Sc1  1  0.333822  0.337129  0.746265  1
  Sc  Sc2  1  0.996701  0.662854  0.753733  1
  Sc  Sc3  1  0.665628  0.662761  0.249892  1
  Sc  Sc4  1  0.002865  0.337243  0.250106  1
  Ta  Ta5  1  0.339390  0.000003  0.250000  1
  H  H6  1  0.322203  0.978802  0.921793  1
  H  H7  1  0.655543  0.674997  0.910828  1
  H  H8  1  0.017332  0.340561  0.910506  1
  H  H9  1  0.326806  0.341627  0.403435  1
  H  H10  1  0.041858  0.691620  0.402362  1
  H  H11  1  0.632568  0.973514  0.401732  1
  H  H12  1  0.659060  0.026487  0.098276  1
  H  H13  1  0.350238  0.308377  0.097634  1
  H  H14  1  0.985173  0.658366  0.096559  1
  H  H15  1  0.676772  0.659437  0.589493  1
  H  H16  1  0.980545  0.324996  0.589171  1
  H  H17  1  0.343400  0.021194  0.578210  1
  H  H18  1  0.001790  0.000000  0.750002  1
  H  H19  1  0.011926  0.000003  0.250000  1
  H  H20  1  0.664340  0.331192  0.787470  1
  H  H21  1  0.655347  0.319590  0.310612  1
  H  H22  1  0.335762  0.680415  0.189387  1
  H  H23  1  0.333153  0.668814  0.712529  1
