# generated using pymatgen
data_Tm2LuGa7Cu4
_symmetry_space_group_name_H-M   'P 1'
_cell_length_a   7.93910227
_cell_length_b   7.93910087
_cell_length_c   9.34115848
_cell_angle_alpha   54.28559922
_cell_angle_beta   54.28560636
_cell_angle_gamma   30.63088169
_symmetry_Int_Tables_number   1
_chemical_formula_structural   Tm2LuGa7Cu4
_chemical_formula_sum   'Tm2 Lu1 Ga7 Cu4'
_cell_volume   238.79700439
_cell_formula_units_Z   1
loop_
 _symmetry_equiv_pos_site_id
 _symmetry_equiv_pos_as_xyz
  1  'x, y, z'
loop_
 _atom_site_type_symbol
 _atom_site_label
 _atom_site_symmetry_multiplicity
 _atom_site_fract_x
 _atom_site_fract_y
 _atom_site_fract_z
 _atom_site_occupancy
  Tm  Tm0  1  0.302362  0.302362  0.704940  1
  Tm  Tm1  1  0.697638  0.697638  0.295060  1
  Lu  Lu2  1  0.000000  0.000000  0.000000  1
  Ga  Ga3  1  0.859566  0.859566  0.420188  1
  Ga  Ga4  1  0.140434  0.140434  0.579812  1
  Ga  Ga5  1  0.139718  0.139718  0.131767  1
  Ga  Ga6  1  0.860282  0.860282  0.868233  1
  Ga  Ga7  1  0.000000  0.000000  0.500000  1
  Ga  Ga8  1  0.345213  0.345213  0.275832  1
  Ga  Ga9  1  0.654787  0.654787  0.724168  1
  Cu  Cu10  1  0.497170  0.497170  0.311096  1
  Cu  Cu11  1  0.502830  0.502830  0.688904  1
  Cu  Cu12  1  0.656923  0.656923  0.981960  1
  Cu  Cu13  1  0.343077  0.343077  0.018040  1
