# generated using pymatgen
data_Sr4Ti(RuO4)3
_symmetry_space_group_name_H-M   'P 1'
_cell_length_a   5.57288830
_cell_length_b   7.98483154
_cell_length_c   5.59438420
_cell_angle_alpha   90.11514013
_cell_angle_beta   90.05849343
_cell_angle_gamma   89.58766767
_symmetry_Int_Tables_number   1
_chemical_formula_structural   Sr4Ti(RuO4)3
_chemical_formula_sum   'Sr4 Ti1 Ru3 O12'
_cell_volume   248.93504543
_cell_formula_units_Z   1
loop_
 _symmetry_equiv_pos_site_id
 _symmetry_equiv_pos_as_xyz
  1  'x, y, z'
loop_
 _atom_site_type_symbol
 _atom_site_label
 _atom_site_symmetry_multiplicity
 _atom_site_fract_x
 _atom_site_fract_y
 _atom_site_fract_z
 _atom_site_occupancy
  Sr  Sr0  1  0.486629  0.244724  0.502316  1
  Sr  Sr1  1  0.986890  0.245141  0.001715  1
  Sr  Sr2  1  0.513371  0.755276  0.497684  1
  Sr  Sr3  1  0.013110  0.754859  0.998285  1
  Ti  Ti4  1  0.500000  0.000000  0.000000  1
  Ru  Ru5  1  0.000000  0.500000  0.500000  1
  Ru  Ru6  1  0.500000  0.500000  0.000000  1
  Ru  Ru7  1  0.000000  0.000000  0.500000  1
  O  O8  1  0.733160  0.018473  0.261237  1
  O  O9  1  0.204591  0.483485  0.202945  1
  O  O10  1  0.296819  0.520675  0.704825  1
  O  O11  1  0.761316  0.984899  0.766511  1
  O  O12  1  0.266840  0.981527  0.738763  1
  O  O13  1  0.795409  0.516515  0.797055  1
  O  O14  1  0.703181  0.479325  0.295175  1
  O  O15  1  0.238684  0.015101  0.233489  1
  O  O16  1  0.008302  0.248754  0.543012  1
  O  O17  1  0.499304  0.247886  0.967818  1
  O  O18  1  0.991698  0.751246  0.456988  1
  O  O19  1  0.500696  0.752114  0.032182  1
