# generated using pymatgen
data_Ho5Mg2P12Rh17
_symmetry_space_group_name_H-M   'P 1'
_cell_length_a   12.77407342
_cell_length_b   12.69265746
_cell_length_c   3.92467700
_cell_angle_alpha   90.00000000
_cell_angle_beta   90.00000000
_cell_angle_gamma   119.78938378
_symmetry_Int_Tables_number   1
_chemical_formula_structural   Ho5Mg2P12Rh17
_chemical_formula_sum   'Ho5 Mg2 P12 Rh17'
_cell_volume   552.24821367
_cell_formula_units_Z   1
loop_
 _symmetry_equiv_pos_site_id
 _symmetry_equiv_pos_as_xyz
  1  'x, y, z'
loop_
 _atom_site_type_symbol
 _atom_site_label
 _atom_site_symmetry_multiplicity
 _atom_site_fract_x
 _atom_site_fract_y
 _atom_site_fract_z
 _atom_site_occupancy
  Ho  Ho0  1  0.667009  0.333381  0.000000  1
  Ho  Ho1  1  0.332991  0.666373  0.000000  1
  Ho  Ho2  1  0.810360  0.810589  0.500000  1
  Ho  Ho3  1  0.189640  0.000229  0.500000  1
  Ho  Ho4  1  0.000000  0.188109  0.500000  1
  Mg  Mg5  1  0.444633  0.444642  0.000000  1
  Mg  Mg6  1  0.555367  0.000010  0.000000  1
  P  P7  1  0.686926  0.173456  0.500000  1
  P  P8  1  0.831672  0.519015  0.500000  1
  P  P9  1  0.483655  0.309639  0.500000  1
  P  P10  1  0.168328  0.687342  0.500000  1
  P  P11  1  0.516345  0.825985  0.500000  1
  P  P12  1  0.313074  0.486529  0.500000  1
  P  P13  1  0.177128  0.177619  0.000000  1
  P  P14  1  0.822872  0.000491  0.000000  1
  P  P15  1  0.000000  0.822727  0.000000  1
  P  P16  1  0.643046  0.640223  0.000000  1
  P  P17  1  0.356954  0.997178  0.000000  1
  P  P18  1  0.000000  0.362732  0.000000  1
  Rh  Rh19  1  0.868511  0.359469  0.500000  1
  Rh  Rh20  1  0.642812  0.510370  0.500000  1
  Rh  Rh21  1  0.487343  0.127993  0.500000  1
  Rh  Rh22  1  0.357188  0.867558  0.500000  1
  Rh  Rh23  1  0.512657  0.640650  0.500000  1
  Rh  Rh24  1  0.131489  0.490957  0.500000  1
  Rh  Rh25  1  0.000000  0.543455  0.000000  1
  Rh  Rh26  1  0.804778  0.182150  0.000000  1
  Rh  Rh27  1  0.824182  0.625739  0.000000  1
  Rh  Rh28  1  0.373279  0.196478  0.000000  1
  Rh  Rh29  1  0.175818  0.801558  0.000000  1
  Rh  Rh30  1  0.626721  0.823200  0.000000  1
  Rh  Rh31  1  0.195222  0.377373  0.000000  1
  Rh  Rh32  1  0.280006  0.283331  0.500000  1
  Rh  Rh33  1  0.719994  0.003325  0.500000  1
  Rh  Rh34  1  0.000000  0.718940  0.500000  1
  Rh  Rh35  1  0.000000  0.001183  0.000000  1
