# generated using pymatgen
data_Er5Tm3Cr3OsC8
_symmetry_space_group_name_H-M   'P 1'
_cell_length_a   4.99495100
_cell_length_b   6.43158182
_cell_length_c   9.67015413
_cell_angle_alpha   90.09015403
_cell_angle_beta   90.00000000
_cell_angle_gamma   90.00000000
_symmetry_Int_Tables_number   1
_chemical_formula_structural   Er5Tm3Cr3OsC8
_chemical_formula_sum   'Er5 Tm3 Cr3 Os1 C8'
_cell_volume   310.65753355
_cell_formula_units_Z   1
loop_
 _symmetry_equiv_pos_site_id
 _symmetry_equiv_pos_as_xyz
  1  'x, y, z'
loop_
 _atom_site_type_symbol
 _atom_site_label
 _atom_site_symmetry_multiplicity
 _atom_site_fract_x
 _atom_site_fract_y
 _atom_site_fract_z
 _atom_site_occupancy
  Er  Er0  1  0.750000  0.819895  0.056771  1
  Er  Er1  1  0.250000  0.531466  0.217342  1
  Er  Er2  1  0.750000  0.465165  0.783793  1
  Er  Er3  1  0.750000  0.968007  0.712757  1
  Er  Er4  1  0.250000  0.032280  0.283153  1
  Tm  Tm5  1  0.250000  0.681946  0.556678  1
  Tm  Tm6  1  0.750000  0.322940  0.442267  1
  Tm  Tm7  1  0.250000  0.175570  0.944569  1
  Cr  Cr8  1  0.250000  0.723167  0.861710  1
  Cr  Cr9  1  0.750000  0.273856  0.141035  1
  Cr  Cr10  1  0.750000  0.774496  0.362781  1
  Os  Os11  1  0.250000  0.222818  0.635425  1
  C  C12  1  0.250000  0.460972  0.763437  1
  C  C13  1  0.750000  0.543881  0.239587  1
  C  C14  1  0.750000  0.042602  0.262768  1
  C  C15  1  0.250000  0.949978  0.742406  1
  C  C16  1  0.250000  0.814155  0.040783  1
  C  C17  1  0.750000  0.187818  0.962058  1
  C  C18  1  0.750000  0.684256  0.542148  1
  C  C19  1  0.250000  0.324730  0.448531  1
