# generated using pymatgen
data_DyEr(Si2Rh3)2
_symmetry_space_group_name_H-M   'P 1'
_cell_length_a   6.61858566
_cell_length_b   6.61870277
_cell_length_c   6.61858668
_cell_angle_alpha   130.43920431
_cell_angle_beta   113.94816855
_cell_angle_gamma   86.87231172
_symmetry_Int_Tables_number   1
_chemical_formula_structural   DyEr(Si2Rh3)2
_chemical_formula_sum   'Dy1 Er1 Si4 Rh6'
_cell_volume   192.37826533
_cell_formula_units_Z   1
loop_
 _symmetry_equiv_pos_site_id
 _symmetry_equiv_pos_as_xyz
  1  'x, y, z'
loop_
 _atom_site_type_symbol
 _atom_site_label
 _atom_site_symmetry_multiplicity
 _atom_site_fract_x
 _atom_site_fract_y
 _atom_site_fract_z
 _atom_site_occupancy
  Dy  Dy0  1  0.750002  0.045658  0.295656  1
  Er  Er1  1  0.249990  0.952114  0.702123  1
  Si  Si2  1  0.578515  0.384698  0.806183  1
  Si  Si3  1  0.921480  0.727685  0.806206  1
  Si  Si4  1  0.421159  0.614560  0.193401  1
  Si  Si5  1  0.078843  0.272232  0.193388  1
  Rh  Rh6  1  0.214196  0.501220  0.714348  1
  Rh  Rh7  1  0.786872  0.501220  0.287024  1
  Rh  Rh8  1  0.499509  0.500150  0.499655  1
  Rh  Rh9  1  0.000495  0.500150  0.000641  1
  Rh  Rh10  1  0.713143  0.000156  0.714359  1
  Rh  Rh11  1  0.285797  0.000156  0.287013  1
