# generated using pymatgen
data_Pr6Pd5RhAu2
_symmetry_space_group_name_H-M   'P 1'
_cell_length_a   8.21708597
_cell_length_b   8.28975200
_cell_length_c   8.25942782
_cell_angle_alpha   114.64770627
_cell_angle_beta   114.33890382
_cell_angle_gamma   114.29076024
_symmetry_Int_Tables_number   1
_chemical_formula_structural   Pr6Pd5RhAu2
_chemical_formula_sum   'Pr6 Pd5 Rh1 Au2'
_cell_volume   330.74490156
_cell_formula_units_Z   1
loop_
 _symmetry_equiv_pos_site_id
 _symmetry_equiv_pos_as_xyz
  1  'x, y, z'
loop_
 _atom_site_type_symbol
 _atom_site_label
 _atom_site_symmetry_multiplicity
 _atom_site_fract_x
 _atom_site_fract_y
 _atom_site_fract_z
 _atom_site_occupancy
  Pr  Pr0  1  0.402882  0.027701  0.275173  1
  Pr  Pr1  1  0.020608  0.274025  0.397347  1
  Pr  Pr2  1  0.279971  0.396856  0.025537  1
  Pr  Pr3  1  0.607796  0.972561  0.728128  1
  Pr  Pr4  1  0.968368  0.720595  0.606117  1
  Pr  Pr5  1  0.726989  0.615415  0.971456  1
  Pd  Pd6  1  0.495538  0.496224  0.495327  1
  Pd  Pd7  1  0.557489  0.221626  0.061455  1
  Pd  Pd8  1  0.775792  0.940236  0.443534  1
  Pd  Pd9  1  0.940947  0.441570  0.776140  1
  Pd  Pd10  1  0.439448  0.774213  0.936024  1
  Rh  Rh11  1  0.005048  0.004568  0.004134  1
  Au  Au12  1  0.224293  0.062286  0.560085  1
  Au  Au13  1  0.054832  0.552123  0.219545  1
