# generated using pymatgen
data_Ce6Al23SiOs8
_symmetry_space_group_name_H-M   'P 1'
_cell_length_a   8.87496500
_cell_length_b   8.87496599
_cell_length_c   9.56058500
_cell_angle_alpha   90.00000000
_cell_angle_beta   90.00000000
_cell_angle_gamma   120.00000004
_symmetry_Int_Tables_number   1
_chemical_formula_structural   Ce6Al23SiOs8
_chemical_formula_sum   'Ce6 Al23 Si1 Os8'
_cell_volume   652.15142097
_cell_formula_units_Z   1
loop_
 _symmetry_equiv_pos_site_id
 _symmetry_equiv_pos_as_xyz
  1  'x, y, z'
loop_
 _atom_site_type_symbol
 _atom_site_label
 _atom_site_symmetry_multiplicity
 _atom_site_fract_x
 _atom_site_fract_y
 _atom_site_fract_z
 _atom_site_occupancy
  Ce  Ce0  1  0.194655  0.389309  0.249098  1
  Ce  Ce1  1  0.805959  0.611919  0.751450  1
  Ce  Ce2  1  0.610691  0.805345  0.249098  1
  Ce  Ce3  1  0.388081  0.194041  0.751450  1
  Ce  Ce4  1  0.194655  0.805345  0.249098  1
  Ce  Ce5  1  0.805959  0.194041  0.751450  1
  Al  Al6  1  0.666667  0.333333  0.989204  1
  Al  Al7  1  0.666667  0.333333  0.510046  1
  Al  Al8  1  0.333333  0.666667  0.486431  1
  Al  Al9  1  0.162478  0.324956  0.575951  1
  Al  Al10  1  0.837594  0.675187  0.422817  1
  Al  Al11  1  0.675044  0.837522  0.575951  1
  Al  Al12  1  0.837641  0.675283  0.076009  1
  Al  Al13  1  0.324813  0.162406  0.422817  1
  Al  Al14  1  0.163835  0.327670  0.922781  1
  Al  Al15  1  0.162478  0.837522  0.575951  1
  Al  Al16  1  0.324717  0.162359  0.076009  1
  Al  Al17  1  0.837594  0.162406  0.422817  1
  Al  Al18  1  0.672330  0.836165  0.922781  1
  Al  Al19  1  0.837641  0.162359  0.076009  1
  Al  Al20  1  0.163835  0.836165  0.922781  1
  Al  Al21  1  0.562092  0.124183  0.248311  1
  Al  Al22  1  0.437022  0.874043  0.749093  1
  Al  Al23  1  0.875817  0.437908  0.248311  1
  Al  Al24  1  0.125957  0.562978  0.749093  1
  Al  Al25  1  0.562092  0.437908  0.248311  1
  Al  Al26  1  0.437022  0.562978  0.749093  1
  Al  Al27  1  0.000000  0.000000  0.248685  1
  Al  Al28  1  0.000000  0.000000  0.748932  1
  Si  Si29  1  0.333333  0.666667  0.034418  1
  Os  Os30  1  0.496772  0.993544  0.000203  1
  Os  Os31  1  0.006456  0.503228  0.000203  1
  Os  Os32  1  0.500462  0.000924  0.499175  1
  Os  Os33  1  0.496772  0.503228  0.000203  1
  Os  Os34  1  0.999076  0.499538  0.499175  1
  Os  Os35  1  0.500462  0.499538  0.499175  1
  Os  Os36  1  0.000000  0.000000  0.998442  1
  Os  Os37  1  0.000000  0.000000  0.499182  1
