# generated using pymatgen
data_TbEu2Y(BO4)2
_symmetry_space_group_name_H-M   'P 1'
_cell_length_a   3.69051900
_cell_length_b   9.68880013
_cell_length_c   10.92997998
_cell_angle_alpha   89.86126321
_cell_angle_beta   90.00000000
_cell_angle_gamma   90.00000000
_symmetry_Int_Tables_number   1
_chemical_formula_structural   TbEu2Y(BO4)2
_chemical_formula_sum   'Tb2 Eu4 Y2 B4 O16'
_cell_volume   390.81887991
_cell_formula_units_Z   2
loop_
 _symmetry_equiv_pos_site_id
 _symmetry_equiv_pos_as_xyz
  1  'x, y, z'
loop_
 _atom_site_type_symbol
 _atom_site_label
 _atom_site_symmetry_multiplicity
 _atom_site_fract_x
 _atom_site_fract_y
 _atom_site_fract_z
 _atom_site_occupancy
  Tb  Tb0  1  0.250000  0.084846  0.110922  1
  Tb  Tb1  1  0.750000  0.915154  0.889078  1
  Eu  Eu2  1  0.250000  0.656117  0.080929  1
  Eu  Eu3  1  0.750000  0.343883  0.919071  1
  Eu  Eu4  1  0.750000  0.155834  0.419092  1
  Eu  Eu5  1  0.250000  0.844166  0.580908  1
  Y  Y6  1  0.750000  0.583740  0.389462  1
  Y  Y7  1  0.250000  0.416260  0.610538  1
  B  B8  1  0.250000  0.364294  0.207693  1
  B  B9  1  0.750000  0.635706  0.792307  1
  B  B10  1  0.750000  0.864072  0.292959  1
  B  B11  1  0.250000  0.135928  0.707041  1
  O  O12  1  0.250000  0.492793  0.262988  1
  O  O13  1  0.750000  0.507207  0.737012  1
  O  O14  1  0.750000  0.992371  0.236656  1
  O  O15  1  0.250000  0.007629  0.763344  1
  O  O16  1  0.250000  0.242357  0.275632  1
  O  O17  1  0.750000  0.757643  0.724368  1
  O  O18  1  0.750000  0.741709  0.226014  1
  O  O19  1  0.250000  0.258291  0.773986  1
  O  O20  1  0.250000  0.354127  0.079378  1
  O  O21  1  0.750000  0.645873  0.920622  1
  O  O22  1  0.750000  0.855100  0.421227  1
  O  O23  1  0.250000  0.144900  0.578773  1
  O  O24  1  0.250000  0.614624  0.502860  1
  O  O25  1  0.750000  0.385376  0.497140  1
  O  O26  1  0.750000  0.114800  0.996504  1
  O  O27  1  0.250000  0.885200  0.003496  1
