# generated using pymatgen
data_Hf4TiNb3As3P
_symmetry_space_group_name_H-M   'P 1'
_cell_length_a   3.57859800
_cell_length_b   6.98535529
_cell_length_c   8.47755803
_cell_angle_alpha   90.07941641
_cell_angle_beta   90.00000000
_cell_angle_gamma   90.00000000
_symmetry_Int_Tables_number   1
_chemical_formula_structural   Hf4TiNb3As3P
_chemical_formula_sum   'Hf4 Ti1 Nb3 As3 P1'
_cell_volume   211.91991396
_cell_formula_units_Z   1
loop_
 _symmetry_equiv_pos_site_id
 _symmetry_equiv_pos_as_xyz
  1  'x, y, z'
loop_
 _atom_site_type_symbol
 _atom_site_label
 _atom_site_symmetry_multiplicity
 _atom_site_fract_x
 _atom_site_fract_y
 _atom_site_fract_z
 _atom_site_occupancy
  Hf  Hf0  1  0.250000  0.042387  0.672680  1
  Hf  Hf1  1  0.250000  0.525816  0.835774  1
  Hf  Hf2  1  0.750000  0.460809  0.161295  1
  Hf  Hf3  1  0.750000  0.960256  0.334304  1
  Ti  Ti4  1  0.750000  0.870040  0.937859  1
  Nb  Nb5  1  0.250000  0.639165  0.439919  1
  Nb  Nb6  1  0.750000  0.360411  0.565215  1
  Nb  Nb7  1  0.250000  0.141863  0.055039  1
  As  As8  1  0.250000  0.259695  0.355036  1
  As  As9  1  0.250000  0.761227  0.135781  1
  As  As10  1  0.750000  0.741573  0.650076  1
  P  P11  1  0.750000  0.236759  0.857020  1
