# generated using pymatgen
data_YbCe3(Sb3Ru)4
_symmetry_space_group_name_H-M   'P 1'
_cell_length_a   6.08785200
_cell_length_b   6.21941492
_cell_length_c   12.72890193
_cell_angle_alpha   90.31615177
_cell_angle_beta   90.00000000
_cell_angle_gamma   90.00000000
_symmetry_Int_Tables_number   1
_chemical_formula_structural   YbCe3(Sb3Ru)4
_chemical_formula_sum   'Yb1 Ce3 Sb12 Ru4'
_cell_volume   481.94551848
_cell_formula_units_Z   1
loop_
 _symmetry_equiv_pos_site_id
 _symmetry_equiv_pos_as_xyz
  1  'x, y, z'
loop_
 _atom_site_type_symbol
 _atom_site_label
 _atom_site_symmetry_multiplicity
 _atom_site_fract_x
 _atom_site_fract_y
 _atom_site_fract_z
 _atom_site_occupancy
  Yb  Yb0  1  0.250000  0.492009  0.304343  1
  Ce  Ce1  1  0.750000  0.501721  0.696871  1
  Ce  Ce2  1  0.250000  0.998104  0.696483  1
  Ce  Ce3  1  0.750000  0.002714  0.303962  1
  Sb  Sb4  1  0.999162  0.749752  0.502410  1
  Sb  Sb5  1  0.999996  0.249910  0.498990  1
  Sb  Sb6  1  0.500004  0.249910  0.498990  1
  Sb  Sb7  1  0.500838  0.749752  0.502410  1
  Sb  Sb8  1  0.250000  0.604510  0.059631  1
  Sb  Sb9  1  0.750000  0.400247  0.941842  1
  Sb  Sb10  1  0.250000  0.101731  0.940872  1
  Sb  Sb11  1  0.750000  0.901885  0.058202  1
  Sb  Sb12  1  0.250000  0.980391  0.219793  1
  Sb  Sb13  1  0.750000  0.012252  0.775103  1
  Sb  Sb14  1  0.250000  0.488045  0.775228  1
  Sb  Sb15  1  0.750000  0.511556  0.222480  1
  Ru  Ru16  1  0.999872  0.750599  0.898737  1
  Ru  Ru17  1  0.000707  0.252156  0.102458  1
  Ru  Ru18  1  0.499293  0.252156  0.102458  1
  Ru  Ru19  1  0.500128  0.750599  0.898737  1
