# generated using pymatgen
data_NaAg2RhF6
_symmetry_space_group_name_H-M   'P 1'
_cell_length_a   5.92979419
_cell_length_b   5.83328657
_cell_length_c   8.32396624
_cell_angle_alpha   89.85049499
_cell_angle_beta   90.04001511
_cell_angle_gamma   90.02243961
_symmetry_Int_Tables_number   1
_chemical_formula_structural   NaAg2RhF6
_chemical_formula_sum   'Na2 Ag4 Rh2 F12'
_cell_volume   287.92649162
_cell_formula_units_Z   2
loop_
 _symmetry_equiv_pos_site_id
 _symmetry_equiv_pos_as_xyz
  1  'x, y, z'
loop_
 _atom_site_type_symbol
 _atom_site_label
 _atom_site_symmetry_multiplicity
 _atom_site_fract_x
 _atom_site_fract_y
 _atom_site_fract_z
 _atom_site_occupancy
  Na  Na0  1  0.499538  0.500288  0.999339  1
  Na  Na1  1  0.000294  0.999462  0.500328  1
  Ag  Ag2  1  0.548643  0.016303  0.249202  1
  Ag  Ag3  1  0.049139  0.483950  0.250733  1
  Ag  Ag4  1  0.951294  0.516296  0.749441  1
  Ag  Ag5  1  0.450669  0.983268  0.750470  1
  Rh  Rh6  1  0.999568  0.000413  0.000032  1
  Rh  Rh7  1  0.500429  0.499591  0.499901  1
  F  F8  1  0.811930  0.279524  0.049727  1
  F  F9  1  0.275237  0.182877  0.064235  1
  F  F10  1  0.954397  0.894661  0.229022  1
  F  F11  1  0.455369  0.605497  0.270781  1
  F  F12  1  0.775741  0.317795  0.436105  1
  F  F13  1  0.312370  0.220014  0.449963  1
  F  F14  1  0.688550  0.779256  0.550122  1
  F  F15  1  0.225158  0.681730  0.563840  1
  F  F16  1  0.545603  0.393576  0.728954  1
  F  F17  1  0.045151  0.106110  0.771132  1
  F  F18  1  0.723624  0.818148  0.936128  1
  F  F19  1  0.187302  0.721208  0.950540  1
