# generated using pymatgen
data_La2DyHo(Zn5Ge)2
_symmetry_space_group_name_H-M   'P 1'
_cell_length_a   8.34003200
_cell_length_b   8.34003000
_cell_length_c   8.88093200
_cell_angle_alpha   90.00000000
_cell_angle_beta   90.00000000
_cell_angle_gamma   149.49549828
_symmetry_Int_Tables_number   1
_chemical_formula_structural   La2DyHo(Zn5Ge)2
_chemical_formula_sum   'La2 Dy1 Ho1 Zn10 Ge2'
_cell_volume   313.56001216
_cell_formula_units_Z   1
loop_
 _symmetry_equiv_pos_site_id
 _symmetry_equiv_pos_as_xyz
  1  'x, y, z'
loop_
 _atom_site_type_symbol
 _atom_site_label
 _atom_site_symmetry_multiplicity
 _atom_site_fract_x
 _atom_site_fract_y
 _atom_site_fract_z
 _atom_site_occupancy
  La  La0  1  0.999977  0.000023  0.500033  1
  La  La1  1  0.999977  0.000023  0.999967  1
  Dy  Dy2  1  0.201982  0.798018  0.250000  1
  Ho  Ho3  1  0.798065  0.201935  0.750000  1
  Zn  Zn4  1  0.812367  0.187633  0.391057  1
  Zn  Zn5  1  0.187688  0.812312  0.609108  1
  Zn  Zn6  1  0.812367  0.187633  0.108943  1
  Zn  Zn7  1  0.187688  0.812312  0.890892  1
  Zn  Zn8  1  0.655227  0.344773  0.477016  1
  Zn  Zn9  1  0.344794  0.655206  0.523117  1
  Zn  Zn10  1  0.655227  0.344773  0.022984  1
  Zn  Zn11  1  0.344794  0.655206  0.976883  1
  Zn  Zn12  1  0.399825  0.600175  0.250000  1
  Zn  Zn13  1  0.600225  0.399775  0.750000  1
  Ge  Ge14  1  0.559055  0.440945  0.250000  1
  Ge  Ge15  1  0.440741  0.559259  0.750000  1
