# generated using pymatgen
data_Nd2B2PdPt5Rh2
_symmetry_space_group_name_H-M   'P 1'
_cell_length_a   5.48820402
_cell_length_b   5.46152344
_cell_length_c   7.64946900
_cell_angle_alpha   90.00000000
_cell_angle_beta   90.00000000
_cell_angle_gamma   119.83930911
_symmetry_Int_Tables_number   1
_chemical_formula_structural   Nd2B2PdPt5Rh2
_chemical_formula_sum   'Nd2 B2 Pd1 Pt5 Rh2'
_cell_volume   198.88723812
_cell_formula_units_Z   1
loop_
 _symmetry_equiv_pos_site_id
 _symmetry_equiv_pos_as_xyz
  1  'x, y, z'
loop_
 _atom_site_type_symbol
 _atom_site_label
 _atom_site_symmetry_multiplicity
 _atom_site_fract_x
 _atom_site_fract_y
 _atom_site_fract_z
 _atom_site_occupancy
  Nd  Nd0  1  0.000052  0.000026  0.500000  1
  Nd  Nd1  1  0.000233  0.000116  0.000000  1
  B  B2  1  0.329333  0.664667  0.000000  1
  B  B3  1  0.671270  0.335634  0.000000  1
  Pd  Pd4  1  0.316393  0.658197  0.500000  1
  Pt  Pt5  1  0.686384  0.343192  0.500000  1
  Pt  Pt6  1  0.500019  0.000255  0.201097  1
  Pt  Pt7  1  0.500019  0.000255  0.798903  1
  Pt  Pt8  1  0.500019  0.499765  0.201097  1
  Pt  Pt9  1  0.500019  0.499765  0.798903  1
  Rh  Rh10  1  0.998129  0.499065  0.190842  1
  Rh  Rh11  1  0.998129  0.499065  0.809158  1
