# generated using pymatgen
data_Y6Tm10CdIn3Ir4
_symmetry_space_group_name_H-M   'P 1'
_cell_length_a   9.59335921
_cell_length_b   9.58593031
_cell_length_c   9.58592300
_cell_angle_alpha   59.99990718
_cell_angle_beta   60.02514832
_cell_angle_gamma   60.02515217
_symmetry_Int_Tables_number   1
_chemical_formula_structural   Y6Tm10CdIn3Ir4
_chemical_formula_sum   'Y6 Tm10 Cd1 In3 Ir4'
_cell_volume   623.57486016
_cell_formula_units_Z   1
loop_
 _symmetry_equiv_pos_site_id
 _symmetry_equiv_pos_as_xyz
  1  'x, y, z'
loop_
 _atom_site_type_symbol
 _atom_site_label
 _atom_site_symmetry_multiplicity
 _atom_site_fract_x
 _atom_site_fract_y
 _atom_site_fract_z
 _atom_site_occupancy
  Y  Y0  1  0.941425  0.559762  0.559763  1
  Y  Y1  1  0.560183  0.940789  0.940789  1
  Y  Y2  1  0.560178  0.940792  0.558238  1
  Y  Y3  1  0.941426  0.559767  0.939049  1
  Y  Y4  1  0.560178  0.558237  0.940792  1
  Y  Y5  1  0.941425  0.939048  0.559767  1
  Tm  Tm6  1  0.348712  0.348698  0.348699  1
  Tm  Tm7  1  0.348711  0.348695  0.953895  1
  Tm  Tm8  1  0.348711  0.953896  0.348694  1
  Tm  Tm9  1  0.954570  0.348474  0.348475  1
  Tm  Tm10  1  0.810127  0.189633  0.189633  1
  Tm  Tm11  1  0.188443  0.811610  0.811609  1
  Tm  Tm12  1  0.188445  0.811612  0.188336  1
  Tm  Tm13  1  0.810128  0.189630  0.810607  1
  Tm  Tm14  1  0.188445  0.188336  0.811611  1
  Tm  Tm15  1  0.810129  0.810608  0.189630  1
  Cd  Cd16  1  0.254580  0.581807  0.581807  1
  In  In17  1  0.581626  0.583122  0.583121  1
  In  In18  1  0.581572  0.583161  0.252128  1
  In  In19  1  0.581572  0.252128  0.583161  1
  Ir  Ir20  1  0.141346  0.141048  0.141048  1
  Ir  Ir21  1  0.141349  0.141046  0.576558  1
  Ir  Ir22  1  0.141349  0.576558  0.141046  1
  Ir  Ir23  1  0.575372  0.141546  0.141545  1
