# generated using pymatgen
data_K2Li2La4Nb2O13
_symmetry_space_group_name_H-M   'P 1'
_cell_length_a   12.55384507
_cell_length_b   12.55384524
_cell_length_c   11.36001400
_cell_angle_alpha   64.17094349
_cell_angle_beta   64.17094311
_cell_angle_gamma   26.43322608
_symmetry_Int_Tables_number   1
_chemical_formula_structural   K2Li2La4Nb2O13
_chemical_formula_sum   'K4 Li4 La8 Nb4 O26'
_cell_volume   712.70279783
_cell_formula_units_Z   2
loop_
 _symmetry_equiv_pos_site_id
 _symmetry_equiv_pos_as_xyz
  1  'x, y, z'
loop_
 _atom_site_type_symbol
 _atom_site_label
 _atom_site_symmetry_multiplicity
 _atom_site_fract_x
 _atom_site_fract_y
 _atom_site_fract_z
 _atom_site_occupancy
  K  K0  1  0.794937  0.704633  0.368279  1
  K  K1  1  0.295367  0.205063  0.131721  1
  K  K2  1  0.205063  0.295367  0.631721  1
  K  K3  1  0.704633  0.794937  0.868279  1
  Li  Li4  1  0.863115  0.811292  0.031848  1
  Li  Li5  1  0.188708  0.136885  0.468152  1
  Li  Li6  1  0.136885  0.188708  0.968152  1
  Li  Li7  1  0.811292  0.863115  0.531848  1
  La  La8  1  0.607157  0.526345  0.547495  1
  La  La9  1  0.473655  0.392843  0.952505  1
  La  La10  1  0.392843  0.473655  0.452505  1
  La  La11  1  0.526345  0.607157  0.047495  1
  La  La12  1  0.968727  0.897778  0.178240  1
  La  La13  1  0.102222  0.031273  0.321760  1
  La  La14  1  0.031273  0.102222  0.821760  1
  La  La15  1  0.897778  0.968727  0.678240  1
  Nb  Nb16  1  0.693047  0.626653  0.208910  1
  Nb  Nb17  1  0.373347  0.306953  0.291090  1
  Nb  Nb18  1  0.306953  0.373347  0.791090  1
  Nb  Nb19  1  0.626653  0.693047  0.708910  1
  O  O20  1  0.913303  0.364935  0.354316  1
  O  O21  1  0.635065  0.086697  0.145684  1
  O  O22  1  0.086697  0.635065  0.645684  1
  O  O23  1  0.364935  0.913303  0.854316  1
  O  O24  1  0.865921  0.416318  0.616171  1
  O  O25  1  0.583682  0.134079  0.883829  1
  O  O26  1  0.134079  0.583682  0.383829  1
  O  O27  1  0.416318  0.865921  0.116171  1
  O  O28  1  0.168826  0.557726  0.144656  1
  O  O29  1  0.442274  0.831174  0.355344  1
  O  O30  1  0.831174  0.442274  0.855344  1
  O  O31  1  0.557726  0.168826  0.644656  1
  O  O32  1  0.796842  0.692644  0.118174  1
  O  O33  1  0.307356  0.203158  0.381826  1
  O  O34  1  0.203158  0.307356  0.881826  1
  O  O35  1  0.692644  0.796842  0.618174  1
  O  O36  1  0.246596  0.753404  0.250000  1
  O  O37  1  0.753404  0.246596  0.750000  1
  O  O38  1  0.373976  0.857960  0.640828  1
  O  O39  1  0.142040  0.626024  0.859172  1
  O  O40  1  0.626024  0.142040  0.359172  1
  O  O41  1  0.857960  0.373976  0.140828  1
  O  O42  1  0.750595  0.248837  0.473058  1
  O  O43  1  0.751163  0.249405  0.026942  1
  O  O44  1  0.249405  0.751163  0.526942  1
  O  O45  1  0.248837  0.750595  0.973058  1
