# generated using pymatgen
data_Tm6Lu4Sn5Bi
_symmetry_space_group_name_H-M   'P 1'
_cell_length_a   8.84176116
_cell_length_b   8.84176169
_cell_length_c   6.38293400
_cell_angle_alpha   90.00000000
_cell_angle_beta   90.00000000
_cell_angle_gamma   119.83866139
_symmetry_Int_Tables_number   1
_chemical_formula_structural   Tm6Lu4Sn5Bi
_chemical_formula_sum   'Tm6 Lu4 Sn5 Bi1'
_cell_volume   432.84492803
_cell_formula_units_Z   1
loop_
 _symmetry_equiv_pos_site_id
 _symmetry_equiv_pos_as_xyz
  1  'x, y, z'
loop_
 _atom_site_type_symbol
 _atom_site_label
 _atom_site_symmetry_multiplicity
 _atom_site_fract_x
 _atom_site_fract_y
 _atom_site_fract_z
 _atom_site_occupancy
  Tm  Tm0  1  0.766427  0.766427  0.750000  1
  Tm  Tm1  1  0.234649  0.993342  0.750000  1
  Tm  Tm2  1  0.993342  0.234649  0.750000  1
  Tm  Tm3  1  0.236364  0.236364  0.250000  1
  Tm  Tm4  1  0.762609  0.000658  0.250000  1
  Tm  Tm5  1  0.000658  0.762609  0.250000  1
  Lu  Lu6  1  0.670908  0.332732  0.001776  1
  Lu  Lu7  1  0.332732  0.670908  0.001776  1
  Lu  Lu8  1  0.332732  0.670908  0.498224  1
  Lu  Lu9  1  0.670908  0.332732  0.498224  1
  Sn  Sn10  1  0.601662  0.999456  0.750000  1
  Sn  Sn11  1  0.999456  0.601662  0.750000  1
  Sn  Sn12  1  0.604453  0.604453  0.250000  1
  Sn  Sn13  1  0.396752  0.002306  0.250000  1
  Sn  Sn14  1  0.002306  0.396752  0.250000  1
  Bi  Bi15  1  0.394043  0.394043  0.750000  1
