# generated using pymatgen
data_Cs(CeS2)3
_symmetry_space_group_name_H-M   'P 1'
_cell_length_a   7.08286695
_cell_length_b   7.08286626
_cell_length_c   9.10268100
_cell_angle_alpha   97.46085771
_cell_angle_beta   97.46085698
_cell_angle_gamma   120.08849308
_symmetry_Int_Tables_number   1
_chemical_formula_structural   Cs(CeS2)3
_chemical_formula_sum   'Cs1 Ce3 S6'
_cell_volume   381.52740104
_cell_formula_units_Z   1
loop_
 _symmetry_equiv_pos_site_id
 _symmetry_equiv_pos_as_xyz
  1  'x, y, z'
loop_
 _atom_site_type_symbol
 _atom_site_label
 _atom_site_symmetry_multiplicity
 _atom_site_fract_x
 _atom_site_fract_y
 _atom_site_fract_z
 _atom_site_occupancy
  Cs  Cs0  1  0.000000  0.000000  0.500000  1
  Ce  Ce1  1  0.832827  0.167173  0.000000  1
  Ce  Ce2  1  0.500000  0.500000  0.000000  1
  Ce  Ce3  1  0.167173  0.832827  0.000000  1
  S  S4  1  0.220913  0.220913  0.162935  1
  S  S5  1  0.885173  0.556522  0.163023  1
  S  S6  1  0.556522  0.885173  0.163023  1
  S  S7  1  0.443478  0.114827  0.836978  1
  S  S8  1  0.114827  0.443478  0.836978  1
  S  S9  1  0.779089  0.779089  0.837066  1
