# generated using pymatgen
data_Tb2Dy2OsI4
_symmetry_space_group_name_H-M   'P 1'
_cell_length_a   11.68063698
_cell_length_b   11.68063986
_cell_length_c   6.20188108
_cell_angle_alpha   90.04652106
_cell_angle_beta   90.04652193
_cell_angle_gamma   89.95453041
_symmetry_Int_Tables_number   1
_chemical_formula_structural   Tb2Dy2OsI4
_chemical_formula_sum   'Tb4 Dy4 Os2 I8'
_cell_volume   846.16717172
_cell_formula_units_Z   2
loop_
 _symmetry_equiv_pos_site_id
 _symmetry_equiv_pos_as_xyz
  1  'x, y, z'
loop_
 _atom_site_type_symbol
 _atom_site_label
 _atom_site_symmetry_multiplicity
 _atom_site_fract_x
 _atom_site_fract_y
 _atom_site_fract_z
 _atom_site_occupancy
  Tb  Tb0  1  0.807104  0.079470  0.001039  1
  Tb  Tb1  1  0.079470  0.807104  0.501039  1
  Tb  Tb2  1  0.078981  0.192718  0.001078  1
  Tb  Tb3  1  0.192718  0.078981  0.501078  1
  Dy  Dy4  1  0.921472  0.808423  0.998850  1
  Dy  Dy5  1  0.920787  0.191443  0.498844  1
  Dy  Dy6  1  0.191443  0.920787  0.998844  1
  Dy  Dy7  1  0.808423  0.921472  0.498850  1
  Os  Os8  1  0.000050  0.999661  0.249959  1
  Os  Os9  1  0.999661  0.000050  0.749959  1
  I  I10  1  0.654083  0.143360  0.487634  1
  I  I11  1  0.854994  0.655905  0.507311  1
  I  I12  1  0.344322  0.144483  0.992760  1
  I  I13  1  0.144483  0.344322  0.492760  1
  I  I14  1  0.655905  0.854994  0.007311  1
  I  I15  1  0.346285  0.856457  0.512526  1
  I  I16  1  0.143360  0.654083  0.987634  1
  I  I17  1  0.856457  0.346285  0.012526  1
