# generated using pymatgen
data_Ce4B6Ru2Pb
_symmetry_space_group_name_H-M   'P 1'
_cell_length_a   5.42489661
_cell_length_b   5.42489761
_cell_length_c   8.63564135
_cell_angle_alpha   71.69355302
_cell_angle_beta   71.69355989
_cell_angle_gamma   59.99999010
_symmetry_Int_Tables_number   1
_chemical_formula_structural   Ce4B6Ru2Pb
_chemical_formula_sum   'Ce4 B6 Ru2 Pb1'
_cell_volume   205.10771758
_cell_formula_units_Z   1
loop_
 _symmetry_equiv_pos_site_id
 _symmetry_equiv_pos_as_xyz
  1  'x, y, z'
loop_
 _atom_site_type_symbol
 _atom_site_label
 _atom_site_symmetry_multiplicity
 _atom_site_fract_x
 _atom_site_fract_y
 _atom_site_fract_z
 _atom_site_occupancy
  Ce  Ce0  1  0.748289  0.748289  0.755132  1
  Ce  Ce1  1  0.251711  0.251711  0.244868  1
  Ce  Ce2  1  0.585770  0.585770  0.242690  1
  Ce  Ce3  1  0.414230  0.414230  0.757310  1
  B  B4  1  0.500000  0.172693  0.500000  1
  B  B5  1  0.827307  0.500000  0.500000  1
  B  B6  1  0.172693  0.827307  0.500000  1
  B  B7  1  0.172693  0.500000  0.500000  1
  B  B8  1  0.827307  0.172693  0.500000  1
  B  B9  1  0.500000  0.827307  0.500000  1
  Ru  Ru10  1  0.885630  0.885630  0.343112  1
  Ru  Ru11  1  0.114370  0.114370  0.656889  1
  Pb  Pb12  1  0.000000  0.000000  0.000000  1
