# generated using pymatgen
data_Tb6Dy10Cd4RuPt3
_symmetry_space_group_name_H-M   'P 1'
_cell_length_a   9.70489588
_cell_length_b   9.70489633
_cell_length_c   9.70489621
_cell_angle_alpha   59.71894325
_cell_angle_beta   59.71895123
_cell_angle_gamma   59.71894033
_symmetry_Int_Tables_number   1
_chemical_formula_structural   Tb6Dy10Cd4RuPt3
_chemical_formula_sum   'Tb6 Dy10 Cd4 Ru1 Pt3'
_cell_volume   642.20919642
_cell_formula_units_Z   1
loop_
 _symmetry_equiv_pos_site_id
 _symmetry_equiv_pos_as_xyz
  1  'x, y, z'
loop_
 _atom_site_type_symbol
 _atom_site_label
 _atom_site_symmetry_multiplicity
 _atom_site_fract_x
 _atom_site_fract_y
 _atom_site_fract_z
 _atom_site_occupancy
  Tb  Tb0  1  0.935748  0.565284  0.565284  1
  Tb  Tb1  1  0.560661  0.936604  0.936604  1
  Tb  Tb2  1  0.565284  0.935748  0.565284  1
  Tb  Tb3  1  0.936604  0.560661  0.936604  1
  Tb  Tb4  1  0.565284  0.565284  0.935748  1
  Tb  Tb5  1  0.936604  0.936604  0.560661  1
  Dy  Dy6  1  0.351407  0.351407  0.351407  1
  Dy  Dy7  1  0.349231  0.349231  0.949181  1
  Dy  Dy8  1  0.349231  0.949181  0.349231  1
  Dy  Dy9  1  0.949181  0.349231  0.349231  1
  Dy  Dy10  1  0.815243  0.188756  0.188756  1
  Dy  Dy11  1  0.188726  0.809996  0.809996  1
  Dy  Dy12  1  0.188756  0.815243  0.188756  1
  Dy  Dy13  1  0.809996  0.188726  0.809996  1
  Dy  Dy14  1  0.188756  0.188756  0.815243  1
  Dy  Dy15  1  0.809996  0.809996  0.188726  1
  Cd  Cd16  1  0.580497  0.580497  0.580497  1
  Cd  Cd17  1  0.580977  0.580977  0.254839  1
  Cd  Cd18  1  0.580977  0.254839  0.580977  1
  Cd  Cd19  1  0.254839  0.580977  0.580977  1
  Ru  Ru20  1  0.142819  0.142819  0.142819  1
  Pt  Pt21  1  0.143461  0.143461  0.572262  1
  Pt  Pt22  1  0.143461  0.572262  0.143461  1
  Pt  Pt23  1  0.572262  0.143461  0.143461  1
