# generated using pymatgen
data_Er2Ni14(GeH)3
_symmetry_space_group_name_H-M   'P 1'
_cell_length_a   6.33492443
_cell_length_b   6.33492524
_cell_length_c   6.33492390
_cell_angle_alpha   83.24468157
_cell_angle_beta   83.24468283
_cell_angle_gamma   83.24467920
_symmetry_Int_Tables_number   1
_chemical_formula_structural   Er2Ni14(GeH)3
_chemical_formula_sum   'Er2 Ni14 Ge3 H3'
_cell_volume   249.31839140
_cell_formula_units_Z   1
loop_
 _symmetry_equiv_pos_site_id
 _symmetry_equiv_pos_as_xyz
  1  'x, y, z'
loop_
 _atom_site_type_symbol
 _atom_site_label
 _atom_site_symmetry_multiplicity
 _atom_site_fract_x
 _atom_site_fract_y
 _atom_site_fract_z
 _atom_site_occupancy
  Er  Er0  1  0.649570  0.649570  0.649570  1
  Er  Er1  1  0.350430  0.350430  0.350430  1
  Ni  Ni2  1  0.293610  0.706390  0.000000  1
  Ni  Ni3  1  0.706390  0.000000  0.293610  1
  Ni  Ni4  1  0.000000  0.293610  0.706390  1
  Ni  Ni5  1  0.293610  0.000000  0.706390  1
  Ni  Ni6  1  0.000000  0.706390  0.293610  1
  Ni  Ni7  1  0.706390  0.293610  0.000000  1
  Ni  Ni8  1  0.346524  0.346524  0.853765  1
  Ni  Ni9  1  0.346524  0.853765  0.346524  1
  Ni  Ni10  1  0.853765  0.346524  0.346524  1
  Ni  Ni11  1  0.653476  0.653476  0.146235  1
  Ni  Ni12  1  0.653476  0.146235  0.653476  1
  Ni  Ni13  1  0.146235  0.653476  0.653476  1
  Ni  Ni14  1  0.901515  0.901515  0.901515  1
  Ni  Ni15  1  0.098485  0.098485  0.098485  1
  Ge  Ge16  1  0.000000  0.000000  0.500000  1
  Ge  Ge17  1  0.000000  0.500000  0.000000  1
  Ge  Ge18  1  0.500000  0.000000  0.000000  1
  H  H19  1  0.500000  0.500000  0.000000  1
  H  H20  1  0.500000  0.000000  0.500000  1
  H  H21  1  0.000000  0.500000  0.500000  1
