# generated using pymatgen
data_La6Pr9Th(MgIr)4
_symmetry_space_group_name_H-M   'P 1'
_cell_length_a   10.13349366
_cell_length_b   10.13264035
_cell_length_c   10.18178780
_cell_angle_alpha   59.60337776
_cell_angle_beta   60.02239539
_cell_angle_gamma   60.20504160
_symmetry_Int_Tables_number   1
_chemical_formula_structural   La6Pr9Th(MgIr)4
_chemical_formula_sum   'La6 Pr9 Th1 Mg4 Ir4'
_cell_volume   738.26088292
_cell_formula_units_Z   1
loop_
 _symmetry_equiv_pos_site_id
 _symmetry_equiv_pos_as_xyz
  1  'x, y, z'
loop_
 _atom_site_type_symbol
 _atom_site_label
 _atom_site_symmetry_multiplicity
 _atom_site_fract_x
 _atom_site_fract_y
 _atom_site_fract_z
 _atom_site_occupancy
  La  La0  1  0.346759  0.344393  0.963372  1
  La  La1  1  0.348255  0.961954  0.345161  1
  La  La2  1  0.963133  0.346995  0.346442  1
  La  La3  1  0.811343  0.188255  0.186422  1
  La  La4  1  0.185742  0.812728  0.811154  1
  La  La5  1  0.187875  0.811861  0.187618  1
  Pr  Pr6  1  0.809154  0.189374  0.809473  1
  Pr  Pr7  1  0.189275  0.191040  0.808341  1
  Pr  Pr8  1  0.807267  0.808981  0.189379  1
  Pr  Pr9  1  0.938678  0.563456  0.564366  1
  Pr  Pr10  1  0.562141  0.936864  0.935490  1
  Pr  Pr11  1  0.562784  0.939919  0.563270  1
  Pr  Pr12  1  0.937625  0.561050  0.936333  1
  Pr  Pr13  1  0.562530  0.561928  0.940192  1
  Pr  Pr14  1  0.937594  0.937757  0.561098  1
  Th  Th15  1  0.342388  0.343639  0.345628  1
  Mg  Mg16  1  0.580463  0.578439  0.578390  1
  Mg  Mg17  1  0.578199  0.577815  0.261916  1
  Mg  Mg18  1  0.577007  0.262095  0.578590  1
  Mg  Mg19  1  0.261987  0.576257  0.578367  1
  Ir  Ir20  1  0.139409  0.139763  0.145391  1
  Ir  Ir21  1  0.148713  0.143353  0.570164  1
  Ir  Ir22  1  0.150450  0.572345  0.144527  1
  Ir  Ir23  1  0.571231  0.149740  0.148918  1
