# generated using pymatgen
data_TbSc7(MnC2)4
_symmetry_space_group_name_H-M   'P 1'
_cell_length_a   4.74875000
_cell_length_b   6.15988251
_cell_length_c   9.14165973
_cell_angle_alpha   90.60811170
_cell_angle_beta   90.00000000
_cell_angle_gamma   90.00000000
_symmetry_Int_Tables_number   1
_chemical_formula_structural   TbSc7(MnC2)4
_chemical_formula_sum   'Tb1 Sc7 Mn4 C8'
_cell_volume   267.39441088
_cell_formula_units_Z   1
loop_
 _symmetry_equiv_pos_site_id
 _symmetry_equiv_pos_as_xyz
  1  'x, y, z'
loop_
 _atom_site_type_symbol
 _atom_site_label
 _atom_site_symmetry_multiplicity
 _atom_site_fract_x
 _atom_site_fract_y
 _atom_site_fract_z
 _atom_site_occupancy
  Tb  Tb0  1  0.250000  0.526782  0.207365  1
  Sc  Sc1  1  0.750000  0.834190  0.058133  1
  Sc  Sc2  1  0.250000  0.669112  0.560700  1
  Sc  Sc3  1  0.750000  0.327174  0.442278  1
  Sc  Sc4  1  0.250000  0.171690  0.938080  1
  Sc  Sc5  1  0.750000  0.467282  0.786890  1
  Sc  Sc6  1  0.250000  0.028121  0.286727  1
  Sc  Sc7  1  0.750000  0.968154  0.716181  1
  Mn  Mn8  1  0.750000  0.275406  0.136193  1
  Mn  Mn9  1  0.250000  0.221870  0.637679  1
  Mn  Mn10  1  0.750000  0.777751  0.365232  1
  Mn  Mn11  1  0.250000  0.725988  0.863080  1
  C  C12  1  0.750000  0.178887  0.949669  1
  C  C13  1  0.250000  0.834213  0.045197  1
  C  C14  1  0.750000  0.678939  0.549264  1
  C  C15  1  0.250000  0.314231  0.454333  1
  C  C16  1  0.750000  0.046255  0.264106  1
  C  C17  1  0.250000  0.454321  0.764135  1
  C  C18  1  0.750000  0.546260  0.239011  1
  C  C19  1  0.250000  0.953373  0.735748  1
