# generated using pymatgen
data_Li4CaAc3Si8
_symmetry_space_group_name_H-M   'P 1'
_cell_length_a   3.94744600
_cell_length_b   8.05652625
_cell_length_c   10.96743834
_cell_angle_alpha   89.97154881
_cell_angle_beta   90.00000000
_cell_angle_gamma   90.00000000
_symmetry_Int_Tables_number   1
_chemical_formula_structural   Li4CaAc3Si8
_chemical_formula_sum   'Li4 Ca1 Ac3 Si8'
_cell_volume   348.79413360
_cell_formula_units_Z   1
loop_
 _symmetry_equiv_pos_site_id
 _symmetry_equiv_pos_as_xyz
  1  'x, y, z'
loop_
 _atom_site_type_symbol
 _atom_site_label
 _atom_site_symmetry_multiplicity
 _atom_site_fract_x
 _atom_site_fract_y
 _atom_site_fract_z
 _atom_site_occupancy
  Li  Li0  1  0.250000  0.000578  0.391123  1
  Li  Li1  1  0.750000  0.003035  0.606345  1
  Li  Li2  1  0.250000  0.497155  0.114097  1
  Li  Li3  1  0.750000  0.501702  0.891138  1
  Ca  Ca4  1  0.750000  0.367772  0.367381  1
  Ac  Ac5  1  0.250000  0.136402  0.865949  1
  Ac  Ac6  1  0.750000  0.864425  0.134843  1
  Ac  Ac7  1  0.250000  0.632713  0.631234  1
  Si  Si8  1  0.750000  0.281171  0.078715  1
  Si  Si9  1  0.250000  0.719593  0.926025  1
  Si  Si10  1  0.750000  0.773576  0.425764  1
  Si  Si11  1  0.250000  0.227965  0.566574  1
  Si  Si12  1  0.750000  0.827837  0.824276  1
  Si  Si13  1  0.250000  0.172654  0.178493  1
  Si  Si14  1  0.750000  0.326477  0.672964  1
  Si  Si15  1  0.250000  0.666944  0.325078  1
