# generated using pymatgen
data_Np3Pa2Al15
_symmetry_space_group_name_H-M   'P 1'
_cell_length_a   12.61623413
_cell_length_b   12.61623460
_cell_length_c   12.61623294
_cell_angle_alpha   27.97073555
_cell_angle_beta   27.97072943
_cell_angle_gamma   27.97073206
_symmetry_Int_Tables_number   1
_chemical_formula_structural   Np3Pa2Al15
_chemical_formula_sum   'Np3 Pa2 Al15'
_cell_volume   390.15284788
_cell_formula_units_Z   1
loop_
 _symmetry_equiv_pos_site_id
 _symmetry_equiv_pos_as_xyz
  1  'x, y, z'
loop_
 _atom_site_type_symbol
 _atom_site_label
 _atom_site_symmetry_multiplicity
 _atom_site_fract_x
 _atom_site_fract_y
 _atom_site_fract_z
 _atom_site_occupancy
  Np  Np0  1  0.000000  0.000000  0.000000  1
  Np  Np1  1  0.130064  0.130064  0.130064  1
  Np  Np2  1  0.869936  0.869936  0.869936  1
  Pa  Pa3  1  0.400610  0.400610  0.400610  1
  Pa  Pa4  1  0.599390  0.599390  0.599390  1
  Al  Al5  1  0.126824  0.637886  0.637886  1
  Al  Al6  1  0.637886  0.637886  0.126824  1
  Al  Al7  1  0.637886  0.126824  0.637886  1
  Al  Al8  1  0.362114  0.873176  0.362114  1
  Al  Al9  1  0.362114  0.362114  0.873176  1
  Al  Al10  1  0.873176  0.362114  0.362114  1
  Al  Al11  1  0.425255  0.886574  0.886574  1
  Al  Al12  1  0.886574  0.886574  0.425255  1
  Al  Al13  1  0.886574  0.425255  0.886574  1
  Al  Al14  1  0.113426  0.574745  0.113426  1
  Al  Al15  1  0.113426  0.113426  0.574745  1
  Al  Al16  1  0.574745  0.113426  0.113426  1
  Al  Al17  1  0.500000  0.500000  0.000000  1
  Al  Al18  1  0.500000  0.000000  0.500000  1
  Al  Al19  1  0.000000  0.500000  0.500000  1
