# generated using pymatgen
data_Ca3Dy(SiPt2)4
_symmetry_space_group_name_H-M   'P 1'
_cell_length_a   5.54926642
_cell_length_b   6.96316200
_cell_length_c   7.39853553
_cell_angle_alpha   90.00000000
_cell_angle_beta   90.04381784
_cell_angle_gamma   90.00000000
_symmetry_Int_Tables_number   1
_chemical_formula_structural   Ca3Dy(SiPt2)4
_chemical_formula_sum   'Ca3 Dy1 Si4 Pt8'
_cell_volume   285.88259220
_cell_formula_units_Z   1
loop_
 _symmetry_equiv_pos_site_id
 _symmetry_equiv_pos_as_xyz
  1  'x, y, z'
loop_
 _atom_site_type_symbol
 _atom_site_label
 _atom_site_symmetry_multiplicity
 _atom_site_fract_x
 _atom_site_fract_y
 _atom_site_fract_z
 _atom_site_occupancy
  Ca  Ca0  1  0.371544  0.750000  0.022811  1
  Ca  Ca1  1  0.129869  0.750000  0.523142  1
  Ca  Ca2  1  0.628050  0.250000  0.977795  1
  Dy  Dy3  1  0.867431  0.250000  0.475500  1
  Si  Si4  1  0.629023  0.750000  0.375639  1
  Si  Si5  1  0.870856  0.750000  0.877067  1
  Si  Si6  1  0.368333  0.250000  0.626006  1
  Si  Si7  1  0.130341  0.250000  0.122796  1
  Pt  Pt8  1  0.902326  0.551192  0.177128  1
  Pt  Pt9  1  0.604662  0.948557  0.670722  1
  Pt  Pt10  1  0.093165  0.052881  0.824854  1
  Pt  Pt11  1  0.402123  0.446917  0.326917  1
  Pt  Pt12  1  0.093165  0.447119  0.824854  1
  Pt  Pt13  1  0.402123  0.053083  0.326917  1
  Pt  Pt14  1  0.902326  0.948808  0.177128  1
  Pt  Pt15  1  0.604662  0.551443  0.670722  1
