# generated using pymatgen
data_AcEr6Sn23Ru6
_symmetry_space_group_name_H-M   'P 1'
_cell_length_a   9.87533900
_cell_length_b   9.87534023
_cell_length_c   10.10790300
_cell_angle_alpha   90.00000000
_cell_angle_beta   90.00000000
_cell_angle_gamma   120.00000593
_symmetry_Int_Tables_number   1
_chemical_formula_structural   AcEr6Sn23Ru6
_chemical_formula_sum   'Ac1 Er6 Sn23 Ru6'
_cell_volume   853.68126695
_cell_formula_units_Z   1
loop_
 _symmetry_equiv_pos_site_id
 _symmetry_equiv_pos_as_xyz
  1  'x, y, z'
loop_
 _atom_site_type_symbol
 _atom_site_label
 _atom_site_symmetry_multiplicity
 _atom_site_fract_x
 _atom_site_fract_y
 _atom_site_fract_z
 _atom_site_occupancy
  Ac  Ac0  1  0.000000  0.000000  0.000000  1
  Er  Er1  1  0.485419  0.514581  0.302800  1
  Er  Er2  1  0.514581  0.485419  0.697200  1
  Er  Er3  1  0.485419  0.970839  0.302800  1
  Er  Er4  1  0.514581  0.029161  0.697200  1
  Er  Er5  1  0.029161  0.514581  0.302800  1
  Er  Er6  1  0.970839  0.485419  0.697200  1
  Sn  Sn7  1  0.120098  0.879902  0.277440  1
  Sn  Sn8  1  0.879902  0.120098  0.722560  1
  Sn  Sn9  1  0.120098  0.240197  0.277440  1
  Sn  Sn10  1  0.879902  0.759803  0.722560  1
  Sn  Sn11  1  0.759803  0.879902  0.277440  1
  Sn  Sn12  1  0.240197  0.120098  0.722560  1
  Sn  Sn13  1  0.779533  0.220467  0.462427  1
  Sn  Sn14  1  0.220467  0.779533  0.537573  1
  Sn  Sn15  1  0.779533  0.559066  0.462427  1
  Sn  Sn16  1  0.220467  0.440934  0.537573  1
  Sn  Sn17  1  0.440934  0.220467  0.462427  1
  Sn  Sn18  1  0.559066  0.779533  0.537573  1
  Sn  Sn19  1  0.352125  0.000000  0.000000  1
  Sn  Sn20  1  0.647875  0.000000  0.000000  1
  Sn  Sn21  1  0.000000  0.352125  0.000000  1
  Sn  Sn22  1  0.000000  0.647875  0.000000  1
  Sn  Sn23  1  0.647875  0.647875  0.000000  1
  Sn  Sn24  1  0.352125  0.352125  0.000000  1
  Sn  Sn25  1  0.333333  0.666667  0.129611  1
  Sn  Sn26  1  0.666667  0.333333  0.870389  1
  Sn  Sn27  1  0.333333  0.666667  0.822347  1
  Sn  Sn28  1  0.666667  0.333333  0.177653  1
  Sn  Sn29  1  0.000000  0.000000  0.500000  1
  Ru  Ru30  1  0.828974  0.171026  0.203129  1
  Ru  Ru31  1  0.171026  0.828974  0.796871  1
  Ru  Ru32  1  0.828974  0.657949  0.203129  1
  Ru  Ru33  1  0.171026  0.342051  0.796871  1
  Ru  Ru34  1  0.342051  0.171026  0.203129  1
  Ru  Ru35  1  0.657949  0.828974  0.796871  1
