# generated using pymatgen
data_Sc2Ta(SiRu)3
_symmetry_space_group_name_H-M   'P 1'
_cell_length_a   6.69689012
_cell_length_b   6.69689095
_cell_length_c   3.54835400
_cell_angle_alpha   90.00000000
_cell_angle_beta   90.00000000
_cell_angle_gamma   119.43596999
_symmetry_Int_Tables_number   1
_chemical_formula_structural   Sc2Ta(SiRu)3
_chemical_formula_sum   'Sc2 Ta1 Si3 Ru3'
_cell_volume   138.59397487
_cell_formula_units_Z   1
loop_
 _symmetry_equiv_pos_site_id
 _symmetry_equiv_pos_as_xyz
  1  'x, y, z'
loop_
 _atom_site_type_symbol
 _atom_site_label
 _atom_site_symmetry_multiplicity
 _atom_site_fract_x
 _atom_site_fract_y
 _atom_site_fract_z
 _atom_site_occupancy
  Sc  Sc0  1  0.588037  0.995338  0.500000  1
  Sc  Sc1  1  0.995338  0.588037  0.500000  1
  Ta  Ta2  1  0.412896  0.412896  0.500000  1
  Si  Si3  1  0.661806  0.331876  0.000000  1
  Si  Si4  1  0.331876  0.661806  0.000000  1
  Si  Si5  1  0.005803  0.005803  0.500000  1
  Ru  Ru6  1  0.749212  0.749212  0.000000  1
  Ru  Ru7  1  0.250530  0.004503  0.000000  1
  Ru  Ru8  1  0.004503  0.250530  0.000000  1
