# generated using pymatgen
data_Tm3Sn3HgIrRu
_symmetry_space_group_name_H-M   'P 1'
_cell_length_a   7.68364100
_cell_length_b   7.68364136
_cell_length_c   3.85881200
_cell_angle_alpha   90.00000000
_cell_angle_beta   90.00000000
_cell_angle_gamma   119.99999416
_symmetry_Int_Tables_number   1
_chemical_formula_structural   Tm3Sn3HgIrRu
_chemical_formula_sum   'Tm3 Sn3 Hg1 Ir1 Ru1'
_cell_volume   197.29606722
_cell_formula_units_Z   1
loop_
 _symmetry_equiv_pos_site_id
 _symmetry_equiv_pos_as_xyz
  1  'x, y, z'
loop_
 _atom_site_type_symbol
 _atom_site_label
 _atom_site_symmetry_multiplicity
 _atom_site_fract_x
 _atom_site_fract_y
 _atom_site_fract_z
 _atom_site_occupancy
  Tm  Tm0  1  0.975096  0.389221  0.500000  1
  Tm  Tm1  1  0.610779  0.585875  0.500000  1
  Tm  Tm2  1  0.414125  0.024904  0.500000  1
  Sn  Sn3  1  0.993770  0.742590  0.000000  1
  Sn  Sn4  1  0.257410  0.251180  0.000000  1
  Sn  Sn5  1  0.748820  0.006230  0.000000  1
  Hg  Hg6  1  0.333333  0.666667  0.000000  1
  Ir  Ir7  1  0.666667  0.333333  0.000000  1
  Ru  Ru8  1  0.000000  0.000000  0.500000  1
