# generated using pymatgen
data_Zr4(Ni3Pt)3
_symmetry_space_group_name_H-M   'P 1'
_cell_length_a   5.45660637
_cell_length_b   5.45660693
_cell_length_c   8.87349900
_cell_angle_alpha   90.00000000
_cell_angle_beta   90.00000000
_cell_angle_gamma   119.00820077
_symmetry_Int_Tables_number   1
_chemical_formula_structural   Zr4(Ni3Pt)3
_chemical_formula_sum   'Zr4 Ni9 Pt3'
_cell_volume   231.06012139
_cell_formula_units_Z   1
loop_
 _symmetry_equiv_pos_site_id
 _symmetry_equiv_pos_as_xyz
  1  'x, y, z'
loop_
 _atom_site_type_symbol
 _atom_site_label
 _atom_site_symmetry_multiplicity
 _atom_site_fract_x
 _atom_site_fract_y
 _atom_site_fract_z
 _atom_site_occupancy
  Zr  Zr0  1  0.998337  0.001663  0.494016  1
  Zr  Zr1  1  0.998337  0.001663  0.005984  1
  Zr  Zr2  1  0.324959  0.675041  0.250000  1
  Zr  Zr3  1  0.675120  0.324880  0.750000  1
  Ni  Ni4  1  0.504361  0.003510  0.496327  1
  Ni  Ni5  1  0.996490  0.495639  0.496327  1
  Ni  Ni6  1  0.504361  0.003510  0.003673  1
  Ni  Ni7  1  0.996490  0.495639  0.003673  1
  Ni  Ni8  1  0.824060  0.644098  0.250000  1
  Ni  Ni9  1  0.355902  0.175940  0.250000  1
  Ni  Ni10  1  0.819166  0.180834  0.250000  1
  Ni  Ni11  1  0.173673  0.345795  0.750000  1
  Ni  Ni12  1  0.654205  0.826327  0.750000  1
  Pt  Pt13  1  0.499648  0.500352  0.498993  1
  Pt  Pt14  1  0.499648  0.500352  0.001007  1
  Pt  Pt15  1  0.175244  0.824756  0.750000  1
