# generated using pymatgen
data_HoEr11InCo5
_symmetry_space_group_name_H-M   'P 1'
_cell_length_a   8.20222141
_cell_length_b   8.20221976
_cell_length_c   8.20034539
_cell_angle_alpha   110.93788481
_cell_angle_beta   110.79217840
_cell_angle_gamma   106.72794994
_symmetry_Int_Tables_number   1
_chemical_formula_structural   HoEr11InCo5
_chemical_formula_sum   'Ho1 Er11 In1 Co5'
_cell_volume   423.91102999
_cell_formula_units_Z   1
loop_
 _symmetry_equiv_pos_site_id
 _symmetry_equiv_pos_as_xyz
  1  'x, y, z'
loop_
 _atom_site_type_symbol
 _atom_site_label
 _atom_site_symmetry_multiplicity
 _atom_site_fract_x
 _atom_site_fract_y
 _atom_site_fract_z
 _atom_site_occupancy
  Ho  Ho0  1  0.290347  0.186060  0.476407  1
  Er  Er1  1  0.709966  0.814054  0.524018  1
  Er  Er2  1  0.290464  0.813517  0.103981  1
  Er  Er3  1  0.710031  0.186057  0.896089  1
  Er  Er4  1  0.619430  0.314004  0.305364  1
  Er  Er5  1  0.380617  0.686310  0.694595  1
  Er  Er6  1  0.008285  0.313978  0.694595  1
  Er  Er7  1  0.991358  0.685933  0.305364  1
  Er  Er8  1  0.211068  0.403356  0.191883  1
  Er  Er9  1  0.789441  0.597561  0.808549  1
  Er  Er10  1  0.210988  0.019107  0.808549  1
  Er  Er11  1  0.788528  0.980816  0.191883  1
  In  In12  1  0.500034  0.499982  0.000016  1
  Co  Co13  1  0.999430  0.377476  0.376908  1
  Co  Co14  1  0.000048  0.622690  0.622737  1
  Co  Co15  1  0.387528  0.886699  0.499684  1
  Co  Co16  1  0.612985  0.112158  0.499684  1
  Co  Co17  1  0.999451  0.000241  0.999692  1
