# generated using pymatgen
data_BaLiHoTe3
_symmetry_space_group_name_H-M   'P 1'
_cell_length_a   7.77609000
_cell_length_b   7.77609140
_cell_length_c   11.35878800
_cell_angle_alpha   90.00000000
_cell_angle_beta   90.00000000
_cell_angle_gamma   146.62290479
_symmetry_Int_Tables_number   1
_chemical_formula_structural   BaLiHoTe3
_chemical_formula_sum   'Ba2 Li2 Ho2 Te6'
_cell_volume   377.86210709
_cell_formula_units_Z   2
loop_
 _symmetry_equiv_pos_site_id
 _symmetry_equiv_pos_as_xyz
  1  'x, y, z'
loop_
 _atom_site_type_symbol
 _atom_site_label
 _atom_site_symmetry_multiplicity
 _atom_site_fract_x
 _atom_site_fract_y
 _atom_site_fract_z
 _atom_site_occupancy
  Ba  Ba0  1  0.749246  0.250754  0.250000  1
  Ba  Ba1  1  0.250754  0.749246  0.750000  1
  Li  Li2  1  0.528955  0.471045  0.750000  1
  Li  Li3  1  0.471045  0.528955  0.250000  1
  Ho  Ho4  1  0.000000  0.000000  0.500000  1
  Ho  Ho5  1  0.000000  0.000000  0.000000  1
  Te  Te6  1  0.637005  0.362995  0.944129  1
  Te  Te7  1  0.073127  0.926873  0.250000  1
  Te  Te8  1  0.362995  0.637005  0.444129  1
  Te  Te9  1  0.362995  0.637005  0.055871  1
  Te  Te10  1  0.637005  0.362995  0.555871  1
  Te  Te11  1  0.926873  0.073127  0.750000  1
