# generated using pymatgen
data_Tm3AlIn2Ga2Rh
_symmetry_space_group_name_H-M   'P 1'
_cell_length_a   7.15073946
_cell_length_b   7.15073839
_cell_length_c   4.32832600
_cell_angle_alpha   90.00000000
_cell_angle_beta   90.00000000
_cell_angle_gamma   121.15537302
_symmetry_Int_Tables_number   1
_chemical_formula_structural   Tm3AlIn2Ga2Rh
_chemical_formula_sum   'Tm3 Al1 In2 Ga2 Rh1'
_cell_volume   189.39895957
_cell_formula_units_Z   1
loop_
 _symmetry_equiv_pos_site_id
 _symmetry_equiv_pos_as_xyz
  1  'x, y, z'
loop_
 _atom_site_type_symbol
 _atom_site_label
 _atom_site_symmetry_multiplicity
 _atom_site_fract_x
 _atom_site_fract_y
 _atom_site_fract_z
 _atom_site_occupancy
  Tm  Tm0  1  0.001557  0.408891  0.500000  1
  Tm  Tm1  1  0.580911  0.580911  0.500000  1
  Tm  Tm2  1  0.408891  0.001557  0.500000  1
  Al  Al3  1  0.237501  0.237501  0.000000  1
  In  In4  1  0.002896  0.756795  0.000000  1
  In  In5  1  0.756795  0.002896  0.000000  1
  Ga  Ga6  1  0.330530  0.652067  0.000000  1
  Ga  Ga7  1  0.652067  0.330530  0.000000  1
  Rh  Rh8  1  0.028854  0.028854  0.500000  1
