# generated using pymatgen
data_Th2Ge5OsRh2
_symmetry_space_group_name_H-M   'P 1'
_cell_length_a   8.45999846
_cell_length_b   8.45999847
_cell_length_c   8.45999789
_cell_angle_alpha   137.58099045
_cell_angle_beta   106.11114801
_cell_angle_gamma   89.09851122
_symmetry_Int_Tables_number   1
_chemical_formula_structural   Th2Ge5OsRh2
_chemical_formula_sum   'Th4 Ge10 Os2 Rh4'
_cell_volume   375.31225070
_cell_formula_units_Z   2
loop_
 _symmetry_equiv_pos_site_id
 _symmetry_equiv_pos_as_xyz
  1  'x, y, z'
loop_
 _atom_site_type_symbol
 _atom_site_label
 _atom_site_symmetry_multiplicity
 _atom_site_fract_x
 _atom_site_fract_y
 _atom_site_fract_z
 _atom_site_occupancy
  Th  Th0  1  0.865573  0.132170  0.733403  1
  Th  Th1  1  0.134427  0.867830  0.266597  1
  Th  Th2  1  0.398767  0.632170  0.766597  1
  Th  Th3  1  0.601233  0.367830  0.233403  1
  Ge  Ge4  1  0.500000  0.250000  0.750000  1
  Ge  Ge5  1  0.500000  0.750000  0.250000  1
  Ge  Ge6  1  0.223235  0.473235  0.250000  1
  Ge  Ge7  1  0.776765  0.026765  0.250000  1
  Ge  Ge8  1  0.776765  0.526765  0.750000  1
  Ge  Ge9  1  0.223235  0.973235  0.750000  1
  Ge  Ge10  1  0.059012  0.400766  0.658247  1
  Ge  Ge11  1  0.940988  0.599234  0.341753  1
  Ge  Ge12  1  0.742519  0.900766  0.841753  1
  Ge  Ge13  1  0.257481  0.099234  0.158247  1
  Os  Os14  1  0.000000  0.250000  0.250000  1
  Os  Os15  1  0.000000  0.750000  0.750000  1
  Rh  Rh16  1  0.249843  0.358234  0.891609  1
  Rh  Rh17  1  0.750157  0.641766  0.108391  1
  Rh  Rh18  1  0.466625  0.858234  0.608391  1
  Rh  Rh19  1  0.533375  0.141766  0.391609  1
