# generated using pymatgen
data_Cu3NiF12
_symmetry_space_group_name_H-M   'P 1'
_cell_length_a   7.29455274
_cell_length_b   4.99116065
_cell_length_c   5.22856572
_cell_angle_alpha   89.91322173
_cell_angle_beta   90.04490591
_cell_angle_gamma   89.64060986
_symmetry_Int_Tables_number   1
_chemical_formula_structural   Cu3NiF12
_chemical_formula_sum   'Cu3 Ni1 F12'
_cell_volume   190.35908577
_cell_formula_units_Z   1
loop_
 _symmetry_equiv_pos_site_id
 _symmetry_equiv_pos_as_xyz
  1  'x, y, z'
loop_
 _atom_site_type_symbol
 _atom_site_label
 _atom_site_symmetry_multiplicity
 _atom_site_fract_x
 _atom_site_fract_y
 _atom_site_fract_z
 _atom_site_occupancy
  Cu  Cu0  1  0.000000  0.000000  0.000000  1
  Cu  Cu1  1  0.000000  0.500000  0.500000  1
  Cu  Cu2  1  0.500000  0.500000  0.500000  1
  Ni  Ni3  1  0.500000  0.000000  0.000000  1
  F  F4  1  0.244051  0.116923  0.971262  1
  F  F5  1  0.558329  0.326202  0.198833  1
  F  F6  1  0.941733  0.315721  0.191833  1
  F  F7  1  0.057238  0.814476  0.309265  1
  F  F8  1  0.440319  0.806631  0.318167  1
  F  F9  1  0.753564  0.618061  0.530599  1
  F  F10  1  0.246436  0.381939  0.469401  1
  F  F11  1  0.559681  0.193369  0.681833  1
  F  F12  1  0.942762  0.185524  0.690735  1
  F  F13  1  0.058267  0.684279  0.808167  1
  F  F14  1  0.441671  0.673798  0.801167  1
  F  F15  1  0.755949  0.883077  0.028738  1
