# generated using pymatgen
data_Sm2SiNiI
_symmetry_space_group_name_H-M   'P 1'
_cell_length_a   4.12791400
_cell_length_b   4.12791453
_cell_length_c   16.69296700
_cell_angle_alpha   90.00000000
_cell_angle_beta   90.00000000
_cell_angle_gamma   119.99999576
_symmetry_Int_Tables_number   1
_chemical_formula_structural   Sm2SiNiI
_chemical_formula_sum   'Sm4 Si2 Ni2 I2'
_cell_volume   246.33465978
_cell_formula_units_Z   2
loop_
 _symmetry_equiv_pos_site_id
 _symmetry_equiv_pos_as_xyz
  1  'x, y, z'
loop_
 _atom_site_type_symbol
 _atom_site_label
 _atom_site_symmetry_multiplicity
 _atom_site_fract_x
 _atom_site_fract_y
 _atom_site_fract_z
 _atom_site_occupancy
  Sm  Sm0  1  0.000000  0.000000  0.609041  1
  Sm  Sm1  1  0.000000  0.000000  0.395060  1
  Sm  Sm2  1  0.000000  0.000000  0.109041  1
  Sm  Sm3  1  0.000000  0.000000  0.895060  1
  Si  Si4  1  0.666667  0.333333  0.506580  1
  Si  Si5  1  0.333333  0.666667  0.006580  1
  Ni  Ni6  1  0.666667  0.333333  0.990558  1
  Ni  Ni7  1  0.333333  0.666667  0.490558  1
  I  I8  1  0.666667  0.333333  0.248761  1
  I  I9  1  0.333333  0.666667  0.748761  1
