# generated using pymatgen
data_CeInCuPt3
_symmetry_space_group_name_H-M   'P 1'
_cell_length_a   5.47838100
_cell_length_b   5.47838196
_cell_length_c   5.26182764
_cell_angle_alpha   121.37101115
_cell_angle_beta   90.00000000
_cell_angle_gamma   120.00000027
_symmetry_Int_Tables_number   1
_chemical_formula_structural   CeInCuPt3
_chemical_formula_sum   'Ce1 In1 Cu1 Pt3'
_cell_volume   109.29703771
_cell_formula_units_Z   1
loop_
 _symmetry_equiv_pos_site_id
 _symmetry_equiv_pos_as_xyz
  1  'x, y, z'
loop_
 _atom_site_type_symbol
 _atom_site_label
 _atom_site_symmetry_multiplicity
 _atom_site_fract_x
 _atom_site_fract_y
 _atom_site_fract_z
 _atom_site_occupancy
  Ce  Ce0  1  0.999316  0.998632  0.997949  1
  In  In1  1  0.747145  0.494288  0.241431  1
  Cu  Cu2  1  0.375627  0.751254  0.126882  1
  Pt  Pt3  1  0.376977  0.753953  0.627913  1
  Pt  Pt4  1  0.376977  0.250936  0.627913  1
  Pt  Pt5  1  0.873959  0.250936  0.627913  1
