# generated using pymatgen
data_BaGePIr2
_symmetry_space_group_name_H-M   'P 1'
_cell_length_a   7.06869058
_cell_length_b   7.06869101
_cell_length_c   7.06869055
_cell_angle_alpha   146.50413326
_cell_angle_beta   146.50413365
_cell_angle_gamma   48.09855485
_symmetry_Int_Tables_number   1
_chemical_formula_structural   BaGePIr2
_chemical_formula_sum   'Ba1 Ge1 P1 Ir2'
_cell_volume   107.13051617
_cell_formula_units_Z   1
loop_
 _symmetry_equiv_pos_site_id
 _symmetry_equiv_pos_as_xyz
  1  'x, y, z'
loop_
 _atom_site_type_symbol
 _atom_site_label
 _atom_site_symmetry_multiplicity
 _atom_site_fract_x
 _atom_site_fract_y
 _atom_site_fract_z
 _atom_site_occupancy
  Ba  Ba0  1  0.994150  0.994150  0.000000  1
  Ge  Ge1  1  0.643916  0.643916  0.000000  1
  P  P2  1  0.346993  0.346993  0.000000  1
  Ir  Ir3  1  0.257471  0.757471  0.500000  1
  Ir  Ir4  1  0.757471  0.257471  0.500000  1
