# generated using pymatgen
data_RbBa(AcI4)2
_symmetry_space_group_name_H-M   'P 1'
_cell_length_a   9.47493057
_cell_length_b   9.47493022
_cell_length_c   7.84110018
_cell_angle_alpha   72.02698981
_cell_angle_beta   72.02698433
_cell_angle_gamma   110.74591833
_symmetry_Int_Tables_number   1
_chemical_formula_structural   RbBa(AcI4)2
_chemical_formula_sum   'Rb1 Ba1 Ac2 I8'
_cell_volume   552.77081683
_cell_formula_units_Z   1
loop_
 _symmetry_equiv_pos_site_id
 _symmetry_equiv_pos_as_xyz
  1  'x, y, z'
loop_
 _atom_site_type_symbol
 _atom_site_label
 _atom_site_symmetry_multiplicity
 _atom_site_fract_x
 _atom_site_fract_y
 _atom_site_fract_z
 _atom_site_occupancy
  Rb  Rb0  1  0.637809  0.362191  0.250000  1
  Ba  Ba1  1  0.367829  0.632171  0.750000  1
  Ac  Ac2  1  0.999368  0.000632  0.750000  1
  Ac  Ac3  1  0.001118  0.998882  0.250000  1
  I  I4  1  0.642604  0.775745  0.222371  1
  I  I5  1  0.224255  0.357396  0.277629  1
  I  I6  1  0.356645  0.235355  0.784515  1
  I  I7  1  0.764645  0.643355  0.715485  1
  I  I8  1  0.708900  0.048270  0.589450  1
  I  I9  1  0.951730  0.291100  0.910550  1
  I  I10  1  0.277016  0.931917  0.430394  1
  I  I11  1  0.068083  0.722984  0.069606  1
