# generated using pymatgen
data_TbY3Al17CuPd6
_symmetry_space_group_name_H-M   'P 1'
_cell_length_a   7.60364746
_cell_length_b   7.60324519
_cell_length_c   9.46640100
_cell_angle_alpha   90.00000000
_cell_angle_beta   90.00000000
_cell_angle_gamma   119.05151614
_symmetry_Int_Tables_number   1
_chemical_formula_structural   TbY3Al17CuPd6
_chemical_formula_sum   'Tb1 Y3 Al17 Cu1 Pd6'
_cell_volume   478.41902916
_cell_formula_units_Z   1
loop_
 _symmetry_equiv_pos_site_id
 _symmetry_equiv_pos_as_xyz
  1  'x, y, z'
loop_
 _atom_site_type_symbol
 _atom_site_label
 _atom_site_symmetry_multiplicity
 _atom_site_fract_x
 _atom_site_fract_y
 _atom_site_fract_z
 _atom_site_occupancy
  Tb  Tb0  1  0.991544  0.670269  0.250000  1
  Y  Y1  1  0.006400  0.329123  0.750000  1
  Y  Y2  1  0.670256  0.991551  0.250000  1
  Y  Y3  1  0.329131  0.006403  0.750000  1
  Al  Al4  1  0.866784  0.866792  0.750000  1
  Al  Al5  1  0.003766  0.327138  0.083631  1
  Al  Al6  1  0.999501  0.663608  0.923415  1
  Al  Al7  1  0.999501  0.663608  0.576585  1
  Al  Al8  1  0.327191  0.003796  0.416372  1
  Al  Al9  1  0.003766  0.327138  0.416369  1
  Al  Al10  1  0.663611  0.999508  0.576588  1
  Al  Al11  1  0.663611  0.999508  0.923412  1
  Al  Al12  1  0.327191  0.003796  0.083628  1
  Al  Al13  1  0.332943  0.332943  0.551019  1
  Al  Al14  1  0.666690  0.666717  0.442366  1
  Al  Al15  1  0.666690  0.666717  0.057634  1
  Al  Al16  1  0.332943  0.332943  0.948981  1
  Al  Al17  1  0.337973  0.543788  0.250000  1
  Al  Al18  1  0.659944  0.450951  0.750000  1
  Al  Al19  1  0.543780  0.337978  0.250000  1
  Al  Al20  1  0.450958  0.659954  0.750000  1
  Cu  Cu21  1  0.155948  0.155923  0.250000  1
  Pd  Pd22  1  0.674655  0.328011  0.000476  1
  Pd  Pd23  1  0.328073  0.674679  0.000475  1
  Pd  Pd24  1  0.328073  0.674679  0.499525  1
  Pd  Pd25  1  0.674655  0.328011  0.499524  1
  Pd  Pd26  1  0.997214  0.997235  0.994307  1
  Pd  Pd27  1  0.997214  0.997235  0.505693  1
