# generated using pymatgen
data_Ho8Er9Tm3Pb16
_symmetry_space_group_name_H-M   'P 1'
_cell_length_a   8.16026600
_cell_length_b   8.22835517
_cell_length_c   15.54985400
_cell_angle_alpha   90.00000000
_cell_angle_beta   90.00000000
_cell_angle_gamma   90.01160094
_symmetry_Int_Tables_number   1
_chemical_formula_structural   Ho8Er9Tm3Pb16
_chemical_formula_sum   'Ho8 Er9 Tm3 Pb16'
_cell_volume   1044.10374083
_cell_formula_units_Z   1
loop_
 _symmetry_equiv_pos_site_id
 _symmetry_equiv_pos_as_xyz
  1  'x, y, z'
loop_
 _atom_site_type_symbol
 _atom_site_label
 _atom_site_symmetry_multiplicity
 _atom_site_fract_x
 _atom_site_fract_y
 _atom_site_fract_z
 _atom_site_occupancy
  Ho  Ho0  1  0.536987  0.323314  0.900151  1
  Ho  Ho1  1  0.036847  0.176515  0.599851  1
  Ho  Ho2  1  0.463067  0.676623  0.400112  1
  Ho  Ho3  1  0.963085  0.823389  0.099848  1
  Ho  Ho4  1  0.463067  0.676623  0.099888  1
  Ho  Ho5  1  0.963085  0.823389  0.400152  1
  Ho  Ho6  1  0.536987  0.323314  0.599849  1
  Ho  Ho7  1  0.036847  0.176515  0.900149  1
  Er  Er8  1  0.377346  0.841175  0.878943  1
  Er  Er9  1  0.877094  0.658982  0.621044  1
  Er  Er10  1  0.622746  0.158891  0.378939  1
  Er  Er11  1  0.122743  0.341126  0.121092  1
  Er  Er12  1  0.622746  0.158891  0.121061  1
  Er  Er13  1  0.122743  0.341126  0.378908  1
  Er  Er14  1  0.377346  0.841175  0.621057  1
  Er  Er15  1  0.877094  0.658982  0.878956  1
  Er  Er16  1  0.208609  0.504265  0.750000  1
  Tm  Tm17  1  0.708681  0.995587  0.750000  1
  Tm  Tm18  1  0.791341  0.495600  0.250000  1
  Tm  Tm19  1  0.291343  0.004374  0.250000  1
  Pb  Pb20  1  0.280843  0.032611  0.042681  1
  Pb  Pb21  1  0.780860  0.467420  0.457312  1
  Pb  Pb22  1  0.719142  0.967409  0.542652  1
  Pb  Pb23  1  0.219164  0.532624  0.957490  1
  Pb  Pb24  1  0.719142  0.967409  0.957348  1
  Pb  Pb25  1  0.219164  0.532624  0.542510  1
  Pb  Pb26  1  0.280843  0.032611  0.457319  1
  Pb  Pb27  1  0.780860  0.467420  0.042688  1
  Pb  Pb28  1  0.571724  0.626896  0.750000  1
  Pb  Pb29  1  0.071302  0.873489  0.750000  1
  Pb  Pb30  1  0.428659  0.373251  0.250000  1
  Pb  Pb31  1  0.928680  0.126750  0.250000  1
  Pb  Pb32  1  0.348378  0.153576  0.750000  1
  Pb  Pb33  1  0.848146  0.345957  0.750000  1
  Pb  Pb34  1  0.651655  0.846029  0.250000  1
  Pb  Pb35  1  0.151636  0.654064  0.250000  1
