# generated using pymatgen
data_Sr4BiSb3Pt4
_symmetry_space_group_name_H-M   'P 1'
_cell_length_a   4.77493500
_cell_length_b   7.82045050
_cell_length_c   8.15875623
_cell_angle_alpha   90.10828348
_cell_angle_beta   90.00000000
_cell_angle_gamma   90.00000000
_symmetry_Int_Tables_number   1
_chemical_formula_structural   Sr4BiSb3Pt4
_chemical_formula_sum   'Sr4 Bi1 Sb3 Pt4'
_cell_volume   304.66489621
_cell_formula_units_Z   1
loop_
 _symmetry_equiv_pos_site_id
 _symmetry_equiv_pos_as_xyz
  1  'x, y, z'
loop_
 _atom_site_type_symbol
 _atom_site_label
 _atom_site_symmetry_multiplicity
 _atom_site_fract_x
 _atom_site_fract_y
 _atom_site_fract_z
 _atom_site_occupancy
  Sr  Sr0  1  0.750000  0.992087  0.692679  1
  Sr  Sr1  1  0.250000  0.013398  0.307685  1
  Sr  Sr2  1  0.750000  0.487919  0.804382  1
  Sr  Sr3  1  0.250000  0.507365  0.193720  1
  Bi  Bi4  1  0.750000  0.819020  0.090145  1
  Sb  Sb5  1  0.750000  0.319770  0.412407  1
  Sb  Sb6  1  0.250000  0.177325  0.912916  1
  Sb  Sb7  1  0.250000  0.678498  0.587222  1
  Pt  Pt8  1  0.250000  0.810112  0.900269  1
  Pt  Pt9  1  0.250000  0.305912  0.587734  1
  Pt  Pt10  1  0.750000  0.685746  0.424132  1
  Pt  Pt11  1  0.750000  0.202848  0.086708  1
