# generated using pymatgen
data_Tb5Pr3(GaBr6)2
_symmetry_space_group_name_H-M   'P 1'
_cell_length_a   4.11062600
_cell_length_b   13.74147333
_cell_length_c   14.45900682
_cell_angle_alpha   89.55658329
_cell_angle_beta   90.00000000
_cell_angle_gamma   90.00000000
_symmetry_Int_Tables_number   1
_chemical_formula_structural   Tb5Pr3(GaBr6)2
_chemical_formula_sum   'Tb5 Pr3 Ga2 Br12'
_cell_volume   816.70783345
_cell_formula_units_Z   1
loop_
 _symmetry_equiv_pos_site_id
 _symmetry_equiv_pos_as_xyz
  1  'x, y, z'
loop_
 _atom_site_type_symbol
 _atom_site_label
 _atom_site_symmetry_multiplicity
 _atom_site_fract_x
 _atom_site_fract_y
 _atom_site_fract_z
 _atom_site_occupancy
  Tb  Tb0  1  0.500000  0.118662  0.339607  1
  Tb  Tb1  1  0.500000  0.882415  0.659391  1
  Tb  Tb2  1  0.500000  0.615608  0.158951  1
  Tb  Tb3  1  0.500000  0.382275  0.842529  1
  Tb  Tb4  1  0.000000  0.377448  0.081767  1
  Pr  Pr5  1  0.000000  0.126317  0.584056  1
  Pr  Pr6  1  0.000000  0.873583  0.415921  1
  Pr  Pr7  1  0.000000  0.623554  0.917382  1
  Ga  Ga8  1  0.500000  0.000585  0.499157  1
  Ga  Ga9  1  0.500000  0.496980  0.001994  1
  Br  Br10  1  0.500000  0.247758  0.165022  1
  Br  Br11  1  0.500000  0.760902  0.830777  1
  Br  Br12  1  0.500000  0.736690  0.329363  1
  Br  Br13  1  0.500000  0.262407  0.671192  1
  Br  Br14  1  0.000000  0.252180  0.403954  1
  Br  Br15  1  0.000000  0.748029  0.595337  1
  Br  Br16  1  0.000000  0.750474  0.094591  1
  Br  Br17  1  0.000000  0.249888  0.912609  1
  Br  Br18  1  0.000000  0.010017  0.242311  1
  Br  Br19  1  0.000000  0.991370  0.756913  1
  Br  Br20  1  0.000000  0.501419  0.252928  1
  Br  Br21  1  0.000000  0.491440  0.744249  1
