# generated using pymatgen
data_Rb2Na(GaAu)4
_symmetry_space_group_name_H-M   'P 1'
_cell_length_a   6.87988800
_cell_length_b   6.87988705
_cell_length_c   12.34289200
_cell_angle_alpha   90.00000000
_cell_angle_beta   90.00000000
_cell_angle_gamma   110.03605711
_symmetry_Int_Tables_number   1
_chemical_formula_structural   Rb2Na(GaAu)4
_chemical_formula_sum   'Rb4 Na2 Ga8 Au8'
_cell_volume   548.86539328
_cell_formula_units_Z   2
loop_
 _symmetry_equiv_pos_site_id
 _symmetry_equiv_pos_as_xyz
  1  'x, y, z'
loop_
 _atom_site_type_symbol
 _atom_site_label
 _atom_site_symmetry_multiplicity
 _atom_site_fract_x
 _atom_site_fract_y
 _atom_site_fract_z
 _atom_site_occupancy
  Rb  Rb0  1  0.206313  0.793687  0.500000  1
  Rb  Rb1  1  0.206313  0.793687  0.000000  1
  Rb  Rb2  1  0.793687  0.206313  0.500000  1
  Rb  Rb3  1  0.793687  0.206313  0.000000  1
  Na  Na4  1  0.969898  0.969898  0.250000  1
  Na  Na5  1  0.030102  0.030102  0.750000  1
  Ga  Ga6  1  0.491219  0.738176  0.250000  1
  Ga  Ga7  1  0.261824  0.508781  0.750000  1
  Ga  Ga8  1  0.508781  0.261824  0.750000  1
  Ga  Ga9  1  0.738176  0.491219  0.250000  1
  Ga  Ga10  1  0.334556  0.334556  0.365484  1
  Ga  Ga11  1  0.665444  0.665444  0.634516  1
  Ga  Ga12  1  0.334556  0.334556  0.134516  1
  Ga  Ga13  1  0.665444  0.665444  0.865484  1
  Au  Au14  1  0.477182  0.095570  0.250000  1
  Au  Au15  1  0.904430  0.522818  0.750000  1
  Au  Au16  1  0.522818  0.904430  0.750000  1
  Au  Au17  1  0.095570  0.477182  0.250000  1
  Au  Au18  1  0.334275  0.334275  0.928854  1
  Au  Au19  1  0.665725  0.665725  0.071146  1
  Au  Au20  1  0.334275  0.334275  0.571146  1
  Au  Au21  1  0.665725  0.665725  0.428854  1
