# generated using pymatgen
data_DyLu3InPt11
_symmetry_space_group_name_H-M   'P 1'
_cell_length_a   4.15953600
_cell_length_b   5.81519571
_cell_length_c   11.60252197
_cell_angle_alpha   88.08832245
_cell_angle_beta   90.00000000
_cell_angle_gamma   90.00000000
_symmetry_Int_Tables_number   1
_chemical_formula_structural   DyLu3InPt11
_chemical_formula_sum   'Dy1 Lu3 In1 Pt11'
_cell_volume   280.49158908
_cell_formula_units_Z   1
loop_
 _symmetry_equiv_pos_site_id
 _symmetry_equiv_pos_as_xyz
  1  'x, y, z'
loop_
 _atom_site_type_symbol
 _atom_site_label
 _atom_site_symmetry_multiplicity
 _atom_site_fract_x
 _atom_site_fract_y
 _atom_site_fract_z
 _atom_site_occupancy
  Dy  Dy0  1  0.500000  0.759148  0.376018  1
  Lu  Lu1  1  0.500000  0.714497  0.862073  1
  Lu  Lu2  1  0.500000  0.285462  0.137800  1
  Lu  Lu3  1  0.500000  0.240940  0.623921  1
  In  In4  1  0.000000  0.000077  0.999788  1
  Pt  Pt5  1  0.000000  0.021615  0.248416  1
  Pt  Pt6  1  0.000000  0.980423  0.750602  1
  Pt  Pt7  1  0.000000  0.499877  0.999864  1
  Pt  Pt8  1  0.000000  0.498075  0.501103  1
  Pt  Pt9  1  0.000000  0.519495  0.248890  1
  Pt  Pt10  1  0.000000  0.478572  0.750137  1
  Pt  Pt11  1  0.500000  0.258393  0.377497  1
  Pt  Pt12  1  0.500000  0.226007  0.879762  1
  Pt  Pt13  1  0.500000  0.774118  0.119181  1
  Pt  Pt14  1  0.500000  0.741517  0.623868  1
  Pt  Pt15  1  0.000000  0.001785  0.501080  1
