# generated using pymatgen
data_Ca2Sc2As6Ir7
_symmetry_space_group_name_H-M   'P 1'
_cell_length_a   7.23936152
_cell_length_b   7.17753633
_cell_length_c   7.17753527
_cell_angle_alpha   109.26816853
_cell_angle_beta   109.39895999
_cell_angle_gamma   109.39896448
_symmetry_Int_Tables_number   1
_chemical_formula_structural   Ca2Sc2As6Ir7
_chemical_formula_sum   'Ca2 Sc2 As6 Ir7'
_cell_volume   288.32184318
_cell_formula_units_Z   1
loop_
 _symmetry_equiv_pos_site_id
 _symmetry_equiv_pos_as_xyz
  1  'x, y, z'
loop_
 _atom_site_type_symbol
 _atom_site_label
 _atom_site_symmetry_multiplicity
 _atom_site_fract_x
 _atom_site_fract_y
 _atom_site_fract_z
 _atom_site_occupancy
  Ca  Ca0  1  0.000000  0.000000  0.500000  1
  Ca  Ca1  1  0.000000  0.500000  0.000000  1
  Sc  Sc2  1  0.500000  0.000000  0.000000  1
  Sc  Sc3  1  0.500000  0.500000  0.500000  1
  As  As4  1  0.683153  0.683263  0.999891  1
  As  As5  1  0.316847  0.316737  0.000109  1
  As  As6  1  0.000000  0.681297  0.681297  1
  As  As7  1  0.000000  0.318703  0.318703  1
  As  As8  1  0.683153  0.999891  0.683263  1
  As  As9  1  0.316847  0.000109  0.316737  1
  Ir  Ir10  1  0.000000  0.000000  0.000000  1
  Ir  Ir11  1  0.261455  0.510362  0.751093  1
  Ir  Ir12  1  0.738545  0.248907  0.489638  1
  Ir  Ir13  1  0.500000  0.250000  0.750000  1
  Ir  Ir14  1  0.500000  0.750000  0.250000  1
  Ir  Ir15  1  0.738545  0.489638  0.248907  1
  Ir  Ir16  1  0.261455  0.751093  0.510362  1
