# generated using pymatgen
data_Y3In3GePtRh
_symmetry_space_group_name_H-M   'P 1'
_cell_length_a   7.53904100
_cell_length_b   7.53904209
_cell_length_c   4.06592900
_cell_angle_alpha   90.00000000
_cell_angle_beta   90.00000000
_cell_angle_gamma   119.99999959
_symmetry_Int_Tables_number   1
_chemical_formula_structural   Y3In3GePtRh
_chemical_formula_sum   'Y3 In3 Ge1 Pt1 Rh1'
_cell_volume   200.13483959
_cell_formula_units_Z   1
loop_
 _symmetry_equiv_pos_site_id
 _symmetry_equiv_pos_as_xyz
  1  'x, y, z'
loop_
 _atom_site_type_symbol
 _atom_site_label
 _atom_site_symmetry_multiplicity
 _atom_site_fract_x
 _atom_site_fract_y
 _atom_site_fract_z
 _atom_site_occupancy
  Y  Y0  1  0.994953  0.588566  0.500000  1
  Y  Y1  1  0.411434  0.406387  0.500000  1
  Y  Y2  1  0.593613  0.005047  0.500000  1
  In  In3  1  0.991045  0.245806  0.000000  1
  In  In4  1  0.254763  0.008955  0.000000  1
  In  In5  1  0.754194  0.745237  0.000000  1
  Ge  Ge6  1  0.333333  0.666667  0.000000  1
  Pt  Pt7  1  0.666667  0.333333  0.000000  1
  Rh  Rh8  1  0.000000  0.000000  0.500000  1
