# generated using pymatgen
data_Ac2HfSe5
_symmetry_space_group_name_H-M   'P 1'
_cell_length_a   7.93185700
_cell_length_b   8.79947200
_cell_length_c   12.26117600
_cell_angle_alpha   90.00000000
_cell_angle_beta   90.00000000
_cell_angle_gamma   90.00000000
_symmetry_Int_Tables_number   1
_chemical_formula_structural   Ac2HfSe5
_chemical_formula_sum   'Ac8 Hf4 Se20'
_cell_volume   855.78292316
_cell_formula_units_Z   4
loop_
 _symmetry_equiv_pos_site_id
 _symmetry_equiv_pos_as_xyz
  1  'x, y, z'
loop_
 _atom_site_type_symbol
 _atom_site_label
 _atom_site_symmetry_multiplicity
 _atom_site_fract_x
 _atom_site_fract_y
 _atom_site_fract_z
 _atom_site_occupancy
  Ac  Ac0  1  0.935673  0.998900  0.171104  1
  Ac  Ac1  1  0.564327  0.501100  0.671104  1
  Ac  Ac2  1  0.064327  0.498900  0.828896  1
  Ac  Ac3  1  0.435673  0.001100  0.328896  1
  Ac  Ac4  1  0.064327  0.001100  0.828896  1
  Ac  Ac5  1  0.435673  0.498900  0.328896  1
  Ac  Ac6  1  0.935673  0.501100  0.171104  1
  Ac  Ac7  1  0.564327  0.998900  0.671104  1
  Hf  Hf8  1  0.426880  0.750000  0.008807  1
  Hf  Hf9  1  0.073120  0.750000  0.508807  1
  Hf  Hf10  1  0.573120  0.250000  0.991193  1
  Hf  Hf11  1  0.926880  0.250000  0.491193  1
  Se  Se12  1  0.823803  0.966602  0.431893  1
  Se  Se13  1  0.676197  0.533398  0.931893  1
  Se  Se14  1  0.176197  0.466602  0.568107  1
  Se  Se15  1  0.323803  0.033398  0.068107  1
  Se  Se16  1  0.176197  0.033398  0.568107  1
  Se  Se17  1  0.323803  0.466602  0.068107  1
  Se  Se18  1  0.823803  0.533398  0.431893  1
  Se  Se19  1  0.676197  0.966602  0.931893  1
  Se  Se20  1  0.632868  0.750000  0.189480  1
  Se  Se21  1  0.867132  0.750000  0.689480  1
  Se  Se22  1  0.367132  0.250000  0.810520  1
  Se  Se23  1  0.132868  0.250000  0.310520  1
  Se  Se24  1  0.436227  0.750000  0.507074  1
  Se  Se25  1  0.063773  0.750000  0.007074  1
  Se  Se26  1  0.563773  0.250000  0.492926  1
  Se  Se27  1  0.936227  0.250000  0.992926  1
  Se  Se28  1  0.152161  0.750000  0.294971  1
  Se  Se29  1  0.347839  0.750000  0.794971  1
  Se  Se30  1  0.847839  0.250000  0.705029  1
  Se  Se31  1  0.652161  0.250000  0.205029  1
