# generated using pymatgen
data_Dy4CoB16IrRu2
_symmetry_space_group_name_H-M   'P 1'
_cell_length_a   3.53369300
_cell_length_b   5.95251499
_cell_length_c   11.51758171
_cell_angle_alpha   89.98056781
_cell_angle_beta   90.00000000
_cell_angle_gamma   90.00000000
_symmetry_Int_Tables_number   1
_chemical_formula_structural   Dy4CoB16IrRu2
_chemical_formula_sum   'Dy4 Co1 B16 Ir1 Ru2'
_cell_volume   242.26495261
_cell_formula_units_Z   1
loop_
 _symmetry_equiv_pos_site_id
 _symmetry_equiv_pos_as_xyz
  1  'x, y, z'
loop_
 _atom_site_type_symbol
 _atom_site_label
 _atom_site_symmetry_multiplicity
 _atom_site_fract_x
 _atom_site_fract_y
 _atom_site_fract_z
 _atom_site_occupancy
  Dy  Dy0  1  0.500000  0.372982  0.149297  1
  Dy  Dy1  1  0.500000  0.629488  0.852434  1
  Dy  Dy2  1  0.500000  0.130044  0.648794  1
  Dy  Dy3  1  0.500000  0.870246  0.347474  1
  Co  Co4  1  0.500000  0.856543  0.095085  1
  B  B5  1  0.000000  0.110959  0.047418  1
  B  B6  1  0.000000  0.887033  0.954335  1
  B  B7  1  0.000000  0.388322  0.546049  1
  B  B8  1  0.000000  0.612721  0.452760  1
  B  B9  1  0.000000  0.136494  0.468663  1
  B  B10  1  0.000000  0.863950  0.529852  1
  B  B11  1  0.000000  0.363898  0.970368  1
  B  B12  1  0.000000  0.640198  0.032327  1
  B  B13  1  0.000000  0.019672  0.190341  1
  B  B14  1  0.000000  0.976014  0.808307  1
  B  B15  1  0.000000  0.474584  0.692004  1
  B  B16  1  0.000000  0.525943  0.306755  1
  B  B17  1  0.000000  0.211600  0.312340  1
  B  B18  1  0.000000  0.788454  0.686855  1
  B  B19  1  0.000000  0.288759  0.814315  1
  B  B20  1  0.000000  0.715426  0.184112  1
  Ir  Ir21  1  0.500000  0.135680  0.909589  1
  Ru  Ru22  1  0.500000  0.359945  0.407340  1
  Ru  Ru23  1  0.500000  0.641043  0.593186  1
