# generated using pymatgen
data_Tm12Tc2OsRu
_symmetry_space_group_name_H-M   'P 1'
_cell_length_a   6.19903553
_cell_length_b   7.33313256
_cell_length_c   8.95732100
_cell_angle_alpha   90.00000000
_cell_angle_beta   90.00000000
_cell_angle_gamma   90.06276912
_symmetry_Int_Tables_number   1
_chemical_formula_structural   Tm12Tc2OsRu
_chemical_formula_sum   'Tm12 Tc2 Os1 Ru1'
_cell_volume   407.18478277
_cell_formula_units_Z   1
loop_
 _symmetry_equiv_pos_site_id
 _symmetry_equiv_pos_as_xyz
  1  'x, y, z'
loop_
 _atom_site_type_symbol
 _atom_site_label
 _atom_site_symmetry_multiplicity
 _atom_site_fract_x
 _atom_site_fract_y
 _atom_site_fract_z
 _atom_site_occupancy
  Tm  Tm0  1  0.629759  0.041172  0.250000  1
  Tm  Tm1  1  0.375732  0.960777  0.750000  1
  Tm  Tm2  1  0.123429  0.460667  0.750000  1
  Tm  Tm3  1  0.872795  0.541481  0.250000  1
  Tm  Tm4  1  0.162910  0.176353  0.062474  1
  Tm  Tm5  1  0.836369  0.823446  0.936890  1
  Tm  Tm6  1  0.661965  0.324041  0.938205  1
  Tm  Tm7  1  0.836369  0.823446  0.563110  1
  Tm  Tm8  1  0.337440  0.675994  0.061838  1
  Tm  Tm9  1  0.162910  0.176353  0.437526  1
  Tm  Tm10  1  0.337440  0.675994  0.438162  1
  Tm  Tm11  1  0.661965  0.324041  0.561795  1
  Tc  Tc12  1  0.539700  0.614988  0.750000  1
  Tc  Tc13  1  0.961311  0.114858  0.750000  1
  Os  Os14  1  0.460303  0.383248  0.250000  1
  Ru  Ru15  1  0.039603  0.883144  0.250000  1
