# generated using pymatgen
data_Pa(FeB)4
_symmetry_space_group_name_H-M   'P 1'
_cell_length_a   6.93961300
_cell_length_b   6.93931001
_cell_length_c   3.83619100
_cell_angle_alpha   90.00546619
_cell_angle_beta   90.00061920
_cell_angle_gamma   89.99733313
_symmetry_Int_Tables_number   1
_chemical_formula_structural   Pa(FeB)4
_chemical_formula_sum   'Pa2 Fe8 B8'
_cell_volume   184.73609620
_cell_formula_units_Z   2
loop_
 _symmetry_equiv_pos_site_id
 _symmetry_equiv_pos_as_xyz
  1  'x, y, z'
loop_
 _atom_site_type_symbol
 _atom_site_label
 _atom_site_symmetry_multiplicity
 _atom_site_fract_x
 _atom_site_fract_y
 _atom_site_fract_z
 _atom_site_occupancy
  Pa  Pa0  1  0.249980  0.249995  0.249993  1
  Pa  Pa1  1  0.750021  0.750006  0.750008  1
  Fe  Fe2  1  0.383157  0.631975  0.146643  1
  Fe  Fe3  1  0.116799  0.868035  0.146618  1
  Fe  Fe4  1  0.631991  0.116831  0.353359  1
  Fe  Fe5  1  0.868045  0.383179  0.353366  1
  Fe  Fe6  1  0.131954  0.616820  0.646633  1
  Fe  Fe7  1  0.368010  0.883168  0.646640  1
  Fe  Fe8  1  0.883200  0.131964  0.853383  1
  Fe  Fe9  1  0.616842  0.368026  0.853358  1
  B  B10  1  0.045849  0.586906  0.145681  1
  B  B11  1  0.454165  0.913115  0.145658  1
  B  B12  1  0.913109  0.045845  0.354304  1
  B  B13  1  0.586894  0.454164  0.354338  1
  B  B14  1  0.413107  0.545836  0.645661  1
  B  B15  1  0.086890  0.954156  0.645695  1
  B  B16  1  0.545835  0.086884  0.854343  1
  B  B17  1  0.954152  0.413095  0.854320  1
