# generated using pymatgen
data_Y3Lu5Re3B24Rh
_symmetry_space_group_name_H-M   'P 1'
_cell_length_a   3.63935400
_cell_length_b   9.09401462
_cell_length_c   11.47972587
_cell_angle_alpha   90.13681176
_cell_angle_beta   90.00000000
_cell_angle_gamma   90.00000000
_symmetry_Int_Tables_number   1
_chemical_formula_structural   Y3Lu5Re3B24Rh
_chemical_formula_sum   'Y3 Lu5 Re3 B24 Rh1'
_cell_volume   379.93580961
_cell_formula_units_Z   1
loop_
 _symmetry_equiv_pos_site_id
 _symmetry_equiv_pos_as_xyz
  1  'x, y, z'
loop_
 _atom_site_type_symbol
 _atom_site_label
 _atom_site_symmetry_multiplicity
 _atom_site_fract_x
 _atom_site_fract_y
 _atom_site_fract_z
 _atom_site_occupancy
  Y  Y0  1  0.500000  0.318063  0.415458  1
  Y  Y1  1  0.500000  0.678686  0.590800  1
  Y  Y2  1  0.500000  0.178027  0.913077  1
  Lu  Lu3  1  0.500000  0.827226  0.080634  1
  Lu  Lu4  1  0.500000  0.441748  0.128363  1
  Lu  Lu5  1  0.500000  0.556482  0.872202  1
  Lu  Lu6  1  0.500000  0.055264  0.629370  1
  Lu  Lu7  1  0.500000  0.943775  0.370079  1
  Re  Re8  1  0.500000  0.138111  0.180361  1
  Re  Re9  1  0.500000  0.860605  0.821065  1
  Re  Re10  1  0.500000  0.361408  0.678900  1
  B  B11  1  0.000000  0.098009  0.472272  1
  B  B12  1  0.000000  0.898165  0.527082  1
  B  B13  1  0.000000  0.400286  0.973123  1
  B  B14  1  0.000000  0.602593  0.028885  1
  B  B15  1  0.000000  0.129546  0.315414  1
  B  B16  1  0.000000  0.869100  0.685080  1
  B  B17  1  0.000000  0.370262  0.815138  1
  B  B18  1  0.000000  0.632260  0.182316  1
  B  B19  1  0.000000  0.052806  0.066858  1
  B  B20  1  0.000000  0.946098  0.933424  1
  B  B21  1  0.000000  0.446241  0.566822  1
  B  B22  1  0.000000  0.555035  0.432965  1
  B  B23  1  0.000000  0.483558  0.286595  1
  B  B24  1  0.000000  0.518426  0.713530  1
  B  B25  1  0.000000  0.017441  0.786747  1
  B  B26  1  0.000000  0.981226  0.212062  1
  B  B27  1  0.000000  0.250677  0.081660  1
  B  B28  1  0.000000  0.749936  0.920036  1
  B  B29  1  0.000000  0.248428  0.581371  1
  B  B30  1  0.000000  0.750787  0.419240  1
  B  B31  1  0.000000  0.292872  0.235202  1
  B  B32  1  0.000000  0.707134  0.766587  1
  B  B33  1  0.000000  0.207236  0.734469  1
  B  B34  1  0.000000  0.792646  0.263602  1
  Rh  Rh35  1  0.500000  0.639836  0.319202  1
