# generated using pymatgen
data_YbDy2Ga9Pd2
_symmetry_space_group_name_H-M   'P 1'
_cell_length_a   8.14716438
_cell_length_b   8.14716472
_cell_length_c   8.14716494
_cell_angle_alpha   149.02365014
_cell_angle_beta   109.17104105
_cell_angle_gamma   79.29402033
_symmetry_Int_Tables_number   1
_chemical_formula_structural   YbDy2Ga9Pd2
_chemical_formula_sum   'Yb1 Dy2 Ga9 Pd2'
_cell_volume   257.74120451
_cell_formula_units_Z   1
loop_
 _symmetry_equiv_pos_site_id
 _symmetry_equiv_pos_as_xyz
  1  'x, y, z'
loop_
 _atom_site_type_symbol
 _atom_site_label
 _atom_site_symmetry_multiplicity
 _atom_site_fract_x
 _atom_site_fract_y
 _atom_site_fract_z
 _atom_site_occupancy
  Yb  Yb0  1  0.800025  0.800025  0.000000  1
  Dy  Dy1  1  0.500132  0.500132  0.000000  1
  Dy  Dy2  1  0.200785  0.200785  0.000000  1
  Ga  Ga3  1  0.078111  0.360780  0.717331  1
  Ga  Ga4  1  0.918658  0.637120  0.281537  1
  Ga  Ga5  1  0.643449  0.360780  0.282669  1
  Ga  Ga6  1  0.355582  0.637120  0.718463  1
  Ga  Ga7  1  0.792540  0.157615  0.634925  1
  Ga  Ga8  1  0.211723  0.844860  0.366862  1
  Ga  Ga9  1  0.522689  0.157615  0.365075  1
  Ga  Ga10  1  0.477999  0.844860  0.633138  1
  Ga  Ga11  1  0.999864  0.499864  0.500000  1
  Pd  Pd12  1  0.817670  0.999222  0.818448  1
  Pd  Pd13  1  0.180774  0.999222  0.181552  1
