# generated using pymatgen
data_Ce2Si2Tc2C
_symmetry_space_group_name_H-M   'P 1'
_cell_length_a   5.94021158
_cell_length_b   5.94021163
_cell_length_c   7.05644924
_cell_angle_alpha   53.58890878
_cell_angle_beta   53.58891109
_cell_angle_gamma   40.66139917
_symmetry_Int_Tables_number   1
_chemical_formula_structural   Ce2Si2Tc2C
_chemical_formula_sum   'Ce2 Si2 Tc2 C1'
_cell_volume   125.59855620
_cell_formula_units_Z   1
loop_
 _symmetry_equiv_pos_site_id
 _symmetry_equiv_pos_as_xyz
  1  'x, y, z'
loop_
 _atom_site_type_symbol
 _atom_site_label
 _atom_site_symmetry_multiplicity
 _atom_site_fract_x
 _atom_site_fract_y
 _atom_site_fract_z
 _atom_site_occupancy
  Ce  Ce0  1  0.432202  0.432202  0.296243  1
  Ce  Ce1  1  0.567798  0.567798  0.703757  1
  Si  Si2  1  0.852189  0.852189  0.695819  1
  Si  Si3  1  0.147811  0.147811  0.304181  1
  Tc  Tc4  1  0.793842  0.793842  0.096124  1
  Tc  Tc5  1  0.206158  0.206158  0.903876  1
  C  C6  1  0.000000  0.000000  0.000000  1
