# generated using pymatgen
data_Th4CuB20Pt
_symmetry_space_group_name_H-M   'P 1'
_cell_length_a   4.19360100
_cell_length_b   5.72407590
_cell_length_c   11.38680930
_cell_angle_alpha   89.61170769
_cell_angle_beta   90.00000000
_cell_angle_gamma   90.00000000
_symmetry_Int_Tables_number   1
_chemical_formula_structural   Th4CuB20Pt
_chemical_formula_sum   'Th4 Cu1 B20 Pt1'
_cell_volume   273.32827784
_cell_formula_units_Z   1
loop_
 _symmetry_equiv_pos_site_id
 _symmetry_equiv_pos_as_xyz
  1  'x, y, z'
loop_
 _atom_site_type_symbol
 _atom_site_label
 _atom_site_symmetry_multiplicity
 _atom_site_fract_x
 _atom_site_fract_y
 _atom_site_fract_z
 _atom_site_occupancy
  Th  Th0  1  0.500000  0.306484  0.856844  1
  Th  Th1  1  0.500000  0.693516  0.143156  1
  Th  Th2  1  0.500000  0.801531  0.633940  1
  Th  Th3  1  0.500000  0.198469  0.366060  1
  Cu  Cu4  1  0.000000  0.500000  0.500000  1
  B  B5  1  0.000000  0.119821  0.541448  1
  B  B6  1  0.000000  0.880179  0.458552  1
  B  B7  1  0.000000  0.616730  0.956237  1
  B  B8  1  0.000000  0.383270  0.043763  1
  B  B9  1  0.000000  0.144309  0.695667  1
  B  B10  1  0.000000  0.855691  0.304333  1
  B  B11  1  0.303410  0.217623  0.121675  1
  B  B12  1  0.303410  0.782377  0.878325  1
  B  B13  1  0.698973  0.710135  0.385328  1
  B  B14  1  0.698973  0.289865  0.614672  1
  B  B15  1  0.696590  0.782377  0.878325  1
  B  B16  1  0.696590  0.217623  0.121675  1
  B  B17  1  0.301027  0.289865  0.614672  1
  B  B18  1  0.301027  0.710135  0.385328  1
  B  B19  1  0.000000  0.050686  0.195870  1
  B  B20  1  0.000000  0.949314  0.804130  1
  B  B21  1  0.000000  0.548624  0.309505  1
  B  B22  1  0.000000  0.451376  0.690495  1
  B  B23  1  0.000000  0.359221  0.199321  1
  B  B24  1  0.000000  0.640779  0.800679  1
  Pt  Pt25  1  0.000000  0.000000  0.000000  1
