# generated using pymatgen
data_Ho4Si10OsRu5
_symmetry_space_group_name_H-M   'P 1'
_cell_length_a   8.26789439
_cell_length_b   8.21807934
_cell_length_c   8.21807849
_cell_angle_alpha   140.09007687
_cell_angle_beta   108.55771423
_cell_angle_gamma   85.02520900
_symmetry_Int_Tables_number   1
_chemical_formula_structural   Ho4Si10OsRu5
_chemical_formula_sum   'Ho4 Si10 Os1 Ru5'
_cell_volume   328.05349118
_cell_formula_units_Z   1
loop_
 _symmetry_equiv_pos_site_id
 _symmetry_equiv_pos_as_xyz
  1  'x, y, z'
loop_
 _atom_site_type_symbol
 _atom_site_label
 _atom_site_symmetry_multiplicity
 _atom_site_fract_x
 _atom_site_fract_y
 _atom_site_fract_z
 _atom_site_occupancy
  Ho  Ho0  1  0.900715  0.134391  0.766324  1
  Ho  Ho1  1  0.100909  0.866695  0.234214  1
  Ho  Ho2  1  0.631878  0.361550  0.270329  1
  Ho  Ho3  1  0.367959  0.638008  0.729950  1
  Si  Si4  1  0.000235  0.750487  0.750180  1
  Si  Si5  1  0.000235  0.250055  0.249748  1
  Si  Si6  1  0.701273  0.442476  0.730004  1
  Si  Si7  1  0.297351  0.031631  0.743832  1
  Si  Si8  1  0.297351  0.553519  0.265719  1
  Si  Si9  1  0.701273  0.971269  0.258797  1
  Si  Si10  1  0.241315  0.407780  0.833535  1
  Si  Si11  1  0.573469  0.902130  0.671340  1
  Si  Si12  1  0.425535  0.097939  0.327596  1
  Si  Si13  1  0.759323  0.591615  0.167708  1
  Os  Os14  1  0.762086  0.850282  0.911805  1
  Ru  Ru15  1  0.500907  0.249139  0.749368  1
  Ru  Ru16  1  0.954445  0.355873  0.598572  1
  Ru  Ru17  1  0.046326  0.644534  0.401793  1
  Ru  Ru18  1  0.236508  0.149088  0.087418  1
  Ru  Ru19  1  0.500907  0.751539  0.251768  1
