# generated using pymatgen
data_La4In2AgPd3
_symmetry_space_group_name_H-M   'P 1'
_cell_length_a   3.95974900
_cell_length_b   8.08691695
_cell_length_c   8.08691695
_cell_angle_alpha   89.50336852
_cell_angle_beta   90.00000000
_cell_angle_gamma   90.00000000
_symmetry_Int_Tables_number   1
_chemical_formula_structural   La4In2AgPd3
_chemical_formula_sum   'La4 In2 Ag1 Pd3'
_cell_volume   258.95083089
_cell_formula_units_Z   1
loop_
 _symmetry_equiv_pos_site_id
 _symmetry_equiv_pos_as_xyz
  1  'x, y, z'
loop_
 _atom_site_type_symbol
 _atom_site_label
 _atom_site_symmetry_multiplicity
 _atom_site_fract_x
 _atom_site_fract_y
 _atom_site_fract_z
 _atom_site_occupancy
  La  La0  1  0.500000  0.178069  0.678069  1
  La  La1  1  0.500000  0.835523  0.335523  1
  La  La2  1  0.500000  0.312143  0.174347  1
  La  La3  1  0.500000  0.674347  0.812143  1
  In  In4  1  0.000000  0.499237  0.501395  1
  In  In5  1  0.000000  0.001395  0.999237  1
  Ag  Ag6  1  0.000000  0.624326  0.124326  1
  Pd  Pd7  1  0.000000  0.373655  0.873655  1
  Pd  Pd8  1  0.000000  0.873431  0.627876  1
  Pd  Pd9  1  0.000000  0.127876  0.373431  1
