# generated using pymatgen
data_Ho4ErSc3(Co4P3)4
_symmetry_space_group_name_H-M   'P 1'
_cell_length_a   12.21695100
_cell_length_b   12.21695060
_cell_length_c   3.71349200
_cell_angle_alpha   90.00000000
_cell_angle_beta   90.00000000
_cell_angle_gamma   119.99848588
_symmetry_Int_Tables_number   1
_chemical_formula_structural   Ho4ErSc3(Co4P3)4
_chemical_formula_sum   'Ho4 Er1 Sc3 Co16 P12'
_cell_volume   480.00460084
_cell_formula_units_Z   1
loop_
 _symmetry_equiv_pos_site_id
 _symmetry_equiv_pos_as_xyz
  1  'x, y, z'
loop_
 _atom_site_type_symbol
 _atom_site_label
 _atom_site_symmetry_multiplicity
 _atom_site_fract_x
 _atom_site_fract_y
 _atom_site_fract_z
 _atom_site_occupancy
  Ho  Ho0  1  0.666676  0.333340  0.000000  1
  Ho  Ho1  1  0.333340  0.666676  0.000000  1
  Ho  Ho2  1  0.184121  0.000000  0.500000  1
  Ho  Ho3  1  0.000000  0.184121  0.500000  1
  Er  Er4  1  0.815861  0.815861  0.500000  1
  Sc  Sc5  1  0.439842  0.439842  0.000000  1
  Sc  Sc6  1  0.560156  0.999995  0.000000  1
  Sc  Sc7  1  0.999995  0.560156  0.000000  1
  Co  Co8  1  0.875406  0.355125  0.500000  1
  Co  Co9  1  0.644905  0.520315  0.500000  1
  Co  Co10  1  0.479716  0.124584  0.500000  1
  Co  Co11  1  0.355125  0.875406  0.500000  1
  Co  Co12  1  0.520315  0.644905  0.500000  1
  Co  Co13  1  0.124584  0.479716  0.500000  1
  Co  Co14  1  0.804891  0.179080  0.000000  1
  Co  Co15  1  0.820927  0.625871  0.000000  1
  Co  Co16  1  0.374187  0.195105  0.000000  1
  Co  Co17  1  0.179080  0.804891  0.000000  1
  Co  Co18  1  0.625871  0.820927  0.000000  1
  Co  Co19  1  0.195105  0.374187  0.000000  1
  Co  Co20  1  0.278321  0.278321  0.500000  1
  Co  Co21  1  0.721692  0.999952  0.500000  1
  Co  Co22  1  0.999952  0.721692  0.500000  1
  Co  Co23  1  0.999914  0.999914  0.000000  1
  P  P24  1  0.692398  0.171122  0.500000  1
  P  P25  1  0.828885  0.521270  0.500000  1
  P  P26  1  0.478714  0.307604  0.500000  1
  P  P27  1  0.171122  0.692398  0.500000  1
  P  P28  1  0.521270  0.828885  0.500000  1
  P  P29  1  0.307604  0.478714  0.500000  1
  P  P30  1  0.179312  0.179312  0.000000  1
  P  P31  1  0.820691  0.999943  0.000000  1
  P  P32  1  0.999943  0.820691  0.000000  1
  P  P33  1  0.645465  0.645465  0.000000  1
  P  P34  1  0.354611  0.000004  0.000000  1
  P  P35  1  0.000004  0.354611  0.000000  1
