# generated using pymatgen
data_La8Cd2ReAu
_symmetry_space_group_name_H-M   'P 1'
_cell_length_a   10.23159429
_cell_length_b   10.23159381
_cell_length_c   10.10931600
_cell_angle_alpha   60.39455479
_cell_angle_beta   60.39455632
_cell_angle_gamma   60.90307060
_symmetry_Int_Tables_number   1
_chemical_formula_structural   La8Cd2ReAu
_chemical_formula_sum   'La16 Cd4 Re2 Au2'
_cell_volume   757.82661340
_cell_formula_units_Z   2
loop_
 _symmetry_equiv_pos_site_id
 _symmetry_equiv_pos_as_xyz
  1  'x, y, z'
loop_
 _atom_site_type_symbol
 _atom_site_label
 _atom_site_symmetry_multiplicity
 _atom_site_fract_x
 _atom_site_fract_y
 _atom_site_fract_z
 _atom_site_occupancy
  La  La0  1  0.900810  0.900810  0.909243  1
  La  La1  1  0.438230  0.438230  0.061770  1
  La  La2  1  0.051557  0.051557  0.448443  1
  La  La3  1  0.453250  0.057717  0.058726  1
  La  La4  1  0.305369  0.683698  0.313603  1
  La  La5  1  0.687816  0.687816  0.312184  1
  La  La6  1  0.683698  0.305369  0.313603  1
  La  La7  1  0.308989  0.884880  0.903066  1
  La  La8  1  0.884880  0.308989  0.903066  1
  La  La9  1  0.305369  0.683698  0.697329  1
  La  La10  1  0.900810  0.900810  0.289139  1
  La  La11  1  0.057717  0.453250  0.058726  1
  La  La12  1  0.310625  0.310625  0.689375  1
  La  La13  1  0.057717  0.453250  0.430307  1
  La  La14  1  0.453250  0.057717  0.430307  1
  La  La15  1  0.683698  0.305369  0.697329  1
  Cd  Cd16  1  0.671069  0.671069  0.989441  1
  Cd  Cd17  1  0.987849  0.671447  0.670352  1
  Cd  Cd18  1  0.671447  0.987849  0.670352  1
  Cd  Cd19  1  0.671069  0.671069  0.668422  1
  Re  Re20  1  0.118159  0.669506  0.106167  1
  Re  Re21  1  0.669506  0.118159  0.106167  1
  Au  Au22  1  0.113560  0.113560  0.675071  1
  Au  Au23  1  0.113560  0.113560  0.097809  1
