# generated using pymatgen
data_Li2SiAs2
_symmetry_space_group_name_H-M   'P 1'
_cell_length_a   6.60452923
_cell_length_b   6.60452926
_cell_length_c   6.60452902
_cell_angle_alpha   121.06713466
_cell_angle_beta   121.06712860
_cell_angle_gamma   88.16140226
_symmetry_Int_Tables_number   1
_chemical_formula_structural   Li2SiAs2
_chemical_formula_sum   'Li4 Si2 As4'
_cell_volume   200.31144538
_cell_formula_units_Z   2
loop_
 _symmetry_equiv_pos_site_id
 _symmetry_equiv_pos_as_xyz
  1  'x, y, z'
loop_
 _atom_site_type_symbol
 _atom_site_label
 _atom_site_symmetry_multiplicity
 _atom_site_fract_x
 _atom_site_fract_y
 _atom_site_fract_z
 _atom_site_occupancy
  Li  Li0  1  0.375000  0.722221  0.847221  1
  Li  Li1  1  0.875000  0.527779  0.152779  1
  Li  Li2  1  0.277779  0.125000  0.652779  1
  Li  Li3  1  0.472221  0.625000  0.347221  1
  Si  Si4  1  0.000000  0.000000  0.000000  1
  Si  Si5  1  0.750000  0.250000  0.500000  1
  As  As6  1  0.375000  0.324285  0.449285  1
  As  As7  1  0.875000  0.925715  0.550715  1
  As  As8  1  0.675715  0.125000  0.050715  1
  As  As9  1  0.074285  0.625000  0.949285  1
