# generated using pymatgen
data_CeEr3(ZnRh)4
_symmetry_space_group_name_H-M   'P 1'
_cell_length_a   3.96877500
_cell_length_b   6.97909671
_cell_length_c   8.21570492
_cell_angle_alpha   90.68282491
_cell_angle_beta   90.00000000
_cell_angle_gamma   90.00000000
_symmetry_Int_Tables_number   1
_chemical_formula_structural   CeEr3(ZnRh)4
_chemical_formula_sum   'Ce1 Er3 Zn4 Rh4'
_cell_volume   227.54625125
_cell_formula_units_Z   1
loop_
 _symmetry_equiv_pos_site_id
 _symmetry_equiv_pos_as_xyz
  1  'x, y, z'
loop_
 _atom_site_type_symbol
 _atom_site_label
 _atom_site_symmetry_multiplicity
 _atom_site_fract_x
 _atom_site_fract_y
 _atom_site_fract_z
 _atom_site_occupancy
  Ce  Ce0  1  0.250000  0.542079  0.183017  1
  Er  Er1  1  0.750000  0.456215  0.810784  1
  Er  Er2  1  0.750000  0.952238  0.683640  1
  Er  Er3  1  0.250000  0.042276  0.318641  1
  Zn  Zn4  1  0.250000  0.630369  0.566024  1
  Zn  Zn5  1  0.750000  0.361663  0.442638  1
  Zn  Zn6  1  0.750000  0.879242  0.061585  1
  Zn  Zn7  1  0.250000  0.133124  0.935006  1
  Rh  Rh8  1  0.250000  0.751468  0.879205  1
  Rh  Rh9  1  0.750000  0.262596  0.125909  1
  Rh  Rh10  1  0.750000  0.742740  0.368584  1
  Rh  Rh11  1  0.250000  0.245990  0.624967  1
