# generated using pymatgen
data_Dy4PaReOs6
_symmetry_space_group_name_H-M   'P 1'
_cell_length_a   5.31229894
_cell_length_b   5.31230084
_cell_length_c   9.19080000
_cell_angle_alpha   90.00000000
_cell_angle_beta   90.00000000
_cell_angle_gamma   116.88287926
_symmetry_Int_Tables_number   1
_chemical_formula_structural   Dy4PaReOs6
_chemical_formula_sum   'Dy4 Pa1 Re1 Os6'
_cell_volume   231.33990978
_cell_formula_units_Z   1
loop_
 _symmetry_equiv_pos_site_id
 _symmetry_equiv_pos_as_xyz
  1  'x, y, z'
loop_
 _atom_site_type_symbol
 _atom_site_label
 _atom_site_symmetry_multiplicity
 _atom_site_fract_x
 _atom_site_fract_y
 _atom_site_fract_z
 _atom_site_occupancy
  Dy  Dy0  1  0.331720  0.668280  0.446494  1
  Dy  Dy1  1  0.664333  0.335667  0.574018  1
  Dy  Dy2  1  0.664333  0.335667  0.925982  1
  Dy  Dy3  1  0.331720  0.668280  0.053506  1
  Pa  Pa4  1  0.844137  0.155863  0.250000  1
  Re  Re5  1  0.157839  0.842161  0.750000  1
  Os  Os6  1  0.004819  0.995181  0.509786  1
  Os  Os7  1  0.004819  0.995181  0.990214  1
  Os  Os8  1  0.831056  0.647446  0.250000  1
  Os  Os9  1  0.352554  0.168944  0.250000  1
  Os  Os10  1  0.169024  0.356353  0.750000  1
  Os  Os11  1  0.643647  0.830976  0.750000  1
