# generated using pymatgen
data_ZrZnCu3Ag
_symmetry_space_group_name_H-M   'P 1'
_cell_length_a   5.00271364
_cell_length_b   5.00271406
_cell_length_c   4.97342026
_cell_angle_alpha   59.80496337
_cell_angle_beta   59.80496088
_cell_angle_gamma   60.00000119
_symmetry_Int_Tables_number   1
_chemical_formula_structural   ZrZnCu3Ag
_chemical_formula_sum   'Zr1 Zn1 Cu3 Ag1'
_cell_volume   87.75358785
_cell_formula_units_Z   1
loop_
 _symmetry_equiv_pos_site_id
 _symmetry_equiv_pos_as_xyz
  1  'x, y, z'
loop_
 _atom_site_type_symbol
 _atom_site_label
 _atom_site_symmetry_multiplicity
 _atom_site_fract_x
 _atom_site_fract_y
 _atom_site_fract_z
 _atom_site_occupancy
  Zr  Zr0  1  0.248712  0.248712  0.253864  1
  Zn  Zn1  1  0.626179  0.626179  0.121463  1
  Cu  Cu2  1  0.625541  0.124354  0.624564  1
  Cu  Cu3  1  0.124354  0.625541  0.624564  1
  Cu  Cu4  1  0.625541  0.625541  0.624564  1
  Ag  Ag5  1  0.999673  0.999673  0.000982  1
