# generated using pymatgen
data_Zr16Co4HgRh3N4
_symmetry_space_group_name_H-M   'P 1'
_cell_length_a   8.74805355
_cell_length_b   8.74805262
_cell_length_c   8.74805303
_cell_angle_alpha   60.16490319
_cell_angle_beta   60.16490722
_cell_angle_gamma   60.16490806
_symmetry_Int_Tables_number   1
_chemical_formula_structural   Zr16Co4HgRh3N4
_chemical_formula_sum   'Zr16 Co4 Hg1 Rh3 N4'
_cell_volume   475.15824081
_cell_formula_units_Z   1
loop_
 _symmetry_equiv_pos_site_id
 _symmetry_equiv_pos_as_xyz
  1  'x, y, z'
loop_
 _atom_site_type_symbol
 _atom_site_label
 _atom_site_symmetry_multiplicity
 _atom_site_fract_x
 _atom_site_fract_y
 _atom_site_fract_z
 _atom_site_occupancy
  Zr  Zr0  1  0.072795  0.644370  0.644370  1
  Zr  Zr1  1  0.644370  0.072795  0.644370  1
  Zr  Zr2  1  0.644370  0.644370  0.072795  1
  Zr  Zr3  1  0.642319  0.642319  0.642319  1
  Zr  Zr4  1  0.814912  0.814912  0.184805  1
  Zr  Zr5  1  0.182620  0.182620  0.816841  1
  Zr  Zr6  1  0.814912  0.184805  0.814912  1
  Zr  Zr7  1  0.182620  0.816841  0.182620  1
  Zr  Zr8  1  0.184805  0.814912  0.814912  1
  Zr  Zr9  1  0.816841  0.182620  0.182620  1
  Zr  Zr10  1  0.433316  0.433316  0.056328  1
  Zr  Zr11  1  0.064963  0.064963  0.433765  1
  Zr  Zr12  1  0.433316  0.056328  0.433316  1
  Zr  Zr13  1  0.064963  0.433765  0.064963  1
  Zr  Zr14  1  0.056328  0.433316  0.433316  1
  Zr  Zr15  1  0.433765  0.064963  0.064963  1
  Co  Co16  1  0.441402  0.854786  0.854786  1
  Co  Co17  1  0.854786  0.441402  0.854786  1
  Co  Co18  1  0.854786  0.854786  0.441402  1
  Co  Co19  1  0.852722  0.852722  0.852722  1
  Hg  Hg20  1  0.418969  0.418969  0.418969  1
  Rh  Rh21  1  0.754238  0.418575  0.418575  1
  Rh  Rh22  1  0.418575  0.754238  0.418575  1
  Rh  Rh23  1  0.418575  0.418575  0.754238  1
  N  N24  1  0.622057  0.125703  0.125703  1
  N  N25  1  0.125703  0.622057  0.125703  1
  N  N26  1  0.125703  0.125703  0.622057  1
  N  N27  1  0.125270  0.125270  0.125270  1
