# generated using pymatgen
data_NdEr3(Si5Pt3)2
_symmetry_space_group_name_H-M   'P 1'
_cell_length_a   8.15293364
_cell_length_b   8.16182536
_cell_length_c   8.16182457
_cell_angle_alpha   136.32188025
_cell_angle_beta   104.64241173
_cell_angle_gamma   91.39157849
_symmetry_Int_Tables_number   1
_chemical_formula_structural   NdEr3(Si5Pt3)2
_chemical_formula_sum   'Nd1 Er3 Si10 Pt6'
_cell_volume   345.02156362
_cell_formula_units_Z   1
loop_
 _symmetry_equiv_pos_site_id
 _symmetry_equiv_pos_as_xyz
  1  'x, y, z'
loop_
 _atom_site_type_symbol
 _atom_site_label
 _atom_site_symmetry_multiplicity
 _atom_site_fract_x
 _atom_site_fract_y
 _atom_site_fract_z
 _atom_site_occupancy
  Nd  Nd0  1  0.898802  0.129218  0.769584  1
  Er  Er1  1  0.642506  0.370359  0.272148  1
  Er  Er2  1  0.358040  0.629756  0.728284  1
  Er  Er3  1  0.098830  0.870291  0.228539  1
  Si  Si4  1  0.272955  0.522249  0.250785  1
  Si  Si5  1  0.728252  0.478351  0.749728  1
  Si  Si6  1  0.728252  0.978524  0.249902  1
  Si  Si7  1  0.272955  0.022169  0.750705  1
  Si  Si8  1  0.460728  0.111542  0.349187  1
  Si  Si9  1  0.536297  0.885817  0.650481  1
  Si  Si10  1  0.763127  0.611683  0.151443  1
  Si  Si11  1  0.238289  0.389924  0.848366  1
  Si  Si12  1  0.000204  0.249049  0.249772  1
  Si  Si13  1  0.000204  0.750432  0.751154  1
  Pt  Pt14  1  0.251612  0.137853  0.113759  1
  Pt  Pt15  1  0.747712  0.860530  0.887183  1
  Pt  Pt16  1  0.026116  0.637625  0.388491  1
  Pt  Pt17  1  0.976791  0.365048  0.611743  1
  Pt  Pt18  1  0.499163  0.250576  0.750157  1
  Pt  Pt19  1  0.499163  0.749005  0.248587  1
