# generated using pymatgen
data_Th10AlSn2Pb5
_symmetry_space_group_name_H-M   'P 1'
_cell_length_a   9.75694901
_cell_length_b   9.76033651
_cell_length_c   6.57925400
_cell_angle_alpha   89.92638096
_cell_angle_beta   90.03681935
_cell_angle_gamma   120.01148188
_symmetry_Int_Tables_number   1
_chemical_formula_structural   Th10AlSn2Pb5
_chemical_formula_sum   'Th10 Al1 Sn2 Pb5'
_cell_volume   542.54466121
_cell_formula_units_Z   1
loop_
 _symmetry_equiv_pos_site_id
 _symmetry_equiv_pos_as_xyz
  1  'x, y, z'
loop_
 _atom_site_type_symbol
 _atom_site_label
 _atom_site_symmetry_multiplicity
 _atom_site_fract_x
 _atom_site_fract_y
 _atom_site_fract_z
 _atom_site_occupancy
  Th  Th0  1  0.000000  0.727506  0.756962  1
  Th  Th1  1  0.272049  0.271927  0.756991  1
  Th  Th2  1  0.330613  0.666012  0.498971  1
  Th  Th3  1  0.669387  0.335399  0.498971  1
  Th  Th4  1  0.730220  0.726827  0.243287  1
  Th  Th5  1  0.727951  0.999877  0.756991  1
  Th  Th6  1  0.000000  0.274285  0.243095  1
  Th  Th7  1  0.269780  0.996606  0.243287  1
  Th  Th8  1  0.330978  0.665989  0.000970  1
  Th  Th9  1  0.669022  0.335010  0.000970  1
  Al  Al10  1  0.000000  0.000602  0.000275  1
  Sn  Sn11  1  0.000000  0.619382  0.252009  1
  Sn  Sn12  1  0.000000  0.000830  0.499839  1
  Pb  Pb13  1  0.618895  0.619635  0.747308  1
  Pb  Pb14  1  0.000000  0.380140  0.747055  1
  Pb  Pb15  1  0.381105  0.000738  0.747308  1
  Pb  Pb16  1  0.619791  0.999514  0.252855  1
  Pb  Pb17  1  0.380209  0.379723  0.252855  1
