# generated using pymatgen
data_Li4Nd4SnSb3
_symmetry_space_group_name_H-M   'P 1'
_cell_length_a   9.57991400
_cell_length_b   9.57991410
_cell_length_c   7.43808400
_cell_angle_alpha   90.00000000
_cell_angle_beta   90.00000000
_cell_angle_gamma   119.99999967
_symmetry_Int_Tables_number   1
_chemical_formula_structural   Li4Nd4SnSb3
_chemical_formula_sum   'Li8 Nd8 Sn2 Sb6'
_cell_volume   591.17347109
_cell_formula_units_Z   2
loop_
 _symmetry_equiv_pos_site_id
 _symmetry_equiv_pos_as_xyz
  1  'x, y, z'
loop_
 _atom_site_type_symbol
 _atom_site_label
 _atom_site_symmetry_multiplicity
 _atom_site_fract_x
 _atom_site_fract_y
 _atom_site_fract_z
 _atom_site_occupancy
  Li  Li0  1  0.167155  0.334310  0.283507  1
  Li  Li1  1  0.167155  0.832845  0.283507  1
  Li  Li2  1  0.665690  0.832845  0.283507  1
  Li  Li3  1  0.832845  0.665690  0.783507  1
  Li  Li4  1  0.832845  0.167155  0.783507  1
  Li  Li5  1  0.334310  0.167155  0.783507  1
  Li  Li6  1  0.333333  0.666667  0.672580  1
  Li  Li7  1  0.666667  0.333333  0.172580  1
  Nd  Nd8  1  0.511187  0.022375  0.492710  1
  Nd  Nd9  1  0.511187  0.488813  0.492710  1
  Nd  Nd10  1  0.977625  0.488813  0.492710  1
  Nd  Nd11  1  0.488813  0.977625  0.992710  1
  Nd  Nd12  1  0.488813  0.511187  0.992710  1
  Nd  Nd13  1  0.022375  0.511187  0.992710  1
  Nd  Nd14  1  0.000000  0.000000  0.502746  1
  Nd  Nd15  1  0.000000  0.000000  0.002746  1
  Sn  Sn16  1  0.333333  0.666667  0.262416  1
  Sn  Sn17  1  0.666667  0.333333  0.762416  1
  Sb  Sb18  1  0.166488  0.332977  0.734865  1
  Sb  Sb19  1  0.166488  0.833512  0.734865  1
  Sb  Sb20  1  0.667023  0.833512  0.734865  1
  Sb  Sb21  1  0.833512  0.667023  0.234865  1
  Sb  Sb22  1  0.833512  0.166488  0.234865  1
  Sb  Sb23  1  0.332977  0.166488  0.234865  1
