# generated using pymatgen
data_GdYCr2F14
_symmetry_space_group_name_H-M   'P 1'
_cell_length_a   5.52896137
_cell_length_b   8.88300767
_cell_length_c   11.82602100
_cell_angle_alpha   62.71891051
_cell_angle_beta   90.02109876
_cell_angle_gamma   89.98471553
_symmetry_Int_Tables_number   1
_chemical_formula_structural   GdYCr2F14
_chemical_formula_sum   'Gd2 Y2 Cr4 F28'
_cell_volume   516.21526293
_cell_formula_units_Z   2
loop_
 _symmetry_equiv_pos_site_id
 _symmetry_equiv_pos_as_xyz
  1  'x, y, z'
loop_
 _atom_site_type_symbol
 _atom_site_label
 _atom_site_symmetry_multiplicity
 _atom_site_fract_x
 _atom_site_fract_y
 _atom_site_fract_z
 _atom_site_occupancy
  Gd  Gd0  1  0.265390  0.809779  0.266111  1
  Gd  Gd1  1  0.734610  0.190221  0.733889  1
  Y  Y2  1  0.766101  0.191421  0.233755  1
  Y  Y3  1  0.233899  0.808579  0.766245  1
  Cr  Cr4  1  0.756441  0.724065  0.042611  1
  Cr  Cr5  1  0.243559  0.275935  0.957389  1
  Cr  Cr6  1  0.258460  0.272682  0.454327  1
  Cr  Cr7  1  0.741540  0.727318  0.545673  1
  F  F8  1  0.933275  0.707235  0.426548  1
  F  F9  1  0.066725  0.292765  0.573452  1
  F  F10  1  0.436573  0.292052  0.079152  1
  F  F11  1  0.563427  0.707948  0.920848  1
  F  F12  1  0.480175  0.729763  0.133337  1
  F  F13  1  0.519825  0.270237  0.866663  1
  F  F14  1  0.980004  0.269391  0.361116  1
  F  F15  1  0.019996  0.730609  0.638884  1
  F  F16  1  0.948458  0.740618  0.167201  1
  F  F17  1  0.051542  0.259382  0.832799  1
  F  F18  1  0.450574  0.252822  0.332233  1
  F  F19  1  0.549426  0.747178  0.667767  1
  F  F20  1  0.764181  0.490641  0.135563  1
  F  F21  1  0.235819  0.509359  0.864437  1
  F  F22  1  0.269016  0.505401  0.360287  1
  F  F23  1  0.730984  0.494599  0.639713  1
  F  F24  1  0.959689  0.283932  0.044148  1
  F  F25  1  0.040311  0.716068  0.955852  1
  F  F26  1  0.456490  0.717839  0.458432  1
  F  F27  1  0.543510  0.282161  0.541568  1
  F  F28  1  0.743018  0.958389  0.454335  1
  F  F29  1  0.256982  0.041611  0.545665  1
  F  F30  1  0.240798  0.043962  0.046541  1
  F  F31  1  0.759202  0.956038  0.953459  1
  F  F32  1  0.593769  0.973130  0.228692  1
  F  F33  1  0.406231  0.026870  0.771308  1
  F  F34  1  0.088458  0.028954  0.272631  1
  F  F35  1  0.911542  0.971046  0.727369  1
