# generated using pymatgen
data_Zr12Ti3Al(Ir2N)4
_symmetry_space_group_name_H-M   'P 1'
_cell_length_a   8.64367675
_cell_length_b   8.64367780
_cell_length_c   8.64367694
_cell_angle_alpha   59.88142042
_cell_angle_beta   59.88141411
_cell_angle_gamma   59.88141660
_symmetry_Int_Tables_number   1
_chemical_formula_structural   Zr12Ti3Al(Ir2N)4
_chemical_formula_sum   'Zr12 Ti3 Al1 Ir8 N4'
_cell_volume   455.41836594
_cell_formula_units_Z   1
loop_
 _symmetry_equiv_pos_site_id
 _symmetry_equiv_pos_as_xyz
  1  'x, y, z'
loop_
 _atom_site_type_symbol
 _atom_site_label
 _atom_site_symmetry_multiplicity
 _atom_site_fract_x
 _atom_site_fract_y
 _atom_site_fract_z
 _atom_site_occupancy
  Zr  Zr0  1  0.810198  0.810198  0.191576  1
  Zr  Zr1  1  0.188984  0.188984  0.810566  1
  Zr  Zr2  1  0.810198  0.191576  0.810198  1
  Zr  Zr3  1  0.188984  0.810566  0.188984  1
  Zr  Zr4  1  0.191576  0.810198  0.810198  1
  Zr  Zr5  1  0.810566  0.188984  0.188984  1
  Zr  Zr6  1  0.439802  0.439802  0.058424  1
  Zr  Zr7  1  0.061016  0.061016  0.439434  1
  Zr  Zr8  1  0.439802  0.058424  0.439802  1
  Zr  Zr9  1  0.061016  0.439434  0.061016  1
  Zr  Zr10  1  0.058424  0.439802  0.439802  1
  Zr  Zr11  1  0.439434  0.061016  0.061016  1
  Ti  Ti12  1  0.125000  0.625000  0.625000  1
  Ti  Ti13  1  0.625000  0.125000  0.625000  1
  Ti  Ti14  1  0.625000  0.625000  0.125000  1
  Al  Al15  1  0.625000  0.625000  0.625000  1
  Ir  Ir16  1  0.749894  0.416312  0.416312  1
  Ir  Ir17  1  0.416312  0.749894  0.416312  1
  Ir  Ir18  1  0.416312  0.416312  0.749894  1
  Ir  Ir19  1  0.416976  0.416976  0.416976  1
  Ir  Ir20  1  0.500106  0.833688  0.833688  1
  Ir  Ir21  1  0.833688  0.500106  0.833688  1
  Ir  Ir22  1  0.833688  0.833688  0.500106  1
  Ir  Ir23  1  0.833024  0.833024  0.833024  1
  N  N24  1  0.625000  0.125000  0.125000  1
  N  N25  1  0.125000  0.625000  0.125000  1
  N  N26  1  0.125000  0.125000  0.625000  1
  N  N27  1  0.125000  0.125000  0.125000  1
