# generated using pymatgen
data_Yb2AlPdPt
_symmetry_space_group_name_H-M   'P 1'
_cell_length_a   5.72135203
_cell_length_b   5.72135341
_cell_length_c   7.75164970
_cell_angle_alpha   78.54200682
_cell_angle_beta   78.54200505
_cell_angle_gamma   59.49897559
_symmetry_Int_Tables_number   1
_chemical_formula_structural   Yb2AlPdPt
_chemical_formula_sum   'Yb4 Al2 Pd2 Pt2'
_cell_volume   212.82907624
_cell_formula_units_Z   2
loop_
 _symmetry_equiv_pos_site_id
 _symmetry_equiv_pos_as_xyz
  1  'x, y, z'
loop_
 _atom_site_type_symbol
 _atom_site_label
 _atom_site_symmetry_multiplicity
 _atom_site_fract_x
 _atom_site_fract_y
 _atom_site_fract_z
 _atom_site_occupancy
  Yb  Yb0  1  0.783877  0.518480  0.352901  1
  Yb  Yb1  1  0.481520  0.216123  0.147099  1
  Yb  Yb2  1  0.219884  0.483981  0.650193  1
  Yb  Yb3  1  0.516019  0.780116  0.849807  1
  Al  Al4  1  0.124406  0.875594  0.250000  1
  Al  Al5  1  0.881290  0.118710  0.750000  1
  Pd  Pd6  1  0.996071  0.264115  0.997322  1
  Pd  Pd7  1  0.735885  0.003929  0.502678  1
  Pt  Pt8  1  0.002099  0.741048  0.006311  1
  Pt  Pt9  1  0.258952  0.997901  0.493689  1
