# generated using pymatgen
data_Dy6Ho6Ga2Ni3Os
_symmetry_space_group_name_H-M   'P 1'
_cell_length_a   8.31659434
_cell_length_b   8.30798273
_cell_length_c   8.31266052
_cell_angle_alpha   112.75680751
_cell_angle_beta   109.77389695
_cell_angle_gamma   105.88171020
_symmetry_Int_Tables_number   1
_chemical_formula_structural   Dy6Ho6Ga2Ni3Os
_chemical_formula_sum   'Dy6 Ho6 Ga2 Ni3 Os1'
_cell_volume   440.94990342
_cell_formula_units_Z   1
loop_
 _symmetry_equiv_pos_site_id
 _symmetry_equiv_pos_as_xyz
  1  'x, y, z'
loop_
 _atom_site_type_symbol
 _atom_site_label
 _atom_site_symmetry_multiplicity
 _atom_site_fract_x
 _atom_site_fract_y
 _atom_site_fract_z
 _atom_site_occupancy
  Dy  Dy0  1  0.440200  0.247155  0.192315  1
  Dy  Dy1  1  0.572561  0.767212  0.806221  1
  Dy  Dy2  1  0.038904  0.233708  0.806085  1
  Dy  Dy3  1  0.945146  0.751964  0.192442  1
  Dy  Dy4  1  0.185344  0.278180  0.463320  1
  Dy  Dy5  1  0.826429  0.721569  0.548219  1
  Ho  Ho6  1  0.185380  0.722095  0.907248  1
  Ho  Ho7  1  0.826307  0.277775  0.104326  1
  Ho  Ho8  1  0.325433  0.637871  0.307828  1
  Ho  Ho9  1  0.670456  0.362232  0.687912  1
  Ho  Ho10  1  0.325632  0.017452  0.687808  1
  Ho  Ho11  1  0.670042  0.982602  0.308118  1
  Ga  Ga12  1  0.494161  0.499994  0.994324  1
  Ga  Ga13  1  0.012700  0.999725  0.012577  1
  Ni  Ni14  1  0.649870  0.000595  0.650536  1
  Ni  Ni15  1  0.118380  0.617755  0.499521  1
  Ni  Ni16  1  0.881967  0.382515  0.500202  1
  Os  Os17  1  0.331086  0.999604  0.331000  1
