# generated using pymatgen
data_Sc4Fe3CuSi4
_symmetry_space_group_name_H-M   'P 1'
_cell_length_a   4.03802200
_cell_length_b   6.51067541
_cell_length_c   6.86042849
_cell_angle_alpha   90.25497483
_cell_angle_beta   90.00000000
_cell_angle_gamma   90.00000000
_symmetry_Int_Tables_number   1
_chemical_formula_structural   Sc4Fe3CuSi4
_chemical_formula_sum   'Sc4 Fe3 Cu1 Si4'
_cell_volume   180.36059802
_cell_formula_units_Z   1
loop_
 _symmetry_equiv_pos_site_id
 _symmetry_equiv_pos_as_xyz
  1  'x, y, z'
loop_
 _atom_site_type_symbol
 _atom_site_label
 _atom_site_symmetry_multiplicity
 _atom_site_fract_x
 _atom_site_fract_y
 _atom_site_fract_z
 _atom_site_occupancy
  Sc  Sc0  1  0.250000  0.985753  0.302211  1
  Sc  Sc1  1  0.250000  0.495515  0.188019  1
  Sc  Sc2  1  0.750000  0.998955  0.695778  1
  Sc  Sc3  1  0.750000  0.514473  0.809120  1
  Fe  Fe4  1  0.250000  0.155912  0.941489  1
  Fe  Fe5  1  0.250000  0.652257  0.560800  1
  Fe  Fe6  1  0.750000  0.848854  0.062492  1
  Cu  Cu7  1  0.750000  0.340876  0.434276  1
  Si  Si8  1  0.250000  0.293660  0.625960  1
  Si  Si9  1  0.250000  0.798006  0.895285  1
  Si  Si10  1  0.750000  0.710878  0.389304  1
  Si  Si11  1  0.750000  0.204863  0.095265  1
