# generated using pymatgen
data_LiTbCe2In3Pt2
_symmetry_space_group_name_H-M   'P 1'
_cell_length_a   7.75859500
_cell_length_b   7.78851136
_cell_length_c   3.88540000
_cell_angle_alpha   90.00000000
_cell_angle_beta   90.00000000
_cell_angle_gamma   119.87301473
_symmetry_Int_Tables_number   1
_chemical_formula_structural   LiTbCe2In3Pt2
_chemical_formula_sum   'Li1 Tb1 Ce2 In3 Pt2'
_cell_volume   203.59082587
_cell_formula_units_Z   1
loop_
 _symmetry_equiv_pos_site_id
 _symmetry_equiv_pos_as_xyz
  1  'x, y, z'
loop_
 _atom_site_type_symbol
 _atom_site_label
 _atom_site_symmetry_multiplicity
 _atom_site_fract_x
 _atom_site_fract_y
 _atom_site_fract_z
 _atom_site_occupancy
  Li  Li0  1  0.999925  0.000000  0.500000  1
  Tb  Tb1  1  0.418263  0.000000  0.500000  1
  Ce  Ce2  1  0.580616  0.580651  0.500000  1
  Ce  Ce3  1  0.999966  0.419349  0.500000  1
  In  In4  1  0.001951  0.753618  0.000000  1
  In  In5  1  0.749173  0.000000  0.000000  1
  In  In6  1  0.248332  0.246382  0.000000  1
  Pt  Pt7  1  0.669471  0.337168  0.000000  1
  Pt  Pt8  1  0.332302  0.662832  0.000000  1
