# generated using pymatgen
data_Yb20SiGe3Sb8
_symmetry_space_group_name_H-M   'P 1'
_cell_length_a   7.93258400
_cell_length_b   9.44762800
_cell_length_c   12.60620700
_cell_angle_alpha   90.00000000
_cell_angle_beta   89.99712642
_cell_angle_gamma   90.00000000
_symmetry_Int_Tables_number   1
_chemical_formula_structural   Yb20SiGe3Sb8
_chemical_formula_sum   'Yb20 Si1 Ge3 Sb8'
_cell_volume   944.76087161
_cell_formula_units_Z   1
loop_
 _symmetry_equiv_pos_site_id
 _symmetry_equiv_pos_as_xyz
  1  'x, y, z'
loop_
 _atom_site_type_symbol
 _atom_site_label
 _atom_site_symmetry_multiplicity
 _atom_site_fract_x
 _atom_site_fract_y
 _atom_site_fract_z
 _atom_site_occupancy
  Yb  Yb0  1  0.328446  0.750000  0.717868  1
  Yb  Yb1  1  0.671525  0.250000  0.282162  1
  Yb  Yb2  1  0.828470  0.250000  0.782167  1
  Yb  Yb3  1  0.171577  0.750000  0.217907  1
  Yb  Yb4  1  0.055304  0.750000  0.500599  1
  Yb  Yb5  1  0.944696  0.250000  0.499405  1
  Yb  Yb6  1  0.555324  0.250000  0.999400  1
  Yb  Yb7  1  0.444746  0.750000  0.000589  1
  Yb  Yb8  1  0.853265  0.750000  0.800926  1
  Yb  Yb9  1  0.146622  0.250000  0.198965  1
  Yb  Yb10  1  0.353385  0.250000  0.698965  1
  Yb  Yb11  1  0.646622  0.750000  0.301042  1
  Yb  Yb12  1  0.677492  0.527240  0.574215  1
  Yb  Yb13  1  0.322508  0.472754  0.425784  1
  Yb  Yb14  1  0.177552  0.472604  0.925746  1
  Yb  Yb15  1  0.322508  0.027246  0.425784  1
  Yb  Yb16  1  0.822456  0.527181  0.074239  1
  Yb  Yb17  1  0.677492  0.972760  0.574215  1
  Yb  Yb18  1  0.822456  0.972819  0.074239  1
  Yb  Yb19  1  0.177552  0.027396  0.925746  1
  Si  Si20  1  0.058970  0.750000  0.990602  1
  Ge  Ge21  1  0.941080  0.250000  0.009437  1
  Ge  Ge22  1  0.558910  0.250000  0.509438  1
  Ge  Ge23  1  0.441079  0.750000  0.490565  1
  Sb  Sb24  1  0.560256  0.507469  0.831418  1
  Sb  Sb25  1  0.439728  0.492531  0.168578  1
  Sb  Sb26  1  0.060254  0.492528  0.668575  1
  Sb  Sb27  1  0.439728  0.007469  0.168578  1
  Sb  Sb28  1  0.939742  0.507474  0.331425  1
  Sb  Sb29  1  0.560256  0.992531  0.831418  1
  Sb  Sb30  1  0.939742  0.992526  0.331425  1
  Sb  Sb31  1  0.060254  0.007472  0.668575  1
