# generated using pymatgen
data_Ta3Ga2BRh
_symmetry_space_group_name_H-M   'P 1'
_cell_length_a   8.38108390
_cell_length_b   8.38108429
_cell_length_c   8.38116300
_cell_angle_alpha   60.00137466
_cell_angle_beta   60.00137315
_cell_angle_gamma   60.00052042
_symmetry_Int_Tables_number   1
_chemical_formula_structural   Ta3Ga2BRh
_chemical_formula_sum   'Ta12 Ga8 B4 Rh4'
_cell_volume   416.29425030
_cell_formula_units_Z   4
loop_
 _symmetry_equiv_pos_site_id
 _symmetry_equiv_pos_as_xyz
  1  'x, y, z'
loop_
 _atom_site_type_symbol
 _atom_site_label
 _atom_site_symmetry_multiplicity
 _atom_site_fract_x
 _atom_site_fract_y
 _atom_site_fract_z
 _atom_site_occupancy
  Ta  Ta0  1  0.557149  0.942851  0.557141  1
  Ta  Ta1  1  0.307149  0.692851  0.692859  1
  Ta  Ta2  1  0.692838  0.307149  0.307148  1
  Ta  Ta3  1  0.307149  0.692838  0.307148  1
  Ta  Ta4  1  0.692859  0.692859  0.307141  1
  Ta  Ta5  1  0.307151  0.307151  0.692841  1
  Ta  Ta6  1  0.557141  0.557141  0.942859  1
  Ta  Ta7  1  0.942851  0.557149  0.557141  1
  Ta  Ta8  1  0.557162  0.942851  0.942852  1
  Ta  Ta9  1  0.942849  0.942849  0.557159  1
  Ta  Ta10  1  0.692851  0.307149  0.692859  1
  Ta  Ta11  1  0.942851  0.557162  0.942852  1
  Ga  Ga12  1  0.913534  0.913534  0.913539  1
  Ga  Ga13  1  0.990613  0.336463  0.336457  1
  Ga  Ga14  1  0.336463  0.990613  0.336457  1
  Ga  Ga15  1  0.336464  0.336464  0.990604  1
  Ga  Ga16  1  0.913537  0.259387  0.913543  1
  Ga  Ga17  1  0.913536  0.913536  0.259396  1
  Ga  Ga18  1  0.259387  0.913537  0.913543  1
  Ga  Ga19  1  0.336466  0.336466  0.336461  1
  B  B20  1  0.625000  0.625000  0.625000  1
  B  B21  1  0.125000  0.625000  0.625000  1
  B  B22  1  0.625000  0.125000  0.625000  1
  B  B23  1  0.625000  0.625000  0.125000  1
  Rh  Rh24  1  0.125000  0.125000  0.125000  1
  Rh  Rh25  1  0.625000  0.125000  0.125000  1
  Rh  Rh26  1  0.125000  0.625000  0.125000  1
  Rh  Rh27  1  0.125000  0.125000  0.625000  1
