# generated using pymatgen
data_Dy10Y6TlCd(HgPt2)2
_symmetry_space_group_name_H-M   'P 1'
_cell_length_a   9.65948694
_cell_length_b   9.67819032
_cell_length_c   9.67819100
_cell_angle_alpha   60.00000110
_cell_angle_beta   59.93592910
_cell_angle_gamma   59.93592750
_symmetry_Int_Tables_number   1
_chemical_formula_structural   Dy10Y6TlCd(HgPt2)2
_chemical_formula_sum   'Dy10 Y6 Tl1 Cd1 Hg2 Pt4'
_cell_volume   639.15493030
_cell_formula_units_Z   1
loop_
 _symmetry_equiv_pos_site_id
 _symmetry_equiv_pos_as_xyz
  1  'x, y, z'
loop_
 _atom_site_type_symbol
 _atom_site_label
 _atom_site_symmetry_multiplicity
 _atom_site_fract_x
 _atom_site_fract_y
 _atom_site_fract_z
 _atom_site_occupancy
  Dy  Dy0  1  0.354923  0.353998  0.353998  1
  Dy  Dy1  1  0.354365  0.353247  0.938489  1
  Dy  Dy2  1  0.354365  0.938489  0.353247  1
  Dy  Dy3  1  0.935906  0.354537  0.354537  1
  Dy  Dy4  1  0.810115  0.189214  0.189214  1
  Dy  Dy5  1  0.187548  0.811545  0.811545  1
  Dy  Dy6  1  0.187688  0.811284  0.188960  1
  Dy  Dy7  1  0.810351  0.188967  0.811066  1
  Dy  Dy8  1  0.187688  0.188960  0.811284  1
  Dy  Dy9  1  0.810351  0.811066  0.188967  1
  Y  Y10  1  0.938161  0.563962  0.563962  1
  Y  Y11  1  0.563609  0.936764  0.936764  1
  Y  Y12  1  0.563022  0.939742  0.563591  1
  Y  Y13  1  0.935550  0.564603  0.936683  1
  Y  Y14  1  0.563022  0.563591  0.939742  1
  Y  Y15  1  0.935550  0.936683  0.564603  1
  Tl  Tl16  1  0.584224  0.585632  0.585632  1
  Cd  Cd17  1  0.253760  0.581500  0.581500  1
  Hg  Hg18  1  0.585208  0.587291  0.238751  1
  Hg  Hg19  1  0.585208  0.238751  0.587291  1
  Pt  Pt20  1  0.143835  0.144203  0.144203  1
  Pt  Pt21  1  0.143910  0.144265  0.567598  1
  Pt  Pt22  1  0.143910  0.567598  0.144265  1
  Pt  Pt23  1  0.567733  0.144104  0.144104  1
