# generated using pymatgen
data_Y4Ho4Lu4Co5Pb
_symmetry_space_group_name_H-M   'P 1'
_cell_length_a   8.22069882
_cell_length_b   8.22073884
_cell_length_c   8.22069865
_cell_angle_alpha   110.73303578
_cell_angle_beta   110.81020350
_cell_angle_gamma   106.90041318
_symmetry_Int_Tables_number   1
_chemical_formula_structural   Y4Ho4Lu4Co5Pb
_chemical_formula_sum   'Y4 Ho4 Lu4 Co5 Pb1'
_cell_volume   427.02647083
_cell_formula_units_Z   1
loop_
 _symmetry_equiv_pos_site_id
 _symmetry_equiv_pos_as_xyz
  1  'x, y, z'
loop_
 _atom_site_type_symbol
 _atom_site_label
 _atom_site_symmetry_multiplicity
 _atom_site_fract_x
 _atom_site_fract_y
 _atom_site_fract_z
 _atom_site_occupancy
  Y  Y0  1  0.812678  0.709944  0.522618  1
  Y  Y1  1  0.187322  0.290056  0.477382  1
  Y  Y2  1  0.187328  0.709944  0.897266  1
  Y  Y3  1  0.812672  0.290056  0.102734  1
  Ho  Ho4  1  0.597296  0.790641  0.806655  1
  Ho  Ho5  1  0.402704  0.209359  0.193345  1
  Ho  Ho6  1  0.983986  0.790641  0.193345  1
  Ho  Ho7  1  0.016014  0.209359  0.806655  1
  Lu  Lu8  1  0.686367  0.376531  0.690166  1
  Lu  Lu9  1  0.313633  0.623469  0.309834  1
  Lu  Lu10  1  0.686369  0.996217  0.309848  1
  Lu  Lu11  1  0.313631  0.003783  0.690152  1
  Co  Co12  1  0.622280  0.000000  0.622280  1
  Co  Co13  1  0.377720  0.000000  0.377720  1
  Co  Co14  1  0.113100  0.613098  0.499997  1
  Co  Co15  1  0.886900  0.386902  0.500003  1
  Co  Co16  1  0.000000  0.000000  0.000000  1
  Pb  Pb17  1  0.500000  0.500000  0.000000  1
