# generated using pymatgen
data_Sr2GaSi3Rh4
_symmetry_space_group_name_H-M   'P 1'
_cell_length_a   8.26525554
_cell_length_b   7.20318057
_cell_length_c   5.94475411
_cell_angle_alpha   77.24285071
_cell_angle_beta   57.07964589
_cell_angle_gamma   44.54678823
_symmetry_Int_Tables_number   1
_chemical_formula_structural   Sr2GaSi3Rh4
_chemical_formula_sum   'Sr2 Ga1 Si3 Rh4'
_cell_volume   199.90564852
_cell_formula_units_Z   1
loop_
 _symmetry_equiv_pos_site_id
 _symmetry_equiv_pos_as_xyz
  1  'x, y, z'
loop_
 _atom_site_type_symbol
 _atom_site_label
 _atom_site_symmetry_multiplicity
 _atom_site_fract_x
 _atom_site_fract_y
 _atom_site_fract_z
 _atom_site_occupancy
  Sr  Sr0  1  0.499888  0.500112  0.499888  1
  Sr  Sr1  1  0.748557  0.751443  0.748557  1
  Ga  Ga2  1  0.065550  0.434450  0.065550  1
  Si  Si3  1  0.818980  0.181020  0.818980  1
  Si  Si4  1  0.180767  0.819233  0.180767  1
  Si  Si5  1  0.428848  0.071152  0.428848  1
  Rh  Rh6  1  0.125121  0.105152  0.872690  1
  Rh  Rh7  1  0.872690  0.897038  0.125121  1
  Rh  Rh8  1  0.139052  0.114329  0.370548  1
  Rh  Rh9  1  0.370548  0.376071  0.139052  1
