# generated using pymatgen
data_Cs3K3(VSe4)2
_symmetry_space_group_name_H-M   'P 1'
_cell_length_a   9.96805800
_cell_length_b   9.96015698
_cell_length_c   10.96985500
_cell_angle_alpha   90.00000000
_cell_angle_beta   90.00000000
_cell_angle_gamma   90.44096206
_symmetry_Int_Tables_number   1
_chemical_formula_structural   Cs3K3(VSe4)2
_chemical_formula_sum   'Cs6 K6 V4 Se16'
_cell_volume   1089.09249284
_cell_formula_units_Z   2
loop_
 _symmetry_equiv_pos_site_id
 _symmetry_equiv_pos_as_xyz
  1  'x, y, z'
loop_
 _atom_site_type_symbol
 _atom_site_label
 _atom_site_symmetry_multiplicity
 _atom_site_fract_x
 _atom_site_fract_y
 _atom_site_fract_z
 _atom_site_occupancy
  Cs  Cs0  1  0.045656  0.210901  0.040955  1
  Cs  Cs1  1  0.141859  0.409865  0.748552  1
  Cs  Cs2  1  0.346786  0.905146  0.244421  1
  Cs  Cs3  1  0.653214  0.094854  0.744421  1
  Cs  Cs4  1  0.858141  0.590135  0.248552  1
  Cs  Cs5  1  0.954344  0.789099  0.540955  1
  K  K6  1  0.544086  0.297932  0.457790  1
  K  K7  1  0.455914  0.702068  0.957790  1
  K  K8  1  0.549782  0.294786  0.048301  1
  K  K9  1  0.051257  0.204299  0.449134  1
  K  K10  1  0.450218  0.705214  0.548301  1
  K  K11  1  0.948743  0.795701  0.949134  1
  V  V12  1  0.773041  0.018062  0.248630  1
  V  V13  1  0.709725  0.515867  0.752541  1
  V  V14  1  0.290275  0.484133  0.252541  1
  V  V15  1  0.226959  0.981938  0.748630  1
  Se  Se16  1  0.338536  0.057713  0.916481  1
  Se  Se17  1  0.214619  0.752499  0.759672  1
  Se  Se18  1  0.304879  0.255401  0.251367  1
  Se  Se19  1  0.695121  0.744599  0.751367  1
  Se  Se20  1  0.785381  0.247501  0.259672  1
  Se  Se21  1  0.011560  0.064762  0.747188  1
  Se  Se22  1  0.503391  0.572199  0.252841  1
  Se  Se23  1  0.496609  0.427801  0.752841  1
  Se  Se24  1  0.988440  0.935238  0.247188  1
  Se  Se25  1  0.661464  0.942287  0.416481  1
  Se  Se26  1  0.821631  0.442809  0.583049  1
  Se  Se27  1  0.178369  0.557191  0.083049  1
  Se  Se28  1  0.668566  0.953563  0.072234  1
  Se  Se29  1  0.331434  0.046437  0.572234  1
  Se  Se30  1  0.180654  0.544087  0.426840  1
  Se  Se31  1  0.819346  0.455913  0.926840  1
