# generated using pymatgen
data_Tb5YOsRu
_symmetry_space_group_name_H-M   'P 1'
_cell_length_a   6.36534838
_cell_length_b   7.36723156
_cell_length_c   9.21660757
_cell_angle_alpha   89.95967348
_cell_angle_beta   90.00318682
_cell_angle_gamma   90.16556097
_symmetry_Int_Tables_number   1
_chemical_formula_structural   Tb5YOsRu
_chemical_formula_sum   'Tb10 Y2 Os2 Ru2'
_cell_volume   432.21085859
_cell_formula_units_Z   2
loop_
 _symmetry_equiv_pos_site_id
 _symmetry_equiv_pos_as_xyz
  1  'x, y, z'
loop_
 _atom_site_type_symbol
 _atom_site_label
 _atom_site_symmetry_multiplicity
 _atom_site_fract_x
 _atom_site_fract_y
 _atom_site_fract_z
 _atom_site_occupancy
  Tb  Tb0  1  0.635224  0.039718  0.249998  1
  Tb  Tb1  1  0.364776  0.960282  0.750002  1
  Tb  Tb2  1  0.133467  0.458397  0.749963  1
  Tb  Tb3  1  0.866533  0.541603  0.250037  1
  Tb  Tb4  1  0.171252  0.176322  0.065646  1
  Tb  Tb5  1  0.828748  0.823678  0.934354  1
  Tb  Tb6  1  0.669352  0.324509  0.936566  1
  Tb  Tb7  1  0.828506  0.823680  0.565509  1
  Tb  Tb8  1  0.330648  0.675491  0.063434  1
  Tb  Tb9  1  0.171494  0.176320  0.434491  1
  Y  Y10  1  0.330829  0.675171  0.437039  1
  Y  Y11  1  0.669171  0.324829  0.562961  1
  Os  Os12  1  0.460387  0.384359  0.249532  1
  Os  Os13  1  0.539613  0.615641  0.750468  1
  Ru  Ru14  1  0.961832  0.114057  0.750326  1
  Ru  Ru15  1  0.038168  0.885943  0.249674  1
