# generated using pymatgen
data_Ba4Ho7TmSe16
_symmetry_space_group_name_H-M   'P 1'
_cell_length_a   4.19677200
_cell_length_b   12.89201815
_cell_length_c   15.15738918
_cell_angle_alpha   90.01763566
_cell_angle_beta   90.00000000
_cell_angle_gamma   90.00000000
_symmetry_Int_Tables_number   1
_chemical_formula_structural   Ba4Ho7TmSe16
_chemical_formula_sum   'Ba4 Ho7 Tm1 Se16'
_cell_volume   820.08839290
_cell_formula_units_Z   1
loop_
 _symmetry_equiv_pos_site_id
 _symmetry_equiv_pos_as_xyz
  1  'x, y, z'
loop_
 _atom_site_type_symbol
 _atom_site_label
 _atom_site_symmetry_multiplicity
 _atom_site_fract_x
 _atom_site_fract_y
 _atom_site_fract_z
 _atom_site_occupancy
  Ba  Ba0  1  0.250000  0.240777  0.335023  1
  Ba  Ba1  1  0.250000  0.740769  0.164930  1
  Ba  Ba2  1  0.750000  0.759348  0.665047  1
  Ba  Ba3  1  0.750000  0.259134  0.835022  1
  Ho  Ho4  1  0.250000  0.079055  0.599632  1
  Ho  Ho5  1  0.250000  0.579149  0.900493  1
  Ho  Ho6  1  0.750000  0.920872  0.400466  1
  Ho  Ho7  1  0.750000  0.420908  0.099537  1
  Ho  Ho8  1  0.250000  0.563229  0.390989  1
  Ho  Ho9  1  0.250000  0.063186  0.108966  1
  Ho  Ho10  1  0.750000  0.436787  0.609009  1
  Tm  Tm11  1  0.750000  0.937136  0.890934  1
  Se  Se12  1  0.250000  0.083708  0.923467  1
  Se  Se13  1  0.250000  0.584667  0.576324  1
  Se  Se14  1  0.750000  0.915339  0.075552  1
  Se  Se15  1  0.750000  0.415333  0.423673  1
  Se  Se16  1  0.250000  0.294135  0.660922  1
  Se  Se17  1  0.250000  0.795032  0.839512  1
  Se  Se18  1  0.750000  0.705874  0.339079  1
  Se  Se19  1  0.750000  0.205879  0.160932  1
  Se  Se20  1  0.250000  0.375690  0.975340  1
  Se  Se21  1  0.250000  0.875694  0.524640  1
  Se  Se22  1  0.750000  0.624281  0.024659  1
  Se  Se23  1  0.750000  0.124292  0.475379  1
  Se  Se24  1  0.250000  0.474995  0.216675  1
  Se  Se25  1  0.250000  0.975000  0.283303  1
  Se  Se26  1  0.750000  0.525020  0.783331  1
  Se  Se27  1  0.750000  0.024709  0.717164  1
