# generated using pymatgen
data_Tb15Tm(Tl3Rh)2
_symmetry_space_group_name_H-M   'P 1'
_cell_length_a   10.49602200
_cell_length_b   10.49602227
_cell_length_c   7.05309300
_cell_angle_alpha   90.00000000
_cell_angle_beta   90.00000000
_cell_angle_gamma   119.99999916
_symmetry_Int_Tables_number   1
_chemical_formula_structural   Tb15Tm(Tl3Rh)2
_chemical_formula_sum   'Tb15 Tm1 Tl6 Rh2'
_cell_volume   672.91424416
_cell_formula_units_Z   1
loop_
 _symmetry_equiv_pos_site_id
 _symmetry_equiv_pos_as_xyz
  1  'x, y, z'
loop_
 _atom_site_type_symbol
 _atom_site_label
 _atom_site_symmetry_multiplicity
 _atom_site_fract_x
 _atom_site_fract_y
 _atom_site_fract_z
 _atom_site_occupancy
  Tb  Tb0  1  0.533265  0.066532  0.515851  1
  Tb  Tb1  1  0.933468  0.466735  0.515851  1
  Tb  Tb2  1  0.533265  0.466735  0.515851  1
  Tb  Tb3  1  0.466736  0.933470  0.015736  1
  Tb  Tb4  1  0.066530  0.533264  0.015736  1
  Tb  Tb5  1  0.466736  0.533264  0.015736  1
  Tb  Tb6  1  0.175687  0.351373  0.721784  1
  Tb  Tb7  1  0.648627  0.824313  0.721784  1
  Tb  Tb8  1  0.175687  0.824313  0.721784  1
  Tb  Tb9  1  0.824323  0.648647  0.220515  1
  Tb  Tb10  1  0.351353  0.175677  0.220515  1
  Tb  Tb11  1  0.824323  0.175677  0.220515  1
  Tb  Tb12  1  0.666667  0.333333  0.895114  1
  Tb  Tb13  1  0.333333  0.666667  0.394465  1
  Tb  Tb14  1  0.000000  0.000000  0.500755  1
  Tm  Tm15  1  0.000000  0.000000  0.000205  1
  Tl  Tl16  1  0.837301  0.674604  0.762095  1
  Tl  Tl17  1  0.325396  0.162699  0.762095  1
  Tl  Tl18  1  0.837301  0.162699  0.762095  1
  Tl  Tl19  1  0.162733  0.325465  0.260768  1
  Tl  Tl20  1  0.674535  0.837267  0.260768  1
  Tl  Tl21  1  0.162733  0.837267  0.260768  1
  Rh  Rh22  1  0.666667  0.333333  0.289259  1
  Rh  Rh23  1  0.333333  0.666667  0.787955  1
