# generated using pymatgen
data_Ca20IrPd3
_symmetry_space_group_name_H-M   'P 1'
_cell_length_a   6.91454733
_cell_length_b   7.58266256
_cell_length_c   16.10364500
_cell_angle_alpha   90.00000000
_cell_angle_beta   90.00000000
_cell_angle_gamma   89.92769804
_symmetry_Int_Tables_number   1
_chemical_formula_structural   Ca20IrPd3
_chemical_formula_sum   'Ca20 Ir1 Pd3'
_cell_volume   844.32437213
_cell_formula_units_Z   1
loop_
 _symmetry_equiv_pos_site_id
 _symmetry_equiv_pos_as_xyz
  1  'x, y, z'
loop_
 _atom_site_type_symbol
 _atom_site_label
 _atom_site_symmetry_multiplicity
 _atom_site_fract_x
 _atom_site_fract_y
 _atom_site_fract_z
 _atom_site_occupancy
  Ca  Ca0  1  0.150150  0.092517  0.250000  1
  Ca  Ca1  1  0.850974  0.189058  0.560296  1
  Ca  Ca2  1  0.845696  0.901960  0.750000  1
  Ca  Ca3  1  0.828166  0.468742  0.144455  1
  Ca  Ca4  1  0.173131  0.539000  0.640714  1
  Ca  Ca5  1  0.354079  0.309992  0.062090  1
  Ca  Ca6  1  0.337353  0.598688  0.250000  1
  Ca  Ca7  1  0.828166  0.468742  0.355545  1
  Ca  Ca8  1  0.326590  0.038494  0.859254  1
  Ca  Ca9  1  0.144833  0.810421  0.066787  1
  Ca  Ca10  1  0.648473  0.688445  0.560553  1
  Ca  Ca11  1  0.679974  0.957540  0.355538  1
  Ca  Ca12  1  0.648473  0.688445  0.939447  1
  Ca  Ca13  1  0.326590  0.038494  0.640746  1
  Ca  Ca14  1  0.144833  0.810421  0.433213  1
  Ca  Ca15  1  0.653937  0.401684  0.750000  1
  Ca  Ca16  1  0.173131  0.539000  0.859286  1
  Ca  Ca17  1  0.354079  0.309992  0.437910  1
  Ca  Ca18  1  0.679974  0.957540  0.144462  1
  Ca  Ca19  1  0.850974  0.189058  0.939704  1
  Ir  Ir20  1  0.961968  0.761592  0.250000  1
  Pd  Pd21  1  0.042046  0.240122  0.750000  1
  Pd  Pd22  1  0.458190  0.740273  0.750000  1
  Pd  Pd23  1  0.538220  0.259780  0.250000  1
