# generated using pymatgen
data_CuAg2Au3O8
_symmetry_space_group_name_H-M   'P 1'
_cell_length_a   9.16585917
_cell_length_b   3.96222806
_cell_length_c   5.53710792
_cell_angle_alpha   78.50417456
_cell_angle_beta   89.79473655
_cell_angle_gamma   90.42571290
_symmetry_Int_Tables_number   1
_chemical_formula_structural   CuAg2Au3O8
_chemical_formula_sum   'Cu1 Ag2 Au3 O8'
_cell_volume   197.05025215
_cell_formula_units_Z   1
loop_
 _symmetry_equiv_pos_site_id
 _symmetry_equiv_pos_as_xyz
  1  'x, y, z'
loop_
 _atom_site_type_symbol
 _atom_site_label
 _atom_site_symmetry_multiplicity
 _atom_site_fract_x
 _atom_site_fract_y
 _atom_site_fract_z
 _atom_site_occupancy
  Cu  Cu0  1  0.639597  0.687987  0.043875  1
  Ag  Ag1  1  0.502588  0.003061  0.498553  1
  Ag  Ag2  1  0.995948  0.001343  0.996978  1
  Au  Au3  1  0.854583  0.692003  0.541772  1
  Au  Au4  1  0.368127  0.312052  0.959023  1
  Au  Au5  1  0.136880  0.309432  0.456160  1
  O  O6  1  0.695337  0.904420  0.309711  1
  O  O7  1  0.203123  0.079800  0.177175  1
  O  O8  1  0.300298  0.087876  0.676071  1
  O  O9  1  0.789736  0.895480  0.834466  1
  O  O10  1  0.957623  0.515400  0.261696  1
  O  O11  1  0.475868  0.477072  0.233610  1
  O  O12  1  0.545531  0.546956  0.775050  1
  O  O13  1  0.034758  0.487120  0.735858  1
