# generated using pymatgen
data_Li8Pr8Sn3Bi5
_symmetry_space_group_name_H-M   'P 1'
_cell_length_a   9.72843169
_cell_length_b   9.72255112
_cell_length_c   7.67826649
_cell_angle_alpha   90.00000005
_cell_angle_beta   89.86146312
_cell_angle_gamma   119.98000752
_symmetry_Int_Tables_number   1
_chemical_formula_structural   Li8Pr8Sn3Bi5
_chemical_formula_sum   'Li8 Pr8 Sn3 Bi5'
_cell_volume   629.07531865
_cell_formula_units_Z   1
loop_
 _symmetry_equiv_pos_site_id
 _symmetry_equiv_pos_as_xyz
  1  'x, y, z'
loop_
 _atom_site_type_symbol
 _atom_site_label
 _atom_site_symmetry_multiplicity
 _atom_site_fract_x
 _atom_site_fract_y
 _atom_site_fract_z
 _atom_site_occupancy
  Li  Li0  1  0.828992  0.165610  0.717412  1
  Li  Li1  1  0.828992  0.663381  0.717412  1
  Li  Li2  1  0.338807  0.169403  0.715520  1
  Li  Li3  1  0.169439  0.831412  0.215752  1
  Li  Li4  1  0.169439  0.338028  0.215752  1
  Li  Li5  1  0.660908  0.830455  0.213478  1
  Li  Li6  1  0.665908  0.332953  0.334476  1
  Li  Li7  1  0.337591  0.668796  0.832787  1
  Pr  Pr8  1  0.488807  0.519023  0.507900  1
  Pr  Pr9  1  0.488807  0.969785  0.507900  1
  Pr  Pr10  1  0.025666  0.512833  0.505948  1
  Pr  Pr11  1  0.515657  0.490874  0.003479  1
  Pr  Pr12  1  0.515657  0.024784  0.003479  1
  Pr  Pr13  1  0.973554  0.486777  0.004455  1
  Pr  Pr14  1  0.994165  0.997082  0.500748  1
  Pr  Pr15  1  0.992985  0.996492  0.996021  1
  Sn  Sn16  1  0.668111  0.834056  0.766697  1
  Sn  Sn17  1  0.668248  0.334123  0.735542  1
  Sn  Sn18  1  0.333267  0.666634  0.235973  1
  Bi  Bi19  1  0.834270  0.166938  0.265206  1
  Bi  Bi20  1  0.834270  0.667331  0.265206  1
  Bi  Bi21  1  0.333568  0.166784  0.265412  1
  Bi  Bi22  1  0.166446  0.833166  0.765727  1
  Bi  Bi23  1  0.166446  0.333279  0.765727  1
