# generated using pymatgen
data_Rb2NdPa(CuTe3)2
_symmetry_space_group_name_H-M   'P 1'
_cell_length_a   8.60393774
_cell_length_b   8.60393821
_cell_length_c   11.50132156
_cell_angle_alpha   91.32254556
_cell_angle_beta   88.67745415
_cell_angle_gamma   150.07578668
_symmetry_Int_Tables_number   1
_chemical_formula_structural   Rb2NdPa(CuTe3)2
_chemical_formula_sum   'Rb2 Nd1 Pa1 Cu2 Te6'
_cell_volume   424.61155899
_cell_formula_units_Z   1
loop_
 _symmetry_equiv_pos_site_id
 _symmetry_equiv_pos_as_xyz
  1  'x, y, z'
loop_
 _atom_site_type_symbol
 _atom_site_label
 _atom_site_symmetry_multiplicity
 _atom_site_fract_x
 _atom_site_fract_y
 _atom_site_fract_z
 _atom_site_occupancy
  Rb  Rb0  1  0.745107  0.254895  0.269599  1
  Rb  Rb1  1  0.254895  0.745107  0.730401  1
  Nd  Nd2  1  0.000000  0.000000  0.500000  1
  Pa  Pa3  1  0.000000  0.000000  0.000000  1
  Cu  Cu4  1  0.469601  0.530400  0.244039  1
  Cu  Cu5  1  0.530400  0.469601  0.755961  1
  Te  Te6  1  0.379678  0.620323  0.059702  1
  Te  Te7  1  0.063947  0.936054  0.237508  1
  Te  Te8  1  0.375631  0.624370  0.430752  1
  Te  Te9  1  0.624370  0.375631  0.569248  1
  Te  Te10  1  0.936054  0.063947  0.762492  1
  Te  Te11  1  0.620323  0.379678  0.940297  1
