# generated using pymatgen
data_YbDy3(Si2Ir)2
_symmetry_space_group_name_H-M   'P 1'
_cell_length_a   5.74500370
_cell_length_b   5.74500390
_cell_length_c   10.05972089
_cell_angle_alpha   62.94955490
_cell_angle_beta   62.94955227
_cell_angle_gamma   43.23724231
_symmetry_Int_Tables_number   1
_chemical_formula_structural   YbDy3(Si2Ir)2
_chemical_formula_sum   'Yb1 Dy3 Si4 Ir2'
_cell_volume   198.37012890
_cell_formula_units_Z   1
loop_
 _symmetry_equiv_pos_site_id
 _symmetry_equiv_pos_as_xyz
  1  'x, y, z'
loop_
 _atom_site_type_symbol
 _atom_site_label
 _atom_site_symmetry_multiplicity
 _atom_site_fract_x
 _atom_site_fract_y
 _atom_site_fract_z
 _atom_site_occupancy
  Yb  Yb0  1  0.812413  0.812413  0.109004  1
  Dy  Dy1  1  0.005603  0.005603  0.320081  1
  Dy  Dy2  1  0.181434  0.181434  0.890438  1
  Dy  Dy3  1  0.994165  0.994165  0.678254  1
  Si  Si4  1  0.495361  0.495361  0.874253  1
  Si  Si5  1  0.361348  0.361348  0.564374  1
  Si  Si6  1  0.504243  0.504243  0.122637  1
  Si  Si7  1  0.643563  0.643563  0.438217  1
  Ir  Ir8  1  0.729738  0.729738  0.626040  1
  Ir  Ir9  1  0.272132  0.272132  0.376703  1
