# generated using pymatgen
data_RbEu(U2Se5)2
_symmetry_space_group_name_H-M   'P 1'
_cell_length_a   7.89062200
_cell_length_b   8.88706223
_cell_length_c   12.33767200
_cell_angle_alpha   89.69461877
_cell_angle_beta   90.00000000
_cell_angle_gamma   90.00000000
_symmetry_Int_Tables_number   1
_chemical_formula_structural   RbEu(U2Se5)2
_chemical_formula_sum   'Rb2 Eu2 U8 Se20'
_cell_volume   865.16015910
_cell_formula_units_Z   2
loop_
 _symmetry_equiv_pos_site_id
 _symmetry_equiv_pos_as_xyz
  1  'x, y, z'
loop_
 _atom_site_type_symbol
 _atom_site_label
 _atom_site_symmetry_multiplicity
 _atom_site_fract_x
 _atom_site_fract_y
 _atom_site_fract_z
 _atom_site_occupancy
  Rb  Rb0  1  0.054001  0.490547  0.324151  1
  Rb  Rb1  1  0.554001  0.509453  0.175849  1
  Eu  Eu2  1  0.943124  0.510465  0.662395  1
  Eu  Eu3  1  0.443124  0.489535  0.837605  1
  U  U4  1  0.023656  0.998557  0.318527  1
  U  U5  1  0.523656  0.001443  0.181473  1
  U  U6  1  0.984027  0.001683  0.682312  1
  U  U7  1  0.484027  0.998317  0.817688  1
  U  U8  1  0.068439  0.756688  0.002796  1
  U  U9  1  0.568439  0.243312  0.497204  1
  U  U10  1  0.927698  0.251896  0.985424  1
  U  U11  1  0.427698  0.748104  0.514576  1
  Se  Se12  1  0.663056  0.955178  0.406275  1
  Se  Se13  1  0.163056  0.044822  0.093725  1
  Se  Se14  1  0.338361  0.041651  0.599503  1
  Se  Se15  1  0.838361  0.958349  0.900497  1
  Se  Se16  1  0.450055  0.793410  0.996756  1
  Se  Se17  1  0.950055  0.206590  0.503244  1
  Se  Se18  1  0.546520  0.210443  0.991562  1
  Se  Se19  1  0.046520  0.789557  0.508438  1
  Se  Se20  1  0.838685  0.794555  0.181240  1
  Se  Se21  1  0.338685  0.205445  0.318760  1
  Se  Se22  1  0.162512  0.223962  0.807967  1
  Se  Se23  1  0.662512  0.776038  0.692033  1
  Se  Se24  1  0.310596  0.786611  0.290924  1
  Se  Se25  1  0.810596  0.213389  0.209076  1
  Se  Se26  1  0.689910  0.235562  0.718232  1
  Se  Se27  1  0.189910  0.764438  0.781768  1
  Se  Se28  1  0.178285  0.462123  0.052044  1
  Se  Se29  1  0.678285  0.537877  0.447956  1
  Se  Se30  1  0.821074  0.538017  0.908939  1
  Se  Se31  1  0.321074  0.461983  0.591061  1
