# generated using pymatgen
data_Nb12Cu3Au5N4
_symmetry_space_group_name_H-M   'P 1'
_cell_length_a   7.08903606
_cell_length_b   7.08903586
_cell_length_c   7.08903627
_cell_angle_alpha   90.04915219
_cell_angle_beta   90.04914636
_cell_angle_gamma   90.04914973
_symmetry_Int_Tables_number   1
_chemical_formula_structural   Nb12Cu3Au5N4
_chemical_formula_sum   'Nb12 Cu3 Au5 N4'
_cell_volume   356.25508922
_cell_formula_units_Z   1
loop_
 _symmetry_equiv_pos_site_id
 _symmetry_equiv_pos_as_xyz
  1  'x, y, z'
loop_
 _atom_site_type_symbol
 _atom_site_label
 _atom_site_symmetry_multiplicity
 _atom_site_fract_x
 _atom_site_fract_y
 _atom_site_fract_z
 _atom_site_occupancy
  Nb  Nb0  1  0.794677  0.960147  0.372271  1
  Nb  Nb1  1  0.706533  0.041750  0.875594  1
  Nb  Nb2  1  0.205569  0.460675  0.127064  1
  Nb  Nb3  1  0.292836  0.538204  0.628316  1
  Nb  Nb4  1  0.960147  0.372271  0.794677  1
  Nb  Nb5  1  0.041750  0.875594  0.706533  1
  Nb  Nb6  1  0.460675  0.127064  0.205569  1
  Nb  Nb7  1  0.538204  0.628316  0.292836  1
  Nb  Nb8  1  0.372271  0.794677  0.960147  1
  Nb  Nb9  1  0.875594  0.706533  0.041750  1
  Nb  Nb10  1  0.127064  0.205569  0.460675  1
  Nb  Nb11  1  0.628316  0.292836  0.538204  1
  Cu  Cu12  1  0.182792  0.818788  0.314954  1
  Cu  Cu13  1  0.314954  0.182792  0.818788  1
  Cu  Cu14  1  0.818788  0.314954  0.182792  1
  Au  Au15  1  0.682826  0.682826  0.682826  1
  Au  Au16  1  0.566453  0.420628  0.938805  1
  Au  Au17  1  0.420628  0.938805  0.566453  1
  Au  Au18  1  0.938805  0.566453  0.420628  1
  Au  Au19  1  0.070566  0.070566  0.070566  1
  N  N20  1  0.875383  0.123828  0.625205  1
  N  N21  1  0.625205  0.875383  0.123828  1
  N  N22  1  0.123828  0.625205  0.875383  1
  N  N23  1  0.376133  0.376133  0.376133  1
