# generated using pymatgen
data_Er2Fe2Co10P7
_symmetry_space_group_name_H-M   'P 1'
_cell_length_a   8.97461721
_cell_length_b   8.96897094
_cell_length_c   3.60478700
_cell_angle_alpha   90.00000000
_cell_angle_beta   90.00000000
_cell_angle_gamma   119.96134554
_symmetry_Int_Tables_number   1
_chemical_formula_structural   Er2Fe2Co10P7
_chemical_formula_sum   'Er2 Fe2 Co10 P7'
_cell_volume   251.38410864
_cell_formula_units_Z   1
loop_
 _symmetry_equiv_pos_site_id
 _symmetry_equiv_pos_as_xyz
  1  'x, y, z'
loop_
 _atom_site_type_symbol
 _atom_site_label
 _atom_site_symmetry_multiplicity
 _atom_site_fract_x
 _atom_site_fract_y
 _atom_site_fract_z
 _atom_site_occupancy
  Er  Er0  1  0.000282  0.000217  0.000000  1
  Er  Er1  1  0.333856  0.666985  0.500000  1
  Fe  Fe2  1  0.542998  0.427274  0.500000  1
  Fe  Fe3  1  0.572566  0.114549  0.500000  1
  Co  Co4  1  0.097512  0.703936  0.000000  1
  Co  Co5  1  0.295881  0.394023  0.000000  1
  Co  Co6  1  0.606433  0.902021  0.000000  1
  Co  Co7  1  0.824771  0.217121  0.000000  1
  Co  Co8  1  0.784700  0.607200  0.000000  1
  Co  Co9  1  0.390981  0.175227  0.000000  1
  Co  Co10  1  0.051161  0.283524  0.500000  1
  Co  Co11  1  0.716934  0.767845  0.500000  1
  Co  Co12  1  0.231384  0.947963  0.500000  1
  Co  Co13  1  0.883974  0.458631  0.500000  1
  P  P14  1  0.077545  0.446494  0.000000  1
  P  P15  1  0.553447  0.630248  0.000000  1
  P  P16  1  0.370231  0.923275  0.000000  1
  P  P17  1  0.779467  0.043627  0.500000  1
  P  P18  1  0.956481  0.737443  0.500000  1
  P  P19  1  0.264110  0.220656  0.500000  1
  P  P20  1  0.665286  0.331736  0.000000  1
