# generated using pymatgen
data_Tb4Sc3Te8
_symmetry_space_group_name_H-M   'P 1'
_cell_length_a   8.24869011
_cell_length_b   8.24869025
_cell_length_c   10.20056490
_cell_angle_alpha   54.09171727
_cell_angle_beta   54.09172078
_cell_angle_gamma   62.62831716
_symmetry_Int_Tables_number   1
_chemical_formula_structural   Tb4Sc3Te8
_chemical_formula_sum   'Tb4 Sc3 Te8'
_cell_volume   448.17286861
_cell_formula_units_Z   1
loop_
 _symmetry_equiv_pos_site_id
 _symmetry_equiv_pos_as_xyz
  1  'x, y, z'
loop_
 _atom_site_type_symbol
 _atom_site_label
 _atom_site_symmetry_multiplicity
 _atom_site_fract_x
 _atom_site_fract_y
 _atom_site_fract_z
 _atom_site_occupancy
  Tb  Tb0  1  0.740954  0.259046  0.500000  1
  Tb  Tb1  1  0.259046  0.740954  0.500000  1
  Tb  Tb2  1  0.746425  0.746425  0.002974  1
  Tb  Tb3  1  0.253575  0.253575  0.997026  1
  Sc  Sc4  1  0.500000  0.000000  0.500000  1
  Sc  Sc5  1  0.000000  0.500000  0.500000  1
  Sc  Sc6  1  0.000000  0.000000  0.000000  1
  Te  Te7  1  0.951899  0.951899  0.334141  1
  Te  Te8  1  0.048101  0.048101  0.665859  1
  Te  Te9  1  0.551964  0.046475  0.166769  1
  Te  Te10  1  0.448036  0.953525  0.833231  1
  Te  Te11  1  0.953525  0.448036  0.833231  1
  Te  Te12  1  0.046475  0.551964  0.166769  1
  Te  Te13  1  0.449139  0.449139  0.328565  1
  Te  Te14  1  0.550861  0.550861  0.671435  1
