# generated using pymatgen
data_LaYb7(HoIr2)2
_symmetry_space_group_name_H-M   'P 1'
_cell_length_a   6.57075204
_cell_length_b   7.35945621
_cell_length_c   8.57670066
_cell_angle_alpha   96.88464217
_cell_angle_beta   112.79515073
_cell_angle_gamma   90.28959426
_symmetry_Int_Tables_number   1
_chemical_formula_structural   LaYb7(HoIr2)2
_chemical_formula_sum   'La1 Yb7 Ho2 Ir4'
_cell_volume   378.99336608
_cell_formula_units_Z   1
loop_
 _symmetry_equiv_pos_site_id
 _symmetry_equiv_pos_as_xyz
  1  'x, y, z'
loop_
 _atom_site_type_symbol
 _atom_site_label
 _atom_site_symmetry_multiplicity
 _atom_site_fract_x
 _atom_site_fract_y
 _atom_site_fract_z
 _atom_site_occupancy
  La  La0  1  0.977547  0.919016  0.174110  1
  Yb  Yb1  1  0.799069  0.576360  0.824330  1
  Yb  Yb2  1  0.025226  0.080514  0.822252  1
  Yb  Yb3  1  0.196987  0.420929  0.170063  1
  Yb  Yb4  1  0.640274  0.819451  0.436134  1
  Yb  Yb5  1  0.205878  0.678471  0.566101  1
  Yb  Yb6  1  0.361930  0.182477  0.567396  1
  Yb  Yb7  1  0.796558  0.319432  0.436585  1
  Ho  Ho8  1  0.431737  0.747671  0.996724  1
  Ho  Ho9  1  0.561554  0.251035  0.999642  1
  Ir  Ir10  1  0.815174  0.579917  0.210620  1
  Ir  Ir11  1  0.606799  0.925909  0.795888  1
  Ir  Ir12  1  0.187359  0.425428  0.789366  1
  Ir  Ir13  1  0.393906  0.073390  0.210789  1
