# generated using pymatgen
data_Tb4Bi6Rh7
_symmetry_space_group_name_H-M   'P 1'
_cell_length_a   7.79386463
_cell_length_b   7.79386528
_cell_length_c   7.79386500
_cell_angle_alpha   109.47121991
_cell_angle_beta   109.47122159
_cell_angle_gamma   109.47122535
_symmetry_Int_Tables_number   1
_chemical_formula_structural   Tb4Bi6Rh7
_chemical_formula_sum   'Tb4 Bi6 Rh7'
_cell_volume   364.44895941
_cell_formula_units_Z   1
loop_
 _symmetry_equiv_pos_site_id
 _symmetry_equiv_pos_as_xyz
  1  'x, y, z'
loop_
 _atom_site_type_symbol
 _atom_site_label
 _atom_site_symmetry_multiplicity
 _atom_site_fract_x
 _atom_site_fract_y
 _atom_site_fract_z
 _atom_site_occupancy
  Tb  Tb0  1  0.500000  0.000000  0.000000  1
  Tb  Tb1  1  0.000000  0.500000  0.000000  1
  Tb  Tb2  1  0.000000  0.000000  0.500000  1
  Tb  Tb3  1  0.500000  0.500000  0.500000  1
  Bi  Bi4  1  0.000000  0.314475  0.314475  1
  Bi  Bi5  1  0.685525  0.000000  0.685525  1
  Bi  Bi6  1  0.685525  0.685525  0.000000  1
  Bi  Bi7  1  0.000000  0.685525  0.685525  1
  Bi  Bi8  1  0.314475  0.000000  0.314475  1
  Bi  Bi9  1  0.314475  0.314475  0.000000  1
  Rh  Rh10  1  0.000000  0.000000  0.000000  1
  Rh  Rh11  1  0.500000  0.750000  0.250000  1
  Rh  Rh12  1  0.750000  0.500000  0.250000  1
  Rh  Rh13  1  0.250000  0.750000  0.500000  1
  Rh  Rh14  1  0.250000  0.500000  0.750000  1
  Rh  Rh15  1  0.500000  0.250000  0.750000  1
  Rh  Rh16  1  0.750000  0.250000  0.500000  1
