# generated using pymatgen
data_Tb11ErInCo4Pt
_symmetry_space_group_name_H-M   'P 1'
_cell_length_a   8.35338915
_cell_length_b   8.34210923
_cell_length_c   8.34211059
_cell_angle_alpha   111.02159060
_cell_angle_beta   110.34487026
_cell_angle_gamma   107.02233192
_symmetry_Int_Tables_number   1
_chemical_formula_structural   Tb11ErInCo4Pt
_chemical_formula_sum   'Tb11 Er1 In1 Co4 Pt1'
_cell_volume   447.17245972
_cell_formula_units_Z   1
loop_
 _symmetry_equiv_pos_site_id
 _symmetry_equiv_pos_as_xyz
  1  'x, y, z'
loop_
 _atom_site_type_symbol
 _atom_site_label
 _atom_site_symmetry_multiplicity
 _atom_site_fract_x
 _atom_site_fract_y
 _atom_site_fract_z
 _atom_site_occupancy
  Tb  Tb0  1  0.185122  0.292095  0.477837  1
  Tb  Tb1  1  0.813887  0.706503  0.519591  1
  Tb  Tb2  1  0.185122  0.707285  0.893028  1
  Tb  Tb3  1  0.813887  0.294295  0.107383  1
  Tb  Tb4  1  0.314733  0.620280  0.304132  1
  Tb  Tb5  1  0.685731  0.380977  0.696786  1
  Tb  Tb6  1  0.314733  0.010602  0.694453  1
  Tb  Tb7  1  0.685731  0.988945  0.304754  1
  Tb  Tb8  1  0.411936  0.213259  0.198678  1
  Tb  Tb9  1  0.589550  0.786975  0.802575  1
  Tb  Tb10  1  0.014720  0.212352  0.802368  1
  Er  Er11  1  0.986288  0.787030  0.199258  1
  In  In12  1  0.500943  0.500784  0.000159  1
  Co  Co13  1  0.110155  0.611988  0.498167  1
  Co  Co14  1  0.888216  0.388215  0.500001  1
  Co  Co15  1  0.378982  0.999702  0.379280  1
  Co  Co16  1  0.619323  0.000441  0.618883  1
  Pt  Pt17  1  0.000940  0.998272  0.002668  1
