# generated using pymatgen
data_Pr3FeCo7ReP6
_symmetry_space_group_name_H-M   'P 1'
_cell_length_a   3.80194100
_cell_length_b   10.72625700
_cell_length_c   12.45413200
_cell_angle_alpha   90.00000000
_cell_angle_beta   90.00000000
_cell_angle_gamma   90.00000000
_symmetry_Int_Tables_number   1
_chemical_formula_structural   Pr3FeCo7ReP6
_chemical_formula_sum   'Pr6 Fe2 Co14 Re2 P12'
_cell_volume   507.88692892
_cell_formula_units_Z   2
loop_
 _symmetry_equiv_pos_site_id
 _symmetry_equiv_pos_as_xyz
  1  'x, y, z'
loop_
 _atom_site_type_symbol
 _atom_site_label
 _atom_site_symmetry_multiplicity
 _atom_site_fract_x
 _atom_site_fract_y
 _atom_site_fract_z
 _atom_site_occupancy
  Pr  Pr0  1  0.000000  0.500000  0.523346  1
  Pr  Pr1  1  0.500000  0.000000  0.476654  1
  Pr  Pr2  1  0.500000  0.818771  0.204480  1
  Pr  Pr3  1  0.500000  0.181229  0.204480  1
  Pr  Pr4  1  0.000000  0.681229  0.795520  1
  Pr  Pr5  1  0.000000  0.318771  0.795520  1
  Fe  Fe6  1  0.000000  0.500000  0.989233  1
  Fe  Fe7  1  0.500000  0.000000  0.010767  1
  Co  Co8  1  0.500000  0.500000  0.701817  1
  Co  Co9  1  0.000000  0.000000  0.298183  1
  Co  Co10  1  0.500000  0.331503  0.992290  1
  Co  Co11  1  0.500000  0.668497  0.992290  1
  Co  Co12  1  0.000000  0.168497  0.007710  1
  Co  Co13  1  0.000000  0.831503  0.007710  1
  Co  Co14  1  0.500000  0.296316  0.430233  1
  Co  Co15  1  0.500000  0.703684  0.430233  1
  Co  Co16  1  0.000000  0.203684  0.569767  1
  Co  Co17  1  0.000000  0.796316  0.569767  1
  Co  Co18  1  0.500000  0.881663  0.710708  1
  Co  Co19  1  0.500000  0.118337  0.710708  1
  Co  Co20  1  0.000000  0.618337  0.289292  1
  Co  Co21  1  0.000000  0.381663  0.289292  1
  Re  Re22  1  0.500000  0.500000  0.153386  1
  Re  Re23  1  0.000000  0.000000  0.846614  1
  P  P24  1  0.500000  0.500000  0.886680  1
  P  P25  1  0.000000  0.000000  0.113320  1
  P  P26  1  0.500000  0.500000  0.342189  1
  P  P27  1  0.000000  0.000000  0.657811  1
  P  P28  1  0.500000  0.305970  0.614231  1
  P  P29  1  0.500000  0.694030  0.614231  1
  P  P30  1  0.000000  0.194030  0.385769  1
  P  P31  1  0.000000  0.805970  0.385769  1
  P  P32  1  0.500000  0.848763  0.896566  1
  P  P33  1  0.500000  0.151237  0.896566  1
  P  P34  1  0.000000  0.651237  0.103434  1
  P  P35  1  0.000000  0.348763  0.103434  1
