# generated using pymatgen
data_Os(PbO3)2
_symmetry_space_group_name_H-M   'P 1'
_cell_length_a   9.46375900
_cell_length_b   9.46376000
_cell_length_c   5.46340000
_cell_angle_alpha   90.00000000
_cell_angle_beta   90.00000000
_cell_angle_gamma   120.00000698
_symmetry_Int_Tables_number   1
_chemical_formula_structural   Os(PbO3)2
_chemical_formula_sum   'Os3 Pb6 O18'
_cell_volume   423.76100493
_cell_formula_units_Z   3
loop_
 _symmetry_equiv_pos_site_id
 _symmetry_equiv_pos_as_xyz
  1  'x, y, z'
loop_
 _atom_site_type_symbol
 _atom_site_label
 _atom_site_symmetry_multiplicity
 _atom_site_fract_x
 _atom_site_fract_y
 _atom_site_fract_z
 _atom_site_occupancy
  Os  Os0  1  0.666667  0.333333  0.504794  1
  Os  Os1  1  0.333333  0.666667  0.495206  1
  Os  Os2  1  0.000000  0.000000  0.000000  1
  Pb  Pb3  1  0.719812  0.719812  0.500000  1
  Pb  Pb4  1  0.000000  0.280188  0.500000  1
  Pb  Pb5  1  0.280188  0.000000  0.500000  1
  Pb  Pb6  1  0.381608  0.381608  0.000000  1
  Pb  Pb7  1  0.000000  0.618392  0.000000  1
  Pb  Pb8  1  0.618392  0.000000  0.000000  1
  O  O9  1  0.757595  0.235320  0.708196  1
  O  O10  1  0.764680  0.522274  0.708196  1
  O  O11  1  0.477726  0.242405  0.708196  1
  O  O12  1  0.522274  0.764680  0.291804  1
  O  O13  1  0.242405  0.477726  0.291804  1
  O  O14  1  0.235320  0.757595  0.291804  1
  O  O15  1  0.599957  0.453416  0.307326  1
  O  O16  1  0.546584  0.146540  0.307326  1
  O  O17  1  0.853460  0.400043  0.307326  1
  O  O18  1  0.070843  0.884501  0.798041  1
  O  O19  1  0.115499  0.186342  0.798041  1
  O  O20  1  0.813658  0.929157  0.798041  1
  O  O21  1  0.186342  0.115499  0.201959  1
  O  O22  1  0.929157  0.813658  0.201959  1
  O  O23  1  0.884501  0.070843  0.201959  1
  O  O24  1  0.453416  0.599957  0.692674  1
  O  O25  1  0.400043  0.853460  0.692674  1
  O  O26  1  0.146540  0.546584  0.692674  1
