# generated using pymatgen
data_Dy2Y2Hf3MgPt4
_symmetry_space_group_name_H-M   'P 1'
_cell_length_a   4.62347400
_cell_length_b   7.07102792
_cell_length_c   8.25532728
_cell_angle_alpha   92.83540807
_cell_angle_beta   90.00000000
_cell_angle_gamma   90.00000000
_symmetry_Int_Tables_number   1
_chemical_formula_structural   Dy2Y2Hf3MgPt4
_chemical_formula_sum   'Dy2 Y2 Hf3 Mg1 Pt4'
_cell_volume   269.55864230
_cell_formula_units_Z   1
loop_
 _symmetry_equiv_pos_site_id
 _symmetry_equiv_pos_as_xyz
  1  'x, y, z'
loop_
 _atom_site_type_symbol
 _atom_site_label
 _atom_site_symmetry_multiplicity
 _atom_site_fract_x
 _atom_site_fract_y
 _atom_site_fract_z
 _atom_site_occupancy
  Dy  Dy0  1  0.750000  0.029290  0.688019  1
  Dy  Dy1  1  0.750000  0.514360  0.829329  1
  Y  Y2  1  0.250000  0.982677  0.319364  1
  Y  Y3  1  0.250000  0.468286  0.169775  1
  Hf  Hf4  1  0.250000  0.365260  0.571706  1
  Hf  Hf5  1  0.250000  0.853578  0.932559  1
  Hf  Hf6  1  0.750000  0.646257  0.424399  1
  Mg  Mg7  1  0.750000  0.145590  0.074376  1
  Pt  Pt8  1  0.250000  0.227846  0.876515  1
  Pt  Pt9  1  0.250000  0.736389  0.600062  1
  Pt  Pt10  1  0.750000  0.758278  0.105308  1
  Pt  Pt11  1  0.750000  0.272190  0.408588  1
