# generated using pymatgen
data_Pr9Tm11Bi12
_symmetry_space_group_name_H-M   'P 1'
_cell_length_a   8.35699269
_cell_length_b   9.55738456
_cell_length_c   12.38678122
_cell_angle_alpha   89.93629997
_cell_angle_beta   90.13420795
_cell_angle_gamma   90.10893524
_symmetry_Int_Tables_number   1
_chemical_formula_structural   Pr9Tm11Bi12
_chemical_formula_sum   'Pr9 Tm11 Bi12'
_cell_volume   989.33940606
_cell_formula_units_Z   1
loop_
 _symmetry_equiv_pos_site_id
 _symmetry_equiv_pos_as_xyz
  1  'x, y, z'
loop_
 _atom_site_type_symbol
 _atom_site_label
 _atom_site_symmetry_multiplicity
 _atom_site_fract_x
 _atom_site_fract_y
 _atom_site_fract_z
 _atom_site_occupancy
  Pr  Pr0  1  0.182961  0.750051  0.721397  1
  Pr  Pr1  1  0.684835  0.749624  0.779061  1
  Pr  Pr2  1  0.815608  0.248798  0.278264  1
  Pr  Pr3  1  0.315618  0.249659  0.220117  1
  Pr  Pr4  1  0.810183  0.439274  0.559167  1
  Pr  Pr5  1  0.352474  0.749068  0.214970  1
  Pr  Pr6  1  0.851906  0.748302  0.284161  1
  Pr  Pr7  1  0.644604  0.248942  0.785242  1
  Pr  Pr8  1  0.148919  0.248720  0.716046  1
  Tm  Tm9  1  0.024150  0.749391  0.989658  1
  Tm  Tm10  1  0.523802  0.749255  0.511090  1
  Tm  Tm11  1  0.975487  0.249565  0.011238  1
  Tm  Tm12  1  0.474586  0.249897  0.488780  1
  Tm  Tm13  1  0.308419  0.434085  0.942586  1
  Tm  Tm14  1  0.807488  0.066941  0.558612  1
  Tm  Tm15  1  0.691827  0.934286  0.057183  1
  Tm  Tm16  1  0.190636  0.565569  0.442717  1
  Tm  Tm17  1  0.690842  0.565760  0.057643  1
  Tm  Tm18  1  0.194666  0.935051  0.440978  1
  Tm  Tm19  1  0.307972  0.065423  0.942751  1
  Bi  Bi20  1  0.435667  0.003206  0.666532  1
  Bi  Bi21  1  0.936749  0.495091  0.834806  1
  Bi  Bi22  1  0.563278  0.503646  0.332051  1
  Bi  Bi23  1  0.064382  0.994769  0.166453  1
  Bi  Bi24  1  0.563709  0.994858  0.333360  1
  Bi  Bi25  1  0.064754  0.504022  0.166102  1
  Bi  Bi26  1  0.432181  0.495858  0.667609  1
  Bi  Bi27  1  0.936167  0.003977  0.834336  1
  Bi  Bi28  1  0.404868  0.749932  0.957021  1
  Bi  Bi29  1  0.908178  0.760552  0.541104  1
  Bi  Bi30  1  0.595509  0.249932  0.042979  1
  Bi  Bi31  1  0.097575  0.246496  0.455987  1
