# generated using pymatgen
data_Ho3LuCo5Si10Os
_symmetry_space_group_name_H-M   'P 1'
_cell_length_a   7.99638705
_cell_length_b   7.99534817
_cell_length_c   7.86046818
_cell_angle_alpha   139.34309258
_cell_angle_beta   106.90739987
_cell_angle_gamma   88.17650885
_symmetry_Int_Tables_number   1
_chemical_formula_structural   Ho3LuCo5Si10Os
_chemical_formula_sum   'Ho3 Lu1 Co5 Si10 Os1'
_cell_volume   298.55788668
_cell_formula_units_Z   1
loop_
 _symmetry_equiv_pos_site_id
 _symmetry_equiv_pos_as_xyz
  1  'x, y, z'
loop_
 _atom_site_type_symbol
 _atom_site_label
 _atom_site_symmetry_multiplicity
 _atom_site_fract_x
 _atom_site_fract_y
 _atom_site_fract_z
 _atom_site_occupancy
  Ho  Ho0  1  0.131402  0.362388  0.765183  1
  Ho  Ho1  1  0.871021  0.624228  0.222864  1
  Ho  Ho2  1  0.401356  0.147479  0.277108  1
  Lu  Lu3  1  0.596387  0.866907  0.736372  1
  Co  Co4  1  0.006783  0.756537  0.749424  1
  Co  Co5  1  0.263635  0.884884  0.425567  1
  Co  Co6  1  0.542377  0.671034  0.937031  1
  Co  Co7  1  0.460504  0.337685  0.075783  1
  Co  Co8  1  0.733153  0.104441  0.561794  1
  Si  Si9  1  0.783582  0.033316  0.248359  1
  Si  Si10  1  0.216038  0.966653  0.750939  1
  Si  Si11  1  0.767643  0.518103  0.749839  1
  Si  Si12  1  0.930280  0.089101  0.819042  1
  Si  Si13  1  0.066470  0.886482  0.152650  1
  Si  Si14  1  0.511077  0.260812  0.750712  1
  Si  Si15  1  0.488632  0.737337  0.251215  1
  Si  Si16  1  0.733351  0.414538  0.347699  1
  Si  Si17  1  0.270042  0.611159  0.678371  1
  Si  Si18  1  0.229864  0.479668  0.251001  1
  Os  Os19  1  0.996404  0.247248  0.249048  1
