# generated using pymatgen
data_Dy2P7Ru12
_symmetry_space_group_name_H-M   'P 1'
_cell_length_a   9.42318500
_cell_length_b   9.42318510
_cell_length_c   3.95954100
_cell_angle_alpha   90.00000000
_cell_angle_beta   90.00000000
_cell_angle_gamma   120.00000221
_symmetry_Int_Tables_number   1
_chemical_formula_structural   Dy2P7Ru12
_chemical_formula_sum   'Dy2 P7 Ru12'
_cell_volume   304.48850783
_cell_formula_units_Z   1
loop_
 _symmetry_equiv_pos_site_id
 _symmetry_equiv_pos_as_xyz
  1  'x, y, z'
loop_
 _atom_site_type_symbol
 _atom_site_label
 _atom_site_symmetry_multiplicity
 _atom_site_fract_x
 _atom_site_fract_y
 _atom_site_fract_z
 _atom_site_occupancy
  Dy  Dy0  1  0.666667  0.333333  0.000000  1
  Dy  Dy1  1  0.000000  0.000000  0.500000  1
  P  P2  1  0.450125  0.066402  0.500000  1
  P  P3  1  0.933598  0.383724  0.500000  1
  P  P4  1  0.616276  0.549875  0.500000  1
  P  P5  1  0.333333  0.666667  0.000000  1
  P  P6  1  0.757067  0.975563  0.000000  1
  P  P7  1  0.024437  0.781504  0.000000  1
  P  P8  1  0.218496  0.242933  0.000000  1
  Ru  Ru9  1  0.724954  0.109454  0.500000  1
  Ru  Ru10  1  0.890546  0.615500  0.500000  1
  Ru  Ru11  1  0.384500  0.275046  0.500000  1
  Ru  Ru12  1  0.758514  0.732246  0.000000  1
  Ru  Ru13  1  0.267754  0.026269  0.000000  1
  Ru  Ru14  1  0.973731  0.241486  0.000000  1
  Ru  Ru15  1  0.541966  0.753294  0.500000  1
  Ru  Ru16  1  0.246706  0.788672  0.500000  1
  Ru  Ru17  1  0.211328  0.458034  0.500000  1
  Ru  Ru18  1  0.496442  0.938475  0.000000  1
  Ru  Ru19  1  0.061525  0.557968  0.000000  1
  Ru  Ru20  1  0.442032  0.503558  0.000000  1
