# generated using pymatgen
data_Ca4Sc(MoO4)3
_symmetry_space_group_name_H-M   'P 1'
_cell_length_a   5.51473418
_cell_length_b   5.71660670
_cell_length_c   7.96691377
_cell_angle_alpha   89.66823606
_cell_angle_beta   89.79994833
_cell_angle_gamma   89.15078012
_symmetry_Int_Tables_number   1
_chemical_formula_structural   Ca4Sc(MoO4)3
_chemical_formula_sum   'Ca4 Sc1 Mo3 O12'
_cell_volume   251.12821468
_cell_formula_units_Z   1
loop_
 _symmetry_equiv_pos_site_id
 _symmetry_equiv_pos_as_xyz
  1  'x, y, z'
loop_
 _atom_site_type_symbol
 _atom_site_label
 _atom_site_symmetry_multiplicity
 _atom_site_fract_x
 _atom_site_fract_y
 _atom_site_fract_z
 _atom_site_occupancy
  Ca  Ca0  1  0.005232  0.047762  0.748845  1
  Ca  Ca1  1  0.517264  0.443160  0.252425  1
  Ca  Ca2  1  0.482736  0.556840  0.747575  1
  Ca  Ca3  1  0.994768  0.952238  0.251155  1
  Sc  Sc4  1  0.500000  0.000000  0.500000  1
  Mo  Mo5  1  0.500000  0.000000  0.000000  1
  Mo  Mo6  1  0.000000  0.500000  0.000000  1
  Mo  Mo7  1  0.000000  0.500000  0.500000  1
  O  O8  1  0.286656  0.306677  0.548358  1
  O  O9  1  0.807050  0.207952  0.449325  1
  O  O10  1  0.191958  0.793132  0.945052  1
  O  O11  1  0.699413  0.703287  0.055292  1
  O  O12  1  0.713344  0.693323  0.451642  1
  O  O13  1  0.192950  0.792048  0.550675  1
  O  O14  1  0.808042  0.206868  0.054948  1
  O  O15  1  0.300587  0.296713  0.944708  1
  O  O16  1  0.894202  0.458576  0.744726  1
  O  O17  1  0.407063  0.038988  0.246422  1
  O  O18  1  0.592937  0.961012  0.753578  1
  O  O19  1  0.105798  0.541424  0.255274  1
