# generated using pymatgen
data_Ba4LuIn(GaO5)2
_symmetry_space_group_name_H-M   'P 1'
_cell_length_a   6.01626982
_cell_length_b   6.22799875
_cell_length_c   9.07837492
_cell_angle_alpha   110.50135775
_cell_angle_beta   109.35084007
_cell_angle_gamma   90.00000419
_symmetry_Int_Tables_number   1
_chemical_formula_structural   Ba4LuIn(GaO5)2
_chemical_formula_sum   'Ba4 Lu1 In1 Ga2 O10'
_cell_volume   298.01349743
_cell_formula_units_Z   1
loop_
 _symmetry_equiv_pos_site_id
 _symmetry_equiv_pos_as_xyz
  1  'x, y, z'
loop_
 _atom_site_type_symbol
 _atom_site_label
 _atom_site_symmetry_multiplicity
 _atom_site_fract_x
 _atom_site_fract_y
 _atom_site_fract_z
 _atom_site_occupancy
  Ba  Ba0  1  0.129352  0.629344  0.236185  1
  Ba  Ba1  1  0.893167  0.370656  0.763815  1
  Ba  Ba2  1  0.392377  0.889399  0.763207  1
  Ba  Ba3  1  0.629170  0.110601  0.236793  1
  Lu  Lu4  1  0.007932  0.000000  0.000000  1
  In  In5  1  0.507697  0.500000  0.000000  1
  Ga  Ga6  1  0.264856  0.316676  0.496315  1
  Ga  Ga7  1  0.768540  0.683324  0.503685  1
  O  O8  1  0.250932  0.740970  0.980502  1
  O  O9  1  0.270429  0.259030  0.019498  1
  O  O10  1  0.769209  0.264453  0.019173  1
  O  O11  1  0.750036  0.735547  0.980827  1
  O  O12  1  0.643518  0.727263  0.303673  1
  O  O13  1  0.339845  0.272737  0.696327  1
  O  O14  1  0.855904  0.912365  0.715373  1
  O  O15  1  0.140531  0.087635  0.284627  1
  O  O16  1  0.048155  0.540824  0.498808  1
  O  O17  1  0.549347  0.459176  0.501192  1
