# generated using pymatgen
data_V2Co2SiP
_symmetry_space_group_name_H-M   'P 1'
_cell_length_a   3.51439100
_cell_length_b   5.92339402
_cell_length_c   6.77354602
_cell_angle_alpha   90.00893384
_cell_angle_beta   90.00000000
_cell_angle_gamma   90.00000000
_symmetry_Int_Tables_number   1
_chemical_formula_structural   V2Co2SiP
_chemical_formula_sum   'V4 Co4 Si2 P2'
_cell_volume   141.00573641
_cell_formula_units_Z   2
loop_
 _symmetry_equiv_pos_site_id
 _symmetry_equiv_pos_as_xyz
  1  'x, y, z'
loop_
 _atom_site_type_symbol
 _atom_site_label
 _atom_site_symmetry_multiplicity
 _atom_site_fract_x
 _atom_site_fract_y
 _atom_site_fract_z
 _atom_site_occupancy
  V  V0  1  0.250000  0.025335  0.173776  1
  V  V1  1  0.250000  0.525371  0.326120  1
  V  V2  1  0.750000  0.970612  0.831233  1
  V  V3  1  0.750000  0.470660  0.668826  1
  Co  Co4  1  0.250000  0.145209  0.554046  1
  Co  Co5  1  0.250000  0.645052  0.945933  1
  Co  Co6  1  0.750000  0.858735  0.433503  1
  Co  Co7  1  0.750000  0.358703  0.066440  1
  Si  Si8  1  0.250000  0.767623  0.626977  1
  Si  Si9  1  0.250000  0.267879  0.873182  1
  P  P10  1  0.750000  0.232472  0.374686  1
  P  P11  1  0.750000  0.732348  0.125281  1
