# generated using pymatgen
data_Tm4Lu16SnBi11
_symmetry_space_group_name_H-M   'P 1'
_cell_length_a   8.11336160
_cell_length_b   9.38551500
_cell_length_c   11.81709193
_cell_angle_alpha   90.00000000
_cell_angle_beta   89.82387670
_cell_angle_gamma   90.00000000
_symmetry_Int_Tables_number   1
_chemical_formula_structural   Tm4Lu16SnBi11
_chemical_formula_sum   'Tm4 Lu16 Sn1 Bi11'
_cell_volume   899.84457502
_cell_formula_units_Z   1
loop_
 _symmetry_equiv_pos_site_id
 _symmetry_equiv_pos_as_xyz
  1  'x, y, z'
loop_
 _atom_site_type_symbol
 _atom_site_label
 _atom_site_symmetry_multiplicity
 _atom_site_fract_x
 _atom_site_fract_y
 _atom_site_fract_z
 _atom_site_occupancy
  Tm  Tm0  1  0.190000  0.250000  0.779837  1
  Tm  Tm1  1  0.811644  0.750000  0.217699  1
  Tm  Tm2  1  0.311845  0.750000  0.281869  1
  Tm  Tm3  1  0.684615  0.250000  0.715884  1
  Lu  Lu4  1  0.030247  0.250000  0.510768  1
  Lu  Lu5  1  0.975886  0.750000  0.489344  1
  Lu  Lu6  1  0.475563  0.750000  0.010525  1
  Lu  Lu7  1  0.524616  0.250000  0.989492  1
  Lu  Lu8  1  0.355477  0.250000  0.285562  1
  Lu  Lu9  1  0.645067  0.750000  0.718000  1
  Lu  Lu10  1  0.145216  0.750000  0.782481  1
  Lu  Lu11  1  0.855641  0.250000  0.217390  1
  Lu  Lu12  1  0.193819  0.066727  0.060428  1
  Lu  Lu13  1  0.806122  0.933081  0.939842  1
  Lu  Lu14  1  0.306482  0.937641  0.560303  1
  Lu  Lu15  1  0.806122  0.566919  0.939842  1
  Lu  Lu16  1  0.690544  0.069219  0.440832  1
  Lu  Lu17  1  0.193819  0.433273  0.060428  1
  Lu  Lu18  1  0.690544  0.430781  0.440832  1
  Lu  Lu19  1  0.306482  0.562359  0.560303  1
  Sn  Sn20  1  0.406351  0.250000  0.541459  1
  Bi  Bi21  1  0.594437  0.750000  0.457765  1
  Bi  Bi22  1  0.094857  0.750000  0.042173  1
  Bi  Bi23  1  0.905394  0.250000  0.957256  1
  Bi  Bi24  1  0.065766  0.003437  0.325308  1
  Bi  Bi25  1  0.933803  0.996051  0.674302  1
  Bi  Bi26  1  0.433879  0.995767  0.826020  1
  Bi  Bi27  1  0.933803  0.503949  0.674302  1
  Bi  Bi28  1  0.566156  0.004245  0.174215  1
  Bi  Bi29  1  0.065766  0.496563  0.325308  1
  Bi  Bi30  1  0.566156  0.495755  0.174215  1
  Bi  Bi31  1  0.433879  0.504233  0.826020  1
