# generated using pymatgen
data_TbPr7Sc12Si15Os
_symmetry_space_group_name_H-M   'P 1'
_cell_length_a   7.23576602
_cell_length_b   7.58678514
_cell_length_c   14.18916844
_cell_angle_alpha   89.86721982
_cell_angle_beta   90.05912232
_cell_angle_gamma   90.12155632
_symmetry_Int_Tables_number   1
_chemical_formula_structural   TbPr7Sc12Si15Os
_chemical_formula_sum   'Tb1 Pr7 Sc12 Si15 Os1'
_cell_volume   778.92720298
_cell_formula_units_Z   1
loop_
 _symmetry_equiv_pos_site_id
 _symmetry_equiv_pos_as_xyz
  1  'x, y, z'
loop_
 _atom_site_type_symbol
 _atom_site_label
 _atom_site_symmetry_multiplicity
 _atom_site_fract_x
 _atom_site_fract_y
 _atom_site_fract_z
 _atom_site_occupancy
  Tb  Tb0  1  0.487458  0.676742  0.598333  1
  Pr  Pr1  1  0.011109  0.176376  0.096575  1
  Pr  Pr2  1  0.990673  0.828918  0.901733  1
  Pr  Pr3  1  0.488346  0.672446  0.904006  1
  Pr  Pr4  1  0.990853  0.828033  0.597087  1
  Pr  Pr5  1  0.510608  0.327206  0.095957  1
  Pr  Pr6  1  0.011968  0.176434  0.404216  1
  Pr  Pr7  1  0.510562  0.326568  0.405217  1
  Sc  Sc8  1  0.153733  0.489297  0.749349  1
  Sc  Sc9  1  0.840077  0.499137  0.250094  1
  Sc  Sc10  1  0.339490  0.001872  0.250206  1
  Sc  Sc11  1  0.668363  0.002466  0.749319  1
  Sc  Sc12  1  0.318386  0.172085  0.627989  1
  Sc  Sc13  1  0.671004  0.825354  0.373825  1
  Sc  Sc14  1  0.172465  0.677026  0.374246  1
  Sc  Sc15  1  0.671746  0.826644  0.126755  1
  Sc  Sc16  1  0.837168  0.318528  0.628156  1
  Sc  Sc17  1  0.318337  0.171396  0.870966  1
  Sc  Sc18  1  0.836781  0.318900  0.870830  1
  Sc  Sc19  1  0.171572  0.677402  0.126253  1
  Si  Si20  1  0.967931  0.876560  0.250204  1
  Si  Si21  1  0.468273  0.622031  0.250207  1
  Si  Si22  1  0.528893  0.385725  0.748252  1
  Si  Si23  1  0.290508  0.876602  0.748437  1
  Si  Si24  1  0.710774  0.120442  0.250243  1
  Si  Si25  1  0.211443  0.380022  0.250173  1
  Si  Si26  1  0.777620  0.619089  0.747874  1
  Si  Si27  1  0.158140  0.469927  0.538513  1
  Si  Si28  1  0.849496  0.538247  0.461947  1
  Si  Si29  1  0.351025  0.960012  0.460930  1
  Si  Si30  1  0.850224  0.538623  0.038843  1
  Si  Si31  1  0.649053  0.031677  0.539940  1
  Si  Si32  1  0.153317  0.467248  0.962463  1
  Si  Si33  1  0.650120  0.035857  0.961069  1
  Si  Si34  1  0.350391  0.963835  0.040187  1
  Os  Os35  1  0.032093  0.121271  0.749604  1
