# generated using pymatgen
data_NaPr(PAu)2
_symmetry_space_group_name_H-M   'P 1'
_cell_length_a   4.28797000
_cell_length_b   4.28796954
_cell_length_c   8.20579900
_cell_angle_alpha   90.00000000
_cell_angle_beta   90.00000000
_cell_angle_gamma   119.99998810
_symmetry_Int_Tables_number   1
_chemical_formula_structural   NaPr(PAu)2
_chemical_formula_sum   'Na1 Pr1 P2 Au2'
_cell_volume   130.66371106
_cell_formula_units_Z   1
loop_
 _symmetry_equiv_pos_site_id
 _symmetry_equiv_pos_as_xyz
  1  'x, y, z'
loop_
 _atom_site_type_symbol
 _atom_site_label
 _atom_site_symmetry_multiplicity
 _atom_site_fract_x
 _atom_site_fract_y
 _atom_site_fract_z
 _atom_site_occupancy
  Na  Na0  1  0.000000  0.000000  0.500000  1
  Pr  Pr1  1  0.000000  0.000000  0.000000  1
  P  P2  1  0.666667  0.333333  0.771748  1
  P  P3  1  0.333333  0.666667  0.228252  1
  Au  Au4  1  0.333333  0.666667  0.745384  1
  Au  Au5  1  0.666667  0.333333  0.254616  1
