# generated using pymatgen
data_HoTh3Al13Ga5Ir6
_symmetry_space_group_name_H-M   'P 1'
_cell_length_a   7.62246400
_cell_length_b   7.62925714
_cell_length_c   9.56826200
_cell_angle_alpha   90.00000000
_cell_angle_beta   90.00000000
_cell_angle_gamma   119.53273183
_symmetry_Int_Tables_number   1
_chemical_formula_structural   HoTh3Al13Ga5Ir6
_chemical_formula_sum   'Ho1 Th3 Al13 Ga5 Ir6'
_cell_volume   484.13558554
_cell_formula_units_Z   1
loop_
 _symmetry_equiv_pos_site_id
 _symmetry_equiv_pos_as_xyz
  1  'x, y, z'
loop_
 _atom_site_type_symbol
 _atom_site_label
 _atom_site_symmetry_multiplicity
 _atom_site_fract_x
 _atom_site_fract_y
 _atom_site_fract_z
 _atom_site_occupancy
  Ho  Ho0  1  0.329430  0.007110  0.750000  1
  Th  Th1  1  0.994640  0.670765  0.250000  1
  Th  Th2  1  0.000451  0.326830  0.750000  1
  Th  Th3  1  0.670047  0.995242  0.250000  1
  Al  Al4  1  0.006129  0.335775  0.073370  1
  Al  Al5  1  0.001039  0.669825  0.923477  1
  Al  Al6  1  0.001039  0.669825  0.576523  1
  Al  Al7  1  0.335073  0.004095  0.432720  1
  Al  Al8  1  0.006129  0.335775  0.426630  1
  Al  Al9  1  0.658988  0.994957  0.576229  1
  Al  Al10  1  0.658988  0.994957  0.923771  1
  Al  Al11  1  0.335073  0.004095  0.067280  1
  Al  Al12  1  0.336104  0.333099  0.556737  1
  Al  Al13  1  0.663456  0.663329  0.453597  1
  Al  Al14  1  0.663456  0.663329  0.046403  1
  Al  Al15  1  0.336104  0.333099  0.943263  1
  Al  Al16  1  0.452035  0.662511  0.750000  1
  Ga  Ga17  1  0.137102  0.134128  0.250000  1
  Ga  Ga18  1  0.869291  0.866092  0.750000  1
  Ga  Ga19  1  0.343102  0.544261  0.250000  1
  Ga  Ga20  1  0.655398  0.451066  0.750000  1
  Ga  Ga21  1  0.543616  0.339848  0.250000  1
  Ir  Ir22  1  0.674116  0.328475  0.000274  1
  Ir  Ir23  1  0.328263  0.670644  0.997802  1
  Ir  Ir24  1  0.328263  0.670644  0.502198  1
  Ir  Ir25  1  0.674116  0.328475  0.499726  1
  Ir  Ir26  1  0.999277  0.000874  0.000376  1
  Ir  Ir27  1  0.999277  0.000874  0.499624  1
