# generated using pymatgen
data_Lu8Hf12Si15Sb
_symmetry_space_group_name_H-M   'P 1'
_cell_length_a   7.27085036
_cell_length_b   7.24368585
_cell_length_c   13.27507025
_cell_angle_alpha   89.97773603
_cell_angle_beta   89.63446077
_cell_angle_gamma   90.18693372
_symmetry_Int_Tables_number   1
_chemical_formula_structural   Lu8Hf12Si15Sb
_chemical_formula_sum   'Lu8 Hf12 Si15 Sb1'
_cell_volume   699.15015088
_cell_formula_units_Z   1
loop_
 _symmetry_equiv_pos_site_id
 _symmetry_equiv_pos_as_xyz
  1  'x, y, z'
loop_
 _atom_site_type_symbol
 _atom_site_label
 _atom_site_symmetry_multiplicity
 _atom_site_fract_x
 _atom_site_fract_y
 _atom_site_fract_z
 _atom_site_occupancy
  Lu  Lu0  1  0.495496  0.153196  0.534655  1
  Lu  Lu1  1  0.498581  0.841457  0.033108  1
  Lu  Lu2  1  0.650663  0.002543  0.288357  1
  Lu  Lu3  1  0.344952  0.993406  0.782832  1
  Lu  Lu4  1  0.848403  0.512064  0.962625  1
  Lu  Lu5  1  0.153630  0.495276  0.466186  1
  Lu  Lu6  1  0.004301  0.653082  0.714555  1
  Lu  Lu7  1  0.005869  0.355553  0.221726  1
  Hf  Hf8  1  0.676377  0.324473  0.749471  1
  Hf  Hf9  1  0.325192  0.675208  0.250971  1
  Hf  Hf10  1  0.823850  0.824175  0.500166  1
  Hf  Hf11  1  0.182462  0.174682  0.998391  1
  Hf  Hf12  1  0.488408  0.359566  0.124316  1
  Hf  Hf13  1  0.502631  0.646022  0.624956  1
  Hf  Hf14  1  0.853183  0.002251  0.870485  1
  Hf  Hf15  1  0.147836  0.997353  0.375708  1
  Hf  Hf16  1  0.646947  0.503048  0.375511  1
  Hf  Hf17  1  0.351245  0.499099  0.873308  1
  Hf  Hf18  1  0.013277  0.840270  0.128119  1
  Hf  Hf19  1  0.997160  0.146519  0.624720  1
  Si  Si20  1  0.205089  0.858742  0.568479  1
  Si  Si21  1  0.641377  0.704597  0.817027  1
  Si  Si22  1  0.360300  0.295799  0.319395  1
  Si  Si23  1  0.858500  0.204412  0.431519  1
  Si  Si24  1  0.140279  0.797285  0.931191  1
  Si  Si25  1  0.703908  0.642244  0.181724  1
  Si  Si26  1  0.294851  0.358011  0.680588  1
  Si  Si27  1  0.539226  0.202547  0.928414  1
  Si  Si28  1  0.449809  0.796495  0.436610  1
  Si  Si29  1  0.701233  0.950468  0.684126  1
  Si  Si30  1  0.299080  0.049695  0.186020  1
  Si  Si31  1  0.797346  0.450262  0.564253  1
  Si  Si32  1  0.200568  0.546762  0.063182  1
  Si  Si33  1  0.949939  0.704337  0.317019  1
  Si  Si34  1  0.049211  0.298558  0.814240  1
  Sb  Sb35  1  0.798822  0.140542  0.076046  1
