# generated using pymatgen
data_Hf6Al16CoNi6
_symmetry_space_group_name_H-M   'P 1'
_cell_length_a   8.49503911
_cell_length_b   8.49503864
_cell_length_c   8.49504000
_cell_angle_alpha   60.00000250
_cell_angle_beta   60.00000434
_cell_angle_gamma   59.99999881
_symmetry_Int_Tables_number   1
_chemical_formula_structural   Hf6Al16CoNi6
_chemical_formula_sum   'Hf6 Al16 Co1 Ni6'
_cell_volume   433.49210318
_cell_formula_units_Z   1
loop_
 _symmetry_equiv_pos_site_id
 _symmetry_equiv_pos_as_xyz
  1  'x, y, z'
loop_
 _atom_site_type_symbol
 _atom_site_label
 _atom_site_symmetry_multiplicity
 _atom_site_fract_x
 _atom_site_fract_y
 _atom_site_fract_z
 _atom_site_occupancy
  Hf  Hf0  1  0.687762  0.687762  0.312238  1
  Hf  Hf1  1  0.312238  0.687762  0.312238  1
  Hf  Hf2  1  0.687762  0.312238  0.312238  1
  Hf  Hf3  1  0.312238  0.312238  0.687762  1
  Hf  Hf4  1  0.687762  0.312238  0.687762  1
  Hf  Hf5  1  0.312238  0.687762  0.687762  1
  Al  Al6  1  0.882006  0.882006  0.353981  1
  Al  Al7  1  0.882006  0.353981  0.882006  1
  Al  Al8  1  0.353981  0.882006  0.882006  1
  Al  Al9  1  0.882006  0.882006  0.882006  1
  Al  Al10  1  0.117994  0.117994  0.646019  1
  Al  Al11  1  0.117994  0.646019  0.117994  1
  Al  Al12  1  0.646019  0.117994  0.117994  1
  Al  Al13  1  0.117994  0.117994  0.117994  1
  Al  Al14  1  0.665987  0.665987  0.002039  1
  Al  Al15  1  0.665987  0.002039  0.665987  1
  Al  Al16  1  0.002039  0.665987  0.665987  1
  Al  Al17  1  0.665987  0.665987  0.665987  1
  Al  Al18  1  0.334013  0.334013  0.997961  1
  Al  Al19  1  0.334013  0.997961  0.334013  1
  Al  Al20  1  0.997961  0.334013  0.334013  1
  Al  Al21  1  0.334013  0.334013  0.334013  1
  Co  Co22  1  0.000000  0.000000  0.000000  1
  Ni  Ni23  1  0.000000  0.000000  0.500000  1
  Ni  Ni24  1  0.500000  0.000000  0.500000  1
  Ni  Ni25  1  0.000000  0.500000  0.500000  1
  Ni  Ni26  1  0.500000  0.500000  0.000000  1
  Ni  Ni27  1  0.000000  0.500000  0.000000  1
  Ni  Ni28  1  0.500000  0.000000  0.000000  1
