# generated using pymatgen
data_La5CoSb2
_symmetry_space_group_name_H-M   'P 1'
_cell_length_a   8.41043900
_cell_length_b   9.15424800
_cell_length_c   12.78231400
_cell_angle_alpha   90.00000000
_cell_angle_beta   90.00000000
_cell_angle_gamma   90.00000000
_symmetry_Int_Tables_number   1
_chemical_formula_structural   La5CoSb2
_chemical_formula_sum   'La20 Co4 Sb8'
_cell_volume   984.12626111
_cell_formula_units_Z   4
loop_
 _symmetry_equiv_pos_site_id
 _symmetry_equiv_pos_as_xyz
  1  'x, y, z'
loop_
 _atom_site_type_symbol
 _atom_site_label
 _atom_site_symmetry_multiplicity
 _atom_site_fract_x
 _atom_site_fract_y
 _atom_site_fract_z
 _atom_site_occupancy
  La  La0  1  0.149529  0.750000  0.201071  1
  La  La1  1  0.649529  0.250000  0.298929  1
  La  La2  1  0.850471  0.250000  0.798929  1
  La  La3  1  0.350471  0.750000  0.701071  1
  La  La4  1  0.448293  0.750000  0.995156  1
  La  La5  1  0.948293  0.250000  0.504844  1
  La  La6  1  0.551707  0.250000  0.004844  1
  La  La7  1  0.051707  0.750000  0.495156  1
  La  La8  1  0.623606  0.750000  0.306736  1
  La  La9  1  0.123606  0.250000  0.193264  1
  La  La10  1  0.376394  0.250000  0.693264  1
  La  La11  1  0.876394  0.750000  0.806736  1
  La  La12  1  0.817780  0.965962  0.063222  1
  La  La13  1  0.317780  0.034038  0.436778  1
  La  La14  1  0.182220  0.465962  0.936778  1
  La  La15  1  0.682220  0.534038  0.563222  1
  La  La16  1  0.182220  0.034038  0.936778  1
  La  La17  1  0.682220  0.965962  0.563222  1
  La  La18  1  0.817780  0.534038  0.063222  1
  La  La19  1  0.317780  0.465962  0.436778  1
  Co  Co20  1  0.424207  0.750000  0.490116  1
  Co  Co21  1  0.924207  0.250000  0.009884  1
  Co  Co22  1  0.575793  0.250000  0.509884  1
  Co  Co23  1  0.075793  0.750000  0.990116  1
  Sb  Sb24  1  0.926325  0.995123  0.326268  1
  Sb  Sb25  1  0.426325  0.004877  0.173732  1
  Sb  Sb26  1  0.073675  0.495123  0.673732  1
  Sb  Sb27  1  0.573675  0.504877  0.826268  1
  Sb  Sb28  1  0.073675  0.004877  0.673732  1
  Sb  Sb29  1  0.573675  0.995123  0.826268  1
  Sb  Sb30  1  0.926325  0.504877  0.326268  1
  Sb  Sb31  1  0.426325  0.495123  0.173732  1
