# generated using pymatgen
data_Ho13Tm7(Bi2Pt)4
_symmetry_space_group_name_H-M   'P 1'
_cell_length_a   8.00664579
_cell_length_b   9.00256370
_cell_length_c   12.39491704
_cell_angle_alpha   89.98833616
_cell_angle_beta   90.02840273
_cell_angle_gamma   90.01285209
_symmetry_Int_Tables_number   1
_chemical_formula_structural   Ho13Tm7(Bi2Pt)4
_chemical_formula_sum   'Ho13 Tm7 Bi8 Pt4'
_cell_volume   893.42966785
_cell_formula_units_Z   1
loop_
 _symmetry_equiv_pos_site_id
 _symmetry_equiv_pos_as_xyz
  1  'x, y, z'
loop_
 _atom_site_type_symbol
 _atom_site_label
 _atom_site_symmetry_multiplicity
 _atom_site_fract_x
 _atom_site_fract_y
 _atom_site_fract_z
 _atom_site_occupancy
  Ho  Ho0  1  0.340298  0.750070  0.709932  1
  Ho  Ho1  1  0.660293  0.250009  0.289824  1
  Ho  Ho2  1  0.839632  0.250301  0.789871  1
  Ho  Ho3  1  0.159976  0.750031  0.210258  1
  Ho  Ho4  1  0.872763  0.749691  0.801813  1
  Ho  Ho5  1  0.126802  0.250428  0.198111  1
  Ho  Ho6  1  0.372628  0.249972  0.697510  1
  Ho  Ho7  1  0.626863  0.750184  0.302033  1
  Ho  Ho8  1  0.178944  0.045532  0.933584  1
  Ho  Ho9  1  0.051747  0.750030  0.500663  1
  Ho  Ho10  1  0.948408  0.250077  0.499464  1
  Ho  Ho11  1  0.552042  0.250489  0.999534  1
  Ho  Ho12  1  0.448998  0.749375  0.000786  1
  Tm  Tm13  1  0.676805  0.546055  0.566093  1
  Tm  Tm14  1  0.323038  0.453775  0.433708  1
  Tm  Tm15  1  0.176791  0.453656  0.933791  1
  Tm  Tm16  1  0.322997  0.046252  0.433724  1
  Tm  Tm17  1  0.823159  0.546237  0.066484  1
  Tm  Tm18  1  0.676919  0.954062  0.565994  1
  Tm  Tm19  1  0.822903  0.954055  0.066288  1
  Bi  Bi20  1  0.569127  0.509398  0.827801  1
  Bi  Bi21  1  0.430597  0.490637  0.172337  1
  Bi  Bi22  1  0.069273  0.490668  0.672084  1
  Bi  Bi23  1  0.430315  0.009505  0.171956  1
  Bi  Bi24  1  0.930434  0.509658  0.328244  1
  Bi  Bi25  1  0.570202  0.990490  0.827845  1
  Bi  Bi26  1  0.930586  0.990589  0.328040  1
  Bi  Bi27  1  0.069017  0.009320  0.671943  1
  Pt  Pt28  1  0.072598  0.749008  0.989230  1
  Pt  Pt29  1  0.925678  0.250472  0.011240  1
  Pt  Pt30  1  0.573332  0.249969  0.510794  1
  Pt  Pt31  1  0.426835  0.750004  0.489024  1
