# generated using pymatgen
data_Ti9(BeP2)2
_symmetry_space_group_name_H-M   'P 1'
_cell_length_a   11.11964200
_cell_length_b   11.11964200
_cell_length_c   3.39112500
_cell_angle_alpha   90.00000000
_cell_angle_beta   90.00000000
_cell_angle_gamma   90.00000000
_symmetry_Int_Tables_number   1
_chemical_formula_structural   Ti9(BeP2)2
_chemical_formula_sum   'Ti18 Be4 P8'
_cell_volume   419.30052777
_cell_formula_units_Z   2
loop_
 _symmetry_equiv_pos_site_id
 _symmetry_equiv_pos_as_xyz
  1  'x, y, z'
loop_
 _atom_site_type_symbol
 _atom_site_label
 _atom_site_symmetry_multiplicity
 _atom_site_fract_x
 _atom_site_fract_y
 _atom_site_fract_z
 _atom_site_occupancy
  Ti  Ti0  1  0.000000  0.000000  0.000000  1
  Ti  Ti1  1  0.500000  0.500000  0.000000  1
  Ti  Ti2  1  0.106391  0.182006  0.500000  1
  Ti  Ti3  1  0.182006  0.893609  0.500000  1
  Ti  Ti4  1  0.817994  0.106391  0.500000  1
  Ti  Ti5  1  0.893609  0.817994  0.500000  1
  Ti  Ti6  1  0.393609  0.682006  0.500000  1
  Ti  Ti7  1  0.606391  0.317994  0.500000  1
  Ti  Ti8  1  0.682006  0.606391  0.500000  1
  Ti  Ti9  1  0.317994  0.393609  0.500000  1
  Ti  Ti10  1  0.097110  0.402890  0.000000  1
  Ti  Ti11  1  0.402890  0.902890  0.000000  1
  Ti  Ti12  1  0.597110  0.097110  0.000000  1
  Ti  Ti13  1  0.902890  0.597110  0.000000  1
  Ti  Ti14  1  0.384908  0.115092  0.500000  1
  Ti  Ti15  1  0.115092  0.615092  0.500000  1
  Ti  Ti16  1  0.884908  0.384908  0.500000  1
  Ti  Ti17  1  0.615092  0.884908  0.500000  1
  Be  Be18  1  0.257543  0.242457  0.000000  1
  Be  Be19  1  0.242457  0.742457  0.000000  1
  Be  Be20  1  0.757543  0.257543  0.000000  1
  Be  Be21  1  0.742457  0.757543  0.000000  1
  P  P22  1  0.224922  0.053520  0.000000  1
  P  P23  1  0.053520  0.775078  0.000000  1
  P  P24  1  0.946480  0.224922  0.000000  1
  P  P25  1  0.775078  0.946480  0.000000  1
  P  P26  1  0.275078  0.553520  0.000000  1
  P  P27  1  0.724922  0.446480  0.000000  1
  P  P28  1  0.553520  0.724922  0.000000  1
  P  P29  1  0.446480  0.275078  0.000000  1
