# generated using pymatgen
data_GdNbN2
_symmetry_space_group_name_H-M   'P 1'
_cell_length_a   3.31496700
_cell_length_b   5.73077200
_cell_length_c   11.01453800
_cell_angle_alpha   90.00000000
_cell_angle_beta   90.00000000
_cell_angle_gamma   90.00000000
_symmetry_Int_Tables_number   1
_chemical_formula_structural   GdNbN2
_chemical_formula_sum   'Gd4 Nb4 N8'
_cell_volume   209.24670375
_cell_formula_units_Z   4
loop_
 _symmetry_equiv_pos_site_id
 _symmetry_equiv_pos_as_xyz
  1  'x, y, z'
loop_
 _atom_site_type_symbol
 _atom_site_label
 _atom_site_symmetry_multiplicity
 _atom_site_fract_x
 _atom_site_fract_y
 _atom_site_fract_z
 _atom_site_occupancy
  Gd  Gd0  1  0.250000  0.585299  0.861053  1
  Gd  Gd1  1  0.750000  0.414701  0.138947  1
  Gd  Gd2  1  0.750000  0.914701  0.361053  1
  Gd  Gd3  1  0.250000  0.085299  0.638947  1
  Nb  Nb4  1  0.250000  0.915839  0.108080  1
  Nb  Nb5  1  0.750000  0.084161  0.891920  1
  Nb  Nb6  1  0.750000  0.584161  0.608080  1
  Nb  Nb7  1  0.250000  0.415839  0.391920  1
  N  N8  1  0.250000  0.661001  0.245440  1
  N  N9  1  0.750000  0.338999  0.754560  1
  N  N10  1  0.750000  0.838999  0.745440  1
  N  N11  1  0.250000  0.161001  0.254560  1
  N  N12  1  0.250000  0.741545  0.508515  1
  N  N13  1  0.750000  0.258455  0.491485  1
  N  N14  1  0.750000  0.758455  0.008515  1
  N  N15  1  0.250000  0.241545  0.991485  1
