# generated using pymatgen
data_Hf4TaNb(Si2W)2
_symmetry_space_group_name_H-M   'P 1'
_cell_length_a   3.55751700
_cell_length_b   6.96400312
_cell_length_c   8.34664015
_cell_angle_alpha   89.97830343
_cell_angle_beta   90.00000000
_cell_angle_gamma   90.00000000
_symmetry_Int_Tables_number   1
_chemical_formula_structural   Hf4TaNb(Si2W)2
_chemical_formula_sum   'Hf4 Ta1 Nb1 Si4 W2'
_cell_volume   206.78431822
_cell_formula_units_Z   1
loop_
 _symmetry_equiv_pos_site_id
 _symmetry_equiv_pos_as_xyz
  1  'x, y, z'
loop_
 _atom_site_type_symbol
 _atom_site_label
 _atom_site_symmetry_multiplicity
 _atom_site_fract_x
 _atom_site_fract_y
 _atom_site_fract_z
 _atom_site_occupancy
  Hf  Hf0  1  0.250000  0.541998  0.165557  1
  Hf  Hf1  1  0.250000  0.042195  0.334289  1
  Hf  Hf2  1  0.750000  0.460178  0.832115  1
  Hf  Hf3  1  0.750000  0.960124  0.667889  1
  Ta  Ta4  1  0.250000  0.133203  0.940250  1
  Nb  Nb5  1  0.250000  0.633386  0.559705  1
  Si  Si6  1  0.250000  0.756321  0.862722  1
  Si  Si7  1  0.250000  0.256171  0.637306  1
  Si  Si8  1  0.750000  0.242935  0.143916  1
  Si  Si9  1  0.750000  0.742857  0.356214  1
  W  W10  1  0.750000  0.365222  0.438879  1
  W  W11  1  0.750000  0.865410  0.061158  1
