# generated using pymatgen
data_Hf2V3Si4
_symmetry_space_group_name_H-M   'P 1'
_cell_length_a   6.45057200
_cell_length_b   6.60739200
_cell_length_c   12.52563800
_cell_angle_alpha   90.00000000
_cell_angle_beta   90.00000000
_cell_angle_gamma   90.00000000
_symmetry_Int_Tables_number   1
_chemical_formula_structural   Hf2V3Si4
_chemical_formula_sum   'Hf8 V12 Si16'
_cell_volume   533.86095179
_cell_formula_units_Z   4
loop_
 _symmetry_equiv_pos_site_id
 _symmetry_equiv_pos_as_xyz
  1  'x, y, z'
loop_
 _atom_site_type_symbol
 _atom_site_label
 _atom_site_symmetry_multiplicity
 _atom_site_fract_x
 _atom_site_fract_y
 _atom_site_fract_z
 _atom_site_occupancy
  Hf  Hf0  1  0.994806  0.170506  0.094127  1
  Hf  Hf1  1  0.005194  0.829494  0.905873  1
  Hf  Hf2  1  0.505194  0.670506  0.905873  1
  Hf  Hf3  1  0.005194  0.829494  0.594127  1
  Hf  Hf4  1  0.494806  0.329494  0.094127  1
  Hf  Hf5  1  0.994806  0.170506  0.405873  1
  Hf  Hf6  1  0.494806  0.329494  0.405873  1
  Hf  Hf7  1  0.505194  0.670506  0.594127  1
  V  V8  1  0.164041  0.494580  0.750000  1
  V  V9  1  0.835959  0.505420  0.250000  1
  V  V10  1  0.335959  0.994580  0.250000  1
  V  V11  1  0.664041  0.005420  0.750000  1
  V  V12  1  0.335548  0.168035  0.624058  1
  V  V13  1  0.664452  0.831965  0.375942  1
  V  V14  1  0.164452  0.668035  0.375942  1
  V  V15  1  0.664452  0.831965  0.124058  1
  V  V16  1  0.835548  0.331965  0.624058  1
  V  V17  1  0.335548  0.168035  0.875942  1
  V  V18  1  0.835548  0.331965  0.875942  1
  V  V19  1  0.164452  0.668035  0.124058  1
  Si  Si20  1  0.036197  0.126526  0.750000  1
  Si  Si21  1  0.963803  0.873474  0.250000  1
  Si  Si22  1  0.463803  0.626526  0.250000  1
  Si  Si23  1  0.536197  0.373474  0.750000  1
  Si  Si24  1  0.301722  0.867082  0.750000  1
  Si  Si25  1  0.698278  0.132918  0.250000  1
  Si  Si26  1  0.198278  0.367082  0.250000  1
  Si  Si27  1  0.801722  0.632918  0.750000  1
  Si  Si28  1  0.168502  0.457766  0.541068  1
  Si  Si29  1  0.831498  0.542234  0.458932  1
  Si  Si30  1  0.331498  0.957766  0.458932  1
  Si  Si31  1  0.831498  0.542234  0.041068  1
  Si  Si32  1  0.668502  0.042234  0.541068  1
  Si  Si33  1  0.168502  0.457766  0.958932  1
  Si  Si34  1  0.668502  0.042234  0.958932  1
  Si  Si35  1  0.331498  0.957766  0.041068  1
