# generated using pymatgen
data_Ho6Tm6ZnGaCo4
_symmetry_space_group_name_H-M   'P 1'
_cell_length_a   8.17622692
_cell_length_b   8.17622747
_cell_length_c   8.17630621
_cell_angle_alpha   111.95391821
_cell_angle_beta   109.68398530
_cell_angle_gamma   106.81607305
_symmetry_Int_Tables_number   1
_chemical_formula_structural   Ho6Tm6ZnGaCo4
_chemical_formula_sum   'Ho6 Tm6 Zn1 Ga1 Co4'
_cell_volume   419.92169469
_cell_formula_units_Z   1
loop_
 _symmetry_equiv_pos_site_id
 _symmetry_equiv_pos_as_xyz
  1  'x, y, z'
loop_
 _atom_site_type_symbol
 _atom_site_label
 _atom_site_symmetry_multiplicity
 _atom_site_fract_x
 _atom_site_fract_y
 _atom_site_fract_z
 _atom_site_occupancy
  Ho  Ho0  1  0.434589  0.236659  0.196359  1
  Ho  Ho1  1  0.565411  0.763341  0.803641  1
  Ho  Ho2  1  0.040301  0.238231  0.803641  1
  Ho  Ho3  1  0.959699  0.761769  0.196359  1
  Ho  Ho4  1  0.179960  0.280320  0.460280  1
  Ho  Ho5  1  0.820040  0.719680  0.539720  1
  Tm  Tm6  1  0.180710  0.720167  0.900876  1
  Tm  Tm7  1  0.819290  0.279833  0.099124  1
  Tm  Tm8  1  0.325867  0.636486  0.309270  1
  Tm  Tm9  1  0.674133  0.363514  0.690730  1
  Tm  Tm10  1  0.327214  0.016597  0.690730  1
  Tm  Tm11  1  0.672786  0.983403  0.309270  1
  Zn  Zn12  1  0.000000  0.000000  0.000000  1
  Ga  Ga13  1  0.500000  0.500000  0.000000  1
  Co  Co14  1  0.341253  0.999662  0.340915  1
  Co  Co15  1  0.658747  0.000338  0.659085  1
  Co  Co16  1  0.116081  0.616081  0.500000  1
  Co  Co17  1  0.883919  0.383919  0.500000  1
