# generated using pymatgen
data_Dy2B8IrOs
_symmetry_space_group_name_H-M   'P 1'
_cell_length_a   3.57049400
_cell_length_b   5.96752998
_cell_length_c   11.56940774
_cell_angle_alpha   89.88567153
_cell_angle_beta   90.00000000
_cell_angle_gamma   90.00000000
_symmetry_Int_Tables_number   1
_chemical_formula_structural   Dy2B8IrOs
_chemical_formula_sum   'Dy4 B16 Ir2 Os2'
_cell_volume   246.50922688
_cell_formula_units_Z   2
loop_
 _symmetry_equiv_pos_site_id
 _symmetry_equiv_pos_as_xyz
  1  'x, y, z'
loop_
 _atom_site_type_symbol
 _atom_site_label
 _atom_site_symmetry_multiplicity
 _atom_site_fract_x
 _atom_site_fract_y
 _atom_site_fract_z
 _atom_site_occupancy
  Dy  Dy0  1  0.000000  0.629359  0.351428  1
  Dy  Dy1  1  0.000000  0.370641  0.648572  1
  Dy  Dy2  1  0.000000  0.129600  0.150214  1
  Dy  Dy3  1  0.000000  0.870400  0.849786  1
  B  B4  1  0.500000  0.789680  0.187492  1
  B  B5  1  0.500000  0.210320  0.812508  1
  B  B6  1  0.500000  0.288593  0.313568  1
  B  B7  1  0.500000  0.711407  0.686432  1
  B  B8  1  0.500000  0.863224  0.030006  1
  B  B9  1  0.500000  0.136776  0.969994  1
  B  B10  1  0.500000  0.363422  0.469758  1
  B  B11  1  0.500000  0.636578  0.530242  1
  B  B12  1  0.500000  0.887640  0.453725  1
  B  B13  1  0.500000  0.112360  0.546275  1
  B  B14  1  0.500000  0.387599  0.047072  1
  B  B15  1  0.500000  0.612401  0.952928  1
  B  B16  1  0.500000  0.974090  0.308662  1
  B  B17  1  0.500000  0.025910  0.691338  1
  B  B18  1  0.500000  0.475200  0.192398  1
  B  B19  1  0.500000  0.524800  0.807602  1
  Ir  Ir20  1  0.000000  0.644298  0.096449  1
  Ir  Ir21  1  0.000000  0.355702  0.903551  1
  Os  Os22  1  0.000000  0.141350  0.406381  1
  Os  Os23  1  0.000000  0.858650  0.593619  1
