# generated using pymatgen
data_Hf3Fe(BIr2)2
_symmetry_space_group_name_H-M   'P 1'
_cell_length_a   9.26320500
_cell_length_b   9.26320500
_cell_length_c   3.28562200
_cell_angle_alpha   90.00000000
_cell_angle_beta   90.00000000
_cell_angle_gamma   90.00000000
_symmetry_Int_Tables_number   1
_chemical_formula_structural   Hf3Fe(BIr2)2
_chemical_formula_sum   'Hf6 Fe2 B4 Ir8'
_cell_volume   281.92925811
_cell_formula_units_Z   2
loop_
 _symmetry_equiv_pos_site_id
 _symmetry_equiv_pos_as_xyz
  1  'x, y, z'
loop_
 _atom_site_type_symbol
 _atom_site_label
 _atom_site_symmetry_multiplicity
 _atom_site_fract_x
 _atom_site_fract_y
 _atom_site_fract_z
 _atom_site_occupancy
  Hf  Hf0  1  0.172026  0.672026  0.000000  1
  Hf  Hf1  1  0.327974  0.172026  0.000000  1
  Hf  Hf2  1  0.827974  0.327974  0.000000  1
  Hf  Hf3  1  0.500000  0.500000  0.000000  1
  Hf  Hf4  1  0.672026  0.827974  0.000000  1
  Hf  Hf5  1  0.000000  0.000000  0.000000  1
  Fe  Fe6  1  0.000000  0.500000  0.500000  1
  Fe  Fe7  1  0.500000  0.000000  0.500000  1
  B  B8  1  0.389193  0.889193  0.000000  1
  B  B9  1  0.110807  0.389193  0.000000  1
  B  B10  1  0.889193  0.610807  0.000000  1
  B  B11  1  0.610807  0.110807  0.000000  1
  Ir  Ir12  1  0.226122  0.932348  0.500000  1
  Ir  Ir13  1  0.932348  0.773878  0.500000  1
  Ir  Ir14  1  0.432348  0.726122  0.500000  1
  Ir  Ir15  1  0.567652  0.273878  0.500000  1
  Ir  Ir16  1  0.726122  0.567652  0.500000  1
  Ir  Ir17  1  0.273878  0.432348  0.500000  1
  Ir  Ir18  1  0.067652  0.226122  0.500000  1
  Ir  Ir19  1  0.773878  0.067652  0.500000  1
