# generated using pymatgen
data_YEr2ZnCd3Au2
_symmetry_space_group_name_H-M   'P 1'
_cell_length_a   7.82998100
_cell_length_b   7.86167130
_cell_length_c   3.77811800
_cell_angle_alpha   90.00000000
_cell_angle_beta   90.00000000
_cell_angle_gamma   119.86674114
_symmetry_Int_Tables_number   1
_chemical_formula_structural   YEr2ZnCd3Au2
_chemical_formula_sum   'Y1 Er2 Zn1 Cd3 Au2'
_cell_volume   201.68023908
_cell_formula_units_Z   1
loop_
 _symmetry_equiv_pos_site_id
 _symmetry_equiv_pos_as_xyz
  1  'x, y, z'
loop_
 _atom_site_type_symbol
 _atom_site_label
 _atom_site_symmetry_multiplicity
 _atom_site_fract_x
 _atom_site_fract_y
 _atom_site_fract_z
 _atom_site_occupancy
  Y  Y0  1  0.591094  0.000000  0.000000  1
  Er  Er1  1  0.999834  0.590373  0.000000  1
  Er  Er2  1  0.409461  0.409627  0.000000  1
  Zn  Zn3  1  0.000450  0.000000  0.000000  1
  Cd  Cd4  1  0.256488  0.000000  0.500000  1
  Cd  Cd5  1  0.000944  0.257908  0.500000  1
  Cd  Cd6  1  0.743036  0.742092  0.500000  1
  Au  Au7  1  0.331340  0.663989  0.500000  1
  Au  Au8  1  0.667353  0.336011  0.500000  1
