# generated using pymatgen
data_Ca5YSi24Ir3Ru5
_symmetry_space_group_name_H-M   'P 1'
_cell_length_a   10.14774669
_cell_length_b   10.14774622
_cell_length_c   8.17902803
_cell_angle_alpha   90.00566121
_cell_angle_beta   90.00565388
_cell_angle_gamma   132.47433796
_symmetry_Int_Tables_number   1
_chemical_formula_structural   Ca5YSi24Ir3Ru5
_chemical_formula_sum   'Ca5 Y1 Si24 Ir3 Ru5'
_cell_volume   621.22645718
_cell_formula_units_Z   1
loop_
 _symmetry_equiv_pos_site_id
 _symmetry_equiv_pos_as_xyz
  1  'x, y, z'
loop_
 _atom_site_type_symbol
 _atom_site_label
 _atom_site_symmetry_multiplicity
 _atom_site_fract_x
 _atom_site_fract_y
 _atom_site_fract_z
 _atom_site_occupancy
  Ca  Ca0  1  0.999738  0.000262  0.000000  1
  Ca  Ca1  1  0.002410  0.501872  0.250029  1
  Ca  Ca2  1  0.498128  0.997590  0.749971  1
  Ca  Ca3  1  0.998471  0.497883  0.749435  1
  Ca  Ca4  1  0.502117  0.001529  0.250565  1
  Y  Y5  1  0.499211  0.500789  0.500000  1
  Si  Si6  1  0.295450  0.704550  0.000000  1
  Si  Si7  1  0.795134  0.204866  0.500000  1
  Si  Si8  1  0.705661  0.294339  0.000000  1
  Si  Si9  1  0.206776  0.793224  0.500000  1
  Si  Si10  1  0.832810  0.835388  0.331840  1
  Si  Si11  1  0.164612  0.167190  0.668160  1
  Si  Si12  1  0.667953  0.668716  0.833977  1
  Si  Si13  1  0.331284  0.332047  0.166023  1
  Si  Si14  1  0.620217  0.387284  0.224658  1
  Si  Si15  1  0.612716  0.379783  0.775342  1
  Si  Si16  1  0.110850  0.879028  0.725762  1
  Si  Si17  1  0.120972  0.889150  0.274238  1
  Si  Si18  1  0.376672  0.609633  0.771293  1
  Si  Si19  1  0.390367  0.623328  0.228707  1
  Si  Si20  1  0.887554  0.120068  0.275016  1
  Si  Si21  1  0.879932  0.112446  0.724984  1
  Si  Si22  1  0.841943  0.610435  0.002142  1
  Si  Si23  1  0.389565  0.158057  0.997858  1
  Si  Si24  1  0.892018  0.659911  0.503838  1
  Si  Si25  1  0.340089  0.107982  0.496162  1
  Si  Si26  1  0.159056  0.390327  0.995999  1
  Si  Si27  1  0.609673  0.840944  0.004001  1
  Si  Si28  1  0.111820  0.344662  0.496634  1
  Si  Si29  1  0.655338  0.888180  0.503366  1
  Ir  Ir30  1  0.168603  0.831397  0.000000  1
  Ir  Ir31  1  0.667462  0.332538  0.500000  1
  Ir  Ir32  1  0.831907  0.168093  0.000000  1
  Ru  Ru33  1  0.331949  0.668051  0.500000  1
  Ru  Ru34  1  0.625299  0.623888  0.127667  1
  Ru  Ru35  1  0.376112  0.374701  0.872333  1
  Ru  Ru36  1  0.872583  0.872453  0.624719  1
  Ru  Ru37  1  0.127547  0.127417  0.375281  1
