# generated using pymatgen
data_Tm2Mn2Ga2C
_symmetry_space_group_name_H-M   'P 1'
_cell_length_a   5.58163359
_cell_length_b   5.58163327
_cell_length_c   7.14163061
_cell_angle_alpha   121.85298328
_cell_angle_beta   121.85299334
_cell_angle_gamma   37.44045834
_symmetry_Int_Tables_number   1
_chemical_formula_structural   Tm2Mn2Ga2C
_chemical_formula_sum   'Tm2 Mn2 Ga2 C1'
_cell_volume   112.31745486
_cell_formula_units_Z   1
loop_
 _symmetry_equiv_pos_site_id
 _symmetry_equiv_pos_as_xyz
  1  'x, y, z'
loop_
 _atom_site_type_symbol
 _atom_site_label
 _atom_site_symmetry_multiplicity
 _atom_site_fract_x
 _atom_site_fract_y
 _atom_site_fract_z
 _atom_site_occupancy
  Tm  Tm0  1  0.565248  0.565248  0.277836  1
  Tm  Tm1  1  0.434753  0.434753  0.722165  1
  Mn  Mn2  1  0.196045  0.196045  0.059853  1
  Mn  Mn3  1  0.803956  0.803956  0.940148  1
  Ga  Ga4  1  0.858671  0.858671  0.330980  1
  Ga  Ga5  1  0.141329  0.141329  0.669020  1
  C  C6  1  0.000000  0.000000  0.000000  1
