# generated using pymatgen
data_Pr16MgCd(AgIr2)2
_symmetry_space_group_name_H-M   'P 1'
_cell_length_a   9.99570172
_cell_length_b   10.02142399
_cell_length_c   10.02327600
_cell_angle_alpha   59.99388651
_cell_angle_beta   59.90870378
_cell_angle_gamma   60.12102741
_symmetry_Int_Tables_number   1
_chemical_formula_structural   Pr16MgCd(AgIr2)2
_chemical_formula_sum   'Pr16 Mg1 Cd1 Ag2 Ir4'
_cell_volume   710.08755586
_cell_formula_units_Z   1
loop_
 _symmetry_equiv_pos_site_id
 _symmetry_equiv_pos_as_xyz
  1  'x, y, z'
loop_
 _atom_site_type_symbol
 _atom_site_label
 _atom_site_symmetry_multiplicity
 _atom_site_fract_x
 _atom_site_fract_y
 _atom_site_fract_z
 _atom_site_occupancy
  Pr  Pr0  1  0.348002  0.347348  0.347433  1
  Pr  Pr1  1  0.348002  0.347348  0.957219  1
  Pr  Pr2  1  0.347365  0.956721  0.347957  1
  Pr  Pr3  1  0.951261  0.348689  0.350025  1
  Pr  Pr4  1  0.807763  0.191691  0.192096  1
  Pr  Pr5  1  0.188287  0.810432  0.811461  1
  Pr  Pr6  1  0.188287  0.810432  0.189821  1
  Pr  Pr7  1  0.807763  0.191691  0.808451  1
  Pr  Pr8  1  0.190888  0.190382  0.809365  1
  Pr  Pr9  1  0.804854  0.805862  0.194642  1
  Pr  Pr10  1  0.936295  0.561614  0.562669  1
  Pr  Pr11  1  0.560412  0.936950  0.940202  1
  Pr  Pr12  1  0.560412  0.936950  0.562435  1
  Pr  Pr13  1  0.936295  0.561614  0.939421  1
  Pr  Pr14  1  0.560399  0.561164  0.939218  1
  Pr  Pr15  1  0.937121  0.937945  0.562467  1
  Mg  Mg16  1  0.285830  0.575076  0.569547  1
  Cd  Cd17  1  0.580949  0.262723  0.578164  1
  Ag  Ag18  1  0.580374  0.582988  0.583748  1
  Ag  Ag19  1  0.580374  0.582988  0.252889  1
  Ir  Ir20  1  0.141255  0.141617  0.141131  1
  Ir  Ir21  1  0.141255  0.141617  0.575996  1
  Ir  Ir22  1  0.140426  0.575252  0.142161  1
  Ir  Ir23  1  0.576133  0.140904  0.141481  1
