# generated using pymatgen
data_Ba5Lu2MnAl2O13
_symmetry_space_group_name_H-M   'P 1'
_cell_length_a   5.88120400
_cell_length_b   5.88120481
_cell_length_c   24.58150100
_cell_angle_alpha   90.00000000
_cell_angle_beta   90.00000000
_cell_angle_gamma   119.99999546
_symmetry_Int_Tables_number   1
_chemical_formula_structural   Ba5Lu2MnAl2O13
_chemical_formula_sum   'Ba10 Lu4 Mn2 Al4 O26'
_cell_volume   736.32847777
_cell_formula_units_Z   2
loop_
 _symmetry_equiv_pos_site_id
 _symmetry_equiv_pos_as_xyz
  1  'x, y, z'
loop_
 _atom_site_type_symbol
 _atom_site_label
 _atom_site_symmetry_multiplicity
 _atom_site_fract_x
 _atom_site_fract_y
 _atom_site_fract_z
 _atom_site_occupancy
  Ba  Ba0  1  0.333333  0.666667  0.541472  1
  Ba  Ba1  1  0.666667  0.333333  0.458528  1
  Ba  Ba2  1  0.666667  0.333333  0.041472  1
  Ba  Ba3  1  0.333333  0.666667  0.958528  1
  Ba  Ba4  1  0.000000  0.000000  0.135721  1
  Ba  Ba5  1  0.000000  0.000000  0.864279  1
  Ba  Ba6  1  0.000000  0.000000  0.635721  1
  Ba  Ba7  1  0.000000  0.000000  0.364279  1
  Ba  Ba8  1  0.333333  0.666667  0.250000  1
  Ba  Ba9  1  0.666667  0.333333  0.750000  1
  Lu  Lu10  1  0.333333  0.666667  0.099855  1
  Lu  Lu11  1  0.666667  0.333333  0.900145  1
  Lu  Lu12  1  0.666667  0.333333  0.599855  1
  Lu  Lu13  1  0.333333  0.666667  0.400145  1
  Mn  Mn14  1  0.000000  0.000000  0.000000  1
  Mn  Mn15  1  0.000000  0.000000  0.500000  1
  Al  Al16  1  0.333333  0.666667  0.679128  1
  Al  Al17  1  0.666667  0.333333  0.320872  1
  Al  Al18  1  0.666667  0.333333  0.179128  1
  Al  Al19  1  0.333333  0.666667  0.820872  1
  O  O20  1  0.502566  0.005132  0.155491  1
  O  O21  1  0.497434  0.994868  0.844509  1
  O  O22  1  0.994868  0.497434  0.155491  1
  O  O23  1  0.497434  0.994868  0.655491  1
  O  O24  1  0.005132  0.502566  0.844509  1
  O  O25  1  0.502566  0.005132  0.344509  1
  O  O26  1  0.502566  0.497434  0.155491  1
  O  O27  1  0.005132  0.502566  0.655491  1
  O  O28  1  0.497434  0.502566  0.844509  1
  O  O29  1  0.994868  0.497434  0.344509  1
  O  O30  1  0.497434  0.502566  0.655491  1
  O  O31  1  0.502566  0.497434  0.344509  1
  O  O32  1  0.157094  0.314189  0.047366  1
  O  O33  1  0.842906  0.685811  0.952634  1
  O  O34  1  0.685811  0.842906  0.047366  1
  O  O35  1  0.842906  0.685811  0.547366  1
  O  O36  1  0.314189  0.157094  0.952634  1
  O  O37  1  0.157094  0.314189  0.452634  1
  O  O38  1  0.157094  0.842906  0.047366  1
  O  O39  1  0.314189  0.157094  0.547366  1
  O  O40  1  0.842906  0.157094  0.952634  1
  O  O41  1  0.685811  0.842906  0.452634  1
  O  O42  1  0.842906  0.157094  0.547366  1
  O  O43  1  0.157094  0.842906  0.452634  1
  O  O44  1  0.333333  0.666667  0.750000  1
  O  O45  1  0.666667  0.333333  0.250000  1
