# generated using pymatgen
data_Ho3TmB16(RuRh)2
_symmetry_space_group_name_H-M   'P 1'
_cell_length_a   3.55017300
_cell_length_b   5.94394486
_cell_length_c   11.51308427
_cell_angle_alpha   90.04374697
_cell_angle_beta   90.00000000
_cell_angle_gamma   90.00000000
_symmetry_Int_Tables_number   1
_chemical_formula_structural   Ho3TmB16(RuRh)2
_chemical_formula_sum   'Ho3 Tm1 B16 Ru2 Rh2'
_cell_volume   242.94940812
_cell_formula_units_Z   1
loop_
 _symmetry_equiv_pos_site_id
 _symmetry_equiv_pos_as_xyz
  1  'x, y, z'
loop_
 _atom_site_type_symbol
 _atom_site_label
 _atom_site_symmetry_multiplicity
 _atom_site_fract_x
 _atom_site_fract_y
 _atom_site_fract_z
 _atom_site_occupancy
  Ho  Ho0  1  0.000000  0.369802  0.351846  1
  Ho  Ho1  1  0.000000  0.130442  0.849750  1
  Ho  Ho2  1  0.000000  0.869519  0.150153  1
  Tm  Tm3  1  0.000000  0.630272  0.648156  1
  B  B4  1  0.500000  0.974337  0.691929  1
  B  B5  1  0.500000  0.024810  0.308241  1
  B  B6  1  0.500000  0.478486  0.805602  1
  B  B7  1  0.500000  0.521918  0.193791  1
  B  B8  1  0.500000  0.788781  0.811625  1
  B  B9  1  0.500000  0.211040  0.187812  1
  B  B10  1  0.500000  0.290743  0.686019  1
  B  B11  1  0.500000  0.710529  0.314005  1
  B  B12  1  0.500000  0.863276  0.970609  1
  B  B13  1  0.500000  0.136568  0.029124  1
  B  B14  1  0.500000  0.364375  0.530636  1
  B  B15  1  0.500000  0.635676  0.470250  1
  B  B16  1  0.500000  0.887173  0.547016  1
  B  B17  1  0.500000  0.111855  0.453789  1
  B  B18  1  0.500000  0.387629  0.952101  1
  B  B19  1  0.500000  0.612540  0.047508  1
  Ru  Ru20  1  0.000000  0.141583  0.593017  1
  Ru  Ru21  1  0.000000  0.858492  0.407816  1
  Rh  Rh22  1  0.000000  0.641943  0.904538  1
  Rh  Rh23  1  0.000000  0.358211  0.094666  1
