# generated using pymatgen
data_Tb4Er8InCo4Ir
_symmetry_space_group_name_H-M   'P 1'
_cell_length_a   8.23534358
_cell_length_b   8.23534324
_cell_length_c   8.23534411
_cell_angle_alpha   111.13923626
_cell_angle_beta   110.86533858
_cell_angle_gamma   106.45078043
_symmetry_Int_Tables_number   1
_chemical_formula_structural   Tb4Er8InCo4Ir
_chemical_formula_sum   'Tb4 Er8 In1 Co4 Ir1'
_cell_volume   429.06255613
_cell_formula_units_Z   1
loop_
 _symmetry_equiv_pos_site_id
 _symmetry_equiv_pos_as_xyz
  1  'x, y, z'
loop_
 _atom_site_type_symbol
 _atom_site_label
 _atom_site_symmetry_multiplicity
 _atom_site_fract_x
 _atom_site_fract_y
 _atom_site_fract_z
 _atom_site_occupancy
  Tb  Tb0  1  0.184914  0.285208  0.470122  1
  Tb  Tb1  1  0.815086  0.714792  0.529878  1
  Tb  Tb2  1  0.184914  0.714792  0.899706  1
  Tb  Tb3  1  0.815086  0.285208  0.100294  1
  Er  Er4  1  0.315506  0.621775  0.306269  1
  Er  Er5  1  0.684494  0.378225  0.693731  1
  Er  Er6  1  0.315506  0.009236  0.693731  1
  Er  Er7  1  0.684494  0.990764  0.306269  1
  Er  Er8  1  0.411774  0.217686  0.194088  1
  Er  Er9  1  0.588226  0.782314  0.805912  1
  Er  Er10  1  0.023599  0.217686  0.805912  1
  Er  Er11  1  0.976401  0.782314  0.194088  1
  In  In12  1  0.500000  0.500000  0.000000  1
  Co  Co13  1  0.112513  0.612513  0.500000  1
  Co  Co14  1  0.887487  0.387487  0.500000  1
  Co  Co15  1  0.377386  0.000000  0.377386  1
  Co  Co16  1  0.622614  0.000000  0.622614  1
  Ir  Ir17  1  0.000000  0.000000  0.000000  1
