# generated using pymatgen
data_Tb3Th(ScPt)4
_symmetry_space_group_name_H-M   'P 1'
_cell_length_a   4.65565600
_cell_length_b   7.02742891
_cell_length_c   8.49884920
_cell_angle_alpha   89.06965404
_cell_angle_beta   90.00000000
_cell_angle_gamma   90.00000000
_symmetry_Int_Tables_number   1
_chemical_formula_structural   Tb3Th(ScPt)4
_chemical_formula_sum   'Tb3 Th1 Sc4 Pt4'
_cell_volume   278.02267153
_cell_formula_units_Z   1
loop_
 _symmetry_equiv_pos_site_id
 _symmetry_equiv_pos_as_xyz
  1  'x, y, z'
loop_
 _atom_site_type_symbol
 _atom_site_label
 _atom_site_symmetry_multiplicity
 _atom_site_fract_x
 _atom_site_fract_y
 _atom_site_fract_z
 _atom_site_occupancy
  Tb  Tb0  1  0.250000  0.981167  0.324494  1
  Tb  Tb1  1  0.750000  0.016127  0.674833  1
  Tb  Tb2  1  0.250000  0.482870  0.180537  1
  Th  Th3  1  0.750000  0.516728  0.823666  1
  Sc  Sc4  1  0.750000  0.639583  0.422349  1
  Sc  Sc5  1  0.250000  0.355798  0.566681  1
  Sc  Sc6  1  0.750000  0.140866  0.078859  1
  Sc  Sc7  1  0.250000  0.867176  0.927831  1
  Pt  Pt8  1  0.250000  0.248840  0.905481  1
  Pt  Pt9  1  0.750000  0.755395  0.094420  1
  Pt  Pt10  1  0.250000  0.740286  0.598830  1
  Pt  Pt11  1  0.750000  0.255164  0.402021  1
