# generated using pymatgen
data_Ho4CrB16Ir3
_symmetry_space_group_name_H-M   'P 1'
_cell_length_a   3.53305000
_cell_length_b   5.95866814
_cell_length_c   11.55864106
_cell_angle_alpha   89.75120220
_cell_angle_beta   90.00000000
_cell_angle_gamma   90.00000000
_symmetry_Int_Tables_number   1
_chemical_formula_structural   Ho4CrB16Ir3
_chemical_formula_sum   'Ho4 Cr1 B16 Ir3'
_cell_volume   243.33336683
_cell_formula_units_Z   1
loop_
 _symmetry_equiv_pos_site_id
 _symmetry_equiv_pos_as_xyz
  1  'x, y, z'
loop_
 _atom_site_type_symbol
 _atom_site_label
 _atom_site_symmetry_multiplicity
 _atom_site_fract_x
 _atom_site_fract_y
 _atom_site_fract_z
 _atom_site_occupancy
  Ho  Ho0  1  0.000000  0.627590  0.352567  1
  Ho  Ho1  1  0.000000  0.373060  0.650030  1
  Ho  Ho2  1  0.000000  0.130262  0.147904  1
  Ho  Ho3  1  0.000000  0.870340  0.848285  1
  Cr  Cr4  1  0.000000  0.864571  0.590654  1
  B  B5  1  0.500000  0.790206  0.188077  1
  B  B6  1  0.500000  0.211256  0.811532  1
  B  B7  1  0.500000  0.289107  0.313943  1
  B  B8  1  0.500000  0.713433  0.685501  1
  B  B9  1  0.500000  0.863914  0.030164  1
  B  B10  1  0.500000  0.135609  0.968998  1
  B  B11  1  0.500000  0.364744  0.469724  1
  B  B12  1  0.500000  0.636323  0.531656  1
  B  B13  1  0.500000  0.886043  0.454423  1
  B  B14  1  0.500000  0.112764  0.547002  1
  B  B15  1  0.500000  0.386934  0.046721  1
  B  B16  1  0.500000  0.613352  0.952249  1
  B  B17  1  0.500000  0.971382  0.308696  1
  B  B18  1  0.500000  0.024601  0.691112  1
  B  B19  1  0.500000  0.471208  0.192924  1
  B  B20  1  0.500000  0.526609  0.806707  1
  Ir  Ir21  1  0.000000  0.644379  0.097544  1
  Ir  Ir22  1  0.000000  0.357795  0.905453  1
  Ir  Ir23  1  0.000000  0.134519  0.408134  1
