# generated using pymatgen
data_La11Cd9Pd4
_symmetry_space_group_name_H-M   'P 1'
_cell_length_a   13.70388533
_cell_length_b   13.70388609
_cell_length_c   3.91274100
_cell_angle_alpha   90.00000000
_cell_angle_beta   90.00000000
_cell_angle_gamma   112.75303106
_symmetry_Int_Tables_number   1
_chemical_formula_structural   La11Cd9Pd4
_chemical_formula_sum   'La11 Cd9 Pd4'
_cell_volume   677.61731963
_cell_formula_units_Z   1
loop_
 _symmetry_equiv_pos_site_id
 _symmetry_equiv_pos_as_xyz
  1  'x, y, z'
loop_
 _atom_site_type_symbol
 _atom_site_label
 _atom_site_symmetry_multiplicity
 _atom_site_fract_x
 _atom_site_fract_y
 _atom_site_fract_z
 _atom_site_occupancy
  La  La0  1  0.415885  0.073705  0.000000  1
  La  La1  1  0.584115  0.926295  0.000000  1
  La  La2  1  0.073705  0.415885  0.000000  1
  La  La3  1  0.926295  0.584115  0.000000  1
  La  La4  1  0.162759  0.837241  0.000000  1
  La  La5  1  0.837241  0.162759  0.000000  1
  La  La6  1  0.371380  0.628620  0.000000  1
  La  La7  1  0.628620  0.371380  0.000000  1
  La  La8  1  0.306523  0.306523  0.000000  1
  La  La9  1  0.693477  0.693477  0.000000  1
  La  La10  1  0.000000  0.000000  0.000000  1
  Cd  Cd11  1  0.364865  0.841307  0.500000  1
  Cd  Cd12  1  0.635135  0.158693  0.500000  1
  Cd  Cd13  1  0.841307  0.364865  0.500000  1
  Cd  Cd14  1  0.158693  0.635135  0.500000  1
  Cd  Cd15  1  0.214360  0.070386  0.500000  1
  Cd  Cd16  1  0.785640  0.929614  0.500000  1
  Cd  Cd17  1  0.070386  0.214360  0.500000  1
  Cd  Cd18  1  0.929614  0.785640  0.500000  1
  Cd  Cd19  1  0.500000  0.500000  0.500000  1
  Pd  Pd20  1  0.451091  0.250222  0.500000  1
  Pd  Pd21  1  0.548909  0.749778  0.500000  1
  Pd  Pd22  1  0.250222  0.451091  0.500000  1
  Pd  Pd23  1  0.749778  0.548909  0.500000  1
