# generated using pymatgen
data_Ba3(AlS3)2
_symmetry_space_group_name_H-M   'P 1'
_cell_length_a   8.59583942
_cell_length_b   8.59583887
_cell_length_c   9.20009258
_cell_angle_alpha   89.05787105
_cell_angle_beta   89.05786663
_cell_angle_gamma   115.83965350
_symmetry_Int_Tables_number   1
_chemical_formula_structural   Ba3(AlS3)2
_chemical_formula_sum   'Ba6 Al4 S12'
_cell_volume   611.52104245
_cell_formula_units_Z   2
loop_
 _symmetry_equiv_pos_site_id
 _symmetry_equiv_pos_as_xyz
  1  'x, y, z'
loop_
 _atom_site_type_symbol
 _atom_site_label
 _atom_site_symmetry_multiplicity
 _atom_site_fract_x
 _atom_site_fract_y
 _atom_site_fract_z
 _atom_site_occupancy
  Ba  Ba0  1  0.035314  0.964686  0.750000  1
  Ba  Ba1  1  0.964686  0.035314  0.250000  1
  Ba  Ba2  1  0.265087  0.539237  0.509383  1
  Ba  Ba3  1  0.460763  0.734913  0.990617  1
  Ba  Ba4  1  0.734913  0.460763  0.490617  1
  Ba  Ba5  1  0.539237  0.265087  0.009383  1
  Al  Al6  1  0.981237  0.651355  0.066224  1
  Al  Al7  1  0.348645  0.018763  0.433776  1
  Al  Al8  1  0.018763  0.348645  0.933776  1
  Al  Al9  1  0.651355  0.981237  0.566224  1
  S  S10  1  0.531172  0.915916  0.337130  1
  S  S11  1  0.084084  0.468828  0.162870  1
  S  S12  1  0.468828  0.084084  0.662870  1
  S  S13  1  0.915916  0.531172  0.837130  1
  S  S14  1  0.266114  0.368333  0.834810  1
  S  S15  1  0.631667  0.733886  0.665190  1
  S  S16  1  0.733886  0.631667  0.165190  1
  S  S17  1  0.368333  0.266114  0.334810  1
  S  S18  1  0.199871  0.914971  0.041302  1
  S  S19  1  0.085029  0.800129  0.458698  1
  S  S20  1  0.914971  0.199871  0.541302  1
  S  S21  1  0.800129  0.085029  0.958698  1
