# generated using pymatgen
data_TbCo3B4Os
_symmetry_space_group_name_H-M   'P 1'
_cell_length_a   7.24043562
_cell_length_b   7.01679280
_cell_length_c   3.86631200
_cell_angle_alpha   90.00000000
_cell_angle_beta   90.00000000
_cell_angle_gamma   91.01558424
_symmetry_Int_Tables_number   1
_chemical_formula_structural   TbCo3B4Os
_chemical_formula_sum   'Tb2 Co6 B8 Os2'
_cell_volume   196.39571949
_cell_formula_units_Z   2
loop_
 _symmetry_equiv_pos_site_id
 _symmetry_equiv_pos_as_xyz
  1  'x, y, z'
loop_
 _atom_site_type_symbol
 _atom_site_label
 _atom_site_symmetry_multiplicity
 _atom_site_fract_x
 _atom_site_fract_y
 _atom_site_fract_z
 _atom_site_occupancy
  Tb  Tb0  1  0.000000  0.000000  0.941408  1
  Tb  Tb1  1  0.500000  0.500000  0.412784  1
  Co  Co2  1  0.336815  0.885528  0.399917  1
  Co  Co3  1  0.663185  0.114472  0.399917  1
  Co  Co4  1  0.115491  0.371625  0.620600  1
  Co  Co5  1  0.884509  0.628375  0.620600  1
  Co  Co6  1  0.126521  0.622601  0.120672  1
  Co  Co7  1  0.873479  0.377399  0.120672  1
  B  B8  1  0.815801  0.658061  0.117745  1
  B  B9  1  0.184199  0.341939  0.117745  1
  B  B10  1  0.837667  0.312927  0.616336  1
  B  B11  1  0.162333  0.687073  0.616336  1
  B  B12  1  0.727591  0.829798  0.401076  1
  B  B13  1  0.272409  0.170202  0.401076  1
  B  B14  1  0.669044  0.214519  0.901220  1
  B  B15  1  0.330956  0.785481  0.901220  1
  Os  Os16  1  0.386181  0.148379  0.895337  1
  Os  Os17  1  0.613819  0.851621  0.895337  1
