# generated using pymatgen
data_Na8HfAs4
_symmetry_space_group_name_H-M   'P 1'
_cell_length_a   9.89849600
_cell_length_b   9.89849569
_cell_length_c   9.89849600
_cell_angle_alpha   59.99999898
_cell_angle_beta   60.00000001
_cell_angle_gamma   60.00000283
_symmetry_Int_Tables_number   1
_chemical_formula_structural   Na8HfAs4
_chemical_formula_sum   'Na16 Hf2 As8'
_cell_volume   685.79234110
_cell_formula_units_Z   2
loop_
 _symmetry_equiv_pos_site_id
 _symmetry_equiv_pos_as_xyz
  1  'x, y, z'
loop_
 _atom_site_type_symbol
 _atom_site_label
 _atom_site_symmetry_multiplicity
 _atom_site_fract_x
 _atom_site_fract_y
 _atom_site_fract_z
 _atom_site_occupancy
  Na  Na0  1  0.625000  0.625000  0.125000  1
  Na  Na1  1  0.625000  0.125000  0.625000  1
  Na  Na2  1  0.125000  0.625000  0.625000  1
  Na  Na3  1  0.625000  0.625000  0.625000  1
  Na  Na4  1  0.029606  0.470394  0.470394  1
  Na  Na5  1  0.779606  0.220394  0.220394  1
  Na  Na6  1  0.470394  0.029606  0.470394  1
  Na  Na7  1  0.470394  0.470394  0.029606  1
  Na  Na8  1  0.029606  0.029606  0.470394  1
  Na  Na9  1  0.029606  0.470394  0.029606  1
  Na  Na10  1  0.470394  0.029606  0.029606  1
  Na  Na11  1  0.779606  0.220394  0.779606  1
  Na  Na12  1  0.220394  0.779606  0.220394  1
  Na  Na13  1  0.220394  0.220394  0.779606  1
  Na  Na14  1  0.779606  0.779606  0.220394  1
  Na  Na15  1  0.220394  0.779606  0.779606  1
  Hf  Hf16  1  0.750000  0.750000  0.750000  1
  Hf  Hf17  1  0.500000  0.500000  0.500000  1
  As  As18  1  0.857695  0.857695  0.426917  1
  As  As19  1  0.857695  0.426917  0.857695  1
  As  As20  1  0.392305  0.392305  0.823083  1
  As  As21  1  0.392305  0.823083  0.392305  1
  As  As22  1  0.823083  0.392305  0.392305  1
  As  As23  1  0.857695  0.857695  0.857695  1
  As  As24  1  0.426917  0.857695  0.857695  1
  As  As25  1  0.392305  0.392305  0.392305  1
