# generated using pymatgen
data_Tl3InPd3RuO14
_symmetry_space_group_name_H-M   'P 1'
_cell_length_a   7.23570135
_cell_length_b   7.23570055
_cell_length_c   7.28565627
_cell_angle_alpha   60.22654892
_cell_angle_beta   60.22655645
_cell_angle_gamma   59.99999145
_symmetry_Int_Tables_number   1
_chemical_formula_structural   Tl3InPd3RuO14
_chemical_formula_sum   'Tl3 In1 Pd3 Ru1 O14'
_cell_volume   270.64099784
_cell_formula_units_Z   1
loop_
 _symmetry_equiv_pos_site_id
 _symmetry_equiv_pos_as_xyz
  1  'x, y, z'
loop_
 _atom_site_type_symbol
 _atom_site_label
 _atom_site_symmetry_multiplicity
 _atom_site_fract_x
 _atom_site_fract_y
 _atom_site_fract_z
 _atom_site_occupancy
  Tl  Tl0  1  0.125000  0.125000  0.125000  1
  Tl  Tl1  1  0.625000  0.125000  0.125000  1
  Tl  Tl2  1  0.125000  0.625000  0.125000  1
  In  In3  1  0.125000  0.125000  0.625000  1
  Pd  Pd4  1  0.625000  0.625000  0.625000  1
  Pd  Pd5  1  0.125000  0.625000  0.625000  1
  Pd  Pd6  1  0.625000  0.125000  0.625000  1
  Ru  Ru7  1  0.625000  0.625000  0.125000  1
  O  O8  1  0.298503  0.704566  0.292365  1
  O  O9  1  0.286046  0.286046  0.711399  1
  O  O10  1  0.545434  0.951497  0.957635  1
  O  O11  1  0.533493  0.963954  0.538601  1
  O  O12  1  0.545434  0.545434  0.957635  1
  O  O13  1  0.286046  0.716507  0.711399  1
  O  O14  1  0.951497  0.545434  0.957635  1
  O  O15  1  0.704566  0.298503  0.292365  1
  O  O16  1  0.716507  0.286046  0.711399  1
  O  O17  1  0.704566  0.704566  0.292365  1
  O  O18  1  0.245967  0.245967  0.262102  1
  O  O19  1  0.963954  0.963954  0.538601  1
  O  O20  1  0.963954  0.533493  0.538601  1
  O  O21  1  0.004033  0.004033  0.987898  1
