# generated using pymatgen
data_Hf6MgTi3Al12Pd7
_symmetry_space_group_name_H-M   'P 1'
_cell_length_a   8.82607511
_cell_length_b   8.82607538
_cell_length_c   8.84428937
_cell_angle_alpha   60.06810012
_cell_angle_beta   60.06810154
_cell_angle_gamma   59.99999445
_symmetry_Int_Tables_number   1
_chemical_formula_structural   Hf6MgTi3Al12Pd7
_chemical_formula_sum   'Hf6 Mg1 Ti3 Al12 Pd7'
_cell_volume   487.67382972
_cell_formula_units_Z   1
loop_
 _symmetry_equiv_pos_site_id
 _symmetry_equiv_pos_as_xyz
  1  'x, y, z'
loop_
 _atom_site_type_symbol
 _atom_site_label
 _atom_site_symmetry_multiplicity
 _atom_site_fract_x
 _atom_site_fract_y
 _atom_site_fract_z
 _atom_site_occupancy
  Hf  Hf0  1  0.680890  0.680890  0.318863  1
  Hf  Hf1  1  0.319358  0.680890  0.318863  1
  Hf  Hf2  1  0.680890  0.319358  0.318863  1
  Hf  Hf3  1  0.315295  0.315295  0.685869  1
  Hf  Hf4  1  0.683541  0.315295  0.685869  1
  Hf  Hf5  1  0.315295  0.683541  0.685869  1
  Mg  Mg6  1  0.883666  0.883666  0.349003  1
  Ti  Ti7  1  0.879364  0.359865  0.881407  1
  Ti  Ti8  1  0.359865  0.879364  0.881407  1
  Ti  Ti9  1  0.879364  0.879364  0.881407  1
  Al  Al10  1  0.121004  0.121004  0.636987  1
  Al  Al11  1  0.120203  0.641295  0.118300  1
  Al  Al12  1  0.641295  0.120203  0.118300  1
  Al  Al13  1  0.120203  0.120203  0.118300  1
  Al  Al14  1  0.664154  0.664154  0.007540  1
  Al  Al15  1  0.665415  0.004295  0.664876  1
  Al  Al16  1  0.004295  0.665415  0.664876  1
  Al  Al17  1  0.665415  0.665415  0.664876  1
  Al  Al18  1  0.334767  0.334767  0.995699  1
  Al  Al19  1  0.335099  0.994812  0.334990  1
  Al  Al20  1  0.994812  0.335099  0.334990  1
  Al  Al21  1  0.335099  0.335099  0.334990  1
  Pd  Pd22  1  0.005762  0.005762  0.982713  1
  Pd  Pd23  1  0.000308  0.000308  0.504413  1
  Pd  Pd24  1  0.494972  0.000308  0.504413  1
  Pd  Pd25  1  0.000308  0.494972  0.504413  1
  Pd  Pd26  1  0.500202  0.500202  0.000637  1
  Pd  Pd27  1  0.998959  0.500202  0.000637  1
  Pd  Pd28  1  0.500202  0.998959  0.000637  1
