# generated using pymatgen
data_Ce2Ho2TmSn4
_symmetry_space_group_name_H-M   'P 1'
_cell_length_a   8.06445500
_cell_length_b   8.21864100
_cell_length_c   15.52896000
_cell_angle_alpha   90.00000000
_cell_angle_beta   90.00000000
_cell_angle_gamma   90.00000000
_symmetry_Int_Tables_number   1
_chemical_formula_structural   Ce2Ho2TmSn4
_chemical_formula_sum   'Ce8 Ho8 Tm4 Sn16'
_cell_volume   1029.24177364
_cell_formula_units_Z   4
loop_
 _symmetry_equiv_pos_site_id
 _symmetry_equiv_pos_as_xyz
  1  'x, y, z'
loop_
 _atom_site_type_symbol
 _atom_site_label
 _atom_site_symmetry_multiplicity
 _atom_site_fract_x
 _atom_site_fract_y
 _atom_site_fract_z
 _atom_site_occupancy
  Ce  Ce0  1  0.515517  0.320839  0.903632  1
  Ce  Ce1  1  0.015517  0.179161  0.596368  1
  Ce  Ce2  1  0.484483  0.679161  0.403632  1
  Ce  Ce3  1  0.984483  0.820839  0.096368  1
  Ce  Ce4  1  0.484483  0.679161  0.096368  1
  Ce  Ce5  1  0.984483  0.820839  0.403632  1
  Ce  Ce6  1  0.515517  0.320839  0.596368  1
  Ce  Ce7  1  0.015517  0.179161  0.903632  1
  Ho  Ho8  1  0.361336  0.836859  0.877000  1
  Ho  Ho9  1  0.861336  0.663141  0.623000  1
  Ho  Ho10  1  0.638664  0.163141  0.377000  1
  Ho  Ho11  1  0.138664  0.336859  0.123000  1
  Ho  Ho12  1  0.638664  0.163141  0.123000  1
  Ho  Ho13  1  0.138664  0.336859  0.377000  1
  Ho  Ho14  1  0.361336  0.836859  0.623000  1
  Ho  Ho15  1  0.861336  0.663141  0.877000  1
  Tm  Tm16  1  0.193354  0.500503  0.750000  1
  Tm  Tm17  1  0.693354  0.999497  0.750000  1
  Tm  Tm18  1  0.806646  0.499497  0.250000  1
  Tm  Tm19  1  0.306646  0.000503  0.250000  1
  Sn  Sn20  1  0.300395  0.038829  0.042345  1
  Sn  Sn21  1  0.800395  0.461171  0.457655  1
  Sn  Sn22  1  0.699605  0.961171  0.542345  1
  Sn  Sn23  1  0.199605  0.538829  0.957655  1
  Sn  Sn24  1  0.699605  0.961171  0.957655  1
  Sn  Sn25  1  0.199605  0.538829  0.542345  1
  Sn  Sn26  1  0.300395  0.038829  0.457655  1
  Sn  Sn27  1  0.800395  0.461171  0.042345  1
  Sn  Sn28  1  0.558229  0.622257  0.750000  1
  Sn  Sn29  1  0.058229  0.877743  0.750000  1
  Sn  Sn30  1  0.441771  0.377743  0.250000  1
  Sn  Sn31  1  0.941771  0.122257  0.250000  1
  Sn  Sn32  1  0.325284  0.143244  0.750000  1
  Sn  Sn33  1  0.825284  0.356756  0.750000  1
  Sn  Sn34  1  0.674716  0.856756  0.250000  1
  Sn  Sn35  1  0.174716  0.643244  0.250000  1
