# generated using pymatgen
data_TbHoEr2(ZnSi)4
_symmetry_space_group_name_H-M   'P 1'
_cell_length_a   4.15318500
_cell_length_b   4.15318586
_cell_length_c   15.54053300
_cell_angle_alpha   90.00000000
_cell_angle_beta   90.00000000
_cell_angle_gamma   119.99998517
_symmetry_Int_Tables_number   1
_chemical_formula_structural   TbHoEr2(ZnSi)4
_chemical_formula_sum   'Tb1 Ho1 Er2 Zn4 Si4'
_cell_volume   232.14495511
_cell_formula_units_Z   1
loop_
 _symmetry_equiv_pos_site_id
 _symmetry_equiv_pos_as_xyz
  1  'x, y, z'
loop_
 _atom_site_type_symbol
 _atom_site_label
 _atom_site_symmetry_multiplicity
 _atom_site_fract_x
 _atom_site_fract_y
 _atom_site_fract_z
 _atom_site_occupancy
  Tb  Tb0  1  0.000000  0.000000  0.500000  1
  Ho  Ho1  1  0.000000  0.000000  0.000000  1
  Er  Er2  1  0.000000  0.000000  0.249205  1
  Er  Er3  1  0.000000  0.000000  0.750795  1
  Zn  Zn4  1  0.333333  0.666667  0.140497  1
  Zn  Zn5  1  0.666667  0.333333  0.859503  1
  Zn  Zn6  1  0.666667  0.333333  0.642279  1
  Zn  Zn7  1  0.333333  0.666667  0.357721  1
  Si  Si8  1  0.333333  0.666667  0.619364  1
  Si  Si9  1  0.666667  0.333333  0.380636  1
  Si  Si10  1  0.666667  0.333333  0.117525  1
  Si  Si11  1  0.333333  0.666667  0.882475  1
