# generated using pymatgen
data_Mn6In5GeRh12
_symmetry_space_group_name_H-M   'P 1'
_cell_length_a   4.43551302
_cell_length_b   6.26826103
_cell_length_c   13.26967603
_cell_angle_alpha   90.00259624
_cell_angle_beta   90.00204184
_cell_angle_gamma   89.98933015
_symmetry_Int_Tables_number   1
_chemical_formula_structural   Mn6In5GeRh12
_chemical_formula_sum   'Mn6 In5 Ge1 Rh12'
_cell_volume   368.93617731
_cell_formula_units_Z   1
loop_
 _symmetry_equiv_pos_site_id
 _symmetry_equiv_pos_as_xyz
  1  'x, y, z'
loop_
 _atom_site_type_symbol
 _atom_site_label
 _atom_site_symmetry_multiplicity
 _atom_site_fract_x
 _atom_site_fract_y
 _atom_site_fract_z
 _atom_site_occupancy
  Mn  Mn0  1  0.999854  0.000098  0.001736  1
  Mn  Mn1  1  0.500023  0.500137  0.163610  1
  Mn  Mn2  1  0.999688  0.999904  0.333347  1
  Mn  Mn3  1  0.499486  0.500295  0.503098  1
  Mn  Mn4  1  0.999856  0.999872  0.664926  1
  Mn  Mn5  1  0.500234  0.499886  0.833411  1
  In  In6  1  0.999883  0.499681  0.996699  1
  In  In7  1  0.499939  0.000310  0.164984  1
  In  In8  1  0.000776  0.499775  0.333418  1
  In  In9  1  0.500266  0.999664  0.501591  1
  In  In10  1  0.000382  0.500342  0.669653  1
  Ge  Ge11  1  0.500015  0.999916  0.833426  1
  Rh  Rh12  1  0.499937  0.240300  0.991367  1
  Rh  Rh13  1  0.499888  0.759859  0.991350  1
  Rh  Rh14  1  0.999786  0.250994  0.164942  1
  Rh  Rh15  1  0.999822  0.749024  0.164880  1
  Rh  Rh16  1  0.500299  0.250672  0.333364  1
  Rh  Rh17  1  0.500232  0.749462  0.333282  1
  Rh  Rh18  1  0.999785  0.250894  0.501809  1
  Rh  Rh19  1  0.999794  0.749174  0.501752  1
  Rh  Rh20  1  0.499967  0.240253  0.675331  1
  Rh  Rh21  1  0.499926  0.759554  0.675406  1
  Rh  Rh22  1  0.000101  0.231604  0.833235  1
  Rh  Rh23  1  0.000063  0.768330  0.833382  1
