# generated using pymatgen
data_Tb3Dy5Se12
_symmetry_space_group_name_H-M   'P 1'
_cell_length_a   7.11211649
_cell_length_b   7.11032182
_cell_length_c   12.97072525
_cell_angle_alpha   100.67343854
_cell_angle_beta   100.68006703
_cell_angle_gamma   108.91652160
_symmetry_Int_Tables_number   1
_chemical_formula_structural   Tb3Dy5Se12
_chemical_formula_sum   'Tb3 Dy5 Se12'
_cell_volume   588.13853716
_cell_formula_units_Z   1
loop_
 _symmetry_equiv_pos_site_id
 _symmetry_equiv_pos_as_xyz
  1  'x, y, z'
loop_
 _atom_site_type_symbol
 _atom_site_label
 _atom_site_symmetry_multiplicity
 _atom_site_fract_x
 _atom_site_fract_y
 _atom_site_fract_z
 _atom_site_occupancy
  Tb  Tb0  1  0.290987  0.040991  0.081968  1
  Tb  Tb1  1  0.372175  0.622178  0.244348  1
  Tb  Tb2  1  0.877857  0.127859  0.255722  1
  Dy  Dy3  1  0.458969  0.208975  0.417959  1
  Dy  Dy4  1  0.541097  0.791093  0.582179  1
  Dy  Dy5  1  0.122181  0.872180  0.744359  1
  Dy  Dy6  1  0.627778  0.377776  0.755564  1
  Dy  Dy7  1  0.708881  0.958878  0.917773  1
  Se  Se8  1  0.038422  0.282751  0.087757  1
  Se  Se9  1  0.549324  0.805000  0.087734  1
  Se  Se10  1  0.617215  0.367192  0.250267  1
  Se  Se11  1  0.133092  0.883046  0.250256  1
  Se  Se12  1  0.217628  0.461174  0.412274  1
  Se  Se13  1  0.694657  0.951149  0.412303  1
  Se  Se14  1  0.305467  0.049097  0.588148  1
  Se  Se15  1  0.782705  0.539039  0.588172  1
  Se  Se16  1  0.866838  0.116858  0.750005  1
  Se  Se17  1  0.383128  0.633192  0.750008  1
  Se  Se18  1  0.451082  0.194679  0.911615  1
  Se  Se19  1  0.960524  0.716900  0.911596  1
