# generated using pymatgen
data_Tb3HfAl16(GaIr3)2
_symmetry_space_group_name_H-M   'P 1'
_cell_length_a   7.53484123
_cell_length_b   7.52727244
_cell_length_c   9.45918900
_cell_angle_alpha   90.00000000
_cell_angle_beta   90.00000000
_cell_angle_gamma   119.55585061
_symmetry_Int_Tables_number   1
_chemical_formula_structural   Tb3HfAl16(GaIr3)2
_chemical_formula_sum   'Tb3 Hf1 Al16 Ga2 Ir6'
_cell_volume   466.68370008
_cell_formula_units_Z   1
loop_
 _symmetry_equiv_pos_site_id
 _symmetry_equiv_pos_as_xyz
  1  'x, y, z'
loop_
 _atom_site_type_symbol
 _atom_site_label
 _atom_site_symmetry_multiplicity
 _atom_site_fract_x
 _atom_site_fract_y
 _atom_site_fract_z
 _atom_site_occupancy
  Tb  Tb0  1  0.002130  0.324023  0.750000  1
  Tb  Tb1  1  0.671861  0.998268  0.250000  1
  Tb  Tb2  1  0.331087  0.010718  0.750000  1
  Hf  Hf3  1  0.997615  0.672950  0.250000  1
  Al  Al4  1  0.127872  0.124835  0.250000  1
  Al  Al5  1  0.000609  0.338441  0.078661  1
  Al  Al6  1  0.999116  0.665264  0.931487  1
  Al  Al7  1  0.999116  0.665264  0.568513  1
  Al  Al8  1  0.332379  0.997571  0.421697  1
  Al  Al9  1  0.000609  0.338441  0.421339  1
  Al  Al10  1  0.664117  0.996032  0.573415  1
  Al  Al11  1  0.664117  0.996032  0.926585  1
  Al  Al12  1  0.332379  0.997571  0.078303  1
  Al  Al13  1  0.334372  0.335011  0.545933  1
  Al  Al14  1  0.669501  0.666920  0.437169  1
  Al  Al15  1  0.669501  0.666920  0.062831  1
  Al  Al16  1  0.334372  0.335011  0.954067  1
  Al  Al17  1  0.334227  0.549408  0.250000  1
  Al  Al18  1  0.554541  0.343454  0.250000  1
  Al  Al19  1  0.448464  0.658255  0.750000  1
  Ga  Ga20  1  0.869232  0.866373  0.750000  1
  Ga  Ga21  1  0.659943  0.454980  0.750000  1
  Ir  Ir22  1  0.672948  0.328383  0.003304  1
  Ir  Ir23  1  0.328781  0.672011  0.001646  1
  Ir  Ir24  1  0.328781  0.672011  0.498354  1
  Ir  Ir25  1  0.672948  0.328383  0.496696  1
  Ir  Ir26  1  0.999691  0.998735  0.004127  1
  Ir  Ir27  1  0.999691  0.998735  0.495873  1
