# generated using pymatgen
data_LaPrGd4(RuO7)2
_symmetry_space_group_name_H-M   'P 1'
_cell_length_a   6.53223176
_cell_length_b   6.53223131
_cell_length_c   7.59041710
_cell_angle_alpha   89.98919462
_cell_angle_beta   89.98918854
_cell_angle_gamma   110.64038524
_symmetry_Int_Tables_number   1
_chemical_formula_structural   LaPrGd4(RuO7)2
_chemical_formula_sum   'La1 Pr1 Gd4 Ru2 O14'
_cell_volume   303.09379477
_cell_formula_units_Z   1
loop_
 _symmetry_equiv_pos_site_id
 _symmetry_equiv_pos_as_xyz
  1  'x, y, z'
loop_
 _atom_site_type_symbol
 _atom_site_label
 _atom_site_symmetry_multiplicity
 _atom_site_fract_x
 _atom_site_fract_y
 _atom_site_fract_z
 _atom_site_occupancy
  La  La0  1  0.000000  0.000000  0.500000  1
  Pr  Pr1  1  0.000000  0.000000  0.000000  1
  Gd  Gd2  1  0.478891  0.926010  0.750477  1
  Gd  Gd3  1  0.521109  0.073990  0.249523  1
  Gd  Gd4  1  0.926010  0.478891  0.750477  1
  Gd  Gd5  1  0.073990  0.521109  0.249523  1
  Ru  Ru6  1  0.500000  0.500000  0.500000  1
  Ru  Ru7  1  0.500000  0.500000  0.000000  1
  O  O8  1  0.586042  0.586042  0.749853  1
  O  O9  1  0.413958  0.413958  0.250147  1
  O  O10  1  0.837990  0.113433  0.751059  1
  O  O11  1  0.162010  0.886567  0.248941  1
  O  O12  1  0.113433  0.837990  0.751059  1
  O  O13  1  0.886567  0.162010  0.248941  1
  O  O14  1  0.439492  0.184041  0.962478  1
  O  O15  1  0.557858  0.815454  0.462175  1
  O  O16  1  0.184041  0.439492  0.962478  1
  O  O17  1  0.815454  0.557858  0.462175  1
  O  O18  1  0.442142  0.184546  0.537825  1
  O  O19  1  0.560508  0.815959  0.037522  1
  O  O20  1  0.815959  0.560508  0.037522  1
  O  O21  1  0.184546  0.442142  0.537825  1
