# generated using pymatgen
data_Y2Lu2BCl6
_symmetry_space_group_name_H-M   'P 1'
_cell_length_a   3.81976100
_cell_length_b   12.49913200
_cell_length_c   12.96692700
_cell_angle_alpha   90.00000000
_cell_angle_beta   90.00000000
_cell_angle_gamma   90.00000000
_symmetry_Int_Tables_number   1
_chemical_formula_structural   Y2Lu2BCl6
_chemical_formula_sum   'Y4 Lu4 B2 Cl12'
_cell_volume   619.08903303
_cell_formula_units_Z   2
loop_
 _symmetry_equiv_pos_site_id
 _symmetry_equiv_pos_as_xyz
  1  'x, y, z'
loop_
 _atom_site_type_symbol
 _atom_site_label
 _atom_site_symmetry_multiplicity
 _atom_site_fract_x
 _atom_site_fract_y
 _atom_site_fract_z
 _atom_site_occupancy
  Y  Y0  1  0.500000  0.126943  0.850724  1
  Y  Y1  1  0.500000  0.873057  0.149276  1
  Y  Y2  1  0.500000  0.626943  0.649276  1
  Y  Y3  1  0.500000  0.373057  0.350724  1
  Lu  Lu4  1  0.000000  0.103730  0.082107  1
  Lu  Lu5  1  0.000000  0.896270  0.917893  1
  Lu  Lu6  1  0.000000  0.603730  0.417893  1
  Lu  Lu7  1  0.000000  0.396270  0.582107  1
  B  B8  1  0.500000  0.000000  0.000000  1
  B  B9  1  0.500000  0.500000  0.500000  1
  Cl  Cl10  1  0.500000  0.271010  0.679766  1
  Cl  Cl11  1  0.500000  0.728990  0.320234  1
  Cl  Cl12  1  0.500000  0.771010  0.820234  1
  Cl  Cl13  1  0.500000  0.228990  0.179766  1
  Cl  Cl14  1  0.000000  0.258748  0.933526  1
  Cl  Cl15  1  0.000000  0.741252  0.066474  1
  Cl  Cl16  1  0.000000  0.482749  0.242146  1
  Cl  Cl17  1  0.000000  0.517251  0.757854  1
  Cl  Cl18  1  0.000000  0.982749  0.257854  1
  Cl  Cl19  1  0.000000  0.017251  0.742146  1
  Cl  Cl20  1  0.000000  0.241252  0.433526  1
  Cl  Cl21  1  0.000000  0.758748  0.566474  1
