# generated using pymatgen
data_Np4Sc4Re(B8Ru)3
_symmetry_space_group_name_H-M   'P 1'
_cell_length_a   3.55098900
_cell_length_b   9.00548555
_cell_length_c   11.38731200
_cell_angle_alpha   90.06753557
_cell_angle_beta   90.00000000
_cell_angle_gamma   90.00000000
_symmetry_Int_Tables_number   1
_chemical_formula_structural   Np4Sc4Re(B8Ru)3
_chemical_formula_sum   'Np4 Sc4 Re1 B24 Ru3'
_cell_volume   364.14753866
_cell_formula_units_Z   1
loop_
 _symmetry_equiv_pos_site_id
 _symmetry_equiv_pos_as_xyz
  1  'x, y, z'
loop_
 _atom_site_type_symbol
 _atom_site_label
 _atom_site_symmetry_multiplicity
 _atom_site_fract_x
 _atom_site_fract_y
 _atom_site_fract_z
 _atom_site_occupancy
  Np  Np0  1  0.000000  0.323095  0.414995  1
  Np  Np1  1  0.000000  0.679486  0.586645  1
  Np  Np2  1  0.000000  0.821560  0.083890  1
  Np  Np3  1  0.000000  0.176234  0.913681  1
  Sc  Sc4  1  0.000000  0.945121  0.374009  1
  Sc  Sc5  1  0.000000  0.054691  0.625637  1
  Sc  Sc6  1  0.000000  0.444448  0.125597  1
  Sc  Sc7  1  0.000000  0.554321  0.874762  1
  Re  Re8  1  0.000000  0.860050  0.819633  1
  B  B9  1  0.500000  0.554712  0.433182  1
  B  B10  1  0.500000  0.446194  0.567178  1
  B  B11  1  0.500000  0.054442  0.067342  1
  B  B12  1  0.500000  0.946400  0.933461  1
  B  B13  1  0.500000  0.753516  0.419643  1
  B  B14  1  0.500000  0.246968  0.580399  1
  B  B15  1  0.500000  0.252980  0.080424  1
  B  B16  1  0.500000  0.746126  0.919937  1
  B  B17  1  0.500000  0.795043  0.264625  1
  B  B18  1  0.500000  0.205664  0.734658  1
  B  B19  1  0.500000  0.295109  0.235271  1
  B  B20  1  0.500000  0.704029  0.764757  1
  B  B21  1  0.500000  0.630639  0.181723  1
  B  B22  1  0.500000  0.369051  0.818082  1
  B  B23  1  0.500000  0.131083  0.318223  1
  B  B24  1  0.500000  0.869133  0.681877  1
  B  B25  1  0.500000  0.981615  0.214653  1
  B  B26  1  0.500000  0.019503  0.785205  1
  B  B27  1  0.500000  0.481780  0.285427  1
  B  B28  1  0.500000  0.518062  0.714466  1
  B  B29  1  0.500000  0.599396  0.027734  1
  B  B30  1  0.500000  0.398547  0.972936  1
  B  B31  1  0.500000  0.100748  0.472419  1
  B  B32  1  0.500000  0.899871  0.526510  1
  Ru  Ru33  1  0.000000  0.640301  0.318778  1
  Ru  Ru34  1  0.000000  0.359365  0.680969  1
  Ru  Ru35  1  0.000000  0.140715  0.181272  1
