# generated using pymatgen
data_Hf16Nb4Si15Pt
_symmetry_space_group_name_H-M   'P 1'
_cell_length_a   6.78605143
_cell_length_b   6.94807504
_cell_length_c   13.46033902
_cell_angle_alpha   89.77724452
_cell_angle_beta   89.93051360
_cell_angle_gamma   90.01897377
_symmetry_Int_Tables_number   1
_chemical_formula_structural   Hf16Nb4Si15Pt
_chemical_formula_sum   'Hf16 Nb4 Si15 Pt1'
_cell_volume   634.64961229
_cell_formula_units_Z   1
loop_
 _symmetry_equiv_pos_site_id
 _symmetry_equiv_pos_as_xyz
  1  'x, y, z'
loop_
 _atom_site_type_symbol
 _atom_site_label
 _atom_site_symmetry_multiplicity
 _atom_site_fract_x
 _atom_site_fract_y
 _atom_site_fract_z
 _atom_site_occupancy
  Hf  Hf0  1  0.337644  0.676885  0.875761  1
  Hf  Hf1  1  0.837071  0.826794  0.875247  1
  Hf  Hf2  1  0.654092  0.320309  0.374152  1
  Hf  Hf3  1  0.999716  0.677086  0.095603  1
  Hf  Hf4  1  0.502946  0.821250  0.401594  1
  Hf  Hf5  1  0.500446  0.177348  0.904173  1
  Hf  Hf6  1  0.493876  0.181874  0.600341  1
  Hf  Hf7  1  0.001187  0.324127  0.903868  1
  Hf  Hf8  1  0.163776  0.174912  0.124228  1
  Hf  Hf9  1  0.166340  0.169151  0.374794  1
  Hf  Hf10  1  0.998691  0.675464  0.400320  1
  Hf  Hf11  1  0.662947  0.324064  0.123858  1
  Hf  Hf12  1  0.498868  0.824621  0.093563  1
  Hf  Hf13  1  0.001089  0.329981  0.601969  1
  Hf  Hf14  1  0.339096  0.674666  0.625806  1
  Hf  Hf15  1  0.834528  0.826658  0.624949  1
  Nb  Nb16  1  0.663590  0.502530  0.751000  1
  Nb  Nb17  1  0.164664  0.000181  0.752962  1
  Nb  Nb18  1  0.336627  0.496887  0.248774  1
  Nb  Nb19  1  0.835788  0.994995  0.242150  1
  Si  Si20  1  0.672600  0.530639  0.538147  1
  Si  Si21  1  0.173151  0.971092  0.961250  1
  Si  Si22  1  0.295982  0.362284  0.752551  1
  Si  Si23  1  0.829479  0.030663  0.038514  1
  Si  Si24  1  0.328124  0.470175  0.039001  1
  Si  Si25  1  0.463717  0.099809  0.247131  1
  Si  Si26  1  0.703837  0.638862  0.247439  1
  Si  Si27  1  0.960446  0.390540  0.249940  1
  Si  Si28  1  0.795689  0.141593  0.751922  1
  Si  Si29  1  0.672464  0.530104  0.960703  1
  Si  Si30  1  0.173450  0.971033  0.542342  1
  Si  Si31  1  0.038685  0.608165  0.751583  1
  Si  Si32  1  0.323684  0.466660  0.462549  1
  Si  Si33  1  0.537242  0.896463  0.750217  1
  Si  Si34  1  0.203819  0.857831  0.248606  1
  Pt  Pt35  1  0.834650  0.034308  0.462991  1
