# generated using pymatgen
data_HoEr3(Tm2Rh)4
_symmetry_space_group_name_H-M   'P 1'
_cell_length_a   6.26396007
_cell_length_b   7.10634308
_cell_length_c   9.24510100
_cell_angle_alpha   90.00000000
_cell_angle_beta   90.00000000
_cell_angle_gamma   89.99990935
_symmetry_Int_Tables_number   1
_chemical_formula_structural   HoEr3(Tm2Rh)4
_chemical_formula_sum   'Ho1 Er3 Tm8 Rh4'
_cell_volume   411.53503298
_cell_formula_units_Z   1
loop_
 _symmetry_equiv_pos_site_id
 _symmetry_equiv_pos_as_xyz
  1  'x, y, z'
loop_
 _atom_site_type_symbol
 _atom_site_label
 _atom_site_symmetry_multiplicity
 _atom_site_fract_x
 _atom_site_fract_y
 _atom_site_fract_z
 _atom_site_occupancy
  Ho  Ho0  1  0.868572  0.966691  0.750000  1
  Er  Er1  1  0.368510  0.533534  0.250000  1
  Er  Er2  1  0.631312  0.466526  0.750000  1
  Er  Er3  1  0.131531  0.033540  0.250000  1
  Tm  Tm4  1  0.673125  0.178758  0.063167  1
  Tm  Tm5  1  0.173208  0.321296  0.936941  1
  Tm  Tm6  1  0.826753  0.678674  0.436829  1
  Tm  Tm7  1  0.326972  0.821238  0.562965  1
  Tm  Tm8  1  0.326972  0.821238  0.937035  1
  Tm  Tm9  1  0.826753  0.678674  0.063171  1
  Tm  Tm10  1  0.173208  0.321296  0.563059  1
  Tm  Tm11  1  0.673125  0.178758  0.436833  1
  Rh  Rh12  1  0.051903  0.614904  0.750000  1
  Rh  Rh13  1  0.551820  0.884790  0.250000  1
  Rh  Rh14  1  0.448046  0.115412  0.750000  1
  Rh  Rh15  1  0.948191  0.384672  0.250000  1
