# generated using pymatgen
data_Sc16In6CoTc
_symmetry_space_group_name_H-M   'P 1'
_cell_length_a   9.80783300
_cell_length_b   9.80783279
_cell_length_c   6.45735200
_cell_angle_alpha   90.00000000
_cell_angle_beta   90.00000000
_cell_angle_gamma   120.00000409
_symmetry_Int_Tables_number   1
_chemical_formula_structural   Sc16In6CoTc
_chemical_formula_sum   'Sc16 In6 Co1 Tc1'
_cell_volume   537.93671966
_cell_formula_units_Z   1
loop_
 _symmetry_equiv_pos_site_id
 _symmetry_equiv_pos_as_xyz
  1  'x, y, z'
loop_
 _atom_site_type_symbol
 _atom_site_label
 _atom_site_symmetry_multiplicity
 _atom_site_fract_x
 _atom_site_fract_y
 _atom_site_fract_z
 _atom_site_occupancy
  Sc  Sc0  1  0.524415  0.048830  0.522345  1
  Sc  Sc1  1  0.951170  0.475585  0.522345  1
  Sc  Sc2  1  0.524415  0.475585  0.522345  1
  Sc  Sc3  1  0.469730  0.939459  0.020534  1
  Sc  Sc4  1  0.060541  0.530270  0.020534  1
  Sc  Sc5  1  0.469730  0.530270  0.020534  1
  Sc  Sc6  1  0.180469  0.360939  0.737860  1
  Sc  Sc7  1  0.639061  0.819531  0.737860  1
  Sc  Sc8  1  0.180469  0.819531  0.737860  1
  Sc  Sc9  1  0.820978  0.641956  0.232970  1
  Sc  Sc10  1  0.358044  0.179022  0.232970  1
  Sc  Sc11  1  0.820978  0.179022  0.232970  1
  Sc  Sc12  1  0.666667  0.333333  0.895656  1
  Sc  Sc13  1  0.333333  0.666667  0.408272  1
  Sc  Sc14  1  0.000000  0.000000  0.508939  1
  Sc  Sc15  1  0.000000  0.000000  0.008032  1
  In  In16  1  0.837238  0.674475  0.758857  1
  In  In17  1  0.325525  0.162762  0.758857  1
  In  In18  1  0.837238  0.162762  0.758857  1
  In  In19  1  0.163191  0.326381  0.265516  1
  In  In20  1  0.673619  0.836809  0.265516  1
  In  In21  1  0.163191  0.836809  0.265516  1
  Co  Co22  1  0.333333  0.666667  0.802410  1
  Tc  Tc23  1  0.666667  0.333333  0.318123  1
