# generated using pymatgen
data_Yb5Er5Ru4
_symmetry_space_group_name_H-M   'P 1'
_cell_length_a   8.41985520
_cell_length_b   8.49495023
_cell_length_c   7.23551940
_cell_angle_alpha   83.00221472
_cell_angle_beta   82.63152550
_cell_angle_gamma   44.39652598
_symmetry_Int_Tables_number   1
_chemical_formula_structural   Yb5Er5Ru4
_chemical_formula_sum   'Yb5 Er5 Ru4'
_cell_volume   358.74382346
_cell_formula_units_Z   1
loop_
 _symmetry_equiv_pos_site_id
 _symmetry_equiv_pos_as_xyz
  1  'x, y, z'
loop_
 _atom_site_type_symbol
 _atom_site_label
 _atom_site_symmetry_multiplicity
 _atom_site_fract_x
 _atom_site_fract_y
 _atom_site_fract_z
 _atom_site_occupancy
  Yb  Yb0  1  0.022411  0.797212  0.920197  1
  Yb  Yb1  1  0.204125  0.975858  0.580351  1
  Yb  Yb2  1  0.978405  0.201293  0.080832  1
  Yb  Yb3  1  0.795103  0.022539  0.418111  1
  Yb  Yb4  1  0.359320  0.203939  0.815454  1
  Er  Er5  1  0.795221  0.638923  0.681697  1
  Er  Er6  1  0.634881  0.799314  0.182390  1
  Er  Er7  1  0.202506  0.365415  0.317102  1
  Er  Er8  1  0.566437  0.431885  0.751021  1
  Er  Er9  1  0.434930  0.564290  0.250937  1
  Ru  Ru10  1  0.174913  0.600307  0.568458  1
  Ru  Ru11  1  0.415798  0.805036  0.928521  1
  Ru  Ru12  1  0.822496  0.412504  0.426832  1
  Ru  Ru13  1  0.593454  0.181485  0.078097  1
