# generated using pymatgen
data_Pr2DyHo5(WO6)4
_symmetry_space_group_name_H-M   'P 1'
_cell_length_a   5.44842100
_cell_length_b   7.76951111
_cell_length_c   11.54533215
_cell_angle_alpha   75.56814206
_cell_angle_beta   90.00000000
_cell_angle_gamma   90.00000000
_symmetry_Int_Tables_number   1
_chemical_formula_structural   Pr2DyHo5(WO6)4
_chemical_formula_sum   'Pr2 Dy1 Ho5 W4 O24'
_cell_volume   473.30993850
_cell_formula_units_Z   1
loop_
 _symmetry_equiv_pos_site_id
 _symmetry_equiv_pos_as_xyz
  1  'x, y, z'
loop_
 _atom_site_type_symbol
 _atom_site_label
 _atom_site_symmetry_multiplicity
 _atom_site_fract_x
 _atom_site_fract_y
 _atom_site_fract_z
 _atom_site_occupancy
  Pr  Pr0  1  0.685668  0.500000  0.750000  1
  Pr  Pr1  1  0.314550  0.500000  0.250000  1
  Dy  Dy2  1  0.258674  0.000000  0.250000  1
  Ho  Ho3  1  0.741060  0.000000  0.750000  1
  Ho  Ho4  1  0.186849  0.798054  0.576878  1
  Ho  Ho5  1  0.812973  0.797952  0.076602  1
  Ho  Ho6  1  0.186849  0.201946  0.923122  1
  Ho  Ho7  1  0.812973  0.202048  0.423398  1
  W  W8  1  0.253035  0.728446  0.884313  1
  W  W9  1  0.747023  0.728001  0.384553  1
  W  W10  1  0.253035  0.271554  0.615687  1
  W  W11  1  0.747023  0.271999  0.115447  1
  O  O12  1  0.040741  0.941868  0.895748  1
  O  O13  1  0.532548  0.846940  0.930618  1
  O  O14  1  0.958271  0.941683  0.396319  1
  O  O15  1  0.455377  0.795669  0.727133  1
  O  O16  1  0.467626  0.846375  0.431011  1
  O  O17  1  0.986425  0.720591  0.769315  1
  O  O18  1  0.545465  0.794927  0.227172  1
  O  O19  1  0.856412  0.641988  0.545533  1
  O  O20  1  0.347318  0.493455  0.887810  1
  O  O21  1  0.013538  0.720248  0.269462  1
  O  O22  1  0.347318  0.506545  0.612190  1
  O  O23  1  0.856412  0.358012  0.954467  1
  O  O24  1  0.143894  0.642417  0.045388  1
  O  O25  1  0.652529  0.493149  0.388049  1
  O  O26  1  0.986425  0.279409  0.730685  1
  O  O27  1  0.652529  0.506851  0.111951  1
  O  O28  1  0.143894  0.357583  0.454612  1
  O  O29  1  0.455377  0.204331  0.772867  1
  O  O30  1  0.013538  0.279752  0.230538  1
  O  O31  1  0.532548  0.153060  0.569382  1
  O  O32  1  0.545465  0.205073  0.272828  1
  O  O33  1  0.040741  0.058132  0.604252  1
  O  O34  1  0.467626  0.153625  0.068989  1
  O  O35  1  0.958271  0.058317  0.103681  1
