# generated using pymatgen
data_Zr6IrOs
_symmetry_space_group_name_H-M   'P 1'
_cell_length_a   8.18448584
_cell_length_b   8.18448621
_cell_length_c   8.18448632
_cell_angle_alpha   98.25377021
_cell_angle_beta   95.74618169
_cell_angle_gamma   139.14087966
_symmetry_Int_Tables_number   1
_chemical_formula_structural   Zr6IrOs
_chemical_formula_sum   'Zr12 Ir2 Os2'
_cell_volume   336.00035260
_cell_formula_units_Z   2
loop_
 _symmetry_equiv_pos_site_id
 _symmetry_equiv_pos_as_xyz
  1  'x, y, z'
loop_
 _atom_site_type_symbol
 _atom_site_label
 _atom_site_symmetry_multiplicity
 _atom_site_fract_x
 _atom_site_fract_y
 _atom_site_fract_z
 _atom_site_occupancy
  Zr  Zr0  1  0.661942  0.852787  0.996955  1
  Zr  Zr1  1  0.855832  0.664987  0.003045  1
  Zr  Zr2  1  0.144168  0.147213  0.809154  1
  Zr  Zr3  1  0.338058  0.335013  0.190846  1
  Zr  Zr4  1  0.000000  0.351256  0.351256  1
  Zr  Zr5  1  0.000000  0.648744  0.648744  1
  Zr  Zr6  1  0.643523  0.000000  0.643523  1
  Zr  Zr7  1  0.356477  0.000000  0.356477  1
  Zr  Zr8  1  0.051897  0.464247  0.001114  1
  Zr  Zr9  1  0.463132  0.050783  0.998886  1
  Zr  Zr10  1  0.536868  0.535753  0.587651  1
  Zr  Zr11  1  0.948103  0.949217  0.412349  1
  Ir  Ir12  1  0.207118  0.500000  0.707118  1
  Ir  Ir13  1  0.792882  0.500000  0.292882  1
  Os  Os14  1  0.500000  0.790050  0.290050  1
  Os  Os15  1  0.500000  0.209950  0.709950  1
