# generated using pymatgen
data_Nd4Ga18Co5Pt
_symmetry_space_group_name_H-M   'P 1'
_cell_length_a   7.51401788
_cell_length_b   7.51401751
_cell_length_c   9.58423049
_cell_angle_alpha   90.10748311
_cell_angle_beta   90.10748700
_cell_angle_gamma   119.75295912
_symmetry_Int_Tables_number   1
_chemical_formula_structural   Nd4Ga18Co5Pt
_chemical_formula_sum   'Nd4 Ga18 Co5 Pt1'
_cell_volume   469.79134380
_cell_formula_units_Z   1
loop_
 _symmetry_equiv_pos_site_id
 _symmetry_equiv_pos_as_xyz
  1  'x, y, z'
loop_
 _atom_site_type_symbol
 _atom_site_label
 _atom_site_symmetry_multiplicity
 _atom_site_fract_x
 _atom_site_fract_y
 _atom_site_fract_z
 _atom_site_occupancy
  Nd  Nd0  1  0.328642  0.002478  0.250659  1
  Nd  Nd1  1  0.997522  0.671358  0.749341  1
  Nd  Nd2  1  0.671358  0.997522  0.749341  1
  Nd  Nd3  1  0.002478  0.328642  0.250659  1
  Ga  Ga4  1  0.344765  0.002711  0.926202  1
  Ga  Ga5  1  0.997289  0.655235  0.073798  1
  Ga  Ga6  1  0.335394  0.000653  0.570049  1
  Ga  Ga7  1  0.999347  0.664606  0.429951  1
  Ga  Ga8  1  0.655235  0.997289  0.073798  1
  Ga  Ga9  1  0.002711  0.344765  0.926202  1
  Ga  Ga10  1  0.664606  0.999347  0.429951  1
  Ga  Ga11  1  0.000653  0.335394  0.570049  1
  Ga  Ga12  1  0.655150  0.655150  0.940947  1
  Ga  Ga13  1  0.344850  0.344850  0.059053  1
  Ga  Ga14  1  0.665093  0.665093  0.553273  1
  Ga  Ga15  1  0.334907  0.334907  0.446727  1
  Ga  Ga16  1  0.132126  0.132126  0.741129  1
  Ga  Ga17  1  0.867874  0.867874  0.258871  1
  Ga  Ga18  1  0.450661  0.663673  0.251452  1
  Ga  Ga19  1  0.336327  0.549339  0.748548  1
  Ga  Ga20  1  0.549339  0.336327  0.748548  1
  Ga  Ga21  1  0.663673  0.450661  0.251452  1
  Co  Co22  1  0.000000  0.000000  0.500000  1
  Co  Co23  1  0.329997  0.670003  0.000000  1
  Co  Co24  1  0.329860  0.670140  0.500000  1
  Co  Co25  1  0.670003  0.329997  0.000000  1
  Co  Co26  1  0.670140  0.329860  0.500000  1
  Pt  Pt27  1  0.000000  0.000000  0.000000  1
