# generated using pymatgen
data_Tb2ErGa5
_symmetry_space_group_name_H-M   'P 1'
_cell_length_a   6.11220000
_cell_length_b   9.63494500
_cell_length_c   11.56661900
_cell_angle_alpha   90.00000000
_cell_angle_beta   90.00000000
_cell_angle_gamma   90.00000000
_symmetry_Int_Tables_number   1
_chemical_formula_structural   Tb2ErGa5
_chemical_formula_sum   'Tb8 Er4 Ga20'
_cell_volume   681.16641480
_cell_formula_units_Z   4
loop_
 _symmetry_equiv_pos_site_id
 _symmetry_equiv_pos_as_xyz
  1  'x, y, z'
loop_
 _atom_site_type_symbol
 _atom_site_label
 _atom_site_symmetry_multiplicity
 _atom_site_fract_x
 _atom_site_fract_y
 _atom_site_fract_z
 _atom_site_occupancy
  Tb  Tb0  1  0.890707  0.510041  0.351549  1
  Tb  Tb1  1  0.609293  0.989959  0.851549  1
  Tb  Tb2  1  0.109293  0.010041  0.648451  1
  Tb  Tb3  1  0.390707  0.489959  0.148451  1
  Tb  Tb4  1  0.109293  0.489959  0.648451  1
  Tb  Tb5  1  0.390707  0.010041  0.148451  1
  Tb  Tb6  1  0.890707  0.989959  0.351549  1
  Tb  Tb7  1  0.609293  0.510041  0.851549  1
  Er  Er8  1  0.849127  0.750000  0.074542  1
  Er  Er9  1  0.650873  0.750000  0.574542  1
  Er  Er10  1  0.150873  0.250000  0.925458  1
  Er  Er11  1  0.349127  0.250000  0.425458  1
  Ga  Ga12  1  0.875176  0.053127  0.090163  1
  Ga  Ga13  1  0.624824  0.446873  0.590163  1
  Ga  Ga14  1  0.124824  0.553127  0.909837  1
  Ga  Ga15  1  0.375176  0.946873  0.409837  1
  Ga  Ga16  1  0.124824  0.946873  0.909837  1
  Ga  Ga17  1  0.375176  0.553127  0.409837  1
  Ga  Ga18  1  0.875176  0.446873  0.090163  1
  Ga  Ga19  1  0.624824  0.053127  0.590163  1
  Ga  Ga20  1  0.173238  0.750000  0.251635  1
  Ga  Ga21  1  0.326762  0.750000  0.751635  1
  Ga  Ga22  1  0.826762  0.250000  0.748365  1
  Ga  Ga23  1  0.673238  0.250000  0.248365  1
  Ga  Ga24  1  0.372069  0.750000  0.004563  1
  Ga  Ga25  1  0.127931  0.750000  0.504563  1
  Ga  Ga26  1  0.627931  0.250000  0.995437  1
  Ga  Ga27  1  0.872069  0.250000  0.495437  1
  Ga  Ga28  1  0.601414  0.750000  0.299157  1
  Ga  Ga29  1  0.898586  0.750000  0.799157  1
  Ga  Ga30  1  0.398586  0.250000  0.700843  1
  Ga  Ga31  1  0.101414  0.250000  0.200843  1
