# generated using pymatgen
data_Nd6Cd3InPb6
_symmetry_space_group_name_H-M   'P 1'
_cell_length_a   6.71910464
_cell_length_b   6.71910446
_cell_length_c   10.58242309
_cell_angle_alpha   90.31560748
_cell_angle_beta   90.31560917
_cell_angle_gamma   103.36184017
_symmetry_Int_Tables_number   1
_chemical_formula_structural   Nd6Cd3InPb6
_chemical_formula_sum   'Nd6 Cd3 In1 Pb6'
_cell_volume   464.80669947
_cell_formula_units_Z   1
loop_
 _symmetry_equiv_pos_site_id
 _symmetry_equiv_pos_as_xyz
  1  'x, y, z'
loop_
 _atom_site_type_symbol
 _atom_site_label
 _atom_site_symmetry_multiplicity
 _atom_site_fract_x
 _atom_site_fract_y
 _atom_site_fract_z
 _atom_site_occupancy
  Nd  Nd0  1  0.625215  0.625215  0.251265  1
  Nd  Nd1  1  0.374351  0.374351  0.748809  1
  Nd  Nd2  1  0.203640  0.795959  0.499487  1
  Nd  Nd3  1  0.205092  0.795373  0.000624  1
  Nd  Nd4  1  0.795959  0.203640  0.499487  1
  Nd  Nd5  1  0.795373  0.205092  0.000624  1
  Cd  Cd6  1  0.315756  0.315756  0.043019  1
  Cd  Cd7  1  0.684797  0.684797  0.957555  1
  Cd  Cd8  1  0.312267  0.312267  0.456876  1
  In  In9  1  0.686230  0.686230  0.542616  1
  Pb  Pb10  1  0.014251  0.014250  0.248342  1
  Pb  Pb11  1  0.986234  0.986233  0.750732  1
  Pb  Pb12  1  0.501780  0.072853  0.249107  1
  Pb  Pb13  1  0.928346  0.497857  0.751174  1
  Pb  Pb14  1  0.497857  0.928346  0.751174  1
  Pb  Pb15  1  0.072853  0.501780  0.249107  1
