# generated using pymatgen
data_LaCu2(SO4)4
_symmetry_space_group_name_H-M   'P 1'
_cell_length_a   6.46170996
_cell_length_b   6.46170350
_cell_length_c   8.79602336
_cell_angle_alpha   74.02853164
_cell_angle_beta   74.02870765
_cell_angle_gamma   87.47431236
_symmetry_Int_Tables_number   1
_chemical_formula_structural   LaCu2(SO4)4
_chemical_formula_sum   'La1 Cu2 S4 O16'
_cell_volume   339.26085690
_cell_formula_units_Z   1
loop_
 _symmetry_equiv_pos_site_id
 _symmetry_equiv_pos_as_xyz
  1  'x, y, z'
loop_
 _atom_site_type_symbol
 _atom_site_label
 _atom_site_symmetry_multiplicity
 _atom_site_fract_x
 _atom_site_fract_y
 _atom_site_fract_z
 _atom_site_occupancy
  La  La0  1  0.000000  0.000000  0.000000  1
  Cu  Cu1  1  0.000000  0.000000  0.500000  1
  Cu  Cu2  1  0.500000  0.500000  0.500000  1
  S  S3  1  0.089814  0.591113  0.730238  1
  S  S4  1  0.591113  0.089813  0.730237  1
  S  S5  1  0.910186  0.408887  0.269762  1
  S  S6  1  0.408887  0.910187  0.269763  1
  O  O7  1  0.334448  0.621272  0.663599  1
  O  O8  1  0.621271  0.334450  0.663597  1
  O  O9  1  0.665552  0.378728  0.336401  1
  O  O10  1  0.378729  0.665550  0.336403  1
  O  O11  1  0.033276  0.706037  0.857990  1
  O  O12  1  0.706039  0.033281  0.857990  1
  O  O13  1  0.966724  0.293963  0.142010  1
  O  O14  1  0.293961  0.966719  0.142010  1
  O  O15  1  0.986088  0.688204  0.595773  1
  O  O16  1  0.688202  0.986087  0.595774  1
  O  O17  1  0.013912  0.311796  0.404227  1
  O  O18  1  0.311798  0.013913  0.404226  1
  O  O19  1  0.029990  0.360812  0.792971  1
  O  O20  1  0.360812  0.029989  0.792973  1
  O  O21  1  0.970010  0.639188  0.207029  1
  O  O22  1  0.639188  0.970011  0.207027  1
