# generated using pymatgen
data_Th6Zn3Sn8Pd3
_symmetry_space_group_name_H-M   'P 1'
_cell_length_a   8.62483005
_cell_length_b   8.62165756
_cell_length_c   8.62165646
_cell_angle_alpha   109.42368722
_cell_angle_beta   109.99874652
_cell_angle_gamma   108.97792702
_symmetry_Int_Tables_number   1
_chemical_formula_structural   Th6Zn3Sn8Pd3
_chemical_formula_sum   'Th6 Zn3 Sn8 Pd3'
_cell_volume   493.57755949
_cell_formula_units_Z   1
loop_
 _symmetry_equiv_pos_site_id
 _symmetry_equiv_pos_as_xyz
  1  'x, y, z'
loop_
 _atom_site_type_symbol
 _atom_site_label
 _atom_site_symmetry_multiplicity
 _atom_site_fract_x
 _atom_site_fract_y
 _atom_site_fract_z
 _atom_site_occupancy
  Th  Th0  1  0.868057  0.242909  0.121785  1
  Th  Th1  1  0.631943  0.753729  0.374853  1
  Th  Th2  1  0.250000  0.129085  0.879085  1
  Th  Th3  1  0.750000  0.370013  0.620013  1
  Th  Th4  1  0.116569  0.874685  0.247302  1
  Th  Th5  1  0.383431  0.630734  0.758116  1
  Zn  Zn6  1  0.374817  0.250431  0.625765  1
  Zn  Zn7  1  0.125183  0.750949  0.875614  1
  Zn  Zn8  1  0.250000  0.625117  0.375117  1
  Sn  Sn9  1  0.667987  0.497005  0.997260  1
  Sn  Sn10  1  0.499242  0.999914  0.666265  1
  Sn  Sn11  1  0.000758  0.667022  0.500672  1
  Sn  Sn12  1  0.832013  0.829273  0.829018  1
  Sn  Sn13  1  0.496490  0.998497  0.168292  1
  Sn  Sn14  1  0.167291  0.501846  0.000327  1
  Sn  Sn15  1  0.003510  0.171802  0.502006  1
  Sn  Sn16  1  0.332709  0.333036  0.334555  1
  Pd  Pd17  1  0.750000  0.873860  0.123860  1
  Pd  Pd18  1  0.623482  0.374262  0.249313  1
  Pd  Pd19  1  0.876518  0.125831  0.750780  1
