# generated using pymatgen
data_HfZrTa3Os
_symmetry_space_group_name_H-M   'P 1'
_cell_length_a   5.58591975
_cell_length_b   5.58591942
_cell_length_c   5.39106610
_cell_angle_alpha   58.79699567
_cell_angle_beta   58.79699448
_cell_angle_gamma   59.99999980
_symmetry_Int_Tables_number   1
_chemical_formula_structural   HfZrTa3Os
_chemical_formula_sum   'Hf1 Zr1 Ta3 Os1'
_cell_volume   116.73684380
_cell_formula_units_Z   1
loop_
 _symmetry_equiv_pos_site_id
 _symmetry_equiv_pos_as_xyz
  1  'x, y, z'
loop_
 _atom_site_type_symbol
 _atom_site_label
 _atom_site_symmetry_multiplicity
 _atom_site_fract_x
 _atom_site_fract_y
 _atom_site_fract_z
 _atom_site_occupancy
  Hf  Hf0  1  0.249834  0.249834  0.250499  1
  Zr  Zr1  1  0.999817  0.999817  0.000550  1
  Ta  Ta2  1  0.625038  0.125269  0.624655  1
  Ta  Ta3  1  0.125269  0.625038  0.624655  1
  Ta  Ta4  1  0.625038  0.625038  0.624655  1
  Os  Os5  1  0.625005  0.625005  0.124985  1
