# generated using pymatgen
data_Er2Tm2Sc6Ga7Si
_symmetry_space_group_name_H-M   'P 1'
_cell_length_a   7.22275223
_cell_length_b   7.45313803
_cell_length_c   14.43113400
_cell_angle_alpha   90.00155356
_cell_angle_beta   90.00253952
_cell_angle_gamma   90.24065299
_symmetry_Int_Tables_number   1
_chemical_formula_structural   Er2Tm2Sc6Ga7Si
_chemical_formula_sum   'Er4 Tm4 Sc12 Ga14 Si2'
_cell_volume   776.85239675
_cell_formula_units_Z   2
loop_
 _symmetry_equiv_pos_site_id
 _symmetry_equiv_pos_as_xyz
  1  'x, y, z'
loop_
 _atom_site_type_symbol
 _atom_site_label
 _atom_site_symmetry_multiplicity
 _atom_site_fract_x
 _atom_site_fract_y
 _atom_site_fract_z
 _atom_site_occupancy
  Er  Er0  1  0.012946  0.178944  0.096348  1
  Er  Er1  1  0.987076  0.821099  0.903650  1
  Er  Er2  1  0.489355  0.677891  0.904444  1
  Er  Er3  1  0.987063  0.821106  0.596315  1
  Tm  Tm4  1  0.510672  0.322032  0.095602  1
  Tm  Tm5  1  0.012927  0.179022  0.403624  1
  Tm  Tm6  1  0.510665  0.322034  0.404416  1
  Tm  Tm7  1  0.489320  0.677932  0.595595  1
  Sc  Sc8  1  0.160816  0.504238  0.749982  1
  Sc  Sc9  1  0.839163  0.495652  0.250025  1
  Sc  Sc10  1  0.337045  0.006387  0.250027  1
  Sc  Sc11  1  0.662924  0.993701  0.749985  1
  Sc  Sc12  1  0.331175  0.174489  0.622957  1
  Sc  Sc13  1  0.668844  0.825535  0.377021  1
  Sc  Sc14  1  0.170564  0.671703  0.376172  1
  Sc  Sc15  1  0.668836  0.825536  0.123007  1
  Sc  Sc16  1  0.829445  0.328288  0.623786  1
  Sc  Sc17  1  0.331185  0.174479  0.877033  1
  Sc  Sc18  1  0.829465  0.328271  0.876180  1
  Sc  Sc19  1  0.170563  0.671686  0.123837  1
  Ga  Ga20  1  0.032489  0.117240  0.750002  1
  Ga  Ga21  1  0.967505  0.882828  0.250023  1
  Ga  Ga22  1  0.467332  0.612047  0.250007  1
  Ga  Ga23  1  0.532658  0.387873  0.749978  1
  Ga  Ga24  1  0.285653  0.870634  0.749964  1
  Ga  Ga25  1  0.714374  0.129431  0.250023  1
  Ga  Ga26  1  0.159906  0.465743  0.540393  1
  Ga  Ga27  1  0.840114  0.534109  0.459565  1
  Ga  Ga28  1  0.338571  0.965305  0.459275  1
  Ga  Ga29  1  0.840105  0.534201  0.040430  1
  Ga  Ga30  1  0.661388  0.034754  0.540685  1
  Ga  Ga31  1  0.159821  0.465736  0.959604  1
  Ga  Ga32  1  0.661379  0.034874  0.959320  1
  Ga  Ga33  1  0.338646  0.965277  0.040712  1
  Si  Si34  1  0.215111  0.372970  0.250044  1
  Si  Si35  1  0.784899  0.626953  0.749972  1
