# generated using pymatgen
data_Dy8Er11Si16Ag
_symmetry_space_group_name_H-M   'P 1'
_cell_length_a   7.26478573
_cell_length_b   7.65084951
_cell_length_c   14.50477600
_cell_angle_alpha   90.00000000
_cell_angle_beta   90.00000000
_cell_angle_gamma   89.96346309
_symmetry_Int_Tables_number   1
_chemical_formula_structural   Dy8Er11Si16Ag
_chemical_formula_sum   'Dy8 Er11 Si16 Ag1'
_cell_volume   806.20113901
_cell_formula_units_Z   1
loop_
 _symmetry_equiv_pos_site_id
 _symmetry_equiv_pos_as_xyz
  1  'x, y, z'
loop_
 _atom_site_type_symbol
 _atom_site_label
 _atom_site_symmetry_multiplicity
 _atom_site_fract_x
 _atom_site_fract_y
 _atom_site_fract_z
 _atom_site_occupancy
  Dy  Dy0  1  0.018343  0.181724  0.096229  1
  Dy  Dy1  1  0.982758  0.806557  0.899315  1
  Dy  Dy2  1  0.475522  0.676063  0.900508  1
  Dy  Dy3  1  0.982758  0.806557  0.600685  1
  Dy  Dy4  1  0.517154  0.320698  0.094942  1
  Dy  Dy5  1  0.018343  0.181724  0.403771  1
  Dy  Dy6  1  0.517154  0.320698  0.405058  1
  Dy  Dy7  1  0.475522  0.676063  0.599492  1
  Er  Er8  1  0.839936  0.488734  0.250000  1
  Er  Er9  1  0.345672  0.013211  0.250000  1
  Er  Er10  1  0.651364  0.989027  0.750000  1
  Er  Er11  1  0.318646  0.184953  0.627307  1
  Er  Er12  1  0.676211  0.822728  0.377199  1
  Er  Er13  1  0.173749  0.683978  0.375969  1
  Er  Er14  1  0.676211  0.822728  0.122801  1
  Er  Er15  1  0.836243  0.325379  0.627296  1
  Er  Er16  1  0.318646  0.184953  0.872693  1
  Er  Er17  1  0.836243  0.325379  0.872704  1
  Er  Er18  1  0.173749  0.683978  0.124031  1
  Si  Si19  1  0.022602  0.080021  0.750000  1
  Si  Si20  1  0.971978  0.898836  0.250000  1
  Si  Si21  1  0.468536  0.609712  0.250000  1
  Si  Si22  1  0.530379  0.398307  0.750000  1
  Si  Si23  1  0.275750  0.870534  0.750000  1
  Si  Si24  1  0.724997  0.129078  0.250000  1
  Si  Si25  1  0.223267  0.374229  0.250000  1
  Si  Si26  1  0.767226  0.628768  0.750000  1
  Si  Si27  1  0.160081  0.463138  0.531046  1
  Si  Si28  1  0.846855  0.530783  0.462298  1
  Si  Si29  1  0.348790  0.970844  0.464132  1
  Si  Si30  1  0.846855  0.530783  0.037702  1
  Si  Si31  1  0.653791  0.030413  0.541274  1
  Si  Si32  1  0.160081  0.463138  0.968954  1
  Si  Si33  1  0.653791  0.030413  0.958726  1
  Si  Si34  1  0.348790  0.970844  0.035868  1
  Ag  Ag35  1  0.162008  0.525022  0.750000  1
