# generated using pymatgen
data_Tb5DyAl15Si9Os8
_symmetry_space_group_name_H-M   'P 1'
_cell_length_a   8.71763222
_cell_length_b   8.70661762
_cell_length_c   9.38851500
_cell_angle_alpha   90.00000000
_cell_angle_beta   90.00000000
_cell_angle_gamma   120.01212574
_symmetry_Int_Tables_number   1
_chemical_formula_structural   Tb5DyAl15Si9Os8
_chemical_formula_sum   'Tb5 Dy1 Al15 Si9 Os8'
_cell_volume   617.05300568
_cell_formula_units_Z   1
loop_
 _symmetry_equiv_pos_site_id
 _symmetry_equiv_pos_as_xyz
  1  'x, y, z'
loop_
 _atom_site_type_symbol
 _atom_site_label
 _atom_site_symmetry_multiplicity
 _atom_site_fract_x
 _atom_site_fract_y
 _atom_site_fract_z
 _atom_site_occupancy
  Tb  Tb0  1  0.191852  0.384100  0.250000  1
  Tb  Tb1  1  0.807386  0.615001  0.750000  1
  Tb  Tb2  1  0.613895  0.809726  0.250000  1
  Tb  Tb3  1  0.386561  0.192382  0.750000  1
  Tb  Tb4  1  0.195429  0.809724  0.250000  1
  Dy  Dy5  1  0.806321  0.191905  0.750000  1
  Al  Al6  1  0.166010  0.331965  0.579211  1
  Al  Al7  1  0.835082  0.670467  0.422607  1
  Al  Al8  1  0.667041  0.833768  0.578012  1
  Al  Al9  1  0.835082  0.670467  0.077393  1
  Al  Al10  1  0.329051  0.165550  0.423477  1
  Al  Al11  1  0.166010  0.331965  0.920789  1
  Al  Al12  1  0.166768  0.833730  0.578319  1
  Al  Al13  1  0.329051  0.165550  0.076523  1
  Al  Al14  1  0.836194  0.165537  0.423697  1
  Al  Al15  1  0.667041  0.833768  0.921988  1
  Al  Al16  1  0.836194  0.165537  0.076303  1
  Al  Al17  1  0.166768  0.833730  0.921681  1
  Al  Al18  1  0.873123  0.434171  0.250000  1
  Al  Al19  1  0.560802  0.434174  0.250000  1
  Al  Al20  1  0.999266  0.999304  0.250000  1
  Si  Si21  1  0.332588  0.665182  0.041925  1
  Si  Si22  1  0.667759  0.334814  0.959882  1
  Si  Si23  1  0.667759  0.334814  0.540118  1
  Si  Si24  1  0.332588  0.665182  0.458075  1
  Si  Si25  1  0.563693  0.127548  0.250000  1
  Si  Si26  1  0.438781  0.876137  0.750000  1
  Si  Si27  1  0.124554  0.561202  0.750000  1
  Si  Si28  1  0.436705  0.562425  0.750000  1
  Si  Si29  1  0.001558  0.001256  0.750000  1
  Os  Os30  1  0.499279  0.998417  0.998411  1
  Os  Os31  1  0.002209  0.500599  0.992987  1
  Os  Os32  1  0.499279  0.998417  0.501589  1
  Os  Os33  1  0.498459  0.500681  0.992974  1
  Os  Os34  1  0.002209  0.500599  0.507013  1
  Os  Os35  1  0.498459  0.500681  0.507026  1
  Os  Os36  1  0.999597  0.999758  0.992151  1
  Os  Os37  1  0.999597  0.999758  0.507849  1
