# generated using pymatgen
data_Gd6V(TcC4)3
_symmetry_space_group_name_H-M   'P 1'
_cell_length_a   8.40670700
_cell_length_b   8.40670713
_cell_length_c   5.10526400
_cell_angle_alpha   90.00000000
_cell_angle_beta   90.00000000
_cell_angle_gamma   119.99998556
_symmetry_Int_Tables_number   1
_chemical_formula_structural   Gd6V(TcC4)3
_chemical_formula_sum   'Gd6 V1 Tc3 C12'
_cell_volume   312.46453316
_cell_formula_units_Z   1
loop_
 _symmetry_equiv_pos_site_id
 _symmetry_equiv_pos_as_xyz
  1  'x, y, z'
loop_
 _atom_site_type_symbol
 _atom_site_label
 _atom_site_symmetry_multiplicity
 _atom_site_fract_x
 _atom_site_fract_y
 _atom_site_fract_z
 _atom_site_occupancy
  Gd  Gd0  1  0.625907  0.692111  0.751796  1
  Gd  Gd1  1  0.933796  0.625907  0.248204  1
  Gd  Gd2  1  0.692111  0.066204  0.248204  1
  Gd  Gd3  1  0.307889  0.933796  0.751796  1
  Gd  Gd4  1  0.066204  0.374093  0.751796  1
  Gd  Gd5  1  0.374093  0.307889  0.248204  1
  V  V6  1  0.000000  0.000000  0.000000  1
  Tc  Tc7  1  0.000000  0.000000  0.500000  1
  Tc  Tc8  1  0.666667  0.333333  0.748763  1
  Tc  Tc9  1  0.333333  0.666667  0.251237  1
  C  C10  1  0.962353  0.772097  0.756825  1
  C  C11  1  0.190256  0.962353  0.243175  1
  C  C12  1  0.772097  0.809744  0.243175  1
  C  C13  1  0.227903  0.190256  0.756825  1
  C  C14  1  0.809744  0.037647  0.756825  1
  C  C15  1  0.037647  0.227903  0.243175  1
  C  C16  1  0.866446  0.585005  0.748589  1
  C  C17  1  0.281439  0.866446  0.251411  1
  C  C18  1  0.585005  0.718561  0.251411  1
  C  C19  1  0.414995  0.281439  0.748589  1
  C  C20  1  0.133554  0.414995  0.251411  1
  C  C21  1  0.718561  0.133554  0.748589  1
