# generated using pymatgen
data_Ho2Mn6P7Ir6
_symmetry_space_group_name_H-M   'P 1'
_cell_length_a   9.38866400
_cell_length_b   9.38866454
_cell_length_c   3.84013300
_cell_angle_alpha   90.00000000
_cell_angle_beta   90.00000000
_cell_angle_gamma   120.00000609
_symmetry_Int_Tables_number   1
_chemical_formula_structural   Ho2Mn6P7Ir6
_chemical_formula_sum   'Ho2 Mn6 P7 Ir6'
_cell_volume   293.14634915
_cell_formula_units_Z   1
loop_
 _symmetry_equiv_pos_site_id
 _symmetry_equiv_pos_as_xyz
  1  'x, y, z'
loop_
 _atom_site_type_symbol
 _atom_site_label
 _atom_site_symmetry_multiplicity
 _atom_site_fract_x
 _atom_site_fract_y
 _atom_site_fract_z
 _atom_site_occupancy
  Ho  Ho0  1  0.666667  0.333333  0.000000  1
  Ho  Ho1  1  0.333333  0.666667  0.500000  1
  Mn  Mn2  1  0.269900  0.158846  0.000000  1
  Mn  Mn3  1  0.841154  0.111054  0.000000  1
  Mn  Mn4  1  0.888946  0.730100  0.000000  1
  Mn  Mn5  1  0.095956  0.214535  0.500000  1
  Mn  Mn6  1  0.785465  0.881422  0.500000  1
  Mn  Mn7  1  0.118578  0.904044  0.500000  1
  P  P8  1  0.299477  0.410435  0.000000  1
  P  P9  1  0.589565  0.889042  0.000000  1
  P  P10  1  0.110958  0.700523  0.000000  1
  P  P11  1  0.396530  0.118343  0.500000  1
  P  P12  1  0.881657  0.278188  0.500000  1
  P  P13  1  0.721812  0.603470  0.500000  1
  P  P14  1  0.000000  0.000000  0.000000  1
  Ir  Ir15  1  0.064738  0.426082  0.000000  1
  Ir  Ir16  1  0.573918  0.638656  0.000000  1
  Ir  Ir17  1  0.361344  0.935262  0.000000  1
  Ir  Ir18  1  0.442306  0.386438  0.500000  1
  Ir  Ir19  1  0.613562  0.055868  0.500000  1
  Ir  Ir20  1  0.944132  0.557694  0.500000  1
