# generated using pymatgen
data_Ca5Dy3(OsC2)4
_symmetry_space_group_name_H-M   'P 1'
_cell_length_a   5.15484900
_cell_length_b   6.47504932
_cell_length_c   10.20275645
_cell_angle_alpha   90.19691897
_cell_angle_beta   90.00000000
_cell_angle_gamma   90.00000000
_symmetry_Int_Tables_number   1
_chemical_formula_structural   Ca5Dy3(OsC2)4
_chemical_formula_sum   'Ca5 Dy3 Os4 C8'
_cell_volume   340.54458859
_cell_formula_units_Z   1
loop_
 _symmetry_equiv_pos_site_id
 _symmetry_equiv_pos_as_xyz
  1  'x, y, z'
loop_
 _atom_site_type_symbol
 _atom_site_label
 _atom_site_symmetry_multiplicity
 _atom_site_fract_x
 _atom_site_fract_y
 _atom_site_fract_z
 _atom_site_occupancy
  Ca  Ca0  1  0.250000  0.194079  0.947463  1
  Ca  Ca1  1  0.250000  0.532942  0.222323  1
  Ca  Ca2  1  0.750000  0.465443  0.779168  1
  Ca  Ca3  1  0.750000  0.966588  0.723416  1
  Ca  Ca4  1  0.250000  0.033922  0.278490  1
  Dy  Dy5  1  0.250000  0.685308  0.553045  1
  Dy  Dy6  1  0.750000  0.315879  0.442327  1
  Dy  Dy7  1  0.750000  0.815014  0.058716  1
  Os  Os8  1  0.250000  0.728537  0.853963  1
  Os  Os9  1  0.750000  0.272560  0.143558  1
  Os  Os10  1  0.750000  0.773989  0.359061  1
  Os  Os11  1  0.250000  0.228132  0.643204  1
  C  C12  1  0.250000  0.467851  0.754187  1
  C  C13  1  0.750000  0.537195  0.242426  1
  C  C14  1  0.750000  0.036523  0.259481  1
  C  C15  1  0.250000  0.961683  0.735839  1
  C  C16  1  0.250000  0.797436  0.032777  1
  C  C17  1  0.750000  0.186101  0.969595  1
  C  C18  1  0.750000  0.685442  0.535296  1
  C  C19  1  0.250000  0.315377  0.465663  1
