# generated using pymatgen
data_Ac2EuCu6Ni7B2
_symmetry_space_group_name_H-M   'P 1'
_cell_length_a   5.22802800
_cell_length_b   5.23565379
_cell_length_c   11.01977400
_cell_angle_alpha   90.00000000
_cell_angle_beta   90.00000000
_cell_angle_gamma   119.95181806
_symmetry_Int_Tables_number   1
_chemical_formula_structural   Ac2EuCu6Ni7B2
_chemical_formula_sum   'Ac2 Eu1 Cu6 Ni7 B2'
_cell_volume   261.35017553
_cell_formula_units_Z   1
loop_
 _symmetry_equiv_pos_site_id
 _symmetry_equiv_pos_as_xyz
  1  'x, y, z'
loop_
 _atom_site_type_symbol
 _atom_site_label
 _atom_site_symmetry_multiplicity
 _atom_site_fract_x
 _atom_site_fract_y
 _atom_site_fract_z
 _atom_site_occupancy
  Ac  Ac0  1  0.000000  0.000000  0.316627  1
  Ac  Ac1  1  0.000000  0.000000  0.683373  1
  Eu  Eu2  1  0.000000  0.000000  0.000000  1
  Cu  Cu3  1  0.500000  0.500000  0.500000  1
  Cu  Cu4  1  0.000000  0.500000  0.500000  1
  Cu  Cu5  1  0.335042  0.670085  0.312889  1
  Cu  Cu6  1  0.664958  0.329915  0.312889  1
  Cu  Cu7  1  0.664958  0.329915  0.687111  1
  Cu  Cu8  1  0.335042  0.670085  0.687111  1
  Ni  Ni9  1  0.500000  0.000000  0.500000  1
  Ni  Ni10  1  0.500000  0.000000  0.124889  1
  Ni  Ni11  1  0.500000  0.500000  0.124927  1
  Ni  Ni12  1  0.000000  0.500000  0.124927  1
  Ni  Ni13  1  0.500000  0.000000  0.875111  1
  Ni  Ni14  1  0.500000  0.500000  0.875073  1
  Ni  Ni15  1  0.000000  0.500000  0.875073  1
  B  B16  1  0.333302  0.666605  0.000000  1
  B  B17  1  0.666698  0.333395  0.000000  1
