# generated using pymatgen
data_SmY2Ga6Co4Ni5
_symmetry_space_group_name_H-M   'P 1'
_cell_length_a   8.76884699
_cell_length_b   8.74249538
_cell_length_c   4.09527700
_cell_angle_alpha   90.00000000
_cell_angle_beta   90.00000000
_cell_angle_gamma   120.02218043
_symmetry_Int_Tables_number   1
_chemical_formula_structural   SmY2Ga6Co4Ni5
_chemical_formula_sum   'Sm1 Y2 Ga6 Co4 Ni5'
_cell_volume   271.82832371
_cell_formula_units_Z   1
loop_
 _symmetry_equiv_pos_site_id
 _symmetry_equiv_pos_as_xyz
  1  'x, y, z'
loop_
 _atom_site_type_symbol
 _atom_site_label
 _atom_site_symmetry_multiplicity
 _atom_site_fract_x
 _atom_site_fract_y
 _atom_site_fract_z
 _atom_site_occupancy
  Sm  Sm0  1  0.331046  0.668179  0.500000  1
  Y  Y1  1  0.665581  0.332654  0.500000  1
  Y  Y2  1  0.000031  0.998478  0.000000  1
  Ga  Ga3  1  0.273083  0.272047  0.500000  1
  Ga  Ga4  1  0.729139  0.000348  0.500000  1
  Ga  Ga5  1  0.999987  0.726093  0.500000  1
  Ga  Ga6  1  0.515941  0.511482  0.000000  1
  Ga  Ga7  1  0.488714  0.004447  0.000000  1
  Ga  Ga8  1  0.997874  0.486517  0.000000  1
  Co  Co9  1  0.808762  0.175036  0.000000  1
  Co  Co10  1  0.825599  0.634058  0.000000  1
  Co  Co11  1  0.363716  0.189876  0.000000  1
  Co  Co12  1  0.176689  0.811605  0.000000  1
  Ni  Ni13  1  0.630713  0.823414  0.000000  1
  Ni  Ni14  1  0.191554  0.367899  0.000000  1
  Ni  Ni15  1  0.708260  0.706037  0.500000  1
  Ni  Ni16  1  0.294617  0.000401  0.500000  1
  Ni  Ni17  1  0.998693  0.291429  0.500000  1
