# generated using pymatgen
data_Hf3GaPt2N
_symmetry_space_group_name_H-M   'P 1'
_cell_length_a   8.56860316
_cell_length_b   8.56820491
_cell_length_c   8.56838400
_cell_angle_alpha   60.00093101
_cell_angle_beta   59.99953840
_cell_angle_gamma   60.00127915
_symmetry_Int_Tables_number   1
_chemical_formula_structural   Hf3GaPt2N
_chemical_formula_sum   'Hf12 Ga4 Pt8 N4'
_cell_volume   444.82535749
_cell_formula_units_Z   4
loop_
 _symmetry_equiv_pos_site_id
 _symmetry_equiv_pos_as_xyz
  1  'x, y, z'
loop_
 _atom_site_type_symbol
 _atom_site_label
 _atom_site_symmetry_multiplicity
 _atom_site_fract_x
 _atom_site_fract_y
 _atom_site_fract_z
 _atom_site_occupancy
  Hf  Hf0  1  0.810461  0.189548  0.189566  1
  Hf  Hf1  1  0.189551  0.810439  0.189538  1
  Hf  Hf2  1  0.810474  0.810416  0.189549  1
  Hf  Hf3  1  0.189560  0.810440  0.810465  1
  Hf  Hf4  1  0.810476  0.189542  0.810429  1
  Hf  Hf5  1  0.189563  0.189545  0.810437  1
  Hf  Hf6  1  0.439539  0.060452  0.060434  1
  Hf  Hf7  1  0.060449  0.439561  0.060462  1
  Hf  Hf8  1  0.439526  0.439584  0.060451  1
  Hf  Hf9  1  0.060440  0.439560  0.439535  1
  Hf  Hf10  1  0.439524  0.060458  0.439571  1
  Hf  Hf11  1  0.060437  0.060455  0.439563  1
  Ga  Ga12  1  0.625000  0.625000  0.125000  1
  Ga  Ga13  1  0.625000  0.625000  0.625000  1
  Ga  Ga14  1  0.125000  0.625000  0.625000  1
  Ga  Ga15  1  0.625000  0.125000  0.625000  1
  Pt  Pt16  1  0.409133  0.409152  0.772545  1
  Pt  Pt17  1  0.409148  0.409138  0.409170  1
  Pt  Pt18  1  0.772558  0.409159  0.409138  1
  Pt  Pt19  1  0.409163  0.772538  0.409158  1
  Pt  Pt20  1  0.840867  0.840848  0.477455  1
  Pt  Pt21  1  0.840852  0.840862  0.840830  1
  Pt  Pt22  1  0.477442  0.840841  0.840862  1
  Pt  Pt23  1  0.840837  0.477462  0.840842  1
  N  N24  1  0.125000  0.125000  0.625000  1
  N  N25  1  0.125000  0.125000  0.125000  1
  N  N26  1  0.625000  0.125000  0.125000  1
  N  N27  1  0.125000  0.625000  0.125000  1
