# generated using pymatgen
data_Pm5Ni4
_symmetry_space_group_name_H-M   'P 1'
_cell_length_a   4.30848649
_cell_length_b   5.74605521
_cell_length_c   10.62691100
_cell_angle_alpha   118.15349948
_cell_angle_beta   113.86711585
_cell_angle_gamma   68.16390760
_symmetry_Int_Tables_number   1
_chemical_formula_structural   Pm5Ni4
_chemical_formula_sum   'Pm5 Ni4'
_cell_volume   206.70920115
_cell_formula_units_Z   1
loop_
 _symmetry_equiv_pos_site_id
 _symmetry_equiv_pos_as_xyz
  1  'x, y, z'
loop_
 _atom_site_type_symbol
 _atom_site_label
 _atom_site_symmetry_multiplicity
 _atom_site_fract_x
 _atom_site_fract_y
 _atom_site_fract_z
 _atom_site_occupancy
  Pm  Pm0  1  0.190716  0.199959  0.666966  1
  Pm  Pm1  1  0.483679  0.461919  0.091329  1
  Pm  Pm2  1  0.318165  0.510761  0.448812  1
  Pm  Pm3  1  0.900857  0.986186  0.269911  1
  Pm  Pm4  1  0.610740  0.773425  0.873282  1
  Ni  Ni5  1  0.182943  0.081149  0.099254  1
  Ni  Ni6  1  0.901011  0.767718  0.660798  1
  Ni  Ni7  1  0.619052  0.891590  0.440895  1
  Ni  Ni8  1  0.900515  0.205926  0.879634  1
