# generated using pymatgen
data_Sr2B4Ir3Os
_symmetry_space_group_name_H-M   'P 1'
_cell_length_a   7.10169524
_cell_length_b   6.15547738
_cell_length_c   5.65133278
_cell_angle_alpha   73.81454503
_cell_angle_beta   56.34679727
_cell_angle_gamma   49.99644384
_symmetry_Int_Tables_number   1
_chemical_formula_structural   Sr2B4Ir3Os
_chemical_formula_sum   'Sr2 B4 Ir3 Os1'
_cell_volume   156.35464455
_cell_formula_units_Z   1
loop_
 _symmetry_equiv_pos_site_id
 _symmetry_equiv_pos_as_xyz
  1  'x, y, z'
loop_
 _atom_site_type_symbol
 _atom_site_label
 _atom_site_symmetry_multiplicity
 _atom_site_fract_x
 _atom_site_fract_y
 _atom_site_fract_z
 _atom_site_occupancy
  Sr  Sr0  1  0.498933  0.498933  0.501067  1
  Sr  Sr1  1  0.751379  0.751379  0.748621  1
  B  B2  1  0.823982  0.183071  0.829771  1
  B  B3  1  0.067262  0.427646  0.075831  1
  B  B4  1  0.183071  0.823982  0.163177  1
  B  B5  1  0.427646  0.067262  0.429261  1
  Ir  Ir6  1  0.380991  0.380991  0.119009  1
  Ir  Ir7  1  0.117153  0.117153  0.382847  1
  Ir  Ir8  1  0.867260  0.867260  0.132740  1
  Os  Os9  1  0.132324  0.132324  0.867676  1
