# generated using pymatgen
data_ErMgPaRh2
_symmetry_space_group_name_H-M   'P 1'
_cell_length_a   7.65062324
_cell_length_b   7.65062356
_cell_length_c   3.61552700
_cell_angle_alpha   90.00000000
_cell_angle_beta   90.00000000
_cell_angle_gamma   94.09123266
_symmetry_Int_Tables_number   1
_chemical_formula_structural   ErMgPaRh2
_chemical_formula_sum   'Er2 Mg2 Pa2 Rh4'
_cell_volume   211.08488578
_cell_formula_units_Z   2
loop_
 _symmetry_equiv_pos_site_id
 _symmetry_equiv_pos_as_xyz
  1  'x, y, z'
loop_
 _atom_site_type_symbol
 _atom_site_label
 _atom_site_symmetry_multiplicity
 _atom_site_fract_x
 _atom_site_fract_y
 _atom_site_fract_z
 _atom_site_occupancy
  Er  Er0  1  0.164715  0.335285  0.500000  1
  Er  Er1  1  0.835285  0.664715  0.500000  1
  Mg  Mg2  1  0.000000  0.000000  0.000000  1
  Mg  Mg3  1  0.500000  0.500000  0.000000  1
  Pa  Pa4  1  0.666219  0.166219  0.500000  1
  Pa  Pa5  1  0.333781  0.833781  0.500000  1
  Rh  Rh6  1  0.147626  0.647626  0.000000  1
  Rh  Rh7  1  0.852374  0.352374  0.000000  1
  Rh  Rh8  1  0.627136  0.872864  0.000000  1
  Rh  Rh9  1  0.372864  0.127136  0.000000  1
