# generated using pymatgen
data_Y2B3Ru4C
_symmetry_space_group_name_H-M   'P 1'
_cell_length_a   6.62567649
_cell_length_b   5.81710379
_cell_length_c   5.54511848
_cell_angle_alpha   71.29651954
_cell_angle_beta   57.57392917
_cell_angle_gamma   52.44012158
_symmetry_Int_Tables_number   1
_chemical_formula_structural   Y2B3Ru4C
_chemical_formula_sum   'Y2 B3 Ru4 C1'
_cell_volume   142.99897564
_cell_formula_units_Z   1
loop_
 _symmetry_equiv_pos_site_id
 _symmetry_equiv_pos_as_xyz
  1  'x, y, z'
loop_
 _atom_site_type_symbol
 _atom_site_label
 _atom_site_symmetry_multiplicity
 _atom_site_fract_x
 _atom_site_fract_y
 _atom_site_fract_z
 _atom_site_occupancy
  Y  Y0  1  0.999082  0.000918  0.999082  1
  Y  Y1  1  0.250629  0.249371  0.250629  1
  B  B2  1  0.313490  0.686510  0.313490  1
  B  B3  1  0.936021  0.563979  0.936021  1
  B  B4  1  0.560672  0.939328  0.560672  1
  Ru  Ru5  1  0.611395  0.607753  0.884144  1
  Ru  Ru6  1  0.644792  0.626318  0.362651  1
  Ru  Ru7  1  0.362651  0.366238  0.644792  1
  Ru  Ru8  1  0.884145  0.896708  0.611394  1
  C  C9  1  0.687122  0.312878  0.687122  1
