# generated using pymatgen
data_LuFe2PC
_symmetry_space_group_name_H-M   'P 1'
_cell_length_a   5.47262975
_cell_length_b   5.47262992
_cell_length_c   6.62294100
_cell_angle_alpha   90.00000000
_cell_angle_beta   90.00000000
_cell_angle_gamma   141.68240174
_symmetry_Int_Tables_number   1
_chemical_formula_structural   LuFe2PC
_chemical_formula_sum   'Lu2 Fe4 P2 C2'
_cell_volume   122.98404234
_cell_formula_units_Z   2
loop_
 _symmetry_equiv_pos_site_id
 _symmetry_equiv_pos_as_xyz
  1  'x, y, z'
loop_
 _atom_site_type_symbol
 _atom_site_label
 _atom_site_symmetry_multiplicity
 _atom_site_fract_x
 _atom_site_fract_y
 _atom_site_fract_z
 _atom_site_occupancy
  Lu  Lu0  1  0.546455  0.453545  0.250000  1
  Lu  Lu1  1  0.453545  0.546455  0.750000  1
  Fe  Fe2  1  0.832847  0.167153  0.055772  1
  Fe  Fe3  1  0.167153  0.832847  0.944228  1
  Fe  Fe4  1  0.167153  0.832847  0.555772  1
  Fe  Fe5  1  0.832847  0.167153  0.444228  1
  P  P6  1  0.268951  0.731049  0.250000  1
  P  P7  1  0.731049  0.268951  0.750000  1
  C  C8  1  0.000000  0.000000  0.000000  1
  C  C9  1  0.000000  0.000000  0.500000  1
