# generated using pymatgen
data_NaNdTh2(Ga3Ir)6
_symmetry_space_group_name_H-M   'P 1'
_cell_length_a   7.65303926
_cell_length_b   7.67243488
_cell_length_c   9.59193800
_cell_angle_alpha   90.00000000
_cell_angle_beta   90.00000000
_cell_angle_gamma   119.55600561
_symmetry_Int_Tables_number   1
_chemical_formula_structural   NaNdTh2(Ga3Ir)6
_chemical_formula_sum   'Na1 Nd1 Th2 Ga18 Ir6'
_cell_volume   489.92526665
_cell_formula_units_Z   1
loop_
 _symmetry_equiv_pos_site_id
 _symmetry_equiv_pos_as_xyz
  1  'x, y, z'
loop_
 _atom_site_type_symbol
 _atom_site_label
 _atom_site_symmetry_multiplicity
 _atom_site_fract_x
 _atom_site_fract_y
 _atom_site_fract_z
 _atom_site_occupancy
  Na  Na0  1  0.328506  0.006428  0.750000  1
  Nd  Nd1  1  0.001057  0.329690  0.750000  1
  Th  Th2  1  0.999037  0.672678  0.250000  1
  Th  Th3  1  0.669359  0.995273  0.250000  1
  Ga  Ga4  1  0.138334  0.134098  0.250000  1
  Ga  Ga5  1  0.874213  0.874663  0.750000  1
  Ga  Ga6  1  0.005373  0.335289  0.077976  1
  Ga  Ga7  1  0.005860  0.672488  0.915372  1
  Ga  Ga8  1  0.005860  0.672488  0.584628  1
  Ga  Ga9  1  0.335849  0.004422  0.430778  1
  Ga  Ga10  1  0.005373  0.335289  0.422024  1
  Ga  Ga11  1  0.656197  0.998231  0.584674  1
  Ga  Ga12  1  0.656197  0.998231  0.915326  1
  Ga  Ga13  1  0.335849  0.004422  0.069222  1
  Ga  Ga14  1  0.332107  0.326725  0.562794  1
  Ga  Ga15  1  0.663527  0.662765  0.443484  1
  Ga  Ga16  1  0.663527  0.662765  0.056516  1
  Ga  Ga17  1  0.332107  0.326725  0.937206  1
  Ga  Ga18  1  0.342082  0.542129  0.250000  1
  Ga  Ga19  1  0.659888  0.449651  0.750000  1
  Ga  Ga20  1  0.543105  0.337902  0.250000  1
  Ga  Ga21  1  0.450254  0.659976  0.750000  1
  Ir  Ir22  1  0.676059  0.332730  0.004059  1
  Ir  Ir23  1  0.328724  0.668848  0.004496  1
  Ir  Ir24  1  0.328724  0.668848  0.495504  1
  Ir  Ir25  1  0.676059  0.332730  0.495941  1
  Ir  Ir26  1  0.993385  0.997261  0.005829  1
  Ir  Ir27  1  0.993385  0.997261  0.494171  1
