# generated using pymatgen
data_KAc(SeO4)2
_symmetry_space_group_name_H-M   'P 1'
_cell_length_a   5.18591889
_cell_length_b   5.18591858
_cell_length_c   9.22767591
_cell_angle_alpha   101.80891076
_cell_angle_beta   101.80891014
_cell_angle_gamma   64.32462750
_symmetry_Int_Tables_number   1
_chemical_formula_structural   KAc(SeO4)2
_chemical_formula_sum   'K1 Ac1 Se2 O8'
_cell_volume   217.02972581
_cell_formula_units_Z   1
loop_
 _symmetry_equiv_pos_site_id
 _symmetry_equiv_pos_as_xyz
  1  'x, y, z'
loop_
 _atom_site_type_symbol
 _atom_site_label
 _atom_site_symmetry_multiplicity
 _atom_site_fract_x
 _atom_site_fract_y
 _atom_site_fract_z
 _atom_site_occupancy
  K  K0  1  0.004347  0.995653  0.000000  1
  Ac  Ac1  1  0.503190  0.496810  0.500000  1
  Se  Se2  1  0.744705  0.743489  0.260309  1
  Se  Se3  1  0.256511  0.255295  0.739690  1
  O  O4  1  0.869295  0.588366  0.100400  1
  O  O5  1  0.422226  0.744539  0.266762  1
  O  O6  1  0.718736  0.083985  0.299074  1
  O  O7  1  0.961952  0.564187  0.405745  1
  O  O8  1  0.435813  0.038048  0.594255  1
  O  O9  1  0.916015  0.281264  0.700926  1
  O  O10  1  0.255461  0.577773  0.733237  1
  O  O11  1  0.411634  0.130705  0.899600  1
