# generated using pymatgen
data_CaAl2GeAu
_symmetry_space_group_name_H-M   'P 1'
_cell_length_a   4.20221658
_cell_length_b   4.20221585
_cell_length_c   6.45996422
_cell_angle_alpha   71.01922471
_cell_angle_beta   71.01923292
_cell_angle_gamma   90.00000409
_symmetry_Int_Tables_number   1
_chemical_formula_structural   CaAl2GeAu
_chemical_formula_sum   'Ca1 Al2 Ge1 Au1'
_cell_volume   101.29004502
_cell_formula_units_Z   1
loop_
 _symmetry_equiv_pos_site_id
 _symmetry_equiv_pos_as_xyz
  1  'x, y, z'
loop_
 _atom_site_type_symbol
 _atom_site_label
 _atom_site_symmetry_multiplicity
 _atom_site_fract_x
 _atom_site_fract_y
 _atom_site_fract_z
 _atom_site_occupancy
  Ca  Ca0  1  0.997700  0.997700  0.004600  1
  Al  Al1  1  0.746006  0.246006  0.507989  1
  Al  Al2  1  0.246006  0.746006  0.507989  1
  Ge  Ge3  1  0.391880  0.391880  0.216240  1
  Au  Au4  1  0.618409  0.618409  0.763183  1
