# generated using pymatgen
data_ErTm7(V3Si4)4
_symmetry_space_group_name_H-M   'P 1'
_cell_length_a   6.63448698
_cell_length_b   6.82567865
_cell_length_c   12.82670038
_cell_angle_alpha   90.01226184
_cell_angle_beta   89.99854951
_cell_angle_gamma   90.00106646
_symmetry_Int_Tables_number   1
_chemical_formula_structural   ErTm7(V3Si4)4
_chemical_formula_sum   'Er1 Tm7 V12 Si16'
_cell_volume   580.85552343
_cell_formula_units_Z   1
loop_
 _symmetry_equiv_pos_site_id
 _symmetry_equiv_pos_as_xyz
  1  'x, y, z'
loop_
 _atom_site_type_symbol
 _atom_site_label
 _atom_site_symmetry_multiplicity
 _atom_site_fract_x
 _atom_site_fract_y
 _atom_site_fract_z
 _atom_site_occupancy
  Er  Er0  1  0.999268  0.168749  0.095459  1
  Tm  Tm1  1  0.499134  0.331193  0.095477  1
  Tm  Tm2  1  0.999085  0.168911  0.404574  1
  Tm  Tm3  1  0.500882  0.668940  0.595484  1
  Tm  Tm4  1  0.000839  0.831178  0.904263  1
  Tm  Tm5  1  0.500918  0.668790  0.904288  1
  Tm  Tm6  1  0.000813  0.831251  0.595502  1
  Tm  Tm7  1  0.499197  0.331160  0.404685  1
  V  V8  1  0.666076  0.013532  0.749843  1
  V  V9  1  0.165906  0.486444  0.749862  1
  V  V10  1  0.334211  0.986529  0.250310  1
  V  V11  1  0.833739  0.513543  0.250228  1
  V  V12  1  0.837352  0.326510  0.626051  1
  V  V13  1  0.337592  0.173680  0.873806  1
  V  V14  1  0.162475  0.673048  0.126162  1
  V  V15  1  0.662536  0.826348  0.374034  1
  V  V16  1  0.162912  0.673425  0.374152  1
  V  V17  1  0.662413  0.826547  0.126158  1
  V  V18  1  0.837216  0.326583  0.873727  1
  V  V19  1  0.337453  0.173340  0.626080  1
  Si  Si20  1  0.804325  0.618805  0.749864  1
  Si  Si21  1  0.304268  0.881241  0.749942  1
  Si  Si22  1  0.195979  0.381310  0.250218  1
  Si  Si23  1  0.695436  0.118883  0.250232  1
  Si  Si24  1  0.540497  0.366239  0.749940  1
  Si  Si25  1  0.040398  0.133567  0.750065  1
  Si  Si26  1  0.459672  0.633321  0.250128  1
  Si  Si27  1  0.959500  0.866162  0.250248  1
  Si  Si28  1  0.661162  0.042274  0.543617  1
  Si  Si29  1  0.161117  0.457976  0.956085  1
  Si  Si30  1  0.339278  0.957458  0.043437  1
  Si  Si31  1  0.838857  0.542260  0.456458  1
  Si  Si32  1  0.338814  0.957933  0.456532  1
  Si  Si33  1  0.838540  0.542735  0.043375  1
  Si  Si34  1  0.660986  0.042350  0.956097  1
  Si  Si35  1  0.161159  0.457787  0.543619  1
