# generated using pymatgen
data_ErFeP3Ir3Rh
_symmetry_space_group_name_H-M   'P 1'
_cell_length_a   3.89868800
_cell_length_b   10.72963700
_cell_length_c   12.41295600
_cell_angle_alpha   90.00000000
_cell_angle_beta   90.00000000
_cell_angle_gamma   90.00000000
_symmetry_Int_Tables_number   1
_chemical_formula_structural   ErFeP3Ir3Rh
_chemical_formula_sum   'Er4 Fe4 P12 Ir12 Rh4'
_cell_volume   519.25265601
_cell_formula_units_Z   4
loop_
 _symmetry_equiv_pos_site_id
 _symmetry_equiv_pos_as_xyz
  1  'x, y, z'
loop_
 _atom_site_type_symbol
 _atom_site_label
 _atom_site_symmetry_multiplicity
 _atom_site_fract_x
 _atom_site_fract_y
 _atom_site_fract_z
 _atom_site_occupancy
  Er  Er0  1  0.250000  0.581335  0.711004  1
  Er  Er1  1  0.250000  0.918665  0.211004  1
  Er  Er2  1  0.750000  0.418665  0.288996  1
  Er  Er3  1  0.750000  0.081335  0.788996  1
  Fe  Fe4  1  0.250000  0.458303  0.932361  1
  Fe  Fe5  1  0.250000  0.041697  0.432361  1
  Fe  Fe6  1  0.750000  0.541697  0.067639  1
  Fe  Fe7  1  0.750000  0.958303  0.567639  1
  P  P8  1  0.250000  0.432682  0.105354  1
  P  P9  1  0.250000  0.067318  0.605354  1
  P  P10  1  0.750000  0.567318  0.894646  1
  P  P11  1  0.750000  0.932682  0.394646  1
  P  P12  1  0.250000  0.267653  0.868594  1
  P  P13  1  0.250000  0.232347  0.368594  1
  P  P14  1  0.750000  0.732347  0.131406  1
  P  P15  1  0.750000  0.767653  0.631406  1
  P  P16  1  0.250000  0.598605  0.387300  1
  P  P17  1  0.250000  0.901395  0.887300  1
  P  P18  1  0.750000  0.401395  0.612700  1
  P  P19  1  0.750000  0.098605  0.112700  1
  Ir  Ir20  1  0.250000  0.408692  0.477180  1
  Ir  Ir21  1  0.250000  0.091309  0.977180  1
  Ir  Ir22  1  0.750000  0.591308  0.522820  1
  Ir  Ir23  1  0.750000  0.908692  0.022820  1
  Ir  Ir24  1  0.250000  0.235877  0.176865  1
  Ir  Ir25  1  0.250000  0.264123  0.676865  1
  Ir  Ir26  1  0.750000  0.764123  0.823135  1
  Ir  Ir27  1  0.750000  0.735877  0.323135  1
  Ir  Ir28  1  0.250000  0.881469  0.700956  1
  Ir  Ir29  1  0.250000  0.618531  0.200956  1
  Ir  Ir30  1  0.750000  0.118531  0.299044  1
  Ir  Ir31  1  0.750000  0.381469  0.799044  1
  Rh  Rh32  1  0.250000  0.720347  0.987118  1
  Rh  Rh33  1  0.250000  0.779653  0.487118  1
  Rh  Rh34  1  0.750000  0.279653  0.012882  1
  Rh  Rh35  1  0.750000  0.220347  0.512882  1
