# generated using pymatgen
data_Pr3AlNi3
_symmetry_space_group_name_H-M   'P 1'
_cell_length_a   4.12016300
_cell_length_b   5.68263102
_cell_length_c   13.78537400
_cell_angle_alpha   90.00000000
_cell_angle_beta   90.00000000
_cell_angle_gamma   68.74480328
_symmetry_Int_Tables_number   1
_chemical_formula_structural   Pr3AlNi3
_chemical_formula_sum   'Pr6 Al2 Ni6'
_cell_volume   300.80611976
_cell_formula_units_Z   2
loop_
 _symmetry_equiv_pos_site_id
 _symmetry_equiv_pos_as_xyz
  1  'x, y, z'
loop_
 _atom_site_type_symbol
 _atom_site_label
 _atom_site_symmetry_multiplicity
 _atom_site_fract_x
 _atom_site_fract_y
 _atom_site_fract_z
 _atom_site_occupancy
  Pr  Pr0  1  0.216649  0.566699  0.104713  1
  Pr  Pr1  1  0.498016  0.003968  0.250000  1
  Pr  Pr2  1  0.216649  0.566699  0.395287  1
  Pr  Pr3  1  0.783351  0.433301  0.604713  1
  Pr  Pr4  1  0.501982  0.996032  0.750000  1
  Pr  Pr5  1  0.783351  0.433301  0.895287  1
  Al  Al6  1  0.499999  0.000000  0.000000  1
  Al  Al7  1  0.499999  0.000000  0.500000  1
  Ni  Ni8  1  0.928143  0.143716  0.087486  1
  Ni  Ni9  1  0.803294  0.393416  0.250000  1
  Ni  Ni10  1  0.928143  0.143716  0.412514  1
  Ni  Ni11  1  0.071857  0.856284  0.587486  1
  Ni  Ni12  1  0.196706  0.606586  0.750000  1
  Ni  Ni13  1  0.071857  0.856284  0.912514  1
