# generated using pymatgen
data_Mn3CdBi8(SO7)4
_symmetry_space_group_name_H-M   'P 1'
_cell_length_a   5.54416700
_cell_length_b   7.39052850
_cell_length_c   16.27074923
_cell_angle_alpha   91.22554335
_cell_angle_beta   90.00000000
_cell_angle_gamma   90.00000000
_symmetry_Int_Tables_number   1
_chemical_formula_structural   Mn3CdBi8(SO7)4
_chemical_formula_sum   'Mn3 Cd1 Bi8 S4 O28'
_cell_volume   666.53044892
_cell_formula_units_Z   1
loop_
 _symmetry_equiv_pos_site_id
 _symmetry_equiv_pos_as_xyz
  1  'x, y, z'
loop_
 _atom_site_type_symbol
 _atom_site_label
 _atom_site_symmetry_multiplicity
 _atom_site_fract_x
 _atom_site_fract_y
 _atom_site_fract_z
 _atom_site_occupancy
  Mn  Mn0  1  0.250000  0.952869  0.667943  1
  Mn  Mn1  1  0.250000  0.059427  0.172136  1
  Mn  Mn2  1  0.750000  0.060265  0.328532  1
  Cd  Cd3  1  0.750000  0.922829  0.821508  1
  Bi  Bi4  1  0.750000  0.840061  0.514985  1
  Bi  Bi5  1  0.750000  0.231729  0.659152  1
  Bi  Bi6  1  0.250000  0.221896  0.845371  1
  Bi  Bi7  1  0.750000  0.775696  0.158094  1
  Bi  Bi8  1  0.750000  0.158882  0.017411  1
  Bi  Bi9  1  0.250000  0.779074  0.338693  1
  Bi  Bi10  1  0.250000  0.829153  0.983677  1
  Bi  Bi11  1  0.250000  0.170957  0.482031  1
  S  S12  1  0.250000  0.593405  0.602908  1
  S  S13  1  0.750000  0.418902  0.396147  1
  S  S14  1  0.250000  0.414367  0.105637  1
  S  S15  1  0.750000  0.568796  0.899218  1
  O  O16  1  0.033392  0.322009  0.141925  1
  O  O17  1  0.033234  0.687353  0.640389  1
  O  O18  1  0.750000  0.613365  0.372483  1
  O  O19  1  0.499804  0.918175  0.249473  1
  O  O20  1  0.466766  0.687353  0.640389  1
  O  O21  1  0.531298  0.652175  0.859944  1
  O  O22  1  0.990067  0.054810  0.578660  1
  O  O23  1  0.009041  0.956526  0.418656  1
  O  O24  1  0.509933  0.054810  0.578660  1
  O  O25  1  0.495632  0.094057  0.747704  1
  O  O26  1  0.490959  0.956526  0.418656  1
  O  O27  1  0.968702  0.652175  0.859944  1
  O  O28  1  0.004368  0.094057  0.747704  1
  O  O29  1  0.250000  0.614843  0.512360  1
  O  O30  1  0.508400  0.950371  0.080724  1
  O  O31  1  0.533366  0.323524  0.359455  1
  O  O32  1  0.750000  0.402448  0.486899  1
  O  O33  1  0.966634  0.323524  0.359455  1
  O  O34  1  0.250000  0.610811  0.129591  1
  O  O35  1  0.750000  0.606653  0.989114  1
  O  O36  1  0.750000  0.369231  0.881041  1
  O  O37  1  0.000196  0.918175  0.249473  1
  O  O38  1  0.466608  0.322009  0.141925  1
  O  O39  1  0.250000  0.390832  0.014675  1
  O  O40  1  0.991600  0.950371  0.080724  1
  O  O41  1  0.486698  0.038821  0.921044  1
  O  O42  1  0.013302  0.038821  0.921044  1
  O  O43  1  0.250000  0.397871  0.624447  1
