# generated using pymatgen
data_SrLu3(Rh2O7)2
_symmetry_space_group_name_H-M   'P 1'
_cell_length_a   7.18502819
_cell_length_b   7.21991340
_cell_length_c   7.18502700
_cell_angle_alpha   60.15970738
_cell_angle_beta   60.00000090
_cell_angle_gamma   60.15970709
_symmetry_Int_Tables_number   1
_chemical_formula_structural   SrLu3(Rh2O7)2
_chemical_formula_sum   'Sr1 Lu3 Rh4 O14'
_cell_volume   264.19101495
_cell_formula_units_Z   1
loop_
 _symmetry_equiv_pos_site_id
 _symmetry_equiv_pos_as_xyz
  1  'x, y, z'
loop_
 _atom_site_type_symbol
 _atom_site_label
 _atom_site_symmetry_multiplicity
 _atom_site_fract_x
 _atom_site_fract_y
 _atom_site_fract_z
 _atom_site_occupancy
  Sr  Sr0  1  0.625000  0.125000  0.625000  1
  Lu  Lu1  1  0.625000  0.625000  0.125000  1
  Lu  Lu2  1  0.625000  0.625000  0.625000  1
  Lu  Lu3  1  0.125000  0.625000  0.625000  1
  Rh  Rh4  1  0.125000  0.125000  0.125000  1
  Rh  Rh5  1  0.625000  0.125000  0.125000  1
  Rh  Rh6  1  0.125000  0.125000  0.625000  1
  Rh  Rh7  1  0.125000  0.625000  0.125000  1
  O  O8  1  0.039179  0.462565  0.459077  1
  O  O9  1  0.790923  0.787435  0.210821  1
  O  O10  1  0.791820  0.224651  0.191709  1
  O  O11  1  0.458180  0.025349  0.458180  1
  O  O12  1  0.759698  0.720906  0.759698  1
  O  O13  1  0.039179  0.462565  0.039179  1
  O  O14  1  0.058291  0.025349  0.458180  1
  O  O15  1  0.210821  0.787435  0.210821  1
  O  O16  1  0.191709  0.224651  0.791820  1
  O  O17  1  0.791820  0.224651  0.791820  1
  O  O18  1  0.490302  0.529094  0.490302  1
  O  O19  1  0.458180  0.025349  0.058291  1
  O  O20  1  0.459077  0.462565  0.039179  1
  O  O21  1  0.210821  0.787435  0.790923  1
