# generated using pymatgen
data_Hf4Co3Si2NiAs2
_symmetry_space_group_name_H-M   'P 1'
_cell_length_a   3.80941500
_cell_length_b   6.45188761
_cell_length_c   7.23425012
_cell_angle_alpha   89.69469470
_cell_angle_beta   90.00000000
_cell_angle_gamma   90.00000000
_symmetry_Int_Tables_number   1
_chemical_formula_structural   Hf4Co3Si2NiAs2
_chemical_formula_sum   'Hf4 Co3 Si2 Ni1 As2'
_cell_volume   177.80027793
_cell_formula_units_Z   1
loop_
 _symmetry_equiv_pos_site_id
 _symmetry_equiv_pos_as_xyz
  1  'x, y, z'
loop_
 _atom_site_type_symbol
 _atom_site_label
 _atom_site_symmetry_multiplicity
 _atom_site_fract_x
 _atom_site_fract_y
 _atom_site_fract_z
 _atom_site_occupancy
  Hf  Hf0  1  0.250000  0.519662  0.189816  1
  Hf  Hf1  1  0.750000  0.475387  0.811387  1
  Hf  Hf2  1  0.250000  0.014693  0.315295  1
  Hf  Hf3  1  0.750000  0.986500  0.684259  1
  Co  Co4  1  0.750000  0.364343  0.444729  1
  Co  Co5  1  0.250000  0.146133  0.928185  1
  Co  Co6  1  0.750000  0.855130  0.069962  1
  Si  Si7  1  0.750000  0.726281  0.385714  1
  Si  Si8  1  0.250000  0.273062  0.609273  1
  Ni  Ni9  1  0.250000  0.639545  0.557538  1
  As  As10  1  0.750000  0.229382  0.118697  1
  As  As11  1  0.250000  0.769883  0.885145  1
