# generated using pymatgen
data_YHf(Ni2P)4
_symmetry_space_group_name_H-M   'P 1'
_cell_length_a   3.58830100
_cell_length_b   6.99932938
_cell_length_c   6.99932938
_cell_angle_alpha   89.22667257
_cell_angle_beta   90.00000000
_cell_angle_gamma   90.00000000
_symmetry_Int_Tables_number   1
_chemical_formula_structural   YHf(Ni2P)4
_chemical_formula_sum   'Y1 Hf1 Ni8 P4'
_cell_volume   175.77704939
_cell_formula_units_Z   1
loop_
 _symmetry_equiv_pos_site_id
 _symmetry_equiv_pos_as_xyz
  1  'x, y, z'
loop_
 _atom_site_type_symbol
 _atom_site_label
 _atom_site_symmetry_multiplicity
 _atom_site_fract_x
 _atom_site_fract_y
 _atom_site_fract_z
 _atom_site_occupancy
  Y  Y0  1  0.000000  0.500000  0.500000  1
  Hf  Hf1  1  0.500000  0.000000  0.000000  1
  Ni  Ni2  1  0.500000  0.162792  0.586086  1
  Ni  Ni3  1  0.500000  0.837208  0.413914  1
  Ni  Ni4  1  0.000000  0.333683  0.083357  1
  Ni  Ni5  1  0.000000  0.666317  0.916643  1
  Ni  Ni6  1  0.500000  0.586086  0.162792  1
  Ni  Ni7  1  0.500000  0.413914  0.837208  1
  Ni  Ni8  1  0.000000  0.083357  0.333683  1
  Ni  Ni9  1  0.000000  0.916643  0.666317  1
  P  P10  1  0.500000  0.728016  0.728016  1
  P  P11  1  0.500000  0.271984  0.271984  1
  P  P12  1  0.000000  0.787577  0.212423  1
  P  P13  1  0.000000  0.212423  0.787577  1
