# generated using pymatgen
data_Zr8In14Co7Ag
_symmetry_space_group_name_H-M   'P 1'
_cell_length_a   9.46045134
_cell_length_b   9.46045135
_cell_length_c   9.46045100
_cell_angle_alpha   59.99999771
_cell_angle_beta   59.99999769
_cell_angle_gamma   59.99999848
_symmetry_Int_Tables_number   1
_chemical_formula_structural   Zr8In14Co7Ag
_chemical_formula_sum   'Zr8 In14 Co7 Ag1'
_cell_volume   598.71554658
_cell_formula_units_Z   1
loop_
 _symmetry_equiv_pos_site_id
 _symmetry_equiv_pos_as_xyz
  1  'x, y, z'
loop_
 _atom_site_type_symbol
 _atom_site_label
 _atom_site_symmetry_multiplicity
 _atom_site_fract_x
 _atom_site_fract_y
 _atom_site_fract_z
 _atom_site_occupancy
  Zr  Zr0  1  0.121451  0.635648  0.121451  1
  Zr  Zr1  1  0.364352  0.878549  0.878549  1
  Zr  Zr2  1  0.878549  0.878549  0.878549  1
  Zr  Zr3  1  0.635648  0.121451  0.121451  1
  Zr  Zr4  1  0.878549  0.878549  0.364352  1
  Zr  Zr5  1  0.121451  0.121451  0.121451  1
  Zr  Zr6  1  0.878549  0.364352  0.878549  1
  Zr  Zr7  1  0.121451  0.121451  0.635648  1
  In  In8  1  0.500000  0.839279  0.160721  1
  In  In9  1  0.500000  0.839279  0.500000  1
  In  In10  1  0.500000  0.160721  0.500000  1
  In  In11  1  0.500000  0.500000  0.839279  1
  In  In12  1  0.160721  0.500000  0.500000  1
  In  In13  1  0.839279  0.160721  0.500000  1
  In  In14  1  0.160721  0.839279  0.500000  1
  In  In15  1  0.500000  0.160721  0.839279  1
  In  In16  1  0.160721  0.500000  0.839279  1
  In  In17  1  0.500000  0.500000  0.160721  1
  In  In18  1  0.839279  0.500000  0.500000  1
  In  In19  1  0.839279  0.500000  0.160721  1
  In  In20  1  0.250000  0.250000  0.250000  1
  In  In21  1  0.750000  0.750000  0.750000  1
  Co  Co22  1  0.783941  0.783941  0.216059  1
  Co  Co23  1  0.000000  0.000000  0.000000  1
  Co  Co24  1  0.216059  0.783941  0.216059  1
  Co  Co25  1  0.216059  0.783941  0.783941  1
  Co  Co26  1  0.216059  0.216059  0.783941  1
  Co  Co27  1  0.783941  0.216059  0.783941  1
  Co  Co28  1  0.783941  0.216059  0.216059  1
  Ag  Ag29  1  0.500000  0.500000  0.500000  1
