# generated using pymatgen
data_Er6Al24FePd3Ru3Rh
_symmetry_space_group_name_H-M   'P 1'
_cell_length_a   8.80593087
_cell_length_b   8.78817876
_cell_length_c   9.49254300
_cell_angle_alpha   90.20546696
_cell_angle_beta   89.88137993
_cell_angle_gamma   119.46797231
_symmetry_Int_Tables_number   1
_chemical_formula_structural   Er6Al24FePd3Ru3Rh
_chemical_formula_sum   'Er6 Al24 Fe1 Pd3 Ru3 Rh1'
_cell_volume   639.56979405
_cell_formula_units_Z   1
loop_
 _symmetry_equiv_pos_site_id
 _symmetry_equiv_pos_as_xyz
  1  'x, y, z'
loop_
 _atom_site_type_symbol
 _atom_site_label
 _atom_site_symmetry_multiplicity
 _atom_site_fract_x
 _atom_site_fract_y
 _atom_site_fract_z
 _atom_site_occupancy
  Er  Er0  1  0.190237  0.386953  0.251503  1
  Er  Er1  1  0.809763  0.613047  0.748497  1
  Er  Er2  1  0.614186  0.809289  0.249631  1
  Er  Er3  1  0.385814  0.190711  0.750369  1
  Er  Er4  1  0.192969  0.805981  0.250089  1
  Er  Er5  1  0.807031  0.194019  0.749911  1
  Al  Al6  1  0.328178  0.664025  0.030074  1
  Al  Al7  1  0.671822  0.335975  0.969926  1
  Al  Al8  1  0.667206  0.329646  0.527442  1
  Al  Al9  1  0.332794  0.670354  0.472558  1
  Al  Al10  1  0.156556  0.318711  0.576044  1
  Al  Al11  1  0.843444  0.681289  0.423956  1
  Al  Al12  1  0.681185  0.845698  0.574931  1
  Al  Al13  1  0.842618  0.675822  0.077486  1
  Al  Al14  1  0.318815  0.154302  0.425069  1
  Al  Al15  1  0.157382  0.324178  0.922514  1
  Al  Al16  1  0.162908  0.841597  0.576804  1
  Al  Al17  1  0.322469  0.162490  0.079150  1
  Al  Al18  1  0.837092  0.158403  0.423196  1
  Al  Al19  1  0.677531  0.837510  0.920850  1
  Al  Al20  1  0.842577  0.168064  0.079760  1
  Al  Al21  1  0.157423  0.831936  0.920240  1
  Al  Al22  1  0.562087  0.125091  0.253998  1
  Al  Al23  1  0.437913  0.874909  0.746002  1
  Al  Al24  1  0.876434  0.439265  0.249500  1
  Al  Al25  1  0.123566  0.560735  0.750500  1
  Al  Al26  1  0.562949  0.437449  0.250475  1
  Al  Al27  1  0.437051  0.562551  0.749525  1
  Al  Al28  1  0.997838  0.001122  0.256125  1
  Al  Al29  1  0.002162  0.998878  0.743875  1
  Fe  Fe30  1  0.000000  0.000000  0.500000  1
  Pd  Pd31  1  0.500000  0.000000  0.000000  1
  Pd  Pd32  1  0.500000  0.500000  0.000000  1
  Pd  Pd33  1  0.500000  0.500000  0.500000  1
  Ru  Ru34  1  0.000000  0.500000  0.000000  1
  Ru  Ru35  1  0.500000  0.000000  0.500000  1
  Ru  Ru36  1  0.000000  0.000000  0.000000  1
  Rh  Rh37  1  0.000000  0.500000  0.500000  1
