# generated using pymatgen
data_Ac2Tb(MgTl)3
_symmetry_space_group_name_H-M   'P 1'
_cell_length_a   7.85631343
_cell_length_b   7.85631414
_cell_length_c   4.92957300
_cell_angle_alpha   90.00000000
_cell_angle_beta   90.00000000
_cell_angle_gamma   118.88389465
_symmetry_Int_Tables_number   1
_chemical_formula_structural   Ac2Tb(MgTl)3
_chemical_formula_sum   'Ac2 Tb1 Mg3 Tl3'
_cell_volume   266.41143722
_cell_formula_units_Z   1
loop_
 _symmetry_equiv_pos_site_id
 _symmetry_equiv_pos_as_xyz
  1  'x, y, z'
loop_
 _atom_site_type_symbol
 _atom_site_label
 _atom_site_symmetry_multiplicity
 _atom_site_fract_x
 _atom_site_fract_y
 _atom_site_fract_z
 _atom_site_occupancy
  Ac  Ac0  1  0.571673  0.997469  0.000000  1
  Ac  Ac1  1  0.997469  0.571673  0.000000  1
  Tb  Tb2  1  0.419927  0.419927  0.000000  1
  Mg  Mg3  1  0.241804  0.003353  0.500000  1
  Mg  Mg4  1  0.003353  0.241804  0.500000  1
  Mg  Mg5  1  0.759402  0.759402  0.500000  1
  Tl  Tl6  1  0.339249  0.652456  0.500000  1
  Tl  Tl7  1  0.652456  0.339249  0.500000  1
  Tl  Tl8  1  0.014669  0.014669  0.000000  1
