# generated using pymatgen
data_Sc3Co8TcAs6
_symmetry_space_group_name_H-M   'P 1'
_cell_length_a   3.73312900
_cell_length_b   10.85501700
_cell_length_c   12.47867500
_cell_angle_alpha   90.00000000
_cell_angle_beta   90.00000000
_cell_angle_gamma   90.00000000
_symmetry_Int_Tables_number   1
_chemical_formula_structural   Sc3Co8TcAs6
_chemical_formula_sum   'Sc6 Co16 Tc2 As12'
_cell_volume   505.67557769
_cell_formula_units_Z   2
loop_
 _symmetry_equiv_pos_site_id
 _symmetry_equiv_pos_as_xyz
  1  'x, y, z'
loop_
 _atom_site_type_symbol
 _atom_site_label
 _atom_site_symmetry_multiplicity
 _atom_site_fract_x
 _atom_site_fract_y
 _atom_site_fract_z
 _atom_site_occupancy
  Sc  Sc0  1  0.000000  0.500000  0.529369  1
  Sc  Sc1  1  0.500000  0.000000  0.470631  1
  Sc  Sc2  1  0.500000  0.820178  0.206824  1
  Sc  Sc3  1  0.500000  0.179822  0.206824  1
  Sc  Sc4  1  0.000000  0.679822  0.793176  1
  Sc  Sc5  1  0.000000  0.320178  0.793176  1
  Co  Co6  1  0.500000  0.500000  0.699766  1
  Co  Co7  1  0.000000  0.000000  0.300234  1
  Co  Co8  1  0.000000  0.500000  0.988558  1
  Co  Co9  1  0.500000  0.000000  0.011442  1
  Co  Co10  1  0.500000  0.333499  0.991036  1
  Co  Co11  1  0.500000  0.666501  0.991036  1
  Co  Co12  1  0.000000  0.166501  0.008964  1
  Co  Co13  1  0.000000  0.833499  0.008964  1
  Co  Co14  1  0.500000  0.298349  0.432119  1
  Co  Co15  1  0.500000  0.701651  0.432119  1
  Co  Co16  1  0.000000  0.201651  0.567881  1
  Co  Co17  1  0.000000  0.798349  0.567881  1
  Co  Co18  1  0.500000  0.877612  0.704945  1
  Co  Co19  1  0.500000  0.122388  0.704945  1
  Co  Co20  1  0.000000  0.622388  0.295055  1
  Co  Co21  1  0.000000  0.377612  0.295055  1
  Tc  Tc22  1  0.500000  0.500000  0.158288  1
  Tc  Tc23  1  0.000000  0.000000  0.841712  1
  As  As24  1  0.500000  0.500000  0.876694  1
  As  As25  1  0.000000  0.000000  0.123306  1
  As  As26  1  0.500000  0.500000  0.357111  1
  As  As27  1  0.000000  0.000000  0.642889  1
  As  As28  1  0.500000  0.316052  0.618226  1
  As  As29  1  0.500000  0.683948  0.618226  1
  As  As30  1  0.000000  0.183948  0.381774  1
  As  As31  1  0.000000  0.816052  0.381774  1
  As  As32  1  0.500000  0.841509  0.887703  1
  As  As33  1  0.500000  0.158491  0.887703  1
  As  As34  1  0.000000  0.658491  0.112297  1
  As  As35  1  0.000000  0.341509  0.112297  1
