# generated using pymatgen
data_TlBi2Te4Se
_symmetry_space_group_name_H-M   'P 1'
_cell_length_a   25.21830961
_cell_length_b   25.21830911
_cell_length_c   6.43954100
_cell_angle_alpha   98.66191195
_cell_angle_beta   98.66191408
_cell_angle_gamma   12.96418524
_symmetry_Int_Tables_number   1
_chemical_formula_structural   TlBi2Te4Se
_chemical_formula_sum   'Tl3 Bi6 Te12 Se3'
_cell_volume   908.13482621
_cell_formula_units_Z   3
loop_
 _symmetry_equiv_pos_site_id
 _symmetry_equiv_pos_as_xyz
  1  'x, y, z'
loop_
 _atom_site_type_symbol
 _atom_site_label
 _atom_site_symmetry_multiplicity
 _atom_site_fract_x
 _atom_site_fract_y
 _atom_site_fract_z
 _atom_site_occupancy
  Tl  Tl0  1  0.957874  0.957874  0.095606  1
  Tl  Tl1  1  0.454479  0.454479  0.588468  1
  Tl  Tl2  1  0.582882  0.582882  0.508998  1
  Bi  Bi3  1  0.243833  0.243833  0.915506  1
  Bi  Bi4  1  0.738968  0.738968  0.465898  1
  Bi  Bi5  1  0.873142  0.873142  0.859248  1
  Bi  Bi6  1  0.333249  0.333249  0.243594  1
  Bi  Bi7  1  0.174825  0.174825  0.262257  1
  Bi  Bi8  1  0.650387  0.650387  0.761178  1
  Te  Te9  1  0.085651  0.085651  0.518875  1
  Te  Te10  1  0.610425  0.610425  0.065086  1
  Te  Te11  1  0.897836  0.897836  0.465437  1
  Te  Te12  1  0.372603  0.372603  0.875508  1
  Te  Te13  1  0.457918  0.457918  0.090425  1
  Te  Te14  1  0.955833  0.955833  0.597816  1
  Te  Te15  1  0.554317  0.554317  0.944949  1
  Te  Te16  1  0.033070  0.033070  0.305501  1
  Te  Te17  1  0.299520  0.299520  0.829438  1
  Te  Te18  1  0.833651  0.833651  0.284331  1
  Te  Te19  1  0.154870  0.154870  0.742499  1
  Te  Te20  1  0.677679  0.677679  0.275740  1
  Se  Se21  1  0.048179  0.048179  0.938406  1
  Se  Se22  1  0.739813  0.739813  0.916128  1
  Se  Se23  1  0.237084  0.237084  0.449110  1
