# generated using pymatgen
data_Nd2SmEr3Ta2O14
_symmetry_space_group_name_H-M   'P 1'
_cell_length_a   6.50484800
_cell_length_b   6.48772332
_cell_length_c   7.60262700
_cell_angle_alpha   90.00000000
_cell_angle_beta   90.00000000
_cell_angle_gamma   109.32754144
_symmetry_Int_Tables_number   1
_chemical_formula_structural   Nd2SmEr3Ta2O14
_chemical_formula_sum   'Nd2 Sm1 Er3 Ta2 O14'
_cell_volume   302.76132999
_cell_formula_units_Z   1
loop_
 _symmetry_equiv_pos_site_id
 _symmetry_equiv_pos_as_xyz
  1  'x, y, z'
loop_
 _atom_site_type_symbol
 _atom_site_label
 _atom_site_symmetry_multiplicity
 _atom_site_fract_x
 _atom_site_fract_y
 _atom_site_fract_z
 _atom_site_occupancy
  Nd  Nd0  1  0.502079  0.502954  0.501477  1
  Nd  Nd1  1  0.502079  0.502954  0.998523  1
  Sm  Sm2  1  0.466021  0.000837  0.250000  1
  Er  Er3  1  0.001578  0.532523  0.250000  1
  Er  Er4  1  0.998849  0.466942  0.750000  1
  Er  Er5  1  0.534168  0.000817  0.750000  1
  Ta  Ta6  1  0.000623  0.000233  0.501763  1
  Ta  Ta7  1  0.000623  0.000233  0.998237  1
  O  O8  1  0.936510  0.067924  0.750000  1
  O  O9  1  0.060243  0.935503  0.250000  1
  O  O10  1  0.354809  0.635259  0.250000  1
  O  O11  1  0.645446  0.355937  0.750000  1
  O  O12  1  0.361414  0.636756  0.750000  1
  O  O13  1  0.642692  0.373499  0.250000  1
  O  O14  1  0.318880  0.069805  0.962533  1
  O  O15  1  0.677773  0.925672  0.475022  1
  O  O16  1  0.318880  0.069805  0.537467  1
  O  O17  1  0.677773  0.925672  0.024978  1
  O  O18  1  0.065872  0.319276  0.466291  1
  O  O19  1  0.933906  0.679059  0.966960  1
  O  O20  1  0.933906  0.679059  0.533040  1
  O  O21  1  0.065872  0.319276  0.033709  1
