# generated using pymatgen
data_Sc2Mn3Fe6Ni3P7
_symmetry_space_group_name_H-M   'P 1'
_cell_length_a   9.00650706
_cell_length_b   8.99150648
_cell_length_c   3.54890600
_cell_angle_alpha   90.00000000
_cell_angle_beta   90.00000000
_cell_angle_gamma   119.51239932
_symmetry_Int_Tables_number   1
_chemical_formula_structural   Sc2Mn3Fe6Ni3P7
_chemical_formula_sum   'Sc2 Mn3 Fe6 Ni3 P7'
_cell_volume   250.10762939
_cell_formula_units_Z   1
loop_
 _symmetry_equiv_pos_site_id
 _symmetry_equiv_pos_as_xyz
  1  'x, y, z'
loop_
 _atom_site_type_symbol
 _atom_site_label
 _atom_site_symmetry_multiplicity
 _atom_site_fract_x
 _atom_site_fract_y
 _atom_site_fract_z
 _atom_site_occupancy
  Sc  Sc0  1  0.000086  0.003613  0.000000  1
  Sc  Sc1  1  0.664731  0.324687  0.500000  1
  Mn  Mn2  1  0.435640  0.540224  0.500000  1
  Mn  Mn3  1  0.112804  0.566656  0.500000  1
  Mn  Mn4  1  0.454656  0.889691  0.500000  1
  Fe  Fe5  1  0.700130  0.097014  0.000000  1
  Fe  Fe6  1  0.612257  0.785840  0.000000  1
  Fe  Fe7  1  0.176743  0.392178  0.000000  1
  Fe  Fe8  1  0.211853  0.823185  0.000000  1
  Fe  Fe9  1  0.945902  0.229983  0.500000  1
  Fe  Fe10  1  0.282636  0.056989  0.500000  1
  Ni  Ni11  1  0.398003  0.297847  0.000000  1
  Ni  Ni12  1  0.897024  0.600340  0.000000  1
  Ni  Ni13  1  0.777112  0.722370  0.500000  1
  P  P14  1  0.631119  0.550223  0.000000  1
  P  P15  1  0.916702  0.361106  0.000000  1
  P  P16  1  0.446455  0.076659  0.000000  1
  P  P17  1  0.743437  0.961378  0.500000  1
  P  P18  1  0.202960  0.253111  0.500000  1
  P  P19  1  0.054270  0.799091  0.500000  1
  P  P20  1  0.335481  0.667814  0.000000  1
