# generated using pymatgen
data_Lu3Th(Sc3Sn4)2
_symmetry_space_group_name_H-M   'P 1'
_cell_length_a   7.74710900
_cell_length_b   7.87875614
_cell_length_c   14.83937227
_cell_angle_alpha   90.02181920
_cell_angle_beta   90.00000000
_cell_angle_gamma   90.00000000
_symmetry_Int_Tables_number   1
_chemical_formula_structural   Lu3Th(Sc3Sn4)2
_chemical_formula_sum   'Lu6 Th2 Sc12 Sn16'
_cell_volume   905.75934526
_cell_formula_units_Z   2
loop_
 _symmetry_equiv_pos_site_id
 _symmetry_equiv_pos_as_xyz
  1  'x, y, z'
loop_
 _atom_site_type_symbol
 _atom_site_label
 _atom_site_symmetry_multiplicity
 _atom_site_fract_x
 _atom_site_fract_y
 _atom_site_fract_z
 _atom_site_occupancy
  Lu  Lu0  1  0.516851  0.324686  0.905227  1
  Lu  Lu1  1  0.016851  0.175314  0.594773  1
  Lu  Lu2  1  0.485127  0.675646  0.404838  1
  Lu  Lu3  1  0.985127  0.824354  0.095162  1
  Lu  Lu4  1  0.484572  0.675902  0.095256  1
  Lu  Lu5  1  0.984572  0.824098  0.404744  1
  Th  Th6  1  0.513322  0.325989  0.592137  1
  Th  Th7  1  0.013322  0.174011  0.907863  1
  Sc  Sc8  1  0.352462  0.838599  0.874791  1
  Sc  Sc9  1  0.852462  0.661401  0.625209  1
  Sc  Sc10  1  0.646999  0.159860  0.373700  1
  Sc  Sc11  1  0.146999  0.340140  0.126300  1
  Sc  Sc12  1  0.648008  0.160365  0.126083  1
  Sc  Sc13  1  0.148008  0.339635  0.373917  1
  Sc  Sc14  1  0.353589  0.839840  0.625374  1
  Sc  Sc15  1  0.853589  0.660160  0.874626  1
  Sc  Sc16  1  0.184280  0.502309  0.750182  1
  Sc  Sc17  1  0.684280  0.997691  0.749818  1
  Sc  Sc18  1  0.815907  0.498492  0.250299  1
  Sc  Sc19  1  0.315907  0.001508  0.249701  1
  Sn  Sn20  1  0.311481  0.041838  0.044418  1
  Sn  Sn21  1  0.811481  0.458162  0.455582  1
  Sn  Sn22  1  0.694623  0.955558  0.542198  1
  Sn  Sn23  1  0.194623  0.544442  0.957802  1
  Sn  Sn24  1  0.686872  0.953188  0.958373  1
  Sn  Sn25  1  0.186872  0.546812  0.541627  1
  Sn  Sn26  1  0.306508  0.041163  0.457001  1
  Sn  Sn27  1  0.806508  0.458837  0.042999  1
  Sn  Sn28  1  0.546934  0.630269  0.750159  1
  Sn  Sn29  1  0.046934  0.869731  0.749841  1
  Sn  Sn30  1  0.452777  0.372323  0.249754  1
  Sn  Sn31  1  0.952777  0.127677  0.250246  1
  Sn  Sn32  1  0.323143  0.145398  0.751789  1
  Sn  Sn33  1  0.823143  0.354602  0.748211  1
  Sn  Sn34  1  0.676545  0.850975  0.249985  1
  Sn  Sn35  1  0.176545  0.649025  0.250015  1
