# generated using pymatgen
data_Pr4Er5TmSi8
_symmetry_space_group_name_H-M   'P 1'
_cell_length_a   7.47435000
_cell_length_b   7.76709200
_cell_length_c   14.76237700
_cell_angle_alpha   90.00000000
_cell_angle_beta   90.00000000
_cell_angle_gamma   90.00000000
_symmetry_Int_Tables_number   1
_chemical_formula_structural   Pr4Er5TmSi8
_chemical_formula_sum   'Pr8 Er10 Tm2 Si16'
_cell_volume   857.01450424
_cell_formula_units_Z   2
loop_
 _symmetry_equiv_pos_site_id
 _symmetry_equiv_pos_as_xyz
  1  'x, y, z'
loop_
 _atom_site_type_symbol
 _atom_site_label
 _atom_site_symmetry_multiplicity
 _atom_site_fract_x
 _atom_site_fract_y
 _atom_site_fract_z
 _atom_site_occupancy
  Pr  Pr0  1  0.019793  0.177316  0.402170  1
  Pr  Pr1  1  0.519663  0.322630  0.402192  1
  Pr  Pr2  1  0.480207  0.677316  0.902170  1
  Pr  Pr3  1  0.480207  0.677316  0.597830  1
  Pr  Pr4  1  0.980337  0.822630  0.597808  1
  Pr  Pr5  1  0.980337  0.822630  0.902192  1
  Pr  Pr6  1  0.519663  0.322630  0.097808  1
  Pr  Pr7  1  0.019793  0.177316  0.097830  1
  Er  Er8  1  0.323209  0.178088  0.623334  1
  Er  Er9  1  0.676618  0.822014  0.376645  1
  Er  Er10  1  0.654961  0.990193  0.750000  1
  Er  Er11  1  0.176791  0.678088  0.376666  1
  Er  Er12  1  0.823382  0.322014  0.876645  1
  Er  Er13  1  0.823382  0.322014  0.623355  1
  Er  Er14  1  0.845039  0.490193  0.250000  1
  Er  Er15  1  0.323209  0.178088  0.876666  1
  Er  Er16  1  0.176791  0.678088  0.123334  1
  Er  Er17  1  0.676618  0.822014  0.123355  1
  Tm  Tm18  1  0.344955  0.009847  0.250000  1
  Tm  Tm19  1  0.155045  0.509847  0.750000  1
  Si  Si20  1  0.274893  0.879446  0.750000  1
  Si  Si21  1  0.470778  0.615385  0.250000  1
  Si  Si22  1  0.029222  0.115385  0.750000  1
  Si  Si23  1  0.528858  0.384804  0.750000  1
  Si  Si24  1  0.147099  0.468004  0.539713  1
  Si  Si25  1  0.971142  0.884804  0.250000  1
  Si  Si26  1  0.724730  0.120142  0.250000  1
  Si  Si27  1  0.852908  0.532041  0.039582  1
  Si  Si28  1  0.352901  0.968004  0.039713  1
  Si  Si29  1  0.147099  0.468004  0.960287  1
  Si  Si30  1  0.647092  0.032041  0.539582  1
  Si  Si31  1  0.352901  0.968004  0.460287  1
  Si  Si32  1  0.852908  0.532041  0.460418  1
  Si  Si33  1  0.775270  0.620142  0.750000  1
  Si  Si34  1  0.225107  0.379446  0.250000  1
  Si  Si35  1  0.647092  0.032041  0.960418  1
