# generated using pymatgen
data_Hf3(MnAl2)2
_symmetry_space_group_name_H-M   'P 1'
_cell_length_a   8.96804088
_cell_length_b   9.04723951
_cell_length_c   8.45615200
_cell_angle_alpha   90.00000000
_cell_angle_beta   90.00000000
_cell_angle_gamma   120.51383332
_symmetry_Int_Tables_number   1
_chemical_formula_structural   Hf3(MnAl2)2
_chemical_formula_sum   'Hf12 Mn8 Al16'
_cell_volume   591.07835363
_cell_formula_units_Z   4
loop_
 _symmetry_equiv_pos_site_id
 _symmetry_equiv_pos_as_xyz
  1  'x, y, z'
loop_
 _atom_site_type_symbol
 _atom_site_label
 _atom_site_symmetry_multiplicity
 _atom_site_fract_x
 _atom_site_fract_y
 _atom_site_fract_z
 _atom_site_occupancy
  Hf  Hf0  1  0.336872  0.006396  0.061879  1
  Hf  Hf1  1  0.663128  0.993604  0.938121  1
  Hf  Hf2  1  0.002059  0.331539  0.057175  1
  Hf  Hf3  1  0.663128  0.993604  0.561879  1
  Hf  Hf4  1  0.002059  0.331539  0.442825  1
  Hf  Hf5  1  0.997941  0.668461  0.942825  1
  Hf  Hf6  1  0.336872  0.006396  0.438121  1
  Hf  Hf7  1  0.997941  0.668461  0.557175  1
  Hf  Hf8  1  0.665832  0.670563  0.060316  1
  Hf  Hf9  1  0.334168  0.329437  0.939684  1
  Hf  Hf10  1  0.334168  0.329437  0.560316  1
  Hf  Hf11  1  0.665832  0.670563  0.439684  1
  Mn  Mn12  1  0.178208  0.502889  0.750000  1
  Mn  Mn13  1  0.821792  0.497111  0.250000  1
  Mn  Mn14  1  0.483104  0.651844  0.750000  1
  Mn  Mn15  1  0.503273  0.163470  0.750000  1
  Mn  Mn16  1  0.516896  0.348156  0.250000  1
  Mn  Mn17  1  0.496727  0.836530  0.250000  1
  Mn  Mn18  1  0.000000  0.000000  0.500000  1
  Mn  Mn19  1  0.000000  0.000000  0.000000  1
  Al  Al20  1  0.339711  0.840942  0.750000  1
  Al  Al21  1  0.652433  0.499210  0.750000  1
  Al  Al22  1  0.660289  0.159058  0.250000  1
  Al  Al23  1  0.347567  0.500790  0.250000  1
  Al  Al24  1  0.845968  0.342503  0.750000  1
  Al  Al25  1  0.154032  0.657497  0.250000  1
  Al  Al26  1  0.337135  0.667455  0.500486  1
  Al  Al27  1  0.662865  0.332545  0.499514  1
  Al  Al28  1  0.662865  0.332545  0.000486  1
  Al  Al29  1  0.337135  0.667455  0.999514  1
  Al  Al30  1  0.176629  0.005332  0.750000  1
  Al  Al31  1  0.823371  0.994668  0.250000  1
  Al  Al32  1  0.009107  0.176903  0.750000  1
  Al  Al33  1  0.990893  0.823097  0.250000  1
  Al  Al34  1  0.818880  0.829854  0.750000  1
  Al  Al35  1  0.181120  0.170146  0.250000  1
