# generated using pymatgen
data_Lu2Ti3(ReTc)12
_symmetry_space_group_name_H-M   'P 1'
_cell_length_a   8.41024303
_cell_length_b   8.41830690
_cell_length_c   8.41830784
_cell_angle_alpha   109.49062111
_cell_angle_beta   109.45180838
_cell_angle_gamma   109.45182222
_symmetry_Int_Tables_number   1
_chemical_formula_structural   Lu2Ti3(ReTc)12
_chemical_formula_sum   'Lu2 Ti3 Re12 Tc12'
_cell_volume   458.92334860
_cell_formula_units_Z   1
loop_
 _symmetry_equiv_pos_site_id
 _symmetry_equiv_pos_as_xyz
  1  'x, y, z'
loop_
 _atom_site_type_symbol
 _atom_site_label
 _atom_site_symmetry_multiplicity
 _atom_site_fract_x
 _atom_site_fract_y
 _atom_site_fract_z
 _atom_site_occupancy
  Lu  Lu0  1  0.002188  0.000000  0.000000  1
  Lu  Lu1  1  0.629080  0.000000  0.000000  1
  Ti  Ti2  1  0.000105  0.628531  0.000000  1
  Ti  Ti3  1  0.000105  0.000000  0.628531  1
  Ti  Ti4  1  0.371574  0.371469  0.371469  1
  Re  Re5  1  0.377036  0.194454  0.000000  1
  Re  Re6  1  0.182582  0.805546  0.805546  1
  Re  Re7  1  0.377036  0.000000  0.194454  1
  Re  Re8  1  0.194683  0.376865  0.000000  1
  Re  Re9  1  0.003524  0.381075  0.195287  1
  Re  Re10  1  0.808238  0.185789  0.804713  1
  Re  Re11  1  0.808238  0.804713  0.185789  1
  Re  Re12  1  0.003524  0.195287  0.381075  1
  Re  Re13  1  0.194683  0.000000  0.376865  1
  Re  Re14  1  0.622448  0.618925  0.814211  1
  Re  Re15  1  0.817818  0.623135  0.623135  1
  Re  Re16  1  0.622448  0.814211  0.618925  1
  Tc  Tc17  1  0.394799  0.673144  0.000000  1
  Tc  Tc18  1  0.721656  0.326856  0.326856  1
  Tc  Tc19  1  0.394799  0.000000  0.673144  1
  Tc  Tc20  1  0.681565  0.400319  0.000000  1
  Tc  Tc21  1  0.999018  0.401064  0.681462  1
  Tc  Tc22  1  0.317556  0.719602  0.318538  1
  Tc  Tc23  1  0.317556  0.318538  0.719602  1
  Tc  Tc24  1  0.999018  0.681462  0.401064  1
  Tc  Tc25  1  0.681565  0.000000  0.400319  1
  Tc  Tc26  1  0.597954  0.598936  0.280398  1
  Tc  Tc27  1  0.281246  0.599681  0.599681  1
  Tc  Tc28  1  0.597954  0.280398  0.598936  1
