# generated using pymatgen
data_K3AuS13
_symmetry_space_group_name_H-M   'P 1'
_cell_length_a   4.89284500
_cell_length_b   13.43152420
_cell_length_c   14.81049188
_cell_angle_alpha   86.43866361
_cell_angle_beta   90.00000000
_cell_angle_gamma   90.00000000
_symmetry_Int_Tables_number   1
_chemical_formula_structural   K3AuS13
_chemical_formula_sum   'K6 Au2 S26'
_cell_volume   971.44171888
_cell_formula_units_Z   2
loop_
 _symmetry_equiv_pos_site_id
 _symmetry_equiv_pos_as_xyz
  1  'x, y, z'
loop_
 _atom_site_type_symbol
 _atom_site_label
 _atom_site_symmetry_multiplicity
 _atom_site_fract_x
 _atom_site_fract_y
 _atom_site_fract_z
 _atom_site_occupancy
  K  K0  1  0.227240  0.179697  0.710830  1
  K  K1  1  0.227240  0.320303  0.289170  1
  K  K2  1  0.175350  0.250000  0.000000  1
  K  K3  1  0.824650  0.750000  0.000000  1
  K  K4  1  0.772760  0.820303  0.289170  1
  K  K5  1  0.772760  0.679697  0.710830  1
  Au  Au6  1  0.000000  0.500000  0.500000  1
  Au  Au7  1  0.000000  0.000000  0.500000  1
  S  S8  1  0.278011  0.546760  0.624751  1
  S  S9  1  0.668894  0.561775  0.273322  1
  S  S10  1  0.331106  0.061775  0.273322  1
  S  S11  1  0.331106  0.438225  0.726678  1
  S  S12  1  0.909228  0.522550  0.162113  1
  S  S13  1  0.909228  0.977450  0.837887  1
  S  S14  1  0.090772  0.477450  0.837887  1
  S  S15  1  0.090772  0.022550  0.162113  1
  S  S16  1  0.681259  0.426802  0.088949  1
  S  S17  1  0.668894  0.938225  0.726678  1
  S  S18  1  0.318741  0.573198  0.911051  1
  S  S19  1  0.318741  0.926802  0.088949  1
  S  S20  1  0.702392  0.282975  0.145471  1
  S  S21  1  0.702392  0.217025  0.854529  1
  S  S22  1  0.297608  0.717025  0.854529  1
  S  S23  1  0.297608  0.782975  0.145471  1
  S  S24  1  0.097733  0.660292  0.423434  1
  S  S25  1  0.097733  0.839708  0.576566  1
  S  S26  1  0.902267  0.339708  0.576566  1
  S  S27  1  0.902267  0.160292  0.423434  1
  S  S28  1  0.669238  0.250000  0.500000  1
  S  S29  1  0.330762  0.750000  0.500000  1
  S  S30  1  0.721989  0.453240  0.375249  1
  S  S31  1  0.721989  0.046760  0.624751  1
  S  S32  1  0.681259  0.073198  0.911051  1
  S  S33  1  0.278011  0.953240  0.375249  1
