# generated using pymatgen
data_La8Ho12Ga13Si3
_symmetry_space_group_name_H-M   'P 1'
_cell_length_a   7.67243789
_cell_length_b   8.03711827
_cell_length_c   15.25435340
_cell_angle_alpha   90.03227703
_cell_angle_beta   89.91872486
_cell_angle_gamma   90.05631178
_symmetry_Int_Tables_number   1
_chemical_formula_structural   La8Ho12Ga13Si3
_chemical_formula_sum   'La8 Ho12 Ga13 Si3'
_cell_volume   940.64733436
_cell_formula_units_Z   1
loop_
 _symmetry_equiv_pos_site_id
 _symmetry_equiv_pos_as_xyz
  1  'x, y, z'
loop_
 _atom_site_type_symbol
 _atom_site_label
 _atom_site_symmetry_multiplicity
 _atom_site_fract_x
 _atom_site_fract_y
 _atom_site_fract_z
 _atom_site_occupancy
  La  La0  1  0.978173  0.821207  0.094709  1
  La  La1  1  0.478838  0.680524  0.405651  1
  La  La2  1  0.521604  0.321259  0.905023  1
  La  La3  1  0.020931  0.179668  0.594215  1
  La  La4  1  0.024217  0.175365  0.905074  1
  La  La5  1  0.524219  0.322584  0.594548  1
  La  La6  1  0.477570  0.678988  0.095216  1
  La  La7  1  0.975853  0.822389  0.405422  1
  Ho  Ho8  1  0.652857  0.989883  0.251126  1
  Ho  Ho9  1  0.152602  0.509859  0.249395  1
  Ho  Ho10  1  0.847249  0.490018  0.749347  1
  Ho  Ho11  1  0.348087  0.010156  0.751540  1
  Ho  Ho12  1  0.679171  0.823348  0.877640  1
  Ho  Ho13  1  0.179718  0.676388  0.622011  1
  Ho  Ho14  1  0.819173  0.323933  0.122322  1
  Ho  Ho15  1  0.320435  0.175795  0.378189  1
  Ho  Ho16  1  0.318590  0.175246  0.121362  1
  Ho  Ho17  1  0.816874  0.322506  0.379634  1
  Ho  Ho18  1  0.181981  0.677682  0.878430  1
  Ho  Ho19  1  0.682723  0.823270  0.620425  1
  Ga  Ga20  1  0.768644  0.619629  0.250475  1
  Ga  Ga21  1  0.268228  0.880823  0.250504  1
  Ga  Ga22  1  0.731209  0.119526  0.749741  1
  Ga  Ga23  1  0.231599  0.380183  0.749356  1
  Ga  Ga24  1  0.023136  0.113797  0.250022  1
  Ga  Ga25  1  0.523464  0.386210  0.251450  1
  Ga  Ga26  1  0.476455  0.613960  0.749836  1
  Ga  Ga27  1  0.976677  0.886274  0.749051  1
  Ga  Ga28  1  0.852113  0.532453  0.957952  1
  Ga  Ga29  1  0.353246  0.968609  0.541232  1
  Ga  Ga30  1  0.645923  0.032189  0.040562  1
  Ga  Ga31  1  0.145904  0.468263  0.458913  1
  Ga  Ga32  1  0.147662  0.467646  0.041185  1
  Si  Si33  1  0.644942  0.030601  0.458578  1
  Si  Si34  1  0.354678  0.968941  0.958324  1
  Si  Si35  1  0.855251  0.530828  0.541541  1
