# generated using pymatgen
data_TbYb3FeOs7
_symmetry_space_group_name_H-M   'P 1'
_cell_length_a   5.28504006
_cell_length_b   5.31037651
_cell_length_c   8.69272825
_cell_angle_alpha   89.99595517
_cell_angle_beta   89.94895208
_cell_angle_gamma   120.15760322
_symmetry_Int_Tables_number   1
_chemical_formula_structural   TbYb3FeOs7
_chemical_formula_sum   'Tb1 Yb3 Fe1 Os7'
_cell_volume   210.94448697
_cell_formula_units_Z   1
loop_
 _symmetry_equiv_pos_site_id
 _symmetry_equiv_pos_as_xyz
  1  'x, y, z'
loop_
 _atom_site_type_symbol
 _atom_site_label
 _atom_site_symmetry_multiplicity
 _atom_site_fract_x
 _atom_site_fract_y
 _atom_site_fract_z
 _atom_site_occupancy
  Tb  Tb0  1  0.662314  0.331197  0.565620  1
  Yb  Yb1  1  0.333845  0.666939  0.430787  1
  Yb  Yb2  1  0.333565  0.666705  0.065194  1
  Yb  Yb3  1  0.661687  0.330802  0.940298  1
  Fe  Fe4  1  0.346155  0.173034  0.249826  1
  Os  Os5  1  0.990309  0.995304  0.493800  1
  Os  Os6  1  0.987768  0.993858  0.004644  1
  Os  Os7  1  0.173601  0.346154  0.750335  1
  Os  Os8  1  0.173515  0.827382  0.750379  1
  Os  Os9  1  0.662446  0.831243  0.750628  1
  Os  Os10  1  0.837475  0.657434  0.249195  1
  Os  Os11  1  0.837319  0.179951  0.249295  1
