# generated using pymatgen
data_Ho2Mn3Fe3Ni6P7
_symmetry_space_group_name_H-M   'P 1'
_cell_length_a   9.07307600
_cell_length_b   9.07307623
_cell_length_c   3.64816700
_cell_angle_alpha   90.00000000
_cell_angle_beta   90.00000000
_cell_angle_gamma   120.00000644
_symmetry_Int_Tables_number   1
_chemical_formula_structural   Ho2Mn3Fe3Ni6P7
_chemical_formula_sum   'Ho2 Mn3 Fe3 Ni6 P7'
_cell_volume   260.08447127
_cell_formula_units_Z   1
loop_
 _symmetry_equiv_pos_site_id
 _symmetry_equiv_pos_as_xyz
  1  'x, y, z'
loop_
 _atom_site_type_symbol
 _atom_site_label
 _atom_site_symmetry_multiplicity
 _atom_site_fract_x
 _atom_site_fract_y
 _atom_site_fract_z
 _atom_site_occupancy
  Ho  Ho0  1  0.000000  0.000000  0.000000  1
  Ho  Ho1  1  0.333333  0.666667  0.500000  1
  Mn  Mn2  1  0.546221  0.116822  0.500000  1
  Mn  Mn3  1  0.570601  0.453779  0.500000  1
  Mn  Mn4  1  0.883178  0.429399  0.500000  1
  Fe  Fe5  1  0.786937  0.177682  0.000000  1
  Fe  Fe6  1  0.390746  0.213063  0.000000  1
  Fe  Fe7  1  0.822318  0.609254  0.000000  1
  Ni  Ni8  1  0.292058  0.896831  0.000000  1
  Ni  Ni9  1  0.604773  0.707942  0.000000  1
  Ni  Ni10  1  0.103169  0.395227  0.000000  1
  Ni  Ni11  1  0.717519  0.946553  0.500000  1
  Ni  Ni12  1  0.229035  0.282481  0.500000  1
  Ni  Ni13  1  0.053447  0.770965  0.500000  1
  P  P14  1  0.554432  0.928781  0.000000  1
  P  P15  1  0.374349  0.445568  0.000000  1
  P  P16  1  0.071219  0.625651  0.000000  1
  P  P17  1  0.950827  0.217680  0.500000  1
  P  P18  1  0.266854  0.049173  0.500000  1
  P  P19  1  0.782320  0.733146  0.500000  1
  P  P20  1  0.666667  0.333333  0.000000  1
