# generated using pymatgen
data_TmTh3Al16(GaIr3)2
_symmetry_space_group_name_H-M   'P 1'
_cell_length_a   7.63261384
_cell_length_b   7.64013421
_cell_length_c   9.51342200
_cell_angle_alpha   90.00000000
_cell_angle_beta   90.00000000
_cell_angle_gamma   119.50022713
_symmetry_Int_Tables_number   1
_chemical_formula_structural   TmTh3Al16(GaIr3)2
_chemical_formula_sum   'Tm1 Th3 Al16 Ga2 Ir6'
_cell_volume   482.84400248
_cell_formula_units_Z   1
loop_
 _symmetry_equiv_pos_site_id
 _symmetry_equiv_pos_as_xyz
  1  'x, y, z'
loop_
 _atom_site_type_symbol
 _atom_site_label
 _atom_site_symmetry_multiplicity
 _atom_site_fract_x
 _atom_site_fract_y
 _atom_site_fract_z
 _atom_site_occupancy
  Tm  Tm0  1  0.328248  0.004957  0.750000  1
  Th  Th1  1  0.996853  0.673443  0.250000  1
  Th  Th2  1  0.003712  0.328863  0.750000  1
  Th  Th3  1  0.669481  0.991914  0.250000  1
  Al  Al4  1  0.870308  0.868733  0.750000  1
  Al  Al5  1  0.005303  0.335583  0.074116  1
  Al  Al6  1  0.000628  0.669685  0.922222  1
  Al  Al7  1  0.000628  0.669685  0.577778  1
  Al  Al8  1  0.335787  0.005043  0.432501  1
  Al  Al9  1  0.005303  0.335583  0.425884  1
  Al  Al10  1  0.659055  0.995681  0.577607  1
  Al  Al11  1  0.659055  0.995681  0.922393  1
  Al  Al12  1  0.335787  0.005043  0.067499  1
  Al  Al13  1  0.336115  0.332278  0.556452  1
  Al  Al14  1  0.663618  0.662834  0.456086  1
  Al  Al15  1  0.663618  0.662834  0.043914  1
  Al  Al16  1  0.336115  0.332278  0.943548  1
  Al  Al17  1  0.656589  0.449739  0.750000  1
  Al  Al18  1  0.545341  0.339317  0.250000  1
  Al  Al19  1  0.453099  0.662741  0.750000  1
  Ga  Ga20  1  0.136992  0.134778  0.250000  1
  Ga  Ga21  1  0.341990  0.542794  0.250000  1
  Ir  Ir22  1  0.672629  0.328294  0.000143  1
  Ir  Ir23  1  0.326803  0.671686  0.998096  1
  Ir  Ir24  1  0.326803  0.671686  0.501904  1
  Ir  Ir25  1  0.672629  0.328294  0.499857  1
  Ir  Ir26  1  0.998758  0.000276  0.997742  1
  Ir  Ir27  1  0.998758  0.000276  0.502258  1
