# generated using pymatgen
data_Lu2Re3W
_symmetry_space_group_name_H-M   'P 1'
_cell_length_a   5.42638204
_cell_length_b   5.42638263
_cell_length_c   8.75620900
_cell_angle_alpha   90.00000000
_cell_angle_beta   90.00000000
_cell_angle_gamma   119.97547171
_symmetry_Int_Tables_number   1
_chemical_formula_structural   Lu2Re3W
_chemical_formula_sum   'Lu4 Re6 W2'
_cell_volume   223.34427265
_cell_formula_units_Z   2
loop_
 _symmetry_equiv_pos_site_id
 _symmetry_equiv_pos_as_xyz
  1  'x, y, z'
loop_
 _atom_site_type_symbol
 _atom_site_label
 _atom_site_symmetry_multiplicity
 _atom_site_fract_x
 _atom_site_fract_y
 _atom_site_fract_z
 _atom_site_occupancy
  Lu  Lu0  1  0.666624  0.333376  0.562903  1
  Lu  Lu1  1  0.333376  0.666624  0.437097  1
  Lu  Lu2  1  0.333376  0.666624  0.062903  1
  Lu  Lu3  1  0.666624  0.333376  0.937097  1
  Re  Re4  1  0.171350  0.342784  0.750000  1
  Re  Re5  1  0.171557  0.828443  0.750000  1
  Re  Re6  1  0.657216  0.828650  0.750000  1
  Re  Re7  1  0.828650  0.657216  0.250000  1
  Re  Re8  1  0.828443  0.171557  0.250000  1
  Re  Re9  1  0.342784  0.171350  0.250000  1
  W  W10  1  0.000000  0.000000  0.500000  1
  W  W11  1  0.000000  0.000000  0.000000  1
