# generated using pymatgen
data_Ho8Tm2InPb5
_symmetry_space_group_name_H-M   'P 1'
_cell_length_a   6.61859601
_cell_length_b   8.98805993
_cell_length_c   8.99756855
_cell_angle_alpha   119.96505410
_cell_angle_beta   90.00348047
_cell_angle_gamma   89.99302694
_symmetry_Int_Tables_number   1
_chemical_formula_structural   Ho8Tm2InPb5
_chemical_formula_sum   'Ho8 Tm2 In1 Pb5'
_cell_volume   463.70358019
_cell_formula_units_Z   1
loop_
 _symmetry_equiv_pos_site_id
 _symmetry_equiv_pos_as_xyz
  1  'x, y, z'
loop_
 _atom_site_type_symbol
 _atom_site_label
 _atom_site_symmetry_multiplicity
 _atom_site_fract_x
 _atom_site_fract_y
 _atom_site_fract_z
 _atom_site_occupancy
  Ho  Ho0  1  0.501764  0.336292  0.670088  1
  Ho  Ho1  1  0.501764  0.666204  0.329912  1
  Ho  Ho2  1  0.750280  0.238873  0.000000  1
  Ho  Ho3  1  0.750222  0.761455  0.766233  1
  Ho  Ho4  1  0.750222  0.995222  0.233767  1
  Ho  Ho5  1  0.249768  0.762799  0.000000  1
  Ho  Ho6  1  0.249751  0.237206  0.236757  1
  Ho  Ho7  1  0.249751  0.000449  0.763243  1
  Tm  Tm8  1  0.998198  0.666232  0.329931  1
  Tm  Tm9  1  0.998198  0.336301  0.670069  1
  In  In10  1  0.750798  0.603051  0.000000  1
  Pb  Pb11  1  0.750800  0.394018  0.394545  1
  Pb  Pb12  1  0.750800  0.999473  0.605455  1
  Pb  Pb13  1  0.249200  0.395883  0.000000  1
  Pb  Pb14  1  0.249241  0.605090  0.603637  1
  Pb  Pb15  1  0.249241  0.001453  0.396363  1
