# generated using pymatgen
data_La3PrTh4(Si3Pt)4
_symmetry_space_group_name_H-M   'P 1'
_cell_length_a   8.25595700
_cell_length_b   8.25595632
_cell_length_c   8.70907500
_cell_angle_alpha   90.00000000
_cell_angle_beta   90.00000000
_cell_angle_gamma   119.99999871
_symmetry_Int_Tables_number   1
_chemical_formula_structural   La3PrTh4(Si3Pt)4
_chemical_formula_sum   'La3 Pr1 Th4 Si12 Pt4'
_cell_volume   514.08801224
_cell_formula_units_Z   1
loop_
 _symmetry_equiv_pos_site_id
 _symmetry_equiv_pos_as_xyz
  1  'x, y, z'
loop_
 _atom_site_type_symbol
 _atom_site_label
 _atom_site_symmetry_multiplicity
 _atom_site_fract_x
 _atom_site_fract_y
 _atom_site_fract_z
 _atom_site_occupancy
  La  La0  1  0.500226  0.499774  0.250000  1
  La  La1  1  0.999547  0.499774  0.250000  1
  La  La2  1  0.500226  0.000453  0.250000  1
  Pr  Pr3  1  0.000000  0.000000  0.250000  1
  Th  Th4  1  0.499821  0.500179  0.750000  1
  Th  Th5  1  0.000358  0.500179  0.750000  1
  Th  Th6  1  0.499821  0.999642  0.750000  1
  Th  Th7  1  0.000000  0.000000  0.750000  1
  Si  Si8  1  0.834392  0.165608  0.996376  1
  Si  Si9  1  0.165614  0.834386  0.996810  1
  Si  Si10  1  0.331216  0.165608  0.996376  1
  Si  Si11  1  0.165614  0.834386  0.503190  1
  Si  Si12  1  0.668772  0.834386  0.996810  1
  Si  Si13  1  0.834392  0.165608  0.503624  1
  Si  Si14  1  0.834392  0.668784  0.996376  1
  Si  Si15  1  0.668772  0.834386  0.503190  1
  Si  Si16  1  0.165614  0.331228  0.996810  1
  Si  Si17  1  0.331216  0.165608  0.503624  1
  Si  Si18  1  0.165614  0.331228  0.503190  1
  Si  Si19  1  0.834392  0.668784  0.503624  1
  Pt  Pt20  1  0.666667  0.333333  0.990012  1
  Pt  Pt21  1  0.333333  0.666667  0.991397  1
  Pt  Pt22  1  0.333333  0.666667  0.508603  1
  Pt  Pt23  1  0.666667  0.333333  0.509988  1
