# generated using pymatgen
data_Er2Ga(SiRh2)3
_symmetry_space_group_name_H-M   'P 1'
_cell_length_a   6.64454220
_cell_length_b   6.64792224
_cell_length_c   6.64454087
_cell_angle_alpha   130.18165109
_cell_angle_beta   113.89946245
_cell_angle_gamma   87.09681110
_symmetry_Int_Tables_number   1
_chemical_formula_structural   Er2Ga(SiRh2)3
_chemical_formula_sum   'Er2 Ga1 Si3 Rh6'
_cell_volume   195.45798043
_cell_formula_units_Z   1
loop_
 _symmetry_equiv_pos_site_id
 _symmetry_equiv_pos_as_xyz
  1  'x, y, z'
loop_
 _atom_site_type_symbol
 _atom_site_label
 _atom_site_symmetry_multiplicity
 _atom_site_fract_x
 _atom_site_fract_y
 _atom_site_fract_z
 _atom_site_occupancy
  Er  Er0  1  0.750033  0.060106  0.310073  1
  Er  Er1  1  0.250886  0.962082  0.711197  1
  Ga  Ga2  1  0.594019  0.396522  0.802503  1
  Si  Si3  1  0.904691  0.703310  0.798619  1
  Si  Si4  1  0.436172  0.629431  0.193259  1
  Si  Si5  1  0.066956  0.259268  0.192312  1
  Rh  Rh6  1  0.210664  0.505024  0.714353  1
  Rh  Rh7  1  0.790671  0.505024  0.294360  1
  Rh  Rh8  1  0.471590  0.494333  0.462799  1
  Rh  Rh9  1  0.031534  0.494333  0.022744  1
  Rh  Rh10  1  0.720133  0.995282  0.722633  1
  Rh  Rh11  1  0.272649  0.995282  0.275149  1
