# generated using pymatgen
data_Y5InPb2
_symmetry_space_group_name_H-M   'P 1'
_cell_length_a   9.04520792
_cell_length_b   9.05540048
_cell_length_c   6.70838500
_cell_angle_alpha   90.00000000
_cell_angle_beta   90.00000000
_cell_angle_gamma   120.03728239
_symmetry_Int_Tables_number   1
_chemical_formula_structural   Y5InPb2
_chemical_formula_sum   'Y10 In2 Pb4'
_cell_volume   475.67633734
_cell_formula_units_Z   2
loop_
 _symmetry_equiv_pos_site_id
 _symmetry_equiv_pos_as_xyz
  1  'x, y, z'
loop_
 _atom_site_type_symbol
 _atom_site_label
 _atom_site_symmetry_multiplicity
 _atom_site_fract_x
 _atom_site_fract_y
 _atom_site_fract_z
 _atom_site_occupancy
  Y  Y0  1  0.663781  0.330904  0.996328  1
  Y  Y1  1  0.336219  0.667124  0.996328  1
  Y  Y2  1  0.336219  0.667124  0.503672  1
  Y  Y3  1  0.663781  0.330904  0.503672  1
  Y  Y4  1  0.759140  0.762755  0.750000  1
  Y  Y5  1  0.240860  0.003615  0.750000  1
  Y  Y6  1  0.000000  0.236643  0.750000  1
  Y  Y7  1  0.237900  0.237665  0.250000  1
  Y  Y8  1  0.762100  0.999764  0.250000  1
  Y  Y9  1  0.000000  0.762062  0.250000  1
  In  In10  1  0.396456  0.396917  0.750000  1
  In  In11  1  0.603544  0.000462  0.750000  1
  Pb  Pb12  1  0.000000  0.605888  0.750000  1
  Pb  Pb13  1  0.604147  0.603083  0.250000  1
  Pb  Pb14  1  0.395853  0.998936  0.250000  1
  Pb  Pb15  1  0.000000  0.396154  0.250000  1
