# generated using pymatgen
data_DyEr11Co5Pb
_symmetry_space_group_name_H-M   'P 1'
_cell_length_a   8.22853414
_cell_length_b   8.22871913
_cell_length_c   8.22610061
_cell_angle_alpha   110.85899022
_cell_angle_beta   110.75173912
_cell_angle_gamma   106.85154827
_symmetry_Int_Tables_number   1
_chemical_formula_structural   DyEr11Co5Pb
_chemical_formula_sum   'Dy1 Er11 Co5 Pb1'
_cell_volume   428.01013347
_cell_formula_units_Z   1
loop_
 _symmetry_equiv_pos_site_id
 _symmetry_equiv_pos_as_xyz
  1  'x, y, z'
loop_
 _atom_site_type_symbol
 _atom_site_label
 _atom_site_symmetry_multiplicity
 _atom_site_fract_x
 _atom_site_fract_y
 _atom_site_fract_z
 _atom_site_occupancy
  Dy  Dy0  1  0.289502  0.184573  0.474097  1
  Er  Er1  1  0.710900  0.815907  0.526813  1
  Er  Er2  1  0.289351  0.814820  0.104162  1
  Er  Er3  1  0.711307  0.184492  0.895798  1
  Er  Er4  1  0.620345  0.313134  0.306773  1
  Er  Er5  1  0.379969  0.687630  0.693360  1
  Er  Er6  1  0.005819  0.313463  0.693365  1
  Er  Er7  1  0.993738  0.686491  0.306794  1
  Er  Er8  1  0.209342  0.403642  0.193652  1
  Er  Er9  1  0.791379  0.597784  0.806796  1
  Er  Er10  1  0.209001  0.015401  0.806780  1
  Er  Er11  1  0.789994  0.984277  0.193633  1
  Co  Co12  1  0.999331  0.376911  0.376200  1
  Co  Co13  1  0.999960  0.623261  0.623168  1
  Co  Co14  1  0.388267  0.886970  0.499641  1
  Co  Co15  1  0.612719  0.111425  0.499633  1
  Co  Co16  1  0.998879  0.000374  0.999229  1
  Pb  Pb17  1  0.500194  0.499446  0.000104  1
