# generated using pymatgen
data_Sm2Fe3CoP7Ru8
_symmetry_space_group_name_H-M   'P 1'
_cell_length_a   9.30188011
_cell_length_b   9.28121280
_cell_length_c   3.84728100
_cell_angle_alpha   90.00000000
_cell_angle_beta   90.00000000
_cell_angle_gamma   119.94834589
_symmetry_Int_Tables_number   1
_chemical_formula_structural   Sm2Fe3CoP7Ru8
_chemical_formula_sum   'Sm2 Fe3 Co1 P7 Ru8'
_cell_volume   287.79670872
_cell_formula_units_Z   1
loop_
 _symmetry_equiv_pos_site_id
 _symmetry_equiv_pos_as_xyz
  1  'x, y, z'
loop_
 _atom_site_type_symbol
 _atom_site_label
 _atom_site_symmetry_multiplicity
 _atom_site_fract_x
 _atom_site_fract_y
 _atom_site_fract_z
 _atom_site_occupancy
  Sm  Sm0  1  0.332414  0.666873  0.000000  1
  Sm  Sm1  1  0.670856  0.337978  0.500000  1
  Fe  Fe2  1  0.152305  0.883916  0.000000  1
  Fe  Fe3  1  0.111361  0.270435  0.000000  1
  Fe  Fe4  1  0.733570  0.843446  0.000000  1
  Co  Co5  1  0.941369  0.580073  0.000000  1
  P  P6  1  0.408794  0.104807  0.000000  1
  P  P7  1  0.893924  0.309344  0.000000  1
  P  P8  1  0.701755  0.590703  0.000000  1
  P  P9  1  0.113280  0.717623  0.500000  1
  P  P10  1  0.280318  0.394576  0.500000  1
  P  P11  1  0.605531  0.886294  0.500000  1
  P  P12  1  0.000476  0.001281  0.000000  1
  Ru  Ru13  1  0.422144  0.360847  0.000000  1
  Ru  Ru14  1  0.641095  0.062924  0.000000  1
  Ru  Ru15  1  0.384953  0.948097  0.500000  1
  Ru  Ru16  1  0.048250  0.439158  0.500000  1
  Ru  Ru17  1  0.563409  0.614376  0.500000  1
  Ru  Ru18  1  0.202504  0.114207  0.500000  1
  Ru  Ru19  1  0.884785  0.087608  0.500000  1
  Ru  Ru20  1  0.906904  0.785435  0.500000  1
