# generated using pymatgen
data_Li2TbScB28
_symmetry_space_group_name_H-M   'P 1'
_cell_length_a   7.22149079
_cell_length_b   7.22149170
_cell_length_c   7.22149075
_cell_angle_alpha   132.07453488
_cell_angle_beta   110.94824708
_cell_angle_gamma   88.41720233
_symmetry_Int_Tables_number   1
_chemical_formula_structural   Li2TbScB28
_chemical_formula_sum   'Li2 Tb1 Sc1 B28'
_cell_volume   248.56145296
_cell_formula_units_Z   1
loop_
 _symmetry_equiv_pos_site_id
 _symmetry_equiv_pos_as_xyz
  1  'x, y, z'
loop_
 _atom_site_type_symbol
 _atom_site_label
 _atom_site_symmetry_multiplicity
 _atom_site_fract_x
 _atom_site_fract_y
 _atom_site_fract_z
 _atom_site_occupancy
  Li  Li0  1  0.000180  0.999204  0.499384  1
  Li  Li1  1  0.000180  0.500796  0.000976  1
  Tb  Tb2  1  0.383107  0.750000  0.633107  1
  Sc  Sc3  1  0.633549  0.250000  0.383549  1
  B  B4  1  0.638619  0.665973  0.972647  1
  B  B5  1  0.361170  0.333790  0.027380  1
  B  B6  1  0.193591  0.166210  0.027380  1
  B  B7  1  0.806674  0.834027  0.972647  1
  B  B8  1  0.775560  0.150939  0.624621  1
  B  B9  1  0.222104  0.850308  0.371796  1
  B  B10  1  0.021486  0.649692  0.371796  1
  B  B11  1  0.973684  0.349061  0.624621  1
  B  B12  1  0.914445  0.089167  0.825279  1
  B  B13  1  0.083986  0.910823  0.173162  1
  B  B14  1  0.762340  0.589177  0.173162  1
  B  B15  1  0.236112  0.410833  0.825279  1
  B  B16  1  0.398645  0.400085  0.679858  1
  B  B17  1  0.601305  0.283126  0.004259  1
  B  B18  1  0.221133  0.902953  0.004259  1
  B  B19  1  0.779773  0.781212  0.679858  1
  B  B20  1  0.601305  0.597047  0.318179  1
  B  B21  1  0.398645  0.718788  0.998561  1
  B  B22  1  0.779773  0.099915  0.998561  1
  B  B23  1  0.221133  0.216874  0.318179  1
  B  B24  1  0.033383  0.830657  0.703342  1
  B  B25  1  0.964162  0.669837  0.795357  1
  B  B26  1  0.625520  0.331195  0.795357  1
  B  B27  1  0.372685  0.169960  0.703342  1
  B  B28  1  0.964162  0.168805  0.294325  1
  B  B29  1  0.033383  0.330040  0.202725  1
  B  B30  1  0.372685  0.669343  0.202725  1
  B  B31  1  0.625520  0.830163  0.294325  1
