# generated using pymatgen
data_Ba4Nb(FeO4)3
_symmetry_space_group_name_H-M   'P 1'
_cell_length_a   10.16230373
_cell_length_b   10.16230379
_cell_length_c   10.16230450
_cell_angle_alpha   33.38153534
_cell_angle_beta   33.38153274
_cell_angle_gamma   33.38153535
_symmetry_Int_Tables_number   1
_chemical_formula_structural   Ba4Nb(FeO4)3
_chemical_formula_sum   'Ba4 Nb1 Fe3 O12'
_cell_volume   282.91359115
_cell_formula_units_Z   1
loop_
 _symmetry_equiv_pos_site_id
 _symmetry_equiv_pos_as_xyz
  1  'x, y, z'
loop_
 _atom_site_type_symbol
 _atom_site_label
 _atom_site_symmetry_multiplicity
 _atom_site_fract_x
 _atom_site_fract_y
 _atom_site_fract_z
 _atom_site_occupancy
  Ba  Ba0  1  0.715833  0.715833  0.715833  1
  Ba  Ba1  1  0.284167  0.284167  0.284167  1
  Ba  Ba2  1  0.868909  0.868909  0.868909  1
  Ba  Ba3  1  0.131091  0.131091  0.131091  1
  Nb  Nb4  1  0.000000  0.000000  0.000000  1
  Fe  Fe5  1  0.408698  0.408698  0.408698  1
  Fe  Fe6  1  0.500000  0.500000  0.500000  1
  Fe  Fe7  1  0.591302  0.591302  0.591302  1
  O  O8  1  0.204212  0.204212  0.711750  1
  O  O9  1  0.711750  0.204212  0.204212  1
  O  O10  1  0.204212  0.711750  0.204212  1
  O  O11  1  0.795788  0.288250  0.795788  1
  O  O12  1  0.795788  0.795788  0.288250  1
  O  O13  1  0.288250  0.795788  0.795788  1
  O  O14  1  0.391296  0.391296  0.838694  1
  O  O15  1  0.838694  0.391296  0.391296  1
  O  O16  1  0.161306  0.608704  0.608704  1
  O  O17  1  0.608704  0.608704  0.161306  1
  O  O18  1  0.608704  0.161306  0.608704  1
  O  O19  1  0.391296  0.838694  0.391296  1
