# generated using pymatgen
data_LaPr2Mg3OsAu2
_symmetry_space_group_name_H-M   'P 1'
_cell_length_a   7.63989929
_cell_length_b   7.62908057
_cell_length_c   4.26445800
_cell_angle_alpha   90.00000000
_cell_angle_beta   90.00000000
_cell_angle_gamma   119.37487353
_symmetry_Int_Tables_number   1
_chemical_formula_structural   LaPr2Mg3OsAu2
_chemical_formula_sum   'La1 Pr2 Mg3 Os1 Au2'
_cell_volume   216.59862181
_cell_formula_units_Z   1
loop_
 _symmetry_equiv_pos_site_id
 _symmetry_equiv_pos_as_xyz
  1  'x, y, z'
loop_
 _atom_site_type_symbol
 _atom_site_label
 _atom_site_symmetry_multiplicity
 _atom_site_fract_x
 _atom_site_fract_y
 _atom_site_fract_z
 _atom_site_occupancy
  La  La0  1  0.405751  0.433511  0.000000  1
  Pr  Pr1  1  0.573867  0.978243  0.000000  1
  Pr  Pr2  1  0.021569  0.596671  0.000000  1
  Mg  Mg3  1  0.243423  0.995309  0.500000  1
  Mg  Mg4  1  0.000708  0.246512  0.500000  1
  Mg  Mg5  1  0.756224  0.759164  0.500000  1
  Os  Os6  1  0.333663  0.660262  0.500000  1
  Au  Au7  1  0.666507  0.332144  0.500000  1
  Au  Au8  1  0.998288  0.998184  0.000000  1
