# generated using pymatgen
data_Yb10Si5Sn
_symmetry_space_group_name_H-M   'P 1'
_cell_length_a   7.62904020
_cell_length_b   7.62904100
_cell_length_c   9.21599466
_cell_angle_alpha   114.45021230
_cell_angle_beta   114.45021215
_cell_angle_gamma   90.00000128
_symmetry_Int_Tables_number   1
_chemical_formula_structural   Yb10Si5Sn
_chemical_formula_sum   'Yb10 Si5 Sn1'
_cell_volume   434.89748242
_cell_formula_units_Z   1
loop_
 _symmetry_equiv_pos_site_id
 _symmetry_equiv_pos_as_xyz
  1  'x, y, z'
loop_
 _atom_site_type_symbol
 _atom_site_label
 _atom_site_symmetry_multiplicity
 _atom_site_fract_x
 _atom_site_fract_y
 _atom_site_fract_z
 _atom_site_occupancy
  Yb  Yb0  1  0.508373  0.508373  0.016747  1
  Yb  Yb1  1  0.991627  0.991627  0.983253  1
  Yb  Yb2  1  0.968434  0.825831  0.278731  1
  Yb  Yb3  1  0.310297  0.452900  0.278731  1
  Yb  Yb4  1  0.825831  0.310297  0.278731  1
  Yb  Yb5  1  0.452900  0.968434  0.278731  1
  Yb  Yb6  1  0.047100  0.189703  0.721269  1
  Yb  Yb7  1  0.674169  0.531566  0.721269  1
  Yb  Yb8  1  0.189703  0.674169  0.721269  1
  Yb  Yb9  1  0.531566  0.047100  0.721269  1
  Si  Si10  1  0.250000  0.250000  0.500000  1
  Si  Si11  1  0.612688  0.887312  0.000000  1
  Si  Si12  1  0.387312  0.112688  0.000000  1
  Si  Si13  1  0.887312  0.387312  0.000000  1
  Si  Si14  1  0.112688  0.612688  0.000000  1
  Sn  Sn15  1  0.750000  0.750000  0.500000  1
