# generated using pymatgen
data_La2ThAs3
_symmetry_space_group_name_H-M   'P 1'
_cell_length_a   7.49340995
_cell_length_b   7.49340992
_cell_length_c   7.49341006
_cell_angle_alpha   146.37989490
_cell_angle_beta   131.78157728
_cell_angle_gamma   60.06483334
_symmetry_Int_Tables_number   1
_chemical_formula_structural   La2ThAs3
_chemical_formula_sum   'La2 Th1 As3'
_cell_volume   172.12854606
_cell_formula_units_Z   1
loop_
 _symmetry_equiv_pos_site_id
 _symmetry_equiv_pos_as_xyz
  1  'x, y, z'
loop_
 _atom_site_type_symbol
 _atom_site_label
 _atom_site_symmetry_multiplicity
 _atom_site_fract_x
 _atom_site_fract_y
 _atom_site_fract_z
 _atom_site_occupancy
  La  La0  1  0.668017  0.668017  0.000000  1
  La  La1  1  0.331983  0.331983  0.000000  1
  Th  Th2  1  0.000000  0.000000  0.000000  1
  As  As3  1  0.500000  0.000000  0.500000  1
  As  As4  1  0.160753  0.660753  0.500000  1
  As  As5  1  0.839247  0.339247  0.500000  1
