# generated using pymatgen
data_Yb2Tc2C3
_symmetry_space_group_name_H-M   'P 1'
_cell_length_a   5.64364141
_cell_length_b   5.64364136
_cell_length_c   5.71887539
_cell_angle_alpha   75.72316941
_cell_angle_beta   75.72317105
_cell_angle_gamma   36.52329138
_symmetry_Int_Tables_number   1
_chemical_formula_structural   Yb2Tc2C3
_chemical_formula_sum   'Yb2 Tc2 C3'
_cell_volume   104.68745876
_cell_formula_units_Z   1
loop_
 _symmetry_equiv_pos_site_id
 _symmetry_equiv_pos_as_xyz
  1  'x, y, z'
loop_
 _atom_site_type_symbol
 _atom_site_label
 _atom_site_symmetry_multiplicity
 _atom_site_fract_x
 _atom_site_fract_y
 _atom_site_fract_z
 _atom_site_occupancy
  Yb  Yb0  1  0.605564  0.605564  0.179348  1
  Yb  Yb1  1  0.394436  0.394436  0.820652  1
  Tc  Tc2  1  0.845280  0.845280  0.390724  1
  Tc  Tc3  1  0.154720  0.154720  0.609276  1
  C  C4  1  0.000000  0.000000  0.500000  1
  C  C5  1  0.295983  0.295983  0.270119  1
  C  C6  1  0.704017  0.704017  0.729881  1
