# generated using pymatgen
data_Np2Sc(Co3B2)3
_symmetry_space_group_name_H-M   'P 1'
_cell_length_a   5.73699903
_cell_length_b   5.73700003
_cell_length_c   5.73699906
_cell_angle_alpha   95.62806323
_cell_angle_beta   95.62805136
_cell_angle_gamma   95.62805763
_symmetry_Int_Tables_number   1
_chemical_formula_structural   Np2Sc(Co3B2)3
_chemical_formula_sum   'Np2 Sc1 Co9 B6'
_cell_volume   185.89795283
_cell_formula_units_Z   1
loop_
 _symmetry_equiv_pos_site_id
 _symmetry_equiv_pos_as_xyz
  1  'x, y, z'
loop_
 _atom_site_type_symbol
 _atom_site_label
 _atom_site_symmetry_multiplicity
 _atom_site_fract_x
 _atom_site_fract_y
 _atom_site_fract_z
 _atom_site_occupancy
  Np  Np0  1  0.024310  0.024310  0.024310  1
  Np  Np1  1  0.297008  0.297008  0.297008  1
  Sc  Sc2  1  0.665264  0.665264  0.665264  1
  Co  Co3  1  0.507184  0.998883  0.998883  1
  Co  Co4  1  0.998883  0.507184  0.998883  1
  Co  Co5  1  0.998883  0.998883  0.507184  1
  Co  Co6  1  0.700032  0.197204  0.700032  1
  Co  Co7  1  0.700032  0.700032  0.197204  1
  Co  Co8  1  0.197204  0.700032  0.700032  1
  Co  Co9  1  0.306340  0.789735  0.306340  1
  Co  Co10  1  0.306340  0.306340  0.789735  1
  Co  Co11  1  0.789735  0.306340  0.306340  1
  B  B12  1  0.386456  0.994307  0.623629  1
  B  B13  1  0.623629  0.386456  0.994307  1
  B  B14  1  0.994307  0.623629  0.386456  1
  B  B15  1  0.623629  0.994307  0.386456  1
  B  B16  1  0.386456  0.623629  0.994307  1
  B  B17  1  0.994307  0.386456  0.623629  1
