# generated using pymatgen
data_Zr3TiSi3MoN
_symmetry_space_group_name_H-M   'P 1'
_cell_length_a   7.76134500
_cell_length_b   7.76134480
_cell_length_c   5.33886300
_cell_angle_alpha   90.00000000
_cell_angle_beta   90.00000000
_cell_angle_gamma   119.99999657
_symmetry_Int_Tables_number   1
_chemical_formula_structural   Zr3TiSi3MoN
_chemical_formula_sum   'Zr6 Ti2 Si6 Mo2 N2'
_cell_volume   278.51807816
_cell_formula_units_Z   2
loop_
 _symmetry_equiv_pos_site_id
 _symmetry_equiv_pos_as_xyz
  1  'x, y, z'
loop_
 _atom_site_type_symbol
 _atom_site_label
 _atom_site_symmetry_multiplicity
 _atom_site_fract_x
 _atom_site_fract_y
 _atom_site_fract_z
 _atom_site_occupancy
  Zr  Zr0  1  0.237432  0.000000  0.749023  1
  Zr  Zr1  1  0.762568  0.000000  0.250977  1
  Zr  Zr2  1  0.000000  0.237432  0.749023  1
  Zr  Zr3  1  0.000000  0.762568  0.250977  1
  Zr  Zr4  1  0.762568  0.762568  0.749023  1
  Zr  Zr5  1  0.237432  0.237432  0.250977  1
  Ti  Ti6  1  0.666667  0.333333  0.000000  1
  Ti  Ti7  1  0.333333  0.666667  0.000000  1
  Si  Si8  1  0.588016  0.000000  0.740618  1
  Si  Si9  1  0.411984  0.000000  0.259382  1
  Si  Si10  1  0.000000  0.588016  0.740618  1
  Si  Si11  1  0.000000  0.411984  0.259382  1
  Si  Si12  1  0.411984  0.411984  0.740618  1
  Si  Si13  1  0.588016  0.588016  0.259382  1
  Mo  Mo14  1  0.333333  0.666667  0.500000  1
  Mo  Mo15  1  0.666667  0.333333  0.500000  1
  N  N16  1  0.000000  0.000000  0.500000  1
  N  N17  1  0.000000  0.000000  0.000000  1
