# generated using pymatgen
data_HoTmTh2B3C4
_symmetry_space_group_name_H-M   'P 1'
_cell_length_a   3.59537571
_cell_length_b   3.74472094
_cell_length_c   11.85418248
_cell_angle_alpha   93.99032228
_cell_angle_beta   96.16593892
_cell_angle_gamma   90.22676099
_symmetry_Int_Tables_number   1
_chemical_formula_structural   HoTmTh2B3C4
_chemical_formula_sum   'Ho1 Tm1 Th2 B3 C4'
_cell_volume   158.28243227
_cell_formula_units_Z   1
loop_
 _symmetry_equiv_pos_site_id
 _symmetry_equiv_pos_as_xyz
  1  'x, y, z'
loop_
 _atom_site_type_symbol
 _atom_site_label
 _atom_site_symmetry_multiplicity
 _atom_site_fract_x
 _atom_site_fract_y
 _atom_site_fract_z
 _atom_site_occupancy
  Ho  Ho0  1  0.385756  0.574831  0.864874  1
  Tm  Tm1  1  0.615093  0.424948  0.136543  1
  Th  Th2  1  0.802348  0.030785  0.647658  1
  Th  Th3  1  0.197428  0.969124  0.351781  1
  B  B4  1  0.999340  0.001548  0.000213  1
  B  B5  1  0.262110  0.507960  0.538511  1
  B  B6  1  0.737581  0.492021  0.460867  1
  C  C7  1  0.881370  0.087715  0.883023  1
  C  C8  1  0.119120  0.911490  0.117165  1
  C  C9  1  0.312929  0.534685  0.672162  1
  C  C10  1  0.686925  0.464894  0.327203  1
