# generated using pymatgen
data_CdBiRu2O7
_symmetry_space_group_name_H-M   'P 1'
_cell_length_a   7.29186491
_cell_length_b   7.29186418
_cell_length_c   7.29186509
_cell_angle_alpha   118.86134260
_cell_angle_beta   120.85103595
_cell_angle_gamma   90.25786847
_symmetry_Int_Tables_number   1
_chemical_formula_structural   CdBiRu2O7
_chemical_formula_sum   'Cd2 Bi2 Ru4 O14'
_cell_volume   274.64787348
_cell_formula_units_Z   2
loop_
 _symmetry_equiv_pos_site_id
 _symmetry_equiv_pos_as_xyz
  1  'x, y, z'
loop_
 _atom_site_type_symbol
 _atom_site_label
 _atom_site_symmetry_multiplicity
 _atom_site_fract_x
 _atom_site_fract_y
 _atom_site_fract_z
 _atom_site_occupancy
  Cd  Cd0  1  0.500000  0.500000  0.000000  1
  Cd  Cd1  1  0.000000  0.500000  0.500000  1
  Bi  Bi2  1  0.500000  0.500000  0.500000  1
  Bi  Bi3  1  0.500000  0.000000  0.000000  1
  Ru  Ru4  1  0.000000  0.000000  0.500000  1
  Ru  Ru5  1  0.000000  0.500000  0.000000  1
  Ru  Ru6  1  0.000000  0.000000  0.000000  1
  Ru  Ru7  1  0.500000  0.000000  0.500000  1
  O  O8  1  0.323917  0.059797  0.644764  1
  O  O9  1  0.915033  0.059797  0.235881  1
  O  O10  1  0.921740  0.671740  0.250000  1
  O  O11  1  0.915033  0.679151  0.855236  1
  O  O12  1  0.323917  0.679151  0.264119  1
  O  O13  1  0.331190  0.081190  0.250000  1
  O  O14  1  0.676083  0.940203  0.355236  1
  O  O15  1  0.084967  0.940203  0.764119  1
  O  O16  1  0.078260  0.328260  0.750000  1
  O  O17  1  0.084967  0.320849  0.144764  1
  O  O18  1  0.676083  0.320849  0.735881  1
  O  O19  1  0.668810  0.918810  0.750000  1
  O  O20  1  0.631613  0.381613  0.250000  1
  O  O21  1  0.368387  0.618387  0.750000  1
