# generated using pymatgen
data_SrTb2Sm(Pt2O7)2
_symmetry_space_group_name_H-M   'P 1'
_cell_length_a   7.36558585
_cell_length_b   7.37059063
_cell_length_c   7.37059040
_cell_angle_alpha   59.89609257
_cell_angle_beta   59.97095013
_cell_angle_gamma   59.97095194
_symmetry_Int_Tables_number   1
_chemical_formula_structural   SrTb2Sm(Pt2O7)2
_chemical_formula_sum   'Sr1 Tb2 Sm1 Pt4 O14'
_cell_volume   282.59477900
_cell_formula_units_Z   1
loop_
 _symmetry_equiv_pos_site_id
 _symmetry_equiv_pos_as_xyz
  1  'x, y, z'
loop_
 _atom_site_type_symbol
 _atom_site_label
 _atom_site_symmetry_multiplicity
 _atom_site_fract_x
 _atom_site_fract_y
 _atom_site_fract_z
 _atom_site_occupancy
  Sr  Sr0  1  0.625000  0.625000  0.625000  1
  Tb  Tb1  1  0.625000  0.625000  0.125000  1
  Tb  Tb2  1  0.625000  0.125000  0.625000  1
  Sm  Sm3  1  0.125000  0.625000  0.625000  1
  Pt  Pt4  1  0.125000  0.125000  0.125000  1
  Pt  Pt5  1  0.625000  0.125000  0.125000  1
  Pt  Pt6  1  0.125000  0.625000  0.125000  1
  Pt  Pt7  1  0.125000  0.125000  0.625000  1
  O  O8  1  0.054070  0.456773  0.456773  1
  O  O9  1  0.792445  0.792359  0.194587  1
  O  O10  1  0.788878  0.212055  0.212055  1
  O  O11  1  0.457555  0.055413  0.457641  1
  O  O12  1  0.036509  0.460591  0.040536  1
  O  O13  1  0.751187  0.758753  0.758753  1
  O  O14  1  0.036509  0.040536  0.460591  1
  O  O15  1  0.213491  0.789409  0.209464  1
  O  O16  1  0.213491  0.209464  0.789409  1
  O  O17  1  0.498813  0.491247  0.491247  1
  O  O18  1  0.792445  0.194587  0.792359  1
  O  O19  1  0.461122  0.037945  0.037945  1
  O  O20  1  0.457555  0.457641  0.055413  1
  O  O21  1  0.195930  0.793227  0.793227  1
