# generated using pymatgen
data_Tm2Lu18Bi11Os
_symmetry_space_group_name_H-M   'P 1'
_cell_length_a   8.08440496
_cell_length_b   9.37502300
_cell_length_c   11.79990600
_cell_angle_alpha   90.00000000
_cell_angle_beta   89.64754433
_cell_angle_gamma   90.00000000
_symmetry_Int_Tables_number   1
_chemical_formula_structural   Tm2Lu18Bi11Os
_chemical_formula_sum   'Tm2 Lu18 Bi11 Os1'
_cell_volume   894.31544730
_cell_formula_units_Z   1
loop_
 _symmetry_equiv_pos_site_id
 _symmetry_equiv_pos_as_xyz
  1  'x, y, z'
loop_
 _atom_site_type_symbol
 _atom_site_label
 _atom_site_symmetry_multiplicity
 _atom_site_fract_x
 _atom_site_fract_y
 _atom_site_fract_z
 _atom_site_occupancy
  Tm  Tm0  1  0.809008  0.750000  0.217402  1
  Tm  Tm1  1  0.313951  0.750000  0.281437  1
  Lu  Lu2  1  0.049975  0.250000  0.504620  1
  Lu  Lu3  1  0.983991  0.750000  0.492623  1
  Lu  Lu4  1  0.478952  0.750000  0.013580  1
  Lu  Lu5  1  0.529412  0.250000  0.991361  1
  Lu  Lu6  1  0.354486  0.250000  0.304865  1
  Lu  Lu7  1  0.661401  0.750000  0.720189  1
  Lu  Lu8  1  0.140785  0.750000  0.779504  1
  Lu  Lu9  1  0.848510  0.250000  0.213861  1
  Lu  Lu10  1  0.216499  0.250000  0.762826  1
  Lu  Lu11  1  0.643999  0.250000  0.703139  1
  Lu  Lu12  1  0.194616  0.066465  0.063452  1
  Lu  Lu13  1  0.807725  0.934000  0.942947  1
  Lu  Lu14  1  0.313953  0.968629  0.558264  1
  Lu  Lu15  1  0.807725  0.566000  0.942947  1
  Lu  Lu16  1  0.674156  0.075476  0.446704  1
  Lu  Lu17  1  0.194616  0.433535  0.063452  1
  Lu  Lu18  1  0.674156  0.424524  0.446704  1
  Lu  Lu19  1  0.313953  0.531371  0.558264  1
  Bi  Bi20  1  0.595212  0.750000  0.461906  1
  Bi  Bi21  1  0.098034  0.750000  0.042541  1
  Bi  Bi22  1  0.915436  0.250000  0.948143  1
  Bi  Bi23  1  0.055334  0.999699  0.321528  1
  Bi  Bi24  1  0.930599  0.002272  0.674592  1
  Bi  Bi25  1  0.434374  0.989330  0.830697  1
  Bi  Bi26  1  0.930599  0.497728  0.674592  1
  Bi  Bi27  1  0.563599  0.005341  0.176188  1
  Bi  Bi28  1  0.055334  0.500301  0.321528  1
  Bi  Bi29  1  0.563599  0.494659  0.176188  1
  Bi  Bi30  1  0.434374  0.510670  0.830697  1
  Os  Os31  1  0.411635  0.250000  0.533260  1
