# generated using pymatgen
data_HfSc(PRu)2
_symmetry_space_group_name_H-M   'P 1'
_cell_length_a   7.49261336
_cell_length_b   7.48791382
_cell_length_c   7.49261258
_cell_angle_alpha   128.07735108
_cell_angle_beta   121.11539193
_cell_angle_gamma   82.34633134
_symmetry_Int_Tables_number   1
_chemical_formula_structural   HfSc(PRu)2
_chemical_formula_sum   'Hf3 Sc3 P6 Ru6'
_cell_volume   272.35044020
_cell_formula_units_Z   3
loop_
 _symmetry_equiv_pos_site_id
 _symmetry_equiv_pos_as_xyz
  1  'x, y, z'
loop_
 _atom_site_type_symbol
 _atom_site_label
 _atom_site_symmetry_multiplicity
 _atom_site_fract_x
 _atom_site_fract_y
 _atom_site_fract_z
 _atom_site_occupancy
  Hf  Hf0  1  0.251438  0.837844  0.086408  1
  Hf  Hf1  1  0.049963  0.257964  0.708000  1
  Hf  Hf2  1  0.949602  0.656932  0.207330  1
  Sc  Sc3  1  0.466994  0.689012  0.722018  1
  Sc  Sc4  1  0.534856  0.256530  0.221674  1
  Sc  Sc5  1  0.747986  0.832387  0.584401  1
  P  P6  1  0.272997  0.267631  0.494634  1
  P  P7  1  0.728640  0.228068  0.999429  1
  P  P8  1  0.330545  0.587241  0.251226  1
  P  P9  1  0.669406  0.920739  0.257658  1
  P  P10  1  0.163080  0.920739  0.751333  1
  P  P11  1  0.836015  0.587241  0.756696  1
  Ru  Ru12  1  0.492731  0.496470  0.989365  1
  Ru  Ru13  1  0.007105  0.496470  0.503739  1
  Ru  Ru14  1  0.095555  0.252817  0.104661  1
  Ru  Ru15  1  0.903362  0.009349  0.157783  1
  Ru  Ru16  1  0.351567  0.009349  0.605986  1
  Ru  Ru17  1  0.648158  0.252817  0.657263  1
