# generated using pymatgen
data_Pr20Pd3Rh13
_symmetry_space_group_name_H-M   'P 1'
_cell_length_a   7.71008986
_cell_length_b   7.77982001
_cell_length_c   15.15090413
_cell_angle_alpha   89.85938122
_cell_angle_beta   89.94893856
_cell_angle_gamma   89.91394291
_symmetry_Int_Tables_number   1
_chemical_formula_structural   Pr20Pd3Rh13
_chemical_formula_sum   'Pr20 Pd3 Rh13'
_cell_volume   908.79425007
_cell_formula_units_Z   1
loop_
 _symmetry_equiv_pos_site_id
 _symmetry_equiv_pos_as_xyz
  1  'x, y, z'
loop_
 _atom_site_type_symbol
 _atom_site_label
 _atom_site_symmetry_multiplicity
 _atom_site_fract_x
 _atom_site_fract_y
 _atom_site_fract_z
 _atom_site_occupancy
  Pr  Pr0  1  0.666323  0.172172  0.624471  1
  Pr  Pr1  1  0.161725  0.332782  0.872876  1
  Pr  Pr2  1  0.338138  0.834199  0.126724  1
  Pr  Pr3  1  0.835685  0.658997  0.377160  1
  Pr  Pr4  1  0.326665  0.829140  0.378738  1
  Pr  Pr5  1  0.830952  0.672716  0.120963  1
  Pr  Pr6  1  0.669807  0.172607  0.879432  1
  Pr  Pr7  1  0.164321  0.330211  0.620154  1
  Pr  Pr8  1  0.514757  0.678433  0.596694  1
  Pr  Pr9  1  0.011701  0.818608  0.897881  1
  Pr  Pr10  1  0.490054  0.318761  0.100942  1
  Pr  Pr11  1  0.985237  0.183803  0.403946  1
  Pr  Pr12  1  0.479250  0.320087  0.406293  1
  Pr  Pr13  1  0.979747  0.179416  0.094818  1
  Pr  Pr14  1  0.520249  0.678369  0.903869  1
  Pr  Pr15  1  0.019052  0.817411  0.594488  1
  Pr  Pr16  1  0.827700  0.511923  0.747778  1
  Pr  Pr17  1  0.332267  0.990472  0.747657  1
  Pr  Pr18  1  0.170983  0.487938  0.249839  1
  Pr  Pr19  1  0.673027  0.009209  0.251611  1
  Pd  Pd20  1  0.670402  0.964522  0.461215  1
  Pd  Pd21  1  0.173985  0.533211  0.038619  1
  Pd  Pd22  1  0.327366  0.031632  0.960385  1
  Rh  Rh23  1  0.824521  0.469789  0.542348  1
  Rh  Rh24  1  0.332678  0.024194  0.544518  1
  Rh  Rh25  1  0.835665  0.479521  0.953953  1
  Rh  Rh26  1  0.664550  0.981151  0.047364  1
  Rh  Rh27  1  0.166822  0.522142  0.454091  1
  Rh  Rh28  1  0.458383  0.398298  0.752794  1
  Rh  Rh29  1  0.960594  0.099077  0.749234  1
  Rh  Rh30  1  0.541550  0.600358  0.251435  1
  Rh  Rh31  1  0.040187  0.898958  0.248052  1
  Rh  Rh32  1  0.699138  0.856670  0.751168  1
  Rh  Rh33  1  0.201494  0.645060  0.748651  1
  Rh  Rh34  1  0.301707  0.143810  0.250888  1
  Rh  Rh35  1  0.803318  0.354353  0.248949  1
