# generated using pymatgen
data_Rb2BaTa2Se11
_symmetry_space_group_name_H-M   'P 1'
_cell_length_a   8.01843441
_cell_length_b   14.29726900
_cell_length_c   17.28854378
_cell_angle_alpha   90.00000000
_cell_angle_beta   96.15891551
_cell_angle_gamma   90.00000000
_symmetry_Int_Tables_number   1
_chemical_formula_structural   Rb2BaTa2Se11
_chemical_formula_sum   'Rb8 Ba4 Ta8 Se44'
_cell_volume   1970.54854931
_cell_formula_units_Z   4
loop_
 _symmetry_equiv_pos_site_id
 _symmetry_equiv_pos_as_xyz
  1  'x, y, z'
loop_
 _atom_site_type_symbol
 _atom_site_label
 _atom_site_symmetry_multiplicity
 _atom_site_fract_x
 _atom_site_fract_y
 _atom_site_fract_z
 _atom_site_occupancy
  Rb  Rb0  1  0.739045  0.460106  0.915970  1
  Rb  Rb1  1  0.260955  0.539894  0.084030  1
  Rb  Rb2  1  0.739045  0.039894  0.415970  1
  Rb  Rb3  1  0.707575  0.116949  0.732447  1
  Rb  Rb4  1  0.260955  0.960106  0.584030  1
  Rb  Rb5  1  0.292425  0.616949  0.767553  1
  Rb  Rb6  1  0.707575  0.383051  0.232447  1
  Rb  Rb7  1  0.292425  0.883051  0.267553  1
  Ba  Ba8  1  0.752131  0.122374  0.033950  1
  Ba  Ba9  1  0.752131  0.377626  0.533950  1
  Ba  Ba10  1  0.247869  0.622374  0.466050  1
  Ba  Ba11  1  0.247869  0.877626  0.966050  1
  Ta  Ta12  1  0.856951  0.673666  0.195651  1
  Ta  Ta13  1  0.856951  0.826334  0.695651  1
  Ta  Ta14  1  0.276629  0.284278  0.605895  1
  Ta  Ta15  1  0.143049  0.326334  0.804349  1
  Ta  Ta16  1  0.723371  0.784278  0.894105  1
  Ta  Ta17  1  0.276629  0.215722  0.105895  1
  Ta  Ta18  1  0.143049  0.173666  0.304349  1
  Ta  Ta19  1  0.723371  0.715722  0.394105  1
  Se  Se20  1  0.852781  0.834845  0.301148  1
  Se  Se21  1  0.836271  0.876185  0.023741  1
  Se  Se22  1  0.038076  0.718664  0.611284  1
  Se  Se23  1  0.163729  0.123815  0.976259  1
  Se  Se24  1  0.505713  0.804797  0.444297  1
  Se  Se25  1  0.440282  0.175682  0.249657  1
  Se  Se26  1  0.795039  0.553615  0.103005  1
  Se  Se27  1  0.399045  0.453964  0.605017  1
  Se  Se28  1  0.961924  0.218664  0.888716  1
  Se  Se29  1  0.038076  0.781336  0.111284  1
  Se  Se30  1  0.623414  0.705351  0.655208  1
  Se  Se31  1  0.078328  0.424265  0.675041  1
  Se  Se32  1  0.009451  0.188910  0.566695  1
  Se  Se33  1  0.600955  0.546036  0.394983  1
  Se  Se34  1  0.600955  0.953964  0.894983  1
  Se  Se35  1  0.376586  0.294649  0.344792  1
  Se  Se36  1  0.163729  0.376185  0.476259  1
  Se  Se37  1  0.840854  0.361699  0.736583  1
  Se  Se38  1  0.147219  0.334845  0.198852  1
  Se  Se39  1  0.795039  0.946385  0.603005  1
  Se  Se40  1  0.147219  0.165155  0.698852  1
  Se  Se41  1  0.623414  0.794649  0.155208  1
  Se  Se42  1  0.505713  0.695203  0.944297  1
  Se  Se43  1  0.159146  0.861699  0.763417  1
  Se  Se44  1  0.840854  0.138301  0.236583  1
  Se  Se45  1  0.921672  0.575735  0.324959  1
  Se  Se46  1  0.204961  0.053615  0.396995  1
  Se  Se47  1  0.159146  0.638301  0.263417  1
  Se  Se48  1  0.852781  0.665155  0.801148  1
  Se  Se49  1  0.399045  0.046036  0.105017  1
  Se  Se50  1  0.559718  0.675682  0.250343  1
  Se  Se51  1  0.559718  0.824318  0.750343  1
  Se  Se52  1  0.078328  0.075735  0.175041  1
  Se  Se53  1  0.204961  0.446385  0.896995  1
  Se  Se54  1  0.376586  0.205351  0.844792  1
  Se  Se55  1  0.440282  0.324318  0.749657  1
  Se  Se56  1  0.990549  0.811090  0.433305  1
  Se  Se57  1  0.961924  0.281336  0.388716  1
  Se  Se58  1  0.009451  0.311090  0.066695  1
  Se  Se59  1  0.494287  0.195203  0.555703  1
  Se  Se60  1  0.921672  0.924265  0.824959  1
  Se  Se61  1  0.990549  0.688910  0.933305  1
  Se  Se62  1  0.494287  0.304797  0.055703  1
  Se  Se63  1  0.836271  0.623815  0.523741  1
