# generated using pymatgen
data_Dy13Lu3(AlCo)4
_symmetry_space_group_name_H-M   'P 1'
_cell_length_a   9.35758611
_cell_length_b   9.36193744
_cell_length_c   9.35659773
_cell_angle_alpha   59.98811306
_cell_angle_beta   59.96184866
_cell_angle_gamma   59.97762953
_symmetry_Int_Tables_number   1
_chemical_formula_structural   Dy13Lu3(AlCo)4
_chemical_formula_sum   'Dy13 Lu3 Al4 Co4'
_cell_volume   579.28825248
_cell_formula_units_Z   1
loop_
 _symmetry_equiv_pos_site_id
 _symmetry_equiv_pos_as_xyz
  1  'x, y, z'
loop_
 _atom_site_type_symbol
 _atom_site_label
 _atom_site_symmetry_multiplicity
 _atom_site_fract_x
 _atom_site_fract_y
 _atom_site_fract_z
 _atom_site_occupancy
  Dy  Dy0  1  0.808643  0.191357  0.808643  1
  Dy  Dy1  1  0.191425  0.189966  0.810015  1
  Dy  Dy2  1  0.810015  0.808595  0.191425  1
  Dy  Dy3  1  0.938791  0.562426  0.560886  1
  Dy  Dy4  1  0.560886  0.937896  0.938791  1
  Dy  Dy5  1  0.561360  0.938640  0.561360  1
  Dy  Dy6  1  0.937950  0.562050  0.937950  1
  Dy  Dy7  1  0.560953  0.562530  0.938784  1
  Dy  Dy8  1  0.938784  0.937733  0.560953  1
  Dy  Dy9  1  0.349945  0.350367  0.348635  1
  Dy  Dy10  1  0.348645  0.350386  0.951878  1
  Dy  Dy11  1  0.348635  0.951053  0.349945  1
  Dy  Dy12  1  0.951878  0.349091  0.348645  1
  Lu  Lu13  1  0.808496  0.191568  0.192860  1
  Lu  Lu14  1  0.192860  0.807076  0.808496  1
  Lu  Lu15  1  0.191589  0.808411  0.191589  1
  Al  Al16  1  0.576627  0.577345  0.577202  1
  Al  Al17  1  0.576845  0.576934  0.268723  1
  Al  Al18  1  0.577202  0.268825  0.576627  1
  Al  Al19  1  0.268723  0.577497  0.576845  1
  Co  Co20  1  0.139416  0.139758  0.140654  1
  Co  Co21  1  0.140431  0.139569  0.579245  1
  Co  Co22  1  0.140654  0.580171  0.139416  1
  Co  Co23  1  0.579245  0.140753  0.140431  1
