# generated using pymatgen
data_Gd3Zn2(PtAu)2
_symmetry_space_group_name_H-M   'P 1'
_cell_length_a   3.82175700
_cell_length_b   7.74985239
_cell_length_c   7.64344300
_cell_angle_alpha   120.46160677
_cell_angle_beta   90.00000000
_cell_angle_gamma   90.00000000
_symmetry_Int_Tables_number   1
_chemical_formula_structural   Gd3Zn2(PtAu)2
_chemical_formula_sum   'Gd3 Zn2 Pt2 Au2'
_cell_volume   195.13591547
_cell_formula_units_Z   1
loop_
 _symmetry_equiv_pos_site_id
 _symmetry_equiv_pos_as_xyz
  1  'x, y, z'
loop_
 _atom_site_type_symbol
 _atom_site_label
 _atom_site_symmetry_multiplicity
 _atom_site_fract_x
 _atom_site_fract_y
 _atom_site_fract_z
 _atom_site_occupancy
  Gd  Gd0  1  0.000000  0.413744  0.000000  1
  Gd  Gd1  1  0.000000  0.597556  0.606982  1
  Gd  Gd2  1  0.000000  0.990575  0.393018  1
  Zn  Zn3  1  0.500000  0.268724  0.266375  1
  Zn  Zn4  1  0.500000  0.002349  0.733625  1
  Pt  Pt5  1  0.500000  0.661228  0.350527  1
  Pt  Pt6  1  0.500000  0.310700  0.649473  1
  Au  Au7  1  0.000000  0.025137  0.000000  1
  Au  Au8  1  0.500000  0.730087  0.000000  1
