# generated using pymatgen
data_CaMg2Sc2Ni9As7
_symmetry_space_group_name_H-M   'P 1'
_cell_length_a   3.85272600
_cell_length_b   9.65162719
_cell_length_c   9.65725322
_cell_angle_alpha   120.04279595
_cell_angle_beta   90.00000000
_cell_angle_gamma   90.00000000
_symmetry_Int_Tables_number   1
_chemical_formula_structural   CaMg2Sc2Ni9As7
_chemical_formula_sum   'Ca1 Mg2 Sc2 Ni9 As7'
_cell_volume   310.86044611
_cell_formula_units_Z   1
loop_
 _symmetry_equiv_pos_site_id
 _symmetry_equiv_pos_as_xyz
  1  'x, y, z'
loop_
 _atom_site_type_symbol
 _atom_site_label
 _atom_site_symmetry_multiplicity
 _atom_site_fract_x
 _atom_site_fract_y
 _atom_site_fract_z
 _atom_site_occupancy
  Ca  Ca0  1  0.500000  0.334742  0.668457  1
  Mg  Mg1  1  0.500000  0.770324  0.889691  1
  Mg  Mg2  1  0.500000  0.117153  0.228446  1
  Sc  Sc3  1  0.500000  0.105833  0.881374  1
  Sc  Sc4  1  0.000000  0.663872  0.328614  1
  Ni  Ni5  1  0.000000  0.579604  0.937865  1
  Ni  Ni6  1  0.000000  0.361465  0.421639  1
  Ni  Ni7  1  0.000000  0.061210  0.638065  1
  Ni  Ni8  1  0.000000  0.872240  0.162651  1
  Ni  Ni9  1  0.000000  0.290300  0.130024  1
  Ni  Ni10  1  0.000000  0.837705  0.708359  1
  Ni  Ni11  1  0.500000  0.947951  0.388127  1
  Ni  Ni12  1  0.500000  0.443573  0.058149  1
  Ni  Ni13  1  0.500000  0.613951  0.559171  1
  As  As14  1  0.500000  0.710320  0.132814  1
  As  As15  1  0.500000  0.422077  0.291118  1
  As  As16  1  0.500000  0.864750  0.572889  1
  As  As17  1  0.000000  0.999464  0.000440  1
  As  As18  1  0.000000  0.577102  0.685001  1
  As  As19  1  0.000000  0.109780  0.422657  1
  As  As20  1  0.000000  0.316584  0.894448  1
