# generated using pymatgen
data_InSb7PtAu3
_symmetry_space_group_name_H-M   'P 1'
_cell_length_a   6.71999529
_cell_length_b   6.76238234
_cell_length_c   6.72776995
_cell_angle_alpha   90.31192458
_cell_angle_beta   89.35163628
_cell_angle_gamma   90.16476526
_symmetry_Int_Tables_number   1
_chemical_formula_structural   InSb7PtAu3
_chemical_formula_sum   'In1 Sb7 Pt1 Au3'
_cell_volume   305.70592746
_cell_formula_units_Z   1
loop_
 _symmetry_equiv_pos_site_id
 _symmetry_equiv_pos_as_xyz
  1  'x, y, z'
loop_
 _atom_site_type_symbol
 _atom_site_label
 _atom_site_symmetry_multiplicity
 _atom_site_fract_x
 _atom_site_fract_y
 _atom_site_fract_z
 _atom_site_occupancy
  In  In0  1  0.381875  0.133947  0.880086  1
  Sb  Sb1  1  0.121107  0.877821  0.374381  1
  Sb  Sb2  1  0.866272  0.382657  0.118015  1
  Sb  Sb3  1  0.618336  0.620491  0.631396  1
  Sb  Sb4  1  0.381688  0.375777  0.367678  1
  Sb  Sb5  1  0.138849  0.619242  0.881693  1
  Sb  Sb6  1  0.876130  0.123198  0.629628  1
  Sb  Sb7  1  0.617568  0.866714  0.118503  1
  Pt  Pt8  1  0.500467  0.503680  0.002035  1
  Au  Au9  1  0.000027  0.499920  0.500045  1
  Au  Au10  1  0.500921  0.998931  0.496989  1
  Au  Au11  1  0.996759  0.997622  0.999553  1
