# generated using pymatgen
data_Ho10AlSnBi4
_symmetry_space_group_name_H-M   'P 1'
_cell_length_a   9.02155740
_cell_length_b   9.02194921
_cell_length_c   6.44843000
_cell_angle_alpha   90.00000000
_cell_angle_beta   90.00000000
_cell_angle_gamma   119.78044400
_symmetry_Int_Tables_number   1
_chemical_formula_structural   Ho10AlSnBi4
_chemical_formula_sum   'Ho10 Al1 Sn1 Bi4'
_cell_volume   455.53641579
_cell_formula_units_Z   1
loop_
 _symmetry_equiv_pos_site_id
 _symmetry_equiv_pos_as_xyz
  1  'x, y, z'
loop_
 _atom_site_type_symbol
 _atom_site_label
 _atom_site_symmetry_multiplicity
 _atom_site_fract_x
 _atom_site_fract_y
 _atom_site_fract_z
 _atom_site_occupancy
  Ho  Ho0  1  0.994486  0.759514  0.750000  1
  Ho  Ho1  1  0.985449  0.228834  0.250000  1
  Ho  Ho2  1  0.753993  0.767016  0.250000  1
  Ho  Ho3  1  0.759628  0.995345  0.750000  1
  Ho  Ho4  1  0.245052  0.244691  0.750000  1
  Ho  Ho5  1  0.246485  0.000002  0.250000  1
  Ho  Ho6  1  0.346077  0.676491  0.498569  1
  Ho  Ho7  1  0.664317  0.326421  0.001287  1
  Ho  Ho8  1  0.664317  0.326421  0.498713  1
  Ho  Ho9  1  0.346077  0.676491  0.001431  1
  Al  Al10  1  0.604744  0.003172  0.250000  1
  Sn  Sn11  1  0.608388  0.604602  0.750000  1
  Bi  Bi12  1  0.390834  0.998723  0.750000  1
  Bi  Bi13  1  0.385860  0.388555  0.250000  1
  Bi  Bi14  1  0.000619  0.610079  0.250000  1
  Bi  Bi15  1  0.003672  0.393641  0.750000  1
