# generated using pymatgen
data_Na2Nb3Co6Ni3As7
_symmetry_space_group_name_H-M   'P 1'
_cell_length_a   9.59604800
_cell_length_b   9.59604770
_cell_length_c   3.79107100
_cell_angle_alpha   90.00000000
_cell_angle_beta   90.00000000
_cell_angle_gamma   120.00000700
_symmetry_Int_Tables_number   1
_chemical_formula_structural   Na2Nb3Co6Ni3As7
_chemical_formula_sum   'Na2 Nb3 Co6 Ni3 As7'
_cell_volume   302.32727457
_cell_formula_units_Z   1
loop_
 _symmetry_equiv_pos_site_id
 _symmetry_equiv_pos_as_xyz
  1  'x, y, z'
loop_
 _atom_site_type_symbol
 _atom_site_label
 _atom_site_symmetry_multiplicity
 _atom_site_fract_x
 _atom_site_fract_y
 _atom_site_fract_z
 _atom_site_occupancy
  Na  Na0  1  0.333333  0.666667  0.000000  1
  Na  Na1  1  0.666667  0.333333  0.500000  1
  Nb  Nb2  1  0.223960  0.124637  0.500000  1
  Nb  Nb3  1  0.875363  0.099321  0.500000  1
  Nb  Nb4  1  0.900679  0.776040  0.500000  1
  Co  Co5  1  0.118932  0.279792  0.000000  1
  Co  Co6  1  0.720208  0.839142  0.000000  1
  Co  Co7  1  0.160858  0.881068  0.000000  1
  Co  Co8  1  0.046611  0.436039  0.500000  1
  Co  Co9  1  0.563961  0.610572  0.500000  1
  Co  Co10  1  0.389428  0.953389  0.500000  1
  Ni  Ni11  1  0.425064  0.367582  0.000000  1
  Ni  Ni12  1  0.632418  0.057482  0.000000  1
  Ni  Ni13  1  0.942518  0.574936  0.000000  1
  As  As14  1  0.287319  0.422987  0.500000  1
  As  As15  1  0.577013  0.864331  0.500000  1
  As  As16  1  0.135669  0.712681  0.500000  1
  As  As17  1  0.420087  0.111439  0.000000  1
  As  As18  1  0.888561  0.308647  0.000000  1
  As  As19  1  0.691353  0.579913  0.000000  1
  As  As20  1  0.000000  0.000000  0.000000  1
