# generated using pymatgen
data_Dy3Ho3(TmPt2)2
_symmetry_space_group_name_H-M   'P 1'
_cell_length_a   4.75766200
_cell_length_b   7.12199885
_cell_length_c   8.75162800
_cell_angle_alpha   89.97352467
_cell_angle_beta   90.00000000
_cell_angle_gamma   90.00000000
_symmetry_Int_Tables_number   1
_chemical_formula_structural   Dy3Ho3(TmPt2)2
_chemical_formula_sum   'Dy3 Ho3 Tm2 Pt4'
_cell_volume   296.54068559
_cell_formula_units_Z   1
loop_
 _symmetry_equiv_pos_site_id
 _symmetry_equiv_pos_as_xyz
  1  'x, y, z'
loop_
 _atom_site_type_symbol
 _atom_site_label
 _atom_site_symmetry_multiplicity
 _atom_site_fract_x
 _atom_site_fract_y
 _atom_site_fract_z
 _atom_site_occupancy
  Dy  Dy0  1  0.250000  0.510551  0.170288  1
  Dy  Dy1  1  0.750000  0.989518  0.669512  1
  Dy  Dy2  1  0.750000  0.489665  0.830158  1
  Ho  Ho3  1  0.250000  0.144191  0.921135  1
  Ho  Ho4  1  0.250000  0.644516  0.578837  1
  Ho  Ho5  1  0.250000  0.010748  0.330937  1
  Tm  Tm6  1  0.750000  0.855780  0.079962  1
  Tm  Tm7  1  0.750000  0.355095  0.420697  1
  Pt  Pt8  1  0.250000  0.242543  0.591731  1
  Pt  Pt9  1  0.250000  0.742711  0.907157  1
  Pt  Pt10  1  0.750000  0.757902  0.405673  1
  Pt  Pt11  1  0.750000  0.256782  0.093912  1
