# generated using pymatgen
data_TbAlF36
_symmetry_space_group_name_H-M   'P 1'
_cell_length_a   6.87745168
_cell_length_b   8.34833231
_cell_length_c   13.22668266
_cell_angle_alpha   106.87216927
_cell_angle_beta   87.11409597
_cell_angle_gamma   109.07534515
_symmetry_Int_Tables_number   1
_chemical_formula_structural   TbAlF36
_chemical_formula_sum   'Tb1 Al1 F36'
_cell_volume   685.98733408
_cell_formula_units_Z   1
loop_
 _symmetry_equiv_pos_site_id
 _symmetry_equiv_pos_as_xyz
  1  'x, y, z'
loop_
 _atom_site_type_symbol
 _atom_site_label
 _atom_site_symmetry_multiplicity
 _atom_site_fract_x
 _atom_site_fract_y
 _atom_site_fract_z
 _atom_site_occupancy
  Tb  Tb0  1  0.073626  0.916842  0.234635  1
  Al  Al1  1  0.976948  0.083118  0.722733  1
  F  F2  1  0.682687  0.601860  0.396375  1
  F  F3  1  0.334696  0.401463  0.620553  1
  F  F4  1  0.060587  0.358693  0.366334  1
  F  F5  1  0.932215  0.636976  0.648750  1
  F  F6  1  0.174521  0.905938  0.947879  1
  F  F7  1  0.799845  0.105689  0.033066  1
  F  F8  1  0.823649  0.868881  0.341800  1
  F  F9  1  0.213547  0.152963  0.672751  1
  F  F10  1  0.151906  0.680020  0.184011  1
  F  F11  1  0.898409  0.260961  0.779047  1
  F  F12  1  0.579873  0.423585  0.398086  1
  F  F13  1  0.413210  0.573265  0.604234  1
  F  F14  1  0.010713  0.066289  0.148627  1
  F  F15  1  0.984562  0.980018  0.815744  1
  F  F16  1  0.092816  0.057864  0.404963  1
  F  F17  1  0.820168  0.929916  0.619176  1
  F  F18  1  0.085262  0.470623  0.299011  1
  F  F19  1  0.930821  0.515707  0.706082  1
  F  F20  1  0.830610  0.778472  0.078221  1
  F  F21  1  0.282970  0.308277  0.932754  1
  F  F22  1  0.756210  0.582269  0.038966  1
  F  F23  1  0.206562  0.434267  0.005180  1
  F  F24  1  0.593273  0.591085  0.835594  1
  F  F25  1  0.446194  0.420481  0.176601  1
  F  F26  1  0.584420  0.077482  0.273851  1
  F  F27  1  0.355829  0.887186  0.724881  1
  F  F28  1  0.250163  0.860474  0.470585  1
  F  F29  1  0.701464  0.120772  0.547521  1
  F  F30  1  0.257574  0.853227  0.025538  1
  F  F31  1  0.661996  0.115321  0.958769  1
  F  F32  1  0.413512  0.897446  0.234594  1
  F  F33  1  0.517162  0.051742  0.763264  1
  F  F34  1  0.607209  0.344330  0.163319  1
  F  F35  1  0.436716  0.671341  0.848868  1
  F  F36  1  0.384189  0.761057  0.470427  1
  F  F37  1  0.673882  0.254098  0.507206  1
