# generated using pymatgen
data_YEr3Al18Co5Pd
_symmetry_space_group_name_H-M   'P 1'
_cell_length_a   7.39853213
_cell_length_b   7.39671157
_cell_length_c   9.29906915
_cell_angle_alpha   89.85714774
_cell_angle_beta   89.83598827
_cell_angle_gamma   119.11368062
_symmetry_Int_Tables_number   1
_chemical_formula_structural   YEr3Al18Co5Pd
_chemical_formula_sum   'Y1 Er3 Al18 Co5 Pd1'
_cell_volume   444.58842418
_cell_formula_units_Z   1
loop_
 _symmetry_equiv_pos_site_id
 _symmetry_equiv_pos_as_xyz
  1  'x, y, z'
loop_
 _atom_site_type_symbol
 _atom_site_label
 _atom_site_symmetry_multiplicity
 _atom_site_fract_x
 _atom_site_fract_y
 _atom_site_fract_z
 _atom_site_occupancy
  Y  Y0  1  0.324875  0.005519  0.748502  1
  Er  Er1  1  0.994471  0.675413  0.251593  1
  Er  Er2  1  0.005232  0.324794  0.748366  1
  Er  Er3  1  0.675522  0.994420  0.251685  1
  Al  Al4  1  0.131329  0.131537  0.258330  1
  Al  Al5  1  0.867924  0.868653  0.741614  1
  Al  Al6  1  0.331567  0.332169  0.541559  1
  Al  Al7  1  0.660203  0.660146  0.048454  1
  Al  Al8  1  0.339677  0.340239  0.952601  1
  Al  Al9  1  0.668349  0.668306  0.457348  1
  Al  Al10  1  0.339675  0.557121  0.251442  1
  Al  Al11  1  0.661284  0.443938  0.748557  1
  Al  Al12  1  0.557337  0.339913  0.251447  1
  Al  Al13  1  0.443046  0.659451  0.748533  1
  Al  Al14  1  0.999337  0.344372  0.075267  1
  Al  Al15  1  0.002770  0.663405  0.570648  1
  Al  Al16  1  0.336096  0.996518  0.427912  1
  Al  Al17  1  0.656199  0.000505  0.925524  1
  Al  Al18  1  0.999792  0.654891  0.925421  1
  Al  Al19  1  0.996427  0.335948  0.428661  1
  Al  Al20  1  0.664720  0.003546  0.570576  1
  Al  Al21  1  0.344640  0.999513  0.075962  1
  Co  Co22  1  0.999487  0.999774  0.499474  1
  Co  Co23  1  0.671551  0.328744  0.000299  1
  Co  Co24  1  0.328703  0.671198  0.499675  1
  Co  Co25  1  0.328590  0.671252  0.000352  1
  Co  Co26  1  0.671544  0.328932  0.499652  1
  Pd  Pd27  1  0.999654  0.999783  0.000546  1
