# generated using pymatgen
data_Hf3Zr2Sn2GeSb
_symmetry_space_group_name_H-M   'P 1'
_cell_length_a   8.65896711
_cell_length_b   8.66773021
_cell_length_c   5.86411800
_cell_angle_alpha   90.00000000
_cell_angle_beta   90.00000000
_cell_angle_gamma   119.98299140
_symmetry_Int_Tables_number   1
_chemical_formula_structural   Hf3Zr2Sn2GeSb
_chemical_formula_sum   'Hf6 Zr4 Sn4 Ge2 Sb2'
_cell_volume   381.22310595
_cell_formula_units_Z   2
loop_
 _symmetry_equiv_pos_site_id
 _symmetry_equiv_pos_as_xyz
  1  'x, y, z'
loop_
 _atom_site_type_symbol
 _atom_site_label
 _atom_site_symmetry_multiplicity
 _atom_site_fract_x
 _atom_site_fract_y
 _atom_site_fract_z
 _atom_site_occupancy
  Hf  Hf0  1  0.666946  0.332981  0.998451  1
  Hf  Hf1  1  0.332753  0.667723  0.998433  1
  Hf  Hf2  1  0.332753  0.667723  0.501567  1
  Hf  Hf3  1  0.666946  0.332981  0.501549  1
  Hf  Hf4  1  0.731594  0.732651  0.750000  1
  Hf  Hf5  1  0.268822  0.001442  0.750000  1
  Zr  Zr6  1  0.000396  0.268548  0.750000  1
  Zr  Zr7  1  0.260325  0.259397  0.250000  1
  Zr  Zr8  1  0.738614  0.999344  0.250000  1
  Zr  Zr9  1  0.000212  0.737951  0.250000  1
  Sn  Sn10  1  0.392309  0.392309  0.750000  1
  Sn  Sn11  1  0.609248  0.999558  0.750000  1
  Sn  Sn12  1  0.999595  0.611119  0.750000  1
  Sn  Sn13  1  0.604440  0.604540  0.250000  1
  Ge  Ge14  1  0.999340  0.998034  0.992303  1
  Ge  Ge15  1  0.999340  0.998034  0.507697  1
  Sb  Sb16  1  0.396446  0.000104  0.250000  1
  Sb  Sb17  1  0.999921  0.395563  0.250000  1
