# generated using pymatgen
data_LuSc3(Al3Rh)2
_symmetry_space_group_name_H-M   'P 1'
_cell_length_a   5.36835800
_cell_length_b   5.36835852
_cell_length_c   8.50521100
_cell_angle_alpha   90.00000000
_cell_angle_beta   90.00000000
_cell_angle_gamma   119.99999682
_symmetry_Int_Tables_number   1
_chemical_formula_structural   LuSc3(Al3Rh)2
_chemical_formula_sum   'Lu1 Sc3 Al6 Rh2'
_cell_volume   212.27493639
_cell_formula_units_Z   1
loop_
 _symmetry_equiv_pos_site_id
 _symmetry_equiv_pos_as_xyz
  1  'x, y, z'
loop_
 _atom_site_type_symbol
 _atom_site_label
 _atom_site_symmetry_multiplicity
 _atom_site_fract_x
 _atom_site_fract_y
 _atom_site_fract_z
 _atom_site_occupancy
  Lu  Lu0  1  0.333333  0.666666  0.943395  1
  Sc  Sc1  1  0.666666  0.333333  0.058080  1
  Sc  Sc2  1  0.666666  0.333333  0.443489  1
  Sc  Sc3  1  0.333333  0.666666  0.554602  1
  Al  Al4  1  0.166000  0.331999  0.252571  1
  Al  Al5  1  0.166000  0.834000  0.252571  1
  Al  Al6  1  0.668000  0.834000  0.252571  1
  Al  Al7  1  0.334041  0.167020  0.747652  1
  Al  Al8  1  0.832981  0.167020  0.747652  1
  Al  Al9  1  0.832980  0.665959  0.747652  1
  Rh  Rh10  1  0.000000  0.000000  0.000240  1
  Rh  Rh11  1  0.000000  0.000000  0.499531  1
