# generated using pymatgen
data_NdSm6BI12
_symmetry_space_group_name_H-M   'P 1'
_cell_length_a   9.75603186
_cell_length_b   9.75603206
_cell_length_c   9.75603000
_cell_angle_alpha   107.77853499
_cell_angle_beta   107.77854154
_cell_angle_gamma   107.77852618
_symmetry_Int_Tables_number   1
_chemical_formula_structural   NdSm6BI12
_chemical_formula_sum   'Nd1 Sm6 B1 I12'
_cell_volume   756.30623221
_cell_formula_units_Z   1
loop_
 _symmetry_equiv_pos_site_id
 _symmetry_equiv_pos_as_xyz
  1  'x, y, z'
loop_
 _atom_site_type_symbol
 _atom_site_label
 _atom_site_symmetry_multiplicity
 _atom_site_fract_x
 _atom_site_fract_y
 _atom_site_fract_z
 _atom_site_occupancy
  Nd  Nd0  1  0.473077  0.473077  0.473077  1
  Sm  Sm1  1  0.107451  0.040404  0.300081  1
  Sm  Sm2  1  0.300081  0.107451  0.040404  1
  Sm  Sm3  1  0.040404  0.300081  0.107451  1
  Sm  Sm4  1  0.705461  0.905498  0.974464  1
  Sm  Sm5  1  0.974464  0.705461  0.905498  1
  Sm  Sm6  1  0.905498  0.974464  0.705461  1
  B  B7  1  0.995118  0.995118  0.995118  1
  I  I8  1  0.775359  0.921809  0.316112  1
  I  I9  1  0.388697  0.474204  0.138524  1
  I  I10  1  0.474204  0.138524  0.388697  1
  I  I11  1  0.138524  0.388697  0.474204  1
  I  I12  1  0.316112  0.775359  0.921809  1
  I  I13  1  0.921809  0.316112  0.775359  1
  I  I14  1  0.612941  0.534478  0.842549  1
  I  I15  1  0.842549  0.612941  0.534478  1
  I  I16  1  0.534478  0.842549  0.612941  1
  I  I17  1  0.688707  0.232844  0.077770  1
  I  I18  1  0.077770  0.688707  0.232844  1
  I  I19  1  0.232844  0.077770  0.688707  1
