# generated using pymatgen
data_Y7Tm4In9Ru4
_symmetry_space_group_name_H-M   'P 1'
_cell_length_a   3.77343900
_cell_length_b   12.90627851
_cell_length_c   12.90627700
_cell_angle_alpha   112.87508669
_cell_angle_beta   90.00000000
_cell_angle_gamma   90.00000000
_symmetry_Int_Tables_number   1
_chemical_formula_structural   Y7Tm4In9Ru4
_chemical_formula_sum   'Y7 Tm4 In9 Ru4'
_cell_volume   579.11673825
_cell_formula_units_Z   1
loop_
 _symmetry_equiv_pos_site_id
 _symmetry_equiv_pos_as_xyz
  1  'x, y, z'
loop_
 _atom_site_type_symbol
 _atom_site_label
 _atom_site_symmetry_multiplicity
 _atom_site_fract_x
 _atom_site_fract_y
 _atom_site_fract_z
 _atom_site_occupancy
  Y  Y0  1  0.000000  0.162425  0.837575  1
  Y  Y1  1  0.000000  0.837575  0.162425  1
  Y  Y2  1  0.000000  0.372278  0.627722  1
  Y  Y3  1  0.000000  0.627722  0.372278  1
  Y  Y4  1  0.000000  0.691646  0.691646  1
  Y  Y5  1  0.000000  0.308354  0.308354  1
  Y  Y6  1  0.000000  0.000000  0.000000  1
  Tm  Tm7  1  0.000000  0.916203  0.582323  1
  Tm  Tm8  1  0.000000  0.083797  0.417677  1
  Tm  Tm9  1  0.000000  0.582323  0.916203  1
  Tm  Tm10  1  0.000000  0.417677  0.083797  1
  In  In11  1  0.500000  0.154104  0.629260  1
  In  In12  1  0.500000  0.845896  0.370740  1
  In  In13  1  0.500000  0.629260  0.154104  1
  In  In14  1  0.500000  0.370740  0.845896  1
  In  In15  1  0.500000  0.927012  0.779500  1
  In  In16  1  0.500000  0.072988  0.220500  1
  In  In17  1  0.500000  0.779500  0.927012  1
  In  In18  1  0.500000  0.220500  0.072988  1
  In  In19  1  0.500000  0.500000  0.500000  1
  Ru  Ru20  1  0.500000  0.748319  0.548201  1
  Ru  Ru21  1  0.500000  0.251681  0.451799  1
  Ru  Ru22  1  0.500000  0.548201  0.748319  1
  Ru  Ru23  1  0.500000  0.451799  0.251681  1
