# generated using pymatgen
data_TbCe(MoN2)2
_symmetry_space_group_name_H-M   'P 1'
_cell_length_a   3.24919400
_cell_length_b   5.73676000
_cell_length_c   10.72761900
_cell_angle_alpha   90.00000000
_cell_angle_beta   90.00000000
_cell_angle_gamma   90.00000000
_symmetry_Int_Tables_number   1
_chemical_formula_structural   TbCe(MoN2)2
_chemical_formula_sum   'Tb2 Ce2 Mo4 N8'
_cell_volume   199.96116795
_cell_formula_units_Z   2
loop_
 _symmetry_equiv_pos_site_id
 _symmetry_equiv_pos_as_xyz
  1  'x, y, z'
loop_
 _atom_site_type_symbol
 _atom_site_label
 _atom_site_symmetry_multiplicity
 _atom_site_fract_x
 _atom_site_fract_y
 _atom_site_fract_z
 _atom_site_occupancy
  Tb  Tb0  1  0.750000  0.921626  0.149891  1
  Tb  Tb1  1  0.750000  0.421626  0.350109  1
  Ce  Ce2  1  0.250000  0.073523  0.857102  1
  Ce  Ce3  1  0.250000  0.573523  0.642898  1
  Mo  Mo4  1  0.250000  0.434659  0.094691  1
  Mo  Mo5  1  0.250000  0.934659  0.405309  1
  Mo  Mo6  1  0.750000  0.568293  0.905775  1
  Mo  Mo7  1  0.750000  0.068293  0.594225  1
  N  N8  1  0.250000  0.165163  0.248277  1
  N  N9  1  0.250000  0.665163  0.251723  1
  N  N10  1  0.750000  0.834163  0.752033  1
  N  N11  1  0.750000  0.334163  0.747967  1
  N  N12  1  0.250000  0.752976  0.995067  1
  N  N13  1  0.250000  0.252976  0.504933  1
  N  N14  1  0.750000  0.249597  0.009506  1
  N  N15  1  0.750000  0.749597  0.490494  1
