# generated using pymatgen
data_Pa6Mn8Ni12P13
_symmetry_space_group_name_H-M   'P 1'
_cell_length_a   12.74233400
_cell_length_b   12.74233441
_cell_length_c   3.73761000
_cell_angle_alpha   90.00000000
_cell_angle_beta   90.00000000
_cell_angle_gamma   119.99999374
_symmetry_Int_Tables_number   1
_chemical_formula_structural   Pa6Mn8Ni12P13
_chemical_formula_sum   'Pa6 Mn8 Ni12 P13'
_cell_volume   525.56038884
_cell_formula_units_Z   1
loop_
 _symmetry_equiv_pos_site_id
 _symmetry_equiv_pos_as_xyz
  1  'x, y, z'
loop_
 _atom_site_type_symbol
 _atom_site_label
 _atom_site_symmetry_multiplicity
 _atom_site_fract_x
 _atom_site_fract_y
 _atom_site_fract_z
 _atom_site_occupancy
  Pa  Pa0  1  0.475361  0.192867  0.000000  1
  Pa  Pa1  1  0.717506  0.524639  0.000000  1
  Pa  Pa2  1  0.807133  0.282494  0.000000  1
  Pa  Pa3  1  0.522123  0.805777  0.500000  1
  Pa  Pa4  1  0.283656  0.477877  0.500000  1
  Pa  Pa5  1  0.194223  0.716344  0.500000  1
  Mn  Mn6  1  0.333333  0.666667  0.000000  1
  Mn  Mn7  1  0.666667  0.333333  0.500000  1
  Mn  Mn8  1  0.198643  0.091533  0.000000  1
  Mn  Mn9  1  0.892890  0.801357  0.000000  1
  Mn  Mn10  1  0.908467  0.107110  0.000000  1
  Mn  Mn11  1  0.844258  0.929552  0.500000  1
  Mn  Mn12  1  0.085294  0.155742  0.500000  1
  Mn  Mn13  1  0.070448  0.914706  0.500000  1
  Ni  Ni14  1  0.434878  0.414215  0.000000  1
  Ni  Ni15  1  0.979337  0.565122  0.000000  1
  Ni  Ni16  1  0.585785  0.020663  0.000000  1
  Ni  Ni17  1  0.567253  0.587129  0.500000  1
  Ni  Ni18  1  0.019876  0.432747  0.500000  1
  Ni  Ni19  1  0.412871  0.980124  0.500000  1
  Ni  Ni20  1  0.082030  0.321633  0.000000  1
  Ni  Ni21  1  0.239602  0.917970  0.000000  1
  Ni  Ni22  1  0.678367  0.760398  0.000000  1
  Ni  Ni23  1  0.928872  0.680597  0.500000  1
  Ni  Ni24  1  0.751725  0.071128  0.500000  1
  Ni  Ni25  1  0.319403  0.248275  0.500000  1
  P  P26  1  0.232659  0.279543  0.000000  1
  P  P27  1  0.046884  0.767341  0.000000  1
  P  P28  1  0.720457  0.953116  0.000000  1
  P  P29  1  0.770411  0.722577  0.500000  1
  P  P30  1  0.952166  0.229589  0.500000  1
  P  P31  1  0.277423  0.047834  0.500000  1
  P  P32  1  0.480118  0.613033  0.000000  1
  P  P33  1  0.132915  0.519882  0.000000  1
  P  P34  1  0.386967  0.867085  0.000000  1
  P  P35  1  0.521578  0.387596  0.500000  1
  P  P36  1  0.866019  0.478422  0.500000  1
  P  P37  1  0.612404  0.133981  0.500000  1
  P  P38  1  0.000000  0.000000  0.000000  1
