# generated using pymatgen
data_Ta3Mn8Ga
_symmetry_space_group_name_H-M   'P 1'
_cell_length_a   4.76857800
_cell_length_b   4.76857690
_cell_length_c   7.86521700
_cell_angle_alpha   90.00000000
_cell_angle_beta   90.00000000
_cell_angle_gamma   119.99999373
_symmetry_Int_Tables_number   1
_chemical_formula_structural   Ta3Mn8Ga
_chemical_formula_sum   'Ta3 Mn8 Ga1'
_cell_volume   154.88845589
_cell_formula_units_Z   1
loop_
 _symmetry_equiv_pos_site_id
 _symmetry_equiv_pos_as_xyz
  1  'x, y, z'
loop_
 _atom_site_type_symbol
 _atom_site_label
 _atom_site_symmetry_multiplicity
 _atom_site_fract_x
 _atom_site_fract_y
 _atom_site_fract_z
 _atom_site_occupancy
  Ta  Ta0  1  0.666667  0.333333  0.566021  1
  Ta  Ta1  1  0.666667  0.333333  0.941484  1
  Ta  Ta2  1  0.333333  0.666667  0.422480  1
  Mn  Mn3  1  0.000000  0.000000  0.001447  1
  Mn  Mn4  1  0.000000  0.000000  0.508239  1
  Mn  Mn5  1  0.828039  0.656076  0.249198  1
  Mn  Mn6  1  0.173835  0.826165  0.750333  1
  Mn  Mn7  1  0.652330  0.826165  0.750333  1
  Mn  Mn8  1  0.343924  0.171961  0.249198  1
  Mn  Mn9  1  0.828039  0.171961  0.249198  1
  Mn  Mn10  1  0.173835  0.347670  0.750333  1
  Ga  Ga11  1  0.333333  0.666667  0.061736  1
