# generated using pymatgen
data_Ga3Rh(SO4)6
_symmetry_space_group_name_H-M   'P 1'
_cell_length_a   8.18841805
_cell_length_b   8.18841807
_cell_length_c   8.81160649
_cell_angle_alpha   62.31319008
_cell_angle_beta   117.68680940
_cell_angle_gamma   119.99999376
_symmetry_Int_Tables_number   1
_chemical_formula_structural   Ga3Rh(SO4)6
_chemical_formula_sum   'Ga3 Rh1 S6 O24'
_cell_volume   431.78845947
_cell_formula_units_Z   1
loop_
 _symmetry_equiv_pos_site_id
 _symmetry_equiv_pos_as_xyz
  1  'x, y, z'
loop_
 _atom_site_type_symbol
 _atom_site_label
 _atom_site_symmetry_multiplicity
 _atom_site_fract_x
 _atom_site_fract_y
 _atom_site_fract_z
 _atom_site_occupancy
  Ga  Ga0  1  0.143029  0.856971  0.429088  1
  Ga  Ga1  1  0.855423  0.144577  0.566268  1
  Ga  Ga2  1  0.651641  0.348359  0.954923  1
  Rh  Rh3  1  0.347290  0.652710  0.041871  1
  S  S4  1  0.458225  0.248119  0.248877  1
  S  S5  1  0.038772  0.541775  0.248877  1
  S  S6  1  0.751881  0.961228  0.248877  1
  S  S7  1  0.249011  0.041659  0.749858  1
  S  S8  1  0.958341  0.457496  0.749858  1
  S  S9  1  0.542505  0.750989  0.749858  1
  O  O10  1  0.785646  0.154123  0.103595  1
  O  O11  1  0.472072  0.214353  0.103595  1
  O  O12  1  0.845877  0.527928  0.103595  1
  O  O13  1  0.497625  0.459280  0.210965  1
  O  O14  1  0.172618  0.502374  0.210965  1
  O  O15  1  0.540721  0.827382  0.210965  1
  O  O16  1  0.257057  0.119887  0.266764  1
  O  O17  1  0.129594  0.742944  0.266764  1
  O  O18  1  0.880113  0.870406  0.266764  1
  O  O19  1  0.606559  0.194470  0.422280  1
  O  O20  1  0.010192  0.393441  0.422280  1
  O  O21  1  0.805530  0.989809  0.422280  1
  O  O22  1  0.207258  0.015074  0.578934  1
  O  O23  1  0.984925  0.613249  0.578934  1
  O  O24  1  0.386751  0.792742  0.578934  1
  O  O25  1  0.119244  0.133525  0.726795  1
  O  O26  1  0.866475  0.258923  0.726795  1
  O  O27  1  0.741076  0.880756  0.726795  1
  O  O28  1  0.459064  0.173200  0.800217  1
  O  O29  1  0.826800  0.485647  0.800217  1
  O  O30  1  0.514354  0.540936  0.800217  1
  O  O31  1  0.152631  0.461667  0.894333  1
  O  O32  1  0.538333  0.796631  0.894333  1
  O  O33  1  0.203370  0.847369  0.894333  1
