# generated using pymatgen
data_Tm4Sc8Fe2TcPb2
_symmetry_space_group_name_H-M   'P 1'
_cell_length_a   8.01757573
_cell_length_b   8.01757487
_cell_length_c   8.01757634
_cell_angle_alpha   108.31001107
_cell_angle_beta   108.31002501
_cell_angle_gamma   111.81946211
_symmetry_Int_Tables_number   1
_chemical_formula_structural   Tm4Sc8Fe2TcPb2
_chemical_formula_sum   'Tm4 Sc8 Fe2 Tc1 Pb2'
_cell_volume   396.23909310
_cell_formula_units_Z   1
loop_
 _symmetry_equiv_pos_site_id
 _symmetry_equiv_pos_as_xyz
  1  'x, y, z'
loop_
 _atom_site_type_symbol
 _atom_site_label
 _atom_site_symmetry_multiplicity
 _atom_site_fract_x
 _atom_site_fract_y
 _atom_site_fract_z
 _atom_site_occupancy
  Tm  Tm0  1  0.303517  0.303517  0.607034  1
  Tm  Tm1  1  0.696483  0.696483  0.392966  1
  Tm  Tm2  1  0.696483  0.303517  0.000000  1
  Tm  Tm3  1  0.303517  0.696483  0.000000  1
  Sc  Sc4  1  0.193795  0.425347  0.231552  1
  Sc  Sc5  1  0.806205  0.574653  0.768448  1
  Sc  Sc6  1  0.193795  0.962245  0.768448  1
  Sc  Sc7  1  0.962245  0.193795  0.768448  1
  Sc  Sc8  1  0.806205  0.037755  0.231552  1
  Sc  Sc9  1  0.037755  0.806205  0.231552  1
  Sc  Sc10  1  0.425347  0.193795  0.231552  1
  Sc  Sc11  1  0.574653  0.806205  0.768448  1
  Fe  Fe12  1  0.379130  0.379130  0.000000  1
  Fe  Fe13  1  0.620870  0.620870  0.000000  1
  Tc  Tc14  1  0.000000  0.000000  0.000000  1
  Pb  Pb15  1  0.000000  0.500000  0.500000  1
  Pb  Pb16  1  0.500000  0.000000  0.500000  1
