# generated using pymatgen
data_Ho2MnCr2Fe7P6
_symmetry_space_group_name_H-M   'P 1'
_cell_length_a   3.65165900
_cell_length_b   10.28518100
_cell_length_c   12.08553400
_cell_angle_alpha   90.00000000
_cell_angle_beta   90.00000000
_cell_angle_gamma   90.00000000
_symmetry_Int_Tables_number   1
_chemical_formula_structural   Ho2MnCr2Fe7P6
_chemical_formula_sum   'Ho4 Mn2 Cr4 Fe14 P12'
_cell_volume   453.90816891
_cell_formula_units_Z   2
loop_
 _symmetry_equiv_pos_site_id
 _symmetry_equiv_pos_as_xyz
  1  'x, y, z'
loop_
 _atom_site_type_symbol
 _atom_site_label
 _atom_site_symmetry_multiplicity
 _atom_site_fract_x
 _atom_site_fract_y
 _atom_site_fract_z
 _atom_site_occupancy
  Ho  Ho0  1  0.250000  0.581660  0.710103  1
  Ho  Ho1  1  0.250000  0.918340  0.210103  1
  Ho  Ho2  1  0.750000  0.418570  0.289997  1
  Ho  Ho3  1  0.750000  0.081430  0.789997  1
  Mn  Mn4  1  0.250000  0.410238  0.491587  1
  Mn  Mn5  1  0.250000  0.089762  0.991587  1
  Cr  Cr6  1  0.250000  0.705231  0.990212  1
  Cr  Cr7  1  0.250000  0.794769  0.490212  1
  Cr  Cr8  1  0.750000  0.295484  0.009788  1
  Cr  Cr9  1  0.750000  0.204516  0.509788  1
  Fe  Fe10  1  0.750000  0.588405  0.509504  1
  Fe  Fe11  1  0.750000  0.911595  0.009504  1
  Fe  Fe12  1  0.250000  0.218142  0.173185  1
  Fe  Fe13  1  0.250000  0.281858  0.673185  1
  Fe  Fe14  1  0.750000  0.780471  0.825888  1
  Fe  Fe15  1  0.750000  0.719529  0.325888  1
  Fe  Fe16  1  0.250000  0.876801  0.696233  1
  Fe  Fe17  1  0.250000  0.623199  0.196233  1
  Fe  Fe18  1  0.750000  0.122244  0.303342  1
  Fe  Fe19  1  0.750000  0.377756  0.803342  1
  Fe  Fe20  1  0.250000  0.464392  0.935025  1
  Fe  Fe21  1  0.250000  0.035608  0.435025  1
  Fe  Fe22  1  0.750000  0.536447  0.065245  1
  Fe  Fe23  1  0.750000  0.963553  0.565245  1
  P  P24  1  0.250000  0.422250  0.112377  1
  P  P25  1  0.250000  0.077750  0.612377  1
  P  P26  1  0.750000  0.577802  0.887585  1
  P  P27  1  0.750000  0.922198  0.387585  1
  P  P28  1  0.250000  0.269207  0.864218  1
  P  P29  1  0.250000  0.230793  0.364218  1
  P  P30  1  0.750000  0.732167  0.135182  1
  P  P31  1  0.750000  0.767833  0.635182  1
  P  P32  1  0.250000  0.603689  0.382036  1
  P  P33  1  0.250000  0.896311  0.882036  1
  P  P34  1  0.750000  0.397125  0.618493  1
  P  P35  1  0.750000  0.102875  0.118493  1
