# generated using pymatgen
data_Dy3ErMn8(CoP)12
_symmetry_space_group_name_H-M   'P 1'
_cell_length_a   3.61088400
_cell_length_b   10.34228903
_cell_length_c   12.03833004
_cell_angle_alpha   89.99110360
_cell_angle_beta   90.00000000
_cell_angle_gamma   90.00000000
_symmetry_Int_Tables_number   1
_chemical_formula_structural   Dy3ErMn8(CoP)12
_chemical_formula_sum   'Dy3 Er1 Mn8 Co12 P12'
_cell_volume   449.56909418
_cell_formula_units_Z   1
loop_
 _symmetry_equiv_pos_site_id
 _symmetry_equiv_pos_as_xyz
  1  'x, y, z'
loop_
 _atom_site_type_symbol
 _atom_site_label
 _atom_site_symmetry_multiplicity
 _atom_site_fract_x
 _atom_site_fract_y
 _atom_site_fract_z
 _atom_site_occupancy
  Dy  Dy0  1  0.250000  0.917195  0.209193  1
  Dy  Dy1  1  0.750000  0.416908  0.290629  1
  Dy  Dy2  1  0.750000  0.083091  0.790771  1
  Er  Er3  1  0.250000  0.582603  0.709211  1
  Mn  Mn4  1  0.250000  0.713394  0.990809  1
  Mn  Mn5  1  0.250000  0.786291  0.491083  1
  Mn  Mn6  1  0.750000  0.287111  0.008956  1
  Mn  Mn7  1  0.750000  0.213529  0.509581  1
  Mn  Mn8  1  0.250000  0.406934  0.491529  1
  Mn  Mn9  1  0.250000  0.093085  0.991097  1
  Mn  Mn10  1  0.750000  0.592583  0.509409  1
  Mn  Mn11  1  0.750000  0.907443  0.008870  1
  Co  Co12  1  0.250000  0.221335  0.177104  1
  Co  Co13  1  0.250000  0.278927  0.677099  1
  Co  Co14  1  0.750000  0.778354  0.822466  1
  Co  Co15  1  0.750000  0.720920  0.323324  1
  Co  Co16  1  0.250000  0.881842  0.695550  1
  Co  Co17  1  0.250000  0.617583  0.195674  1
  Co  Co18  1  0.750000  0.117699  0.304608  1
  Co  Co19  1  0.750000  0.383113  0.803900  1
  Co  Co20  1  0.250000  0.466068  0.933221  1
  Co  Co21  1  0.250000  0.034192  0.434044  1
  Co  Co22  1  0.750000  0.534662  0.065596  1
  Co  Co23  1  0.750000  0.965150  0.566306  1
  P  P24  1  0.250000  0.419003  0.110912  1
  P  P25  1  0.250000  0.081011  0.611406  1
  P  P26  1  0.750000  0.581337  0.887823  1
  P  P27  1  0.750000  0.918706  0.388823  1
  P  P28  1  0.250000  0.269361  0.867507  1
  P  P29  1  0.250000  0.230816  0.367737  1
  P  P30  1  0.750000  0.730877  0.132480  1
  P  P31  1  0.750000  0.768114  0.632764  1
  P  P32  1  0.250000  0.599548  0.383506  1
  P  P33  1  0.250000  0.900052  0.883164  1
  P  P34  1  0.750000  0.400798  0.617130  1
  P  P35  1  0.750000  0.100363  0.116717  1
