# generated using pymatgen
data_Dy3Tm7In8(RuPt)2
_symmetry_space_group_name_H-M   'P 1'
_cell_length_a   3.55127100
_cell_length_b   8.08922406
_cell_length_c   18.30846000
_cell_angle_alpha   89.93508869
_cell_angle_beta   90.00000000
_cell_angle_gamma   90.00000000
_symmetry_Int_Tables_number   1
_chemical_formula_structural   Dy3Tm7In8(RuPt)2
_chemical_formula_sum   'Dy3 Tm7 In8 Ru2 Pt2'
_cell_volume   525.94728379
_cell_formula_units_Z   1
loop_
 _symmetry_equiv_pos_site_id
 _symmetry_equiv_pos_as_xyz
  1  'x, y, z'
loop_
 _atom_site_type_symbol
 _atom_site_label
 _atom_site_symmetry_multiplicity
 _atom_site_fract_x
 _atom_site_fract_y
 _atom_site_fract_z
 _atom_site_occupancy
  Dy  Dy0  1  0.000000  0.749929  0.279282  1
  Dy  Dy1  1  0.000000  0.000013  0.999948  1
  Dy  Dy2  1  0.000000  0.500104  0.500090  1
  Tm  Tm3  1  0.000000  0.117534  0.412553  1
  Tm  Tm4  1  0.000000  0.883131  0.587853  1
  Tm  Tm5  1  0.000000  0.380631  0.912558  1
  Tm  Tm6  1  0.000000  0.618898  0.087031  1
  Tm  Tm7  1  0.000000  0.237242  0.222157  1
  Tm  Tm8  1  0.000000  0.762799  0.777792  1
  Tm  Tm9  1  0.000000  0.249715  0.721041  1
  In  In10  1  0.500000  0.422153  0.351174  1
  In  In11  1  0.500000  0.576980  0.649022  1
  In  In12  1  0.500000  0.068254  0.849318  1
  In  In13  1  0.500000  0.932171  0.150393  1
  In  In14  1  0.500000  0.294218  0.065801  1
  In  In15  1  0.500000  0.705502  0.933873  1
  In  In16  1  0.500000  0.204093  0.569063  1
  In  In17  1  0.500000  0.796492  0.431712  1
  Ru  Ru18  1  0.500000  0.023291  0.304444  1
  Ru  Ru19  1  0.500000  0.979385  0.695801  1
  Pt  Pt20  1  0.500000  0.477876  0.803337  1
  Pt  Pt21  1  0.500000  0.519588  0.195758  1
