# generated using pymatgen
data_Sr6AgSn8As
_symmetry_space_group_name_H-M   'P 1'
_cell_length_a   8.93701744
_cell_length_b   8.93701810
_cell_length_c   8.93701806
_cell_angle_alpha   120.32143017
_cell_angle_beta   120.32143640
_cell_angle_gamma   89.44416419
_symmetry_Int_Tables_number   1
_chemical_formula_structural   Sr6AgSn8As
_chemical_formula_sum   'Sr6 Ag1 Sn8 As1'
_cell_volume   502.25648916
_cell_formula_units_Z   1
loop_
 _symmetry_equiv_pos_site_id
 _symmetry_equiv_pos_as_xyz
  1  'x, y, z'
loop_
 _atom_site_type_symbol
 _atom_site_label
 _atom_site_symmetry_multiplicity
 _atom_site_fract_x
 _atom_site_fract_y
 _atom_site_fract_z
 _atom_site_occupancy
  Sr  Sr0  1  0.238344  0.238344  0.000000  1
  Sr  Sr1  1  0.761656  0.761656  0.000000  1
  Sr  Sr2  1  0.152640  0.677579  0.830221  1
  Sr  Sr3  1  0.847360  0.322421  0.169779  1
  Sr  Sr4  1  0.677579  0.847360  0.524939  1
  Sr  Sr5  1  0.322421  0.152640  0.475061  1
  Ag  Ag6  1  0.500000  0.500000  0.000000  1
  Sn  Sn7  1  0.826943  0.335449  0.785911  1
  Sn  Sn8  1  0.173057  0.664551  0.214089  1
  Sn  Sn9  1  0.549538  0.041033  0.214089  1
  Sn  Sn10  1  0.335449  0.549538  0.508506  1
  Sn  Sn11  1  0.958967  0.173057  0.508506  1
  Sn  Sn12  1  0.450462  0.958967  0.785911  1
  Sn  Sn13  1  0.664551  0.450462  0.491494  1
  Sn  Sn14  1  0.041033  0.826943  0.491494  1
  As  As15  1  0.000000  0.000000  0.000000  1
