# generated using pymatgen
data_Ho7Th(ZnCo)2
_symmetry_space_group_name_H-M   'P 1'
_cell_length_a   9.34715716
_cell_length_b   9.34715678
_cell_length_c   9.35375300
_cell_angle_alpha   59.97665668
_cell_angle_beta   59.97665801
_cell_angle_gamma   60.49373010
_symmetry_Int_Tables_number   1
_chemical_formula_structural   Ho7Th(ZnCo)2
_chemical_formula_sum   'Ho14 Th2 Zn4 Co4'
_cell_volume   579.78882955
_cell_formula_units_Z   2
loop_
 _symmetry_equiv_pos_site_id
 _symmetry_equiv_pos_as_xyz
  1  'x, y, z'
loop_
 _atom_site_type_symbol
 _atom_site_label
 _atom_site_symmetry_multiplicity
 _atom_site_fract_x
 _atom_site_fract_y
 _atom_site_fract_z
 _atom_site_occupancy
  Ho  Ho0  1  0.352429  0.944442  0.351564  1
  Ho  Ho1  1  0.944442  0.352429  0.351564  1
  Ho  Ho2  1  0.811024  0.191393  0.188936  1
  Ho  Ho3  1  0.191393  0.811024  0.808646  1
  Ho  Ho4  1  0.191393  0.811024  0.188936  1
  Ho  Ho5  1  0.811024  0.191393  0.808646  1
  Ho  Ho6  1  0.188229  0.188229  0.811771  1
  Ho  Ho7  1  0.809961  0.809961  0.190039  1
  Ho  Ho8  1  0.936910  0.565004  0.563296  1
  Ho  Ho9  1  0.565004  0.936910  0.934790  1
  Ho  Ho10  1  0.565004  0.936910  0.563296  1
  Ho  Ho11  1  0.936910  0.565004  0.934790  1
  Ho  Ho12  1  0.564164  0.564164  0.935836  1
  Ho  Ho13  1  0.939770  0.939770  0.560230  1
  Th  Th14  1  0.345600  0.345600  0.350397  1
  Th  Th15  1  0.345600  0.345600  0.958401  1
  Zn  Zn16  1  0.578301  0.578301  0.576440  1
  Zn  Zn17  1  0.578301  0.578301  0.266960  1
  Zn  Zn18  1  0.578445  0.263113  0.579221  1
  Zn  Zn19  1  0.263113  0.578445  0.579221  1
  Co  Co20  1  0.142955  0.142955  0.143499  1
  Co  Co21  1  0.142955  0.142955  0.570589  1
  Co  Co22  1  0.147125  0.569948  0.141463  1
  Co  Co23  1  0.569948  0.147125  0.141463  1
