# generated using pymatgen
data_Tb4SBr6
_symmetry_space_group_name_H-M   'P 1'
_cell_length_a   3.98631900
_cell_length_b   13.06030100
_cell_length_c   13.79728700
_cell_angle_alpha   90.00000000
_cell_angle_beta   90.00000000
_cell_angle_gamma   90.00000000
_symmetry_Int_Tables_number   1
_chemical_formula_structural   Tb4SBr6
_chemical_formula_sum   'Tb8 S2 Br12'
_cell_volume   718.32161347
_cell_formula_units_Z   2
loop_
 _symmetry_equiv_pos_site_id
 _symmetry_equiv_pos_as_xyz
  1  'x, y, z'
loop_
 _atom_site_type_symbol
 _atom_site_label
 _atom_site_symmetry_multiplicity
 _atom_site_fract_x
 _atom_site_fract_y
 _atom_site_fract_z
 _atom_site_occupancy
  Tb  Tb0  1  0.500000  0.116106  0.344657  1
  Tb  Tb1  1  0.500000  0.883894  0.655343  1
  Tb  Tb2  1  0.500000  0.616106  0.155343  1
  Tb  Tb3  1  0.500000  0.383894  0.844657  1
  Tb  Tb4  1  0.000000  0.113077  0.575145  1
  Tb  Tb5  1  0.000000  0.886923  0.424855  1
  Tb  Tb6  1  0.000000  0.613077  0.924855  1
  Tb  Tb7  1  0.000000  0.386923  0.075145  1
  S  S8  1  0.500000  0.000000  0.500000  1
  S  S9  1  0.500000  0.500000  0.000000  1
  Br  Br10  1  0.500000  0.244965  0.161247  1
  Br  Br11  1  0.500000  0.755035  0.838753  1
  Br  Br12  1  0.500000  0.744965  0.338753  1
  Br  Br13  1  0.500000  0.255035  0.661247  1
  Br  Br14  1  0.000000  0.258548  0.413543  1
  Br  Br15  1  0.000000  0.741452  0.586457  1
  Br  Br16  1  0.000000  0.758548  0.086457  1
  Br  Br17  1  0.000000  0.241452  0.913543  1
  Br  Br18  1  0.000000  0.999117  0.240759  1
  Br  Br19  1  0.000000  0.000883  0.759241  1
  Br  Br20  1  0.000000  0.499117  0.259241  1
  Br  Br21  1  0.000000  0.500883  0.740759  1
