# generated using pymatgen
data_Zr7Nb3Sn6P
_symmetry_space_group_name_H-M   'P 1'
_cell_length_a   5.74010800
_cell_length_b   8.49988686
_cell_length_c   8.49988800
_cell_angle_alpha   119.99999930
_cell_angle_beta   90.00002320
_cell_angle_gamma   89.99996861
_symmetry_Int_Tables_number   1
_chemical_formula_structural   Zr7Nb3Sn6P
_chemical_formula_sum   'Zr7 Nb3 Sn6 P1'
_cell_volume   359.15097232
_cell_formula_units_Z   1
loop_
 _symmetry_equiv_pos_site_id
 _symmetry_equiv_pos_as_xyz
  1  'x, y, z'
loop_
 _atom_site_type_symbol
 _atom_site_label
 _atom_site_symmetry_multiplicity
 _atom_site_fract_x
 _atom_site_fract_y
 _atom_site_fract_z
 _atom_site_occupancy
  Zr  Zr0  1  0.000000  0.333334  0.666666  1
  Zr  Zr1  1  0.757265  0.250346  0.000268  1
  Zr  Zr2  1  0.757264  0.749926  0.749654  1
  Zr  Zr3  1  0.757263  0.999733  0.250078  1
  Zr  Zr4  1  0.242735  0.749922  0.000268  1
  Zr  Zr5  1  0.242737  0.250347  0.250078  1
  Zr  Zr6  1  0.242736  0.999731  0.749654  1
  Nb  Nb7  1  0.500000  0.333333  0.666666  1
  Nb  Nb8  1  0.500000  0.666666  0.333333  1
  Nb  Nb9  1  0.000000  0.666666  0.333331  1
  Sn  Sn10  1  0.746954  0.604959  0.002769  1
  Sn  Sn11  1  0.746956  0.397811  0.395043  1
  Sn  Sn12  1  0.746956  0.997230  0.602188  1
  Sn  Sn13  1  0.253046  0.397810  0.002769  1
  Sn  Sn14  1  0.253044  0.604959  0.602188  1
  Sn  Sn15  1  0.253044  0.997231  0.395043  1
  P  P16  1  0.499999  0.000002  0.000002  1
