# generated using pymatgen
data_Th4SiAsSe2
_symmetry_space_group_name_H-M   'P 1'
_cell_length_a   7.35511335
_cell_length_b   7.35511199
_cell_length_c   7.35511159
_cell_angle_alpha   132.06797449
_cell_angle_beta   132.06796954
_cell_angle_gamma   70.12169585
_symmetry_Int_Tables_number   1
_chemical_formula_structural   Th4SiAsSe2
_chemical_formula_sum   'Th4 Si1 As1 Se2'
_cell_volume   214.95007346
_cell_formula_units_Z   1
loop_
 _symmetry_equiv_pos_site_id
 _symmetry_equiv_pos_as_xyz
  1  'x, y, z'
loop_
 _atom_site_type_symbol
 _atom_site_label
 _atom_site_symmetry_multiplicity
 _atom_site_fract_x
 _atom_site_fract_y
 _atom_site_fract_z
 _atom_site_occupancy
  Th  Th0  1  0.246268  0.246268  0.000000  1
  Th  Th1  1  0.753732  0.753732  0.000000  1
  Th  Th2  1  0.507309  0.007309  0.500000  1
  Th  Th3  1  0.992691  0.492691  0.500000  1
  Si  Si4  1  0.750000  0.250000  0.500000  1
  As  As5  1  0.000000  0.000000  0.000000  1
  Se  Se6  1  0.250000  0.750000  0.500000  1
  Se  Se7  1  0.500000  0.500000  0.000000  1
