# generated using pymatgen
data_Ho3Er5Np4O24
_symmetry_space_group_name_H-M   'P 1'
_cell_length_a   5.50709200
_cell_length_b   7.80478936
_cell_length_c   11.78360480
_cell_angle_alpha   73.78625233
_cell_angle_beta   90.00000000
_cell_angle_gamma   90.00000000
_symmetry_Int_Tables_number   1
_chemical_formula_structural   Ho3Er5Np4O24
_chemical_formula_sum   'Ho3 Er5 Np4 O24'
_cell_volume   486.33494043
_cell_formula_units_Z   1
loop_
 _symmetry_equiv_pos_site_id
 _symmetry_equiv_pos_as_xyz
  1  'x, y, z'
loop_
 _atom_site_type_symbol
 _atom_site_label
 _atom_site_symmetry_multiplicity
 _atom_site_fract_x
 _atom_site_fract_y
 _atom_site_fract_z
 _atom_site_occupancy
  Ho  Ho0  1  0.698032  0.500000  0.250000  1
  Ho  Ho1  1  0.745172  0.000000  0.250000  1
  Ho  Ho2  1  0.254833  0.000000  0.750000  1
  Er  Er3  1  0.185626  0.205867  0.420354  1
  Er  Er4  1  0.185626  0.794133  0.079646  1
  Er  Er5  1  0.814548  0.793834  0.579770  1
  Er  Er6  1  0.814548  0.206166  0.920230  1
  Er  Er7  1  0.301584  0.500000  0.750000  1
  Np  Np8  1  0.256646  0.279220  0.113207  1
  Np  Np9  1  0.256646  0.720780  0.386793  1
  Np  Np10  1  0.743341  0.720624  0.886532  1
  Np  Np11  1  0.743341  0.279376  0.613468  1
  O  O12  1  0.449922  0.198428  0.274662  1
  O  O13  1  0.449922  0.801572  0.225338  1
  O  O14  1  0.550131  0.801562  0.725275  1
  O  O15  1  0.550131  0.198438  0.774725  1
  O  O16  1  0.045623  0.054781  0.103235  1
  O  O17  1  0.045623  0.945219  0.396765  1
  O  O18  1  0.954320  0.945295  0.896585  1
  O  O19  1  0.954320  0.054705  0.603415  1
  O  O20  1  0.963537  0.286609  0.233226  1
  O  O21  1  0.963537  0.713391  0.266774  1
  O  O22  1  0.037214  0.712587  0.766784  1
  O  O23  1  0.037214  0.287413  0.733216  1
  O  O24  1  0.874228  0.372506  0.444371  1
  O  O25  1  0.874228  0.627494  0.055629  1
  O  O26  1  0.126045  0.627370  0.556038  1
  O  O27  1  0.126045  0.372630  0.943962  1
  O  O28  1  0.611008  0.520022  0.617219  1
  O  O29  1  0.611008  0.479978  0.882781  1
  O  O30  1  0.387784  0.479972  0.383273  1
  O  O31  1  0.387784  0.520028  0.116727  1
  O  O32  1  0.443137  0.152071  0.568589  1
  O  O33  1  0.443137  0.847929  0.931411  1
  O  O34  1  0.557080  0.847881  0.431497  1
  O  O35  1  0.557080  0.152119  0.068503  1
