# generated using pymatgen
data_Tb2Ho8Si5As
_symmetry_space_group_name_H-M   'P 1'
_cell_length_a   8.42422134
_cell_length_b   8.43906086
_cell_length_c   6.30552100
_cell_angle_alpha   90.00000000
_cell_angle_beta   90.00000000
_cell_angle_gamma   119.87713003
_symmetry_Int_Tables_number   1
_chemical_formula_structural   Tb2Ho8Si5As
_chemical_formula_sum   'Tb2 Ho8 Si5 As1'
_cell_volume   388.69761365
_cell_formula_units_Z   1
loop_
 _symmetry_equiv_pos_site_id
 _symmetry_equiv_pos_as_xyz
  1  'x, y, z'
loop_
 _atom_site_type_symbol
 _atom_site_label
 _atom_site_symmetry_multiplicity
 _atom_site_fract_x
 _atom_site_fract_y
 _atom_site_fract_z
 _atom_site_occupancy
  Tb  Tb0  1  0.996647  0.753853  0.750000  1
  Tb  Tb1  1  0.758337  0.000069  0.750000  1
  Ho  Ho2  1  0.000384  0.243854  0.250000  1
  Ho  Ho3  1  0.756177  0.755946  0.250000  1
  Ho  Ho4  1  0.242897  0.246484  0.750000  1
  Ho  Ho5  1  0.242935  0.000153  0.250000  1
  Ho  Ho6  1  0.332975  0.663747  0.498727  1
  Ho  Ho7  1  0.668995  0.336092  0.001291  1
  Ho  Ho8  1  0.668995  0.336092  0.498709  1
  Ho  Ho9  1  0.332975  0.663747  0.001273  1
  Si  Si10  1  0.394058  0.392994  0.250000  1
  Si  Si11  1  0.001070  0.607070  0.250000  1
  Si  Si12  1  0.000224  0.394147  0.750000  1
  Si  Si13  1  0.604990  0.605202  0.750000  1
  Si  Si14  1  0.607023  0.000020  0.250000  1
  As  As15  1  0.391315  0.000528  0.750000  1
