# generated using pymatgen
data_CaLa5SmOsI12
_symmetry_space_group_name_H-M   'P 1'
_cell_length_a   10.23381695
_cell_length_b   10.12542682
_cell_length_c   10.10149991
_cell_angle_alpha   107.09238272
_cell_angle_beta   107.21611794
_cell_angle_gamma   106.95789993
_symmetry_Int_Tables_number   1
_chemical_formula_structural   CaLa5SmOsI12
_chemical_formula_sum   'Ca1 La5 Sm1 Os1 I12'
_cell_volume   869.60742140
_cell_formula_units_Z   1
loop_
 _symmetry_equiv_pos_site_id
 _symmetry_equiv_pos_as_xyz
  1  'x, y, z'
loop_
 _atom_site_type_symbol
 _atom_site_label
 _atom_site_symmetry_multiplicity
 _atom_site_fract_x
 _atom_site_fract_y
 _atom_site_fract_z
 _atom_site_occupancy
  Ca  Ca0  1  0.501159  0.498578  0.498010  1
  La  La1  1  0.029221  0.301097  0.096098  1
  La  La2  1  0.097694  0.030898  0.302725  1
  La  La3  1  0.906188  0.970328  0.698468  1
  La  La4  1  0.969469  0.699437  0.904930  1
  La  La5  1  0.680579  0.899212  0.968581  1
  Sm  Sm6  1  0.307697  0.099973  0.030801  1
  Os  Os7  1  0.999528  0.000428  0.000765  1
  I  I8  1  0.682338  0.231499  0.074872  1
  I  I9  1  0.387694  0.453880  0.155438  1
  I  I10  1  0.076016  0.685179  0.233803  1
  I  I11  1  0.771697  0.925377  0.316514  1
  I  I12  1  0.459729  0.158375  0.381341  1
  I  I13  1  0.166447  0.392173  0.464139  1
  I  I14  1  0.836953  0.608264  0.537246  1
  I  I15  1  0.541021  0.838114  0.607734  1
  I  I16  1  0.235689  0.075966  0.692518  1
  I  I17  1  0.925639  0.315568  0.767415  1
  I  I18  1  0.610607  0.538051  0.838587  1
  I  I19  1  0.314639  0.777607  0.930018  1
