# generated using pymatgen
data_Er5Co2Ag
_symmetry_space_group_name_H-M   'P 1'
_cell_length_a   8.47258966
_cell_length_b   8.47259046
_cell_length_c   8.47259037
_cell_angle_alpha   127.63919113
_cell_angle_beta   127.63920866
_cell_angle_gamma   77.21024793
_symmetry_Int_Tables_number   1
_chemical_formula_structural   Er5Co2Ag
_chemical_formula_sum   'Er10 Co4 Ag2'
_cell_volume   370.07245617
_cell_formula_units_Z   2
loop_
 _symmetry_equiv_pos_site_id
 _symmetry_equiv_pos_as_xyz
  1  'x, y, z'
loop_
 _atom_site_type_symbol
 _atom_site_label
 _atom_site_symmetry_multiplicity
 _atom_site_fract_x
 _atom_site_fract_y
 _atom_site_fract_z
 _atom_site_occupancy
  Er  Er0  1  0.706629  0.528164  0.500000  1
  Er  Er1  1  0.471836  0.971836  0.178465  1
  Er  Er2  1  0.793371  0.293371  0.821535  1
  Er  Er3  1  0.528164  0.028164  0.821535  1
  Er  Er4  1  0.000000  0.000000  0.000000  1
  Er  Er5  1  0.028164  0.206629  0.500000  1
  Er  Er6  1  0.293371  0.471836  0.500000  1
  Er  Er7  1  0.206629  0.706629  0.178465  1
  Er  Er8  1  0.971836  0.793371  0.500000  1
  Er  Er9  1  0.500000  0.500000  0.000000  1
  Co  Co10  1  0.135639  0.635639  0.771277  1
  Co  Co11  1  0.864361  0.364361  0.228723  1
  Co  Co12  1  0.635639  0.864361  0.500000  1
  Co  Co13  1  0.364361  0.135639  0.500000  1
  Ag  Ag14  1  0.250000  0.250000  0.000000  1
  Ag  Ag15  1  0.750000  0.750000  0.000000  1
