# generated using pymatgen
data_Ho5FePtO12
_symmetry_space_group_name_H-M   'P 1'
_cell_length_a   6.80136919
_cell_length_b   6.80136817
_cell_length_c   7.26279962
_cell_angle_alpha   74.43913642
_cell_angle_beta   74.43914045
_cell_angle_gamma   51.26701260
_symmetry_Int_Tables_number   1
_chemical_formula_structural   Ho5FePtO12
_chemical_formula_sum   'Ho5 Fe1 Pt1 O12'
_cell_volume   250.20771964
_cell_formula_units_Z   1
loop_
 _symmetry_equiv_pos_site_id
 _symmetry_equiv_pos_as_xyz
  1  'x, y, z'
loop_
 _atom_site_type_symbol
 _atom_site_label
 _atom_site_symmetry_multiplicity
 _atom_site_fract_x
 _atom_site_fract_y
 _atom_site_fract_z
 _atom_site_occupancy
  Ho  Ho0  1  0.301367  0.304281  0.360532  1
  Ho  Ho1  1  0.695719  0.698633  0.639468  1
  Ho  Ho2  1  0.309846  0.307169  0.829316  1
  Ho  Ho3  1  0.692831  0.690154  0.170684  1
  Ho  Ho4  1  0.999071  0.000929  0.500000  1
  Fe  Fe5  1  0.243973  0.756027  0.000000  1
  Pt  Pt6  1  0.754746  0.245254  0.000000  1
  O  O7  1  0.905400  0.432614  0.916405  1
  O  O8  1  0.421375  0.898254  0.918932  1
  O  O9  1  0.101746  0.578625  0.081068  1
  O  O10  1  0.567386  0.094600  0.083595  1
  O  O11  1  0.097697  0.597547  0.574280  1
  O  O12  1  0.595570  0.095773  0.576474  1
  O  O13  1  0.904227  0.404430  0.423526  1
  O  O14  1  0.402453  0.902303  0.425720  1
  O  O15  1  0.000553  0.000337  0.812610  1
  O  O16  1  0.999663  0.999447  0.187390  1
  O  O17  1  0.503484  0.497107  0.810105  1
  O  O18  1  0.502893  0.496516  0.189895  1
