# generated using pymatgen
data_La16Tb3MgIr12
_symmetry_space_group_name_H-M   'P 1'
_cell_length_a   11.38296500
_cell_length_b   11.38296500
_cell_length_c   6.47506200
_cell_angle_alpha   90.00000000
_cell_angle_beta   90.00000000
_cell_angle_gamma   90.00000000
_symmetry_Int_Tables_number   1
_chemical_formula_structural   La16Tb3MgIr12
_chemical_formula_sum   'La16 Tb3 Mg1 Ir12'
_cell_volume   838.98603540
_cell_formula_units_Z   1
loop_
 _symmetry_equiv_pos_site_id
 _symmetry_equiv_pos_as_xyz
  1  'x, y, z'
loop_
 _atom_site_type_symbol
 _atom_site_label
 _atom_site_symmetry_multiplicity
 _atom_site_fract_x
 _atom_site_fract_y
 _atom_site_fract_z
 _atom_site_occupancy
  La  La0  1  0.280921  0.086696  0.389075  1
  La  La1  1  0.286996  0.911855  0.888145  1
  La  La2  1  0.713004  0.088145  0.888145  1
  La  La3  1  0.719079  0.913304  0.389075  1
  La  La4  1  0.589040  0.789262  0.888565  1
  La  La5  1  0.589003  0.210851  0.386335  1
  La  La6  1  0.410997  0.789149  0.386335  1
  La  La7  1  0.410960  0.210738  0.888565  1
  La  La8  1  0.210851  0.410997  0.613665  1
  La  La9  1  0.210738  0.589040  0.111435  1
  La  La10  1  0.789262  0.410960  0.111435  1
  La  La11  1  0.789149  0.589003  0.613665  1
  La  La12  1  0.911855  0.713004  0.111855  1
  La  La13  1  0.913304  0.280921  0.610925  1
  La  La14  1  0.086696  0.719079  0.610925  1
  La  La15  1  0.088145  0.286996  0.111855  1
  Tb  Tb16  1  0.000000  0.000000  0.000000  1
  Tb  Tb17  1  0.500000  0.500000  0.000000  1
  Tb  Tb18  1  0.500000  0.500000  0.500000  1
  Mg  Mg19  1  0.000000  0.000000  0.500000  1
  Ir  Ir20  1  0.849638  0.151256  0.246932  1
  Ir  Ir21  1  0.848744  0.849638  0.753068  1
  Ir  Ir22  1  0.151256  0.150362  0.753068  1
  Ir  Ir23  1  0.150362  0.848744  0.246932  1
  Ir  Ir24  1  0.650011  0.350801  0.748715  1
  Ir  Ir25  1  0.649199  0.650011  0.251285  1
  Ir  Ir26  1  0.350801  0.349989  0.251285  1
  Ir  Ir27  1  0.349989  0.649199  0.748715  1
  Ir  Ir28  1  0.500000  0.000000  0.119544  1
  Ir  Ir29  1  0.500000  0.000000  0.617633  1
  Ir  Ir30  1  0.000000  0.500000  0.880456  1
  Ir  Ir31  1  0.000000  0.500000  0.382367  1
