# generated using pymatgen
data_Li2Tb13Ho3(InIr2)2
_symmetry_space_group_name_H-M   'P 1'
_cell_length_a   9.70072617
_cell_length_b   9.67885610
_cell_length_c   9.66531221
_cell_angle_alpha   60.06484967
_cell_angle_beta   60.02341943
_cell_angle_gamma   60.04283721
_symmetry_Int_Tables_number   1
_chemical_formula_structural   Li2Tb13Ho3(InIr2)2
_chemical_formula_sum   'Li2 Tb13 Ho3 In2 Ir4'
_cell_volume   642.33122934
_cell_formula_units_Z   1
loop_
 _symmetry_equiv_pos_site_id
 _symmetry_equiv_pos_as_xyz
  1  'x, y, z'
loop_
 _atom_site_type_symbol
 _atom_site_label
 _atom_site_symmetry_multiplicity
 _atom_site_fract_x
 _atom_site_fract_y
 _atom_site_fract_z
 _atom_site_occupancy
  Li  Li0  1  0.324943  0.321975  0.321604  1
  Li  Li1  1  0.029440  0.322156  0.321601  1
  Tb  Tb2  1  0.310760  0.689633  0.311667  1
  Tb  Tb3  1  0.931891  0.566300  0.566323  1
  Tb  Tb4  1  0.311334  0.312335  0.689334  1
  Tb  Tb5  1  0.100156  0.098624  0.098927  1
  Tb  Tb6  1  0.559024  0.561574  0.938606  1
  Tb  Tb7  1  0.097820  0.097442  0.708643  1
  Tb  Tb8  1  0.688971  0.310235  0.688373  1
  Tb  Tb9  1  0.689352  0.688722  0.309528  1
  Tb  Tb10  1  0.690880  0.310023  0.309132  1
  Tb  Tb11  1  0.311165  0.688115  0.688050  1
  Tb  Tb12  1  0.559812  0.937987  0.561855  1
  Tb  Tb13  1  0.702587  0.098463  0.098622  1
  Tb  Tb14  1  0.557751  0.942047  0.941991  1
  Ho  Ho15  1  0.097190  0.709951  0.096744  1
  Ho  Ho16  1  0.940192  0.938318  0.561526  1
  Ho  Ho17  1  0.940140  0.561447  0.938803  1
  In  In18  1  0.329412  0.005572  0.334994  1
  In  In19  1  0.329214  0.335230  0.005637  1
  Ir  Ir20  1  0.889874  0.891506  0.893309  1
  Ir  Ir21  1  0.892269  0.893460  0.325529  1
  Ir  Ir22  1  0.324580  0.892563  0.894465  1
  Ir  Ir23  1  0.891241  0.326324  0.894738  1
