# generated using pymatgen
data_Dy3Ho(AlRe3)2
_symmetry_space_group_name_H-M   'P 1'
_cell_length_a   5.35957800
_cell_length_b   5.35957876
_cell_length_c   9.05558800
_cell_angle_alpha   90.00000000
_cell_angle_beta   90.00000000
_cell_angle_gamma   120.00000766
_symmetry_Int_Tables_number   1
_chemical_formula_structural   Dy3Ho(AlRe3)2
_chemical_formula_sum   'Dy3 Ho1 Al2 Re6'
_cell_volume   225.27266998
_cell_formula_units_Z   1
loop_
 _symmetry_equiv_pos_site_id
 _symmetry_equiv_pos_as_xyz
  1  'x, y, z'
loop_
 _atom_site_type_symbol
 _atom_site_label
 _atom_site_symmetry_multiplicity
 _atom_site_fract_x
 _atom_site_fract_y
 _atom_site_fract_z
 _atom_site_occupancy
  Dy  Dy0  1  0.333333  0.666667  0.433000  1
  Dy  Dy1  1  0.666667  0.333333  0.566958  1
  Dy  Dy2  1  0.666667  0.333333  0.933046  1
  Ho  Ho3  1  0.333333  0.666667  0.067022  1
  Al  Al4  1  0.000000  0.000000  0.499996  1
  Al  Al5  1  0.000000  0.000000  0.000015  1
  Re  Re6  1  0.830648  0.169352  0.249920  1
  Re  Re7  1  0.830648  0.661298  0.249920  1
  Re  Re8  1  0.338702  0.169352  0.249920  1
  Re  Re9  1  0.169369  0.830631  0.750068  1
  Re  Re10  1  0.169369  0.338736  0.750068  1
  Re  Re11  1  0.661264  0.830631  0.750068  1
