# generated using pymatgen
data_LiNd4Co9(P6Rh5)2
_symmetry_space_group_name_H-M   'P 1'
_cell_length_a   3.81275400
_cell_length_b   10.69884791
_cell_length_c   12.32791369
_cell_angle_alpha   89.59021519
_cell_angle_beta   90.00000000
_cell_angle_gamma   90.00000000
_symmetry_Int_Tables_number   1
_chemical_formula_structural   LiNd4Co9(P6Rh5)2
_chemical_formula_sum   'Li1 Nd4 Co9 P12 Rh10'
_cell_volume   502.86832038
_cell_formula_units_Z   1
loop_
 _symmetry_equiv_pos_site_id
 _symmetry_equiv_pos_as_xyz
  1  'x, y, z'
loop_
 _atom_site_type_symbol
 _atom_site_label
 _atom_site_symmetry_multiplicity
 _atom_site_fract_x
 _atom_site_fract_y
 _atom_site_fract_z
 _atom_site_occupancy
  Li  Li0  1  0.250000  0.703220  0.991350  1
  Nd  Nd1  1  0.250000  0.582610  0.706561  1
  Nd  Nd2  1  0.250000  0.914113  0.210941  1
  Nd  Nd3  1  0.750000  0.419882  0.293028  1
  Nd  Nd4  1  0.750000  0.079307  0.792641  1
  Co  Co5  1  0.750000  0.722261  0.323764  1
  Co  Co6  1  0.250000  0.883162  0.692465  1
  Co  Co7  1  0.250000  0.620865  0.196496  1
  Co  Co8  1  0.750000  0.113380  0.303357  1
  Co  Co9  1  0.750000  0.381631  0.804855  1
  Co  Co10  1  0.250000  0.463645  0.935396  1
  Co  Co11  1  0.250000  0.035586  0.432197  1
  Co  Co12  1  0.750000  0.536777  0.066277  1
  Co  Co13  1  0.750000  0.964294  0.563936  1
  P  P14  1  0.250000  0.433407  0.110462  1
  P  P15  1  0.250000  0.068813  0.607414  1
  P  P16  1  0.750000  0.568364  0.889365  1
  P  P17  1  0.750000  0.922966  0.389988  1
  P  P18  1  0.250000  0.276470  0.869443  1
  P  P19  1  0.250000  0.223166  0.370990  1
  P  P20  1  0.750000  0.722686  0.140760  1
  P  P21  1  0.750000  0.778126  0.629736  1
  P  P22  1  0.250000  0.609437  0.379704  1
  P  P23  1  0.250000  0.894282  0.885898  1
  P  P24  1  0.750000  0.398046  0.614893  1
  P  P25  1  0.750000  0.101868  0.115532  1
  Rh  Rh26  1  0.250000  0.788422  0.486080  1
  Rh  Rh27  1  0.750000  0.291172  0.012818  1
  Rh  Rh28  1  0.750000  0.216437  0.505742  1
  Rh  Rh29  1  0.250000  0.410776  0.482466  1
  Rh  Rh30  1  0.250000  0.095596  0.983617  1
  Rh  Rh31  1  0.750000  0.596177  0.514750  1
  Rh  Rh32  1  0.750000  0.905617  0.018820  1
  Rh  Rh33  1  0.250000  0.225999  0.180229  1
  Rh  Rh34  1  0.250000  0.274895  0.677395  1
  Rh  Rh35  1  0.750000  0.776545  0.820629  1
