# generated using pymatgen
data_NdAg3Ru3PtO14
_symmetry_space_group_name_H-M   'P 1'
_cell_length_a   7.19868959
_cell_length_b   7.19868965
_cell_length_c   7.28743362
_cell_angle_alpha   60.59838332
_cell_angle_beta   60.59838287
_cell_angle_gamma   60.58990914
_symmetry_Int_Tables_number   1
_chemical_formula_structural   NdAg3Ru3PtO14
_chemical_formula_sum   'Nd1 Ag3 Ru3 Pt1 O14'
_cell_volume   270.62587413
_cell_formula_units_Z   1
loop_
 _symmetry_equiv_pos_site_id
 _symmetry_equiv_pos_as_xyz
  1  'x, y, z'
loop_
 _atom_site_type_symbol
 _atom_site_label
 _atom_site_symmetry_multiplicity
 _atom_site_fract_x
 _atom_site_fract_y
 _atom_site_fract_z
 _atom_site_occupancy
  Nd  Nd0  1  0.125000  0.125000  0.625000  1
  Ag  Ag1  1  0.625000  0.125000  0.125000  1
  Ag  Ag2  1  0.125000  0.625000  0.125000  1
  Ag  Ag3  1  0.125000  0.125000  0.125000  1
  Ru  Ru4  1  0.125000  0.625000  0.625000  1
  Ru  Ru5  1  0.625000  0.125000  0.625000  1
  Ru  Ru6  1  0.625000  0.625000  0.125000  1
  Pt  Pt7  1  0.625000  0.625000  0.625000  1
  O  O8  1  0.703749  0.703749  0.292418  1
  O  O9  1  0.304075  0.304075  0.700303  1
  O  O10  1  0.709303  0.290167  0.705141  1
  O  O11  1  0.314939  0.691071  0.317802  1
  O  O12  1  0.290167  0.709303  0.705141  1
  O  O13  1  0.691071  0.314939  0.317802  1
  O  O14  1  0.546251  0.546251  0.957582  1
  O  O15  1  0.945925  0.945925  0.549697  1
  O  O16  1  0.540697  0.959833  0.544859  1
  O  O17  1  0.935061  0.558929  0.932198  1
  O  O18  1  0.959833  0.540697  0.544859  1
  O  O19  1  0.558929  0.935061  0.932198  1
  O  O20  1  0.257576  0.257576  0.224085  1
  O  O21  1  0.992424  0.992424  0.025915  1
