# generated using pymatgen
data_La12Zn(PbI4)3
_symmetry_space_group_name_H-M   'P 1'
_cell_length_a   11.32832375
_cell_length_b   11.21652661
_cell_length_c   11.21652800
_cell_angle_alpha   109.26843576
_cell_angle_beta   109.67324760
_cell_angle_gamma   109.67324908
_symmetry_Int_Tables_number   1
_chemical_formula_structural   La12Zn(PbI4)3
_chemical_formula_sum   'La12 Zn1 Pb3 I12'
_cell_volume   1094.38898880
_cell_formula_units_Z   1
loop_
 _symmetry_equiv_pos_site_id
 _symmetry_equiv_pos_as_xyz
  1  'x, y, z'
loop_
 _atom_site_type_symbol
 _atom_site_label
 _atom_site_symmetry_multiplicity
 _atom_site_fract_x
 _atom_site_fract_y
 _atom_site_fract_z
 _atom_site_occupancy
  La  La0  1  0.476924  0.496913  0.233187  1
  La  La1  1  0.750000  0.243913  0.256087  1
  La  La2  1  0.750000  0.005296  0.494704  1
  La  La3  1  0.244704  0.489408  0.494704  1
  La  La4  1  0.256263  0.736274  0.233187  1
  La  La5  1  0.023076  0.266813  0.003087  1
  La  La6  1  0.006087  0.012176  0.256087  1
  La  La7  1  0.480012  0.736274  0.003087  1
  La  La8  1  0.493913  0.243913  0.487824  1
  La  La9  1  0.019988  0.496913  0.763726  1
  La  La10  1  0.255296  0.005296  0.010592  1
  La  La11  1  0.243737  0.266813  0.763726  1
  Zn  Zn12  1  0.250000  0.500000  0.000000  1
  Pb  Pb13  1  0.250000  0.249363  0.250637  1
  Pb  Pb14  1  0.500637  0.001273  0.250637  1
  Pb  Pb15  1  0.999363  0.249363  0.498727  1
  I  I16  1  0.250000  0.757163  0.742837  1
  I  I17  1  0.511731  0.505759  0.756191  1
  I  I18  1  0.988269  0.743809  0.994241  1
  I  I19  1  0.744460  0.250431  0.756191  1
  I  I20  1  0.992837  0.985674  0.742837  1
  I  I21  1  0.250000  0.995303  0.504697  1
  I  I22  1  0.754697  0.509392  0.504697  1
  I  I23  1  0.505971  0.250431  0.994241  1
  I  I24  1  0.755540  0.743809  0.249569  1
  I  I25  1  0.745303  0.995303  0.990608  1
  I  I26  1  0.994029  0.505759  0.249569  1
  I  I27  1  0.507163  0.757163  0.514326  1
