# generated using pymatgen
data_Ho16Cd4FeNi3
_symmetry_space_group_name_H-M   'P 1'
_cell_length_a   9.46231932
_cell_length_b   9.46231934
_cell_length_c   9.46231911
_cell_angle_alpha   59.80232278
_cell_angle_beta   59.80232114
_cell_angle_gamma   59.80232734
_symmetry_Int_Tables_number   1
_chemical_formula_structural   Ho16Cd4FeNi3
_chemical_formula_sum   'Ho16 Cd4 Fe1 Ni3'
_cell_volume   596.38206379
_cell_formula_units_Z   1
loop_
 _symmetry_equiv_pos_site_id
 _symmetry_equiv_pos_as_xyz
  1  'x, y, z'
loop_
 _atom_site_type_symbol
 _atom_site_label
 _atom_site_symmetry_multiplicity
 _atom_site_fract_x
 _atom_site_fract_y
 _atom_site_fract_z
 _atom_site_occupancy
  Ho  Ho0  1  0.347971  0.347971  0.347971  1
  Ho  Ho1  1  0.347474  0.347474  0.955904  1
  Ho  Ho2  1  0.347474  0.955904  0.347474  1
  Ho  Ho3  1  0.955904  0.347474  0.347474  1
  Ho  Ho4  1  0.815264  0.188061  0.188061  1
  Ho  Ho5  1  0.187104  0.811702  0.811702  1
  Ho  Ho6  1  0.188061  0.815264  0.188061  1
  Ho  Ho7  1  0.811702  0.187104  0.811702  1
  Ho  Ho8  1  0.188061  0.188061  0.815264  1
  Ho  Ho9  1  0.811702  0.811702  0.187104  1
  Ho  Ho10  1  0.936467  0.564353  0.564353  1
  Ho  Ho11  1  0.559534  0.937880  0.937880  1
  Ho  Ho12  1  0.564353  0.936467  0.564353  1
  Ho  Ho13  1  0.937880  0.559534  0.937880  1
  Ho  Ho14  1  0.564353  0.564353  0.936467  1
  Ho  Ho15  1  0.937880  0.937880  0.559534  1
  Cd  Cd16  1  0.579964  0.579964  0.579964  1
  Cd  Cd17  1  0.580642  0.580642  0.256058  1
  Cd  Cd18  1  0.580642  0.256058  0.580642  1
  Cd  Cd19  1  0.256058  0.580642  0.580642  1
  Fe  Fe20  1  0.142817  0.142817  0.142817  1
  Ni  Ni21  1  0.142134  0.142134  0.574427  1
  Ni  Ni22  1  0.142134  0.574427  0.142134  1
  Ni  Ni23  1  0.574427  0.142134  0.142134  1
