# generated using pymatgen
data_Ta8VSi6Mo
_symmetry_space_group_name_H-M   'P 1'
_cell_length_a   7.53125404
_cell_length_b   7.53125363
_cell_length_c   7.53125492
_cell_angle_alpha   129.21775469
_cell_angle_beta   129.21774889
_cell_angle_gamma   74.66044812
_symmetry_Int_Tables_number   1
_chemical_formula_structural   Ta8VSi6Mo
_chemical_formula_sum   'Ta8 V1 Si6 Mo1'
_cell_volume   249.81171811
_cell_formula_units_Z   1
loop_
 _symmetry_equiv_pos_site_id
 _symmetry_equiv_pos_as_xyz
  1  'x, y, z'
loop_
 _atom_site_type_symbol
 _atom_site_label
 _atom_site_symmetry_multiplicity
 _atom_site_fract_x
 _atom_site_fract_y
 _atom_site_fract_z
 _atom_site_occupancy
  Ta  Ta0  1  0.015494  0.513886  0.831243  1
  Ta  Ta1  1  0.682643  0.184251  0.168757  1
  Ta  Ta2  1  0.513886  0.682643  0.498392  1
  Ta  Ta3  1  0.184251  0.015494  0.501608  1
  Ta  Ta4  1  0.984506  0.486114  0.168757  1
  Ta  Ta5  1  0.317357  0.815749  0.831243  1
  Ta  Ta6  1  0.486114  0.317357  0.501608  1
  Ta  Ta7  1  0.815749  0.984506  0.498392  1
  V  V8  1  0.500000  0.500000  0.000000  1
  Si  Si9  1  0.749948  0.749948  0.000000  1
  Si  Si10  1  0.250052  0.250052  0.000000  1
  Si  Si11  1  0.630261  0.135471  0.765731  1
  Si  Si12  1  0.369739  0.864529  0.234269  1
  Si  Si13  1  0.135471  0.369739  0.505210  1
  Si  Si14  1  0.864529  0.630261  0.494790  1
  Mo  Mo15  1  0.000000  0.000000  0.000000  1
