# generated using pymatgen
data_Hf4FeCoIr2
_symmetry_space_group_name_H-M   'P 1'
_cell_length_a   6.50424600
_cell_length_b   4.54110800
_cell_length_c   9.04953100
_cell_angle_alpha   90.00000000
_cell_angle_beta   90.00035346
_cell_angle_gamma   90.00000000
_symmetry_Int_Tables_number   1
_chemical_formula_structural   Hf4FeCoIr2
_chemical_formula_sum   'Hf8 Fe2 Co2 Ir4'
_cell_volume   267.29132347
_cell_formula_units_Z   2
loop_
 _symmetry_equiv_pos_site_id
 _symmetry_equiv_pos_as_xyz
  1  'x, y, z'
loop_
 _atom_site_type_symbol
 _atom_site_label
 _atom_site_symmetry_multiplicity
 _atom_site_fract_x
 _atom_site_fract_y
 _atom_site_fract_z
 _atom_site_occupancy
  Hf  Hf0  1  0.000491  0.750001  0.124851  1
  Hf  Hf1  1  0.499562  0.750001  0.124859  1
  Hf  Hf2  1  0.999363  0.250000  0.375067  1
  Hf  Hf3  1  0.500688  0.250000  0.375081  1
  Hf  Hf4  1  0.500133  0.750001  0.625121  1
  Hf  Hf5  1  0.999814  0.750001  0.625130  1
  Hf  Hf6  1  0.499879  0.250000  0.874943  1
  Hf  Hf7  1  0.000066  0.250000  0.874950  1
  Fe  Fe8  1  0.749981  0.250000  0.624581  1
  Fe  Fe9  1  0.249977  0.750001  0.875412  1
  Co  Co10  1  0.750024  0.250000  0.125624  1
  Co  Co11  1  0.250024  0.750001  0.374379  1
  Ir  Ir12  1  0.250025  0.250000  0.125774  1
  Ir  Ir13  1  0.750024  0.750001  0.374194  1
  Ir  Ir14  1  0.249973  0.250000  0.624350  1
  Ir  Ir15  1  0.749973  0.750001  0.875683  1
