# generated using pymatgen
data_Cs4LaDy3(SiSe4)4
_symmetry_space_group_name_H-M   'P 1'
_cell_length_a   7.10559096
_cell_length_b   9.92283931
_cell_length_c   13.45609201
_cell_angle_alpha   71.39552415
_cell_angle_beta   89.60917701
_cell_angle_gamma   89.90581421
_symmetry_Int_Tables_number   1
_chemical_formula_structural   Cs4LaDy3(SiSe4)4
_chemical_formula_sum   'Cs4 La1 Dy3 Si4 Se16'
_cell_volume   899.15745194
_cell_formula_units_Z   1
loop_
 _symmetry_equiv_pos_site_id
 _symmetry_equiv_pos_as_xyz
  1  'x, y, z'
loop_
 _atom_site_type_symbol
 _atom_site_label
 _atom_site_symmetry_multiplicity
 _atom_site_fract_x
 _atom_site_fract_y
 _atom_site_fract_z
 _atom_site_occupancy
  Cs  Cs0  1  0.256770  0.434996  0.385785  1
  Cs  Cs1  1  0.757099  0.564998  0.114463  1
  Cs  Cs2  1  0.745287  0.565601  0.610138  1
  Cs  Cs3  1  0.242515  0.434818  0.887235  1
  La  La4  1  0.299165  0.952778  0.865940  1
  Dy  Dy5  1  0.189631  0.954890  0.365016  1
  Dy  Dy6  1  0.691869  0.046274  0.135515  1
  Dy  Dy7  1  0.809012  0.047011  0.632948  1
  Si  Si8  1  0.744391  0.161547  0.356056  1
  Si  Si9  1  0.245018  0.835761  0.148780  1
  Si  Si10  1  0.254273  0.835961  0.641264  1
  Si  Si11  1  0.755686  0.166607  0.854314  1
  Se  Se12  1  0.024114  0.201040  0.752558  1
  Se  Se13  1  0.782891  0.931482  0.459904  1
  Se  Se14  1  0.528476  0.204818  0.727462  1
  Se  Se15  1  0.734234  0.935075  0.959613  1
  Se  Se16  1  0.760740  0.307147  0.456140  1
  Se  Se17  1  0.969378  0.809419  0.243637  1
  Se  Se18  1  0.261231  0.682659  0.054112  1
  Se  Se19  1  0.217701  0.068337  0.540893  1
  Se  Se20  1  0.736813  0.308629  0.957158  1
  Se  Se21  1  0.475549  0.798945  0.273122  1
  Se  Se22  1  0.016936  0.793533  0.764996  1
  Se  Se23  1  0.240341  0.692519  0.539892  1
  Se  Se24  1  0.471779  0.189815  0.260212  1
  Se  Se25  1  0.973652  0.200524  0.228644  1
  Se  Se26  1  0.529413  0.806256  0.735639  1
  Se  Se27  1  0.286037  0.068558  0.048566  1
