# generated using pymatgen
data_LaH5Pt
_symmetry_space_group_name_H-M   'P 1'
_cell_length_a   4.83836300
_cell_length_b   4.66597100
_cell_length_c   13.15409700
_cell_angle_alpha   90.00000000
_cell_angle_beta   90.00000000
_cell_angle_gamma   90.00000000
_symmetry_Int_Tables_number   1
_chemical_formula_structural   LaH5Pt
_chemical_formula_sum   'La4 H20 Pt4'
_cell_volume   296.96244049
_cell_formula_units_Z   4
loop_
 _symmetry_equiv_pos_site_id
 _symmetry_equiv_pos_as_xyz
  1  'x, y, z'
loop_
 _atom_site_type_symbol
 _atom_site_label
 _atom_site_symmetry_multiplicity
 _atom_site_fract_x
 _atom_site_fract_y
 _atom_site_fract_z
 _atom_site_occupancy
  La  La0  1  0.279585  0.013964  0.631501  1
  La  La1  1  0.779585  0.486036  0.368499  1
  La  La2  1  0.220415  0.986036  0.131501  1
  La  La3  1  0.720415  0.513964  0.868499  1
  H  H4  1  0.749747  0.223454  0.551280  1
  H  H5  1  0.249747  0.276546  0.448720  1
  H  H6  1  0.750253  0.776546  0.051280  1
  H  H7  1  0.250253  0.723454  0.948720  1
  H  H8  1  0.024694  0.904991  0.800026  1
  H  H9  1  0.524694  0.595009  0.199974  1
  H  H10  1  0.475306  0.095009  0.300026  1
  H  H11  1  0.975306  0.404991  0.699974  1
  H  H12  1  0.214238  0.349158  0.829589  1
  H  H13  1  0.714238  0.150842  0.170411  1
  H  H14  1  0.285762  0.650842  0.329589  1
  H  H15  1  0.785762  0.849158  0.670411  1
  H  H16  1  0.553523  0.996581  0.805804  1
  H  H17  1  0.053523  0.503419  0.194196  1
  H  H18  1  0.946477  0.003419  0.305804  1
  H  H19  1  0.446477  0.496581  0.694196  1
  H  H20  1  0.933538  0.310806  0.023944  1
  H  H21  1  0.433538  0.189194  0.976056  1
  H  H22  1  0.566462  0.689194  0.523944  1
  H  H23  1  0.066462  0.810806  0.476056  1
  Pt  Pt24  1  0.250211  0.030235  0.884223  1
  Pt  Pt25  1  0.750211  0.469765  0.115777  1
  Pt  Pt26  1  0.249789  0.969765  0.384223  1
  Pt  Pt27  1  0.749789  0.530235  0.615777  1
