# generated using pymatgen
data_TbTm2(P2Rh3)3
_symmetry_space_group_name_H-M   'P 1'
_cell_length_a   3.91211200
_cell_length_b   11.18131600
_cell_length_c   12.72031200
_cell_angle_alpha   90.00000000
_cell_angle_beta   90.00000000
_cell_angle_gamma   90.00000000
_symmetry_Int_Tables_number   1
_chemical_formula_structural   TbTm2(P2Rh3)3
_chemical_formula_sum   'Tb2 Tm4 P12 Rh18'
_cell_volume   556.41901723
_cell_formula_units_Z   2
loop_
 _symmetry_equiv_pos_site_id
 _symmetry_equiv_pos_as_xyz
  1  'x, y, z'
loop_
 _atom_site_type_symbol
 _atom_site_label
 _atom_site_symmetry_multiplicity
 _atom_site_fract_x
 _atom_site_fract_y
 _atom_site_fract_z
 _atom_site_occupancy
  Tb  Tb0  1  0.000000  0.500000  0.521138  1
  Tb  Tb1  1  0.500000  0.000000  0.478862  1
  Tm  Tm2  1  0.500000  0.815051  0.205073  1
  Tm  Tm3  1  0.500000  0.184949  0.205073  1
  Tm  Tm4  1  0.000000  0.684949  0.794927  1
  Tm  Tm5  1  0.000000  0.315051  0.794927  1
  P  P6  1  0.500000  0.500000  0.877624  1
  P  P7  1  0.000000  0.000000  0.122376  1
  P  P8  1  0.500000  0.500000  0.351359  1
  P  P9  1  0.000000  0.000000  0.648641  1
  P  P10  1  0.500000  0.315596  0.619511  1
  P  P11  1  0.500000  0.684404  0.619511  1
  P  P12  1  0.000000  0.184404  0.380489  1
  P  P13  1  0.000000  0.815596  0.380489  1
  P  P14  1  0.500000  0.845834  0.892395  1
  P  P15  1  0.500000  0.154166  0.892395  1
  P  P16  1  0.000000  0.654166  0.107605  1
  P  P17  1  0.000000  0.345834  0.107605  1
  Rh  Rh18  1  0.500000  0.500000  0.169168  1
  Rh  Rh19  1  0.000000  0.000000  0.830832  1
  Rh  Rh20  1  0.500000  0.500000  0.701507  1
  Rh  Rh21  1  0.000000  0.000000  0.298493  1
  Rh  Rh22  1  0.000000  0.500000  0.978070  1
  Rh  Rh23  1  0.500000  0.000000  0.021930  1
  Rh  Rh24  1  0.500000  0.334002  0.993172  1
  Rh  Rh25  1  0.500000  0.665998  0.993172  1
  Rh  Rh26  1  0.000000  0.165998  0.006828  1
  Rh  Rh27  1  0.000000  0.834002  0.006828  1
  Rh  Rh28  1  0.500000  0.294517  0.430771  1
  Rh  Rh29  1  0.500000  0.705483  0.430771  1
  Rh  Rh30  1  0.000000  0.205483  0.569229  1
  Rh  Rh31  1  0.000000  0.794517  0.569229  1
  Rh  Rh32  1  0.500000  0.871715  0.711501  1
  Rh  Rh33  1  0.500000  0.128285  0.711501  1
  Rh  Rh34  1  0.000000  0.628285  0.288499  1
  Rh  Rh35  1  0.000000  0.371715  0.288499  1
