# generated using pymatgen
data_Ca3LaMgIr
_symmetry_space_group_name_H-M   'P 1'
_cell_length_a   10.20105408
_cell_length_b   10.20105405
_cell_length_c   10.20105500
_cell_angle_alpha   60.00000016
_cell_angle_beta   60.00000025
_cell_angle_gamma   60.00000382
_symmetry_Int_Tables_number   1
_chemical_formula_structural   Ca3LaMgIr
_chemical_formula_sum   'Ca12 La4 Mg4 Ir4'
_cell_volume   750.62012433
_cell_formula_units_Z   4
loop_
 _symmetry_equiv_pos_site_id
 _symmetry_equiv_pos_as_xyz
  1  'x, y, z'
loop_
 _atom_site_type_symbol
 _atom_site_label
 _atom_site_symmetry_multiplicity
 _atom_site_fract_x
 _atom_site_fract_y
 _atom_site_fract_z
 _atom_site_occupancy
  Ca  Ca0  1  0.810318  0.189682  0.189682  1
  Ca  Ca1  1  0.189682  0.810318  0.810318  1
  Ca  Ca2  1  0.189682  0.810318  0.189682  1
  Ca  Ca3  1  0.810318  0.189682  0.810318  1
  Ca  Ca4  1  0.189682  0.189682  0.810318  1
  Ca  Ca5  1  0.810318  0.810318  0.189682  1
  Ca  Ca6  1  0.942612  0.557388  0.557388  1
  Ca  Ca7  1  0.557388  0.942612  0.942612  1
  Ca  Ca8  1  0.557388  0.942612  0.557388  1
  Ca  Ca9  1  0.942612  0.557388  0.942612  1
  Ca  Ca10  1  0.557388  0.557388  0.942612  1
  Ca  Ca11  1  0.942612  0.942612  0.557388  1
  La  La12  1  0.342683  0.342683  0.342683  1
  La  La13  1  0.342683  0.342683  0.971950  1
  La  La14  1  0.342683  0.971950  0.342683  1
  La  La15  1  0.971950  0.342683  0.342683  1
  Mg  Mg16  1  0.577951  0.577951  0.577951  1
  Mg  Mg17  1  0.577951  0.577951  0.266147  1
  Mg  Mg18  1  0.577951  0.266147  0.577951  1
  Mg  Mg19  1  0.266147  0.577951  0.577951  1
  Ir  Ir20  1  0.143036  0.143036  0.143036  1
  Ir  Ir21  1  0.143036  0.143036  0.570892  1
  Ir  Ir22  1  0.143036  0.570892  0.143036  1
  Ir  Ir23  1  0.570892  0.143036  0.143036  1
