# generated using pymatgen
data_Eu2TiTcO6
_symmetry_space_group_name_H-M   'P 1'
_cell_length_a   5.61735213
_cell_length_b   5.61735160
_cell_length_c   5.61735088
_cell_angle_alpha   120.77966186
_cell_angle_beta   120.77966092
_cell_angle_gamma   88.65480696
_symmetry_Int_Tables_number   1
_chemical_formula_structural   Eu2TiTcO6
_chemical_formula_sum   'Eu2 Ti1 Tc1 O6'
_cell_volume   123.82308211
_cell_formula_units_Z   1
loop_
 _symmetry_equiv_pos_site_id
 _symmetry_equiv_pos_as_xyz
  1  'x, y, z'
loop_
 _atom_site_type_symbol
 _atom_site_label
 _atom_site_symmetry_multiplicity
 _atom_site_fract_x
 _atom_site_fract_y
 _atom_site_fract_z
 _atom_site_occupancy
  Eu  Eu0  1  0.250000  0.750000  0.500000  1
  Eu  Eu1  1  0.750000  0.250000  0.500000  1
  Ti  Ti2  1  0.500000  0.500000  0.000000  1
  Tc  Tc3  1  0.000000  0.000000  0.000000  1
  O  O4  1  0.253671  0.253671  0.000000  1
  O  O5  1  0.746329  0.746329  0.000000  1
  O  O6  1  0.691547  0.199307  0.890854  1
  O  O7  1  0.308453  0.800693  0.109146  1
  O  O8  1  0.199307  0.308453  0.507760  1
  O  O9  1  0.800693  0.691547  0.492240  1
