# generated using pymatgen
data_Yb3U7O20
_symmetry_space_group_name_H-M   'P 1'
_cell_length_a   10.04093408
_cell_length_b   10.04093438
_cell_length_c   6.47650079
_cell_angle_alpha   83.69999346
_cell_angle_beta   83.69999803
_cell_angle_gamma   141.78105724
_symmetry_Int_Tables_number   1
_chemical_formula_structural   Yb3U7O20
_chemical_formula_sum   'Yb3 U7 O20'
_cell_volume   380.59740235
_cell_formula_units_Z   1
loop_
 _symmetry_equiv_pos_site_id
 _symmetry_equiv_pos_as_xyz
  1  'x, y, z'
loop_
 _atom_site_type_symbol
 _atom_site_label
 _atom_site_symmetry_multiplicity
 _atom_site_fract_x
 _atom_site_fract_y
 _atom_site_fract_z
 _atom_site_occupancy
  Yb  Yb0  1  0.500000  0.500000  0.000000  1
  Yb  Yb1  1  0.201464  0.798536  0.500000  1
  Yb  Yb2  1  0.798536  0.201464  0.500000  1
  U  U3  1  0.899258  0.100742  0.000000  1
  U  U4  1  0.399083  0.600917  0.500000  1
  U  U5  1  0.100742  0.899258  0.000000  1
  U  U6  1  0.000000  0.000000  0.500000  1
  U  U7  1  0.699318  0.300682  0.000000  1
  U  U8  1  0.600917  0.399083  0.500000  1
  U  U9  1  0.300682  0.699318  0.000000  1
  O  O10  1  0.265943  0.466212  0.876080  1
  O  O11  1  0.887237  0.887237  0.868018  1
  O  O12  1  0.775404  0.972240  0.371299  1
  O  O13  1  0.027760  0.224596  0.628701  1
  O  O14  1  0.466212  0.265943  0.876080  1
  O  O15  1  0.369079  0.369079  0.388649  1
  O  O16  1  0.630921  0.630921  0.611351  1
  O  O17  1  0.070125  0.671374  0.890441  1
  O  O18  1  0.533788  0.734057  0.123920  1
  O  O19  1  0.972240  0.775404  0.371299  1
  O  O20  1  0.224596  0.027760  0.628701  1
  O  O21  1  0.671374  0.070125  0.890441  1
  O  O22  1  0.112763  0.112763  0.131982  1
  O  O23  1  0.582789  0.192255  0.357234  1
  O  O24  1  0.807745  0.417211  0.642766  1
  O  O25  1  0.417211  0.807745  0.642766  1
  O  O26  1  0.734057  0.533788  0.123920  1
  O  O27  1  0.192255  0.582789  0.357234  1
  O  O28  1  0.328626  0.929875  0.109559  1
  O  O29  1  0.929875  0.328626  0.109559  1
