# generated using pymatgen
data_Sm2PaGa6Co4Ni5
_symmetry_space_group_name_H-M   'P 1'
_cell_length_a   8.63556227
_cell_length_b   8.62177305
_cell_length_c   4.21153600
_cell_angle_alpha   90.00000000
_cell_angle_beta   90.00000000
_cell_angle_gamma   119.49004505
_symmetry_Int_Tables_number   1
_chemical_formula_structural   Sm2PaGa6Co4Ni5
_chemical_formula_sum   'Sm2 Pa1 Ga6 Co4 Ni5'
_cell_volume   272.93999750
_cell_formula_units_Z   1
loop_
 _symmetry_equiv_pos_site_id
 _symmetry_equiv_pos_as_xyz
  1  'x, y, z'
loop_
 _atom_site_type_symbol
 _atom_site_label
 _atom_site_symmetry_multiplicity
 _atom_site_fract_x
 _atom_site_fract_y
 _atom_site_fract_z
 _atom_site_occupancy
  Sm  Sm0  1  0.665835  0.332539  0.500000  1
  Sm  Sm1  1  0.332886  0.668027  0.500000  1
  Pa  Pa2  1  0.002955  0.996357  0.000000  1
  Ga  Ga3  1  0.276328  0.276315  0.500000  1
  Ga  Ga4  1  0.727874  0.999998  0.500000  1
  Ga  Ga5  1  0.999106  0.720297  0.500000  1
  Ga  Ga6  1  0.511146  0.505777  0.000000  1
  Ga  Ga7  1  0.492844  0.004334  0.000000  1
  Ga  Ga8  1  0.995415  0.489634  0.000000  1
  Co  Co9  1  0.827248  0.165593  0.000000  1
  Co  Co10  1  0.828838  0.653016  0.000000  1
  Co  Co11  1  0.346314  0.177416  0.000000  1
  Co  Co12  1  0.170536  0.826583  0.000000  1
  Ni  Ni13  1  0.636113  0.821409  0.000000  1
  Ni  Ni14  1  0.184772  0.362604  0.000000  1
  Ni  Ni15  1  0.704345  0.704765  0.500000  1
  Ni  Ni16  1  0.295900  0.998480  0.500000  1
  Ni  Ni17  1  0.001545  0.296856  0.500000  1
