# generated using pymatgen
data_SrTh5(CdHg2)6
_symmetry_space_group_name_H-M   'P 1'
_cell_length_a   5.19137800
_cell_length_b   7.44948100
_cell_length_c   15.75098800
_cell_angle_alpha   90.00000000
_cell_angle_beta   89.99982792
_cell_angle_gamma   90.00000000
_symmetry_Int_Tables_number   1
_chemical_formula_structural   SrTh5(CdHg2)6
_chemical_formula_sum   'Sr1 Th5 Cd6 Hg12'
_cell_volume   609.13908945
_cell_formula_units_Z   1
loop_
 _symmetry_equiv_pos_site_id
 _symmetry_equiv_pos_as_xyz
  1  'x, y, z'
loop_
 _atom_site_type_symbol
 _atom_site_label
 _atom_site_symmetry_multiplicity
 _atom_site_fract_x
 _atom_site_fract_y
 _atom_site_fract_z
 _atom_site_occupancy
  Sr  Sr0  1  0.500006  0.500000  0.833396  1
  Th  Th1  1  0.000004  0.000000  0.000205  1
  Th  Th2  1  0.499995  0.500000  0.167245  1
  Th  Th3  1  0.999975  0.000000  0.333440  1
  Th  Th4  1  0.500002  0.500000  0.499360  1
  Th  Th5  1  0.000020  0.000000  0.666351  1
  Cd  Cd6  1  0.999999  0.500000  0.000701  1
  Cd  Cd7  1  0.499985  0.000000  0.167400  1
  Cd  Cd8  1  0.999985  0.500000  0.333220  1
  Cd  Cd9  1  0.500000  0.000000  0.499366  1
  Cd  Cd10  1  0.000020  0.500000  0.666076  1
  Cd  Cd11  1  0.500015  0.000000  0.833227  1
  Hg  Hg12  1  0.500003  0.250701  0.001007  1
  Hg  Hg13  1  0.500003  0.749298  0.001007  1
  Hg  Hg14  1  0.999981  0.245825  0.166532  1
  Hg  Hg15  1  0.999981  0.754176  0.166532  1
  Hg  Hg16  1  0.499982  0.253190  0.333309  1
  Hg  Hg17  1  0.499982  0.746810  0.333309  1
  Hg  Hg18  1  0.000002  0.246023  0.500156  1
  Hg  Hg19  1  0.000002  0.753977  0.500156  1
  Hg  Hg20  1  0.500012  0.250911  0.665687  1
  Hg  Hg21  1  0.500012  0.749089  0.665687  1
  Hg  Hg22  1  0.000020  0.244100  0.833315  1
  Hg  Hg23  1  0.000020  0.755901  0.833315  1
