# generated using pymatgen
data_Mg6Zn5Rh12W
_symmetry_space_group_name_H-M   'P 1'
_cell_length_a   4.34534801
_cell_length_b   6.18242700
_cell_length_c   13.02136804
_cell_angle_alpha   90.00000000
_cell_angle_beta   89.99067257
_cell_angle_gamma   90.00000000
_symmetry_Int_Tables_number   1
_chemical_formula_structural   Mg6Zn5Rh12W
_chemical_formula_sum   'Mg6 Zn5 Rh12 W1'
_cell_volume   349.81640306
_cell_formula_units_Z   1
loop_
 _symmetry_equiv_pos_site_id
 _symmetry_equiv_pos_as_xyz
  1  'x, y, z'
loop_
 _atom_site_type_symbol
 _atom_site_label
 _atom_site_symmetry_multiplicity
 _atom_site_fract_x
 _atom_site_fract_y
 _atom_site_fract_z
 _atom_site_occupancy
  Mg  Mg0  1  0.000002  0.000000  0.999996  1
  Mg  Mg1  1  0.499594  0.500001  0.170872  1
  Mg  Mg2  1  0.999502  0.000000  0.335208  1
  Mg  Mg3  1  0.500001  0.500001  0.500004  1
  Mg  Mg4  1  0.000501  0.000000  0.664792  1
  Mg  Mg5  1  0.500406  0.500001  0.829124  1
  Zn  Zn6  1  0.499772  0.000000  0.169345  1
  Zn  Zn7  1  0.999768  0.500001  0.334458  1
  Zn  Zn8  1  0.499999  0.000000  0.499991  1
  Zn  Zn9  1  0.000231  0.500001  0.665530  1
  Zn  Zn10  1  0.500226  0.000000  0.830667  1
  Rh  Rh11  1  0.500000  0.255650  0.000014  1
  Rh  Rh12  1  0.500000  0.744350  0.000014  1
  Rh  Rh13  1  0.999690  0.253734  0.161635  1
  Rh  Rh14  1  0.999690  0.746265  0.161635  1
  Rh  Rh15  1  0.499637  0.249997  0.332552  1
  Rh  Rh16  1  0.499637  0.750002  0.332552  1
  Rh  Rh17  1  0.999999  0.250433  0.499976  1
  Rh  Rh18  1  0.999999  0.749565  0.499976  1
  Rh  Rh19  1  0.500366  0.249989  0.667434  1
  Rh  Rh20  1  0.500366  0.750010  0.667434  1
  Rh  Rh21  1  0.000308  0.253712  0.838371  1
  Rh  Rh22  1  0.000308  0.746287  0.838371  1
  W  W23  1  0.000000  0.500001  0.000046  1
