# generated using pymatgen
data_SrPr3(BPd4)4
_symmetry_space_group_name_H-M   'P 1'
_cell_length_a   5.51807000
_cell_length_b   6.17875134
_cell_length_c   11.88303452
_cell_angle_alpha   90.09986938
_cell_angle_beta   90.00000000
_cell_angle_gamma   90.00000000
_symmetry_Int_Tables_number   1
_chemical_formula_structural   SrPr3(BPd4)4
_chemical_formula_sum   'Sr1 Pr3 B4 Pd16'
_cell_volume   405.14886101
_cell_formula_units_Z   1
loop_
 _symmetry_equiv_pos_site_id
 _symmetry_equiv_pos_as_xyz
  1  'x, y, z'
loop_
 _atom_site_type_symbol
 _atom_site_label
 _atom_site_symmetry_multiplicity
 _atom_site_fract_x
 _atom_site_fract_y
 _atom_site_fract_z
 _atom_site_occupancy
  Sr  Sr0  1  0.250000  0.188875  0.659964  1
  Pr  Pr1  1  0.750000  0.307650  0.156647  1
  Pr  Pr2  1  0.750000  0.807445  0.344428  1
  Pr  Pr3  1  0.250000  0.691188  0.843307  1
  B  B4  1  0.750000  0.400583  0.551554  1
  B  B5  1  0.750000  0.900083  0.948818  1
  B  B6  1  0.250000  0.598633  0.447845  1
  B  B7  1  0.250000  0.098321  0.051651  1
  Pd  Pd8  1  0.750000  0.388514  0.734779  1
  Pd  Pd9  1  0.750000  0.880999  0.765888  1
  Pd  Pd10  1  0.250000  0.616628  0.264848  1
  Pd  Pd11  1  0.250000  0.120177  0.233682  1
  Pd  Pd12  1  0.750000  0.059339  0.555536  1
  Pd  Pd13  1  0.750000  0.558367  0.944253  1
  Pd  Pd14  1  0.250000  0.938723  0.440026  1
  Pd  Pd15  1  0.250000  0.442046  0.056433  1
  Pd  Pd16  1  0.998998  0.160808  0.913637  1
  Pd  Pd17  1  0.500281  0.661655  0.587119  1
  Pd  Pd18  1  0.501165  0.838873  0.089675  1
  Pd  Pd19  1  0.998530  0.339878  0.409741  1
  Pd  Pd20  1  0.998835  0.838873  0.089675  1
  Pd  Pd21  1  0.501470  0.339878  0.409741  1
  Pd  Pd22  1  0.501002  0.160808  0.913637  1
  Pd  Pd23  1  0.999719  0.661655  0.587119  1
