# generated using pymatgen
data_LiTb10Pr6Cd3Ir3Pt
_symmetry_space_group_name_H-M   'P 1'
_cell_length_a   9.80516002
_cell_length_b   9.80515977
_cell_length_c   9.80516000
_cell_angle_alpha   60.12015200
_cell_angle_beta   60.12015282
_cell_angle_gamma   60.12015138
_symmetry_Int_Tables_number   1
_chemical_formula_structural   LiTb10Pr6Cd3Ir3Pt
_chemical_formula_sum   'Li1 Tb10 Pr6 Cd3 Ir3 Pt1'
_cell_volume   668.38950861
_cell_formula_units_Z   1
loop_
 _symmetry_equiv_pos_site_id
 _symmetry_equiv_pos_as_xyz
  1  'x, y, z'
loop_
 _atom_site_type_symbol
 _atom_site_label
 _atom_site_symmetry_multiplicity
 _atom_site_fract_x
 _atom_site_fract_y
 _atom_site_fract_z
 _atom_site_occupancy
  Li  Li0  1  0.571588  0.571588  0.571588  1
  Tb  Tb1  1  0.347486  0.347486  0.347486  1
  Tb  Tb2  1  0.349836  0.349836  0.955972  1
  Tb  Tb3  1  0.349836  0.955972  0.349836  1
  Tb  Tb4  1  0.955972  0.349836  0.349836  1
  Tb  Tb5  1  0.808559  0.189428  0.189428  1
  Tb  Tb6  1  0.183612  0.814347  0.814347  1
  Tb  Tb7  1  0.189428  0.808559  0.189428  1
  Tb  Tb8  1  0.814347  0.183612  0.814347  1
  Tb  Tb9  1  0.189428  0.189428  0.808559  1
  Tb  Tb10  1  0.814347  0.814347  0.183612  1
  Pr  Pr11  1  0.939512  0.559856  0.559856  1
  Pr  Pr12  1  0.559430  0.940425  0.940425  1
  Pr  Pr13  1  0.559856  0.939512  0.559856  1
  Pr  Pr14  1  0.940425  0.559430  0.940425  1
  Pr  Pr15  1  0.559856  0.559856  0.939512  1
  Pr  Pr16  1  0.940425  0.940425  0.559430  1
  Cd  Cd17  1  0.581168  0.581168  0.261059  1
  Cd  Cd18  1  0.581168  0.261059  0.581168  1
  Cd  Cd19  1  0.261059  0.581168  0.581168  1
  Ir  Ir20  1  0.142187  0.142187  0.575716  1
  Ir  Ir21  1  0.142187  0.575716  0.142187  1
  Ir  Ir22  1  0.575716  0.142187  0.142187  1
  Pt  Pt23  1  0.142571  0.142571  0.142571  1
