# generated using pymatgen
data_ErZrBIr5Rh
_symmetry_space_group_name_H-M   'P 1'
_cell_length_a   5.78225743
_cell_length_b   5.78225806
_cell_length_c   5.75556100
_cell_angle_alpha   60.15260837
_cell_angle_beta   60.15260480
_cell_angle_gamma   60.14117892
_symmetry_Int_Tables_number   1
_chemical_formula_structural   ErZrBIr5Rh
_chemical_formula_sum   'Er1 Zr1 B1 Ir5 Rh1'
_cell_volume   136.53023639
_cell_formula_units_Z   1
loop_
 _symmetry_equiv_pos_site_id
 _symmetry_equiv_pos_as_xyz
  1  'x, y, z'
loop_
 _atom_site_type_symbol
 _atom_site_label
 _atom_site_symmetry_multiplicity
 _atom_site_fract_x
 _atom_site_fract_y
 _atom_site_fract_z
 _atom_site_occupancy
  Er  Er0  1  0.750416  0.750416  0.749584  1
  Zr  Zr1  1  0.248955  0.248955  0.251045  1
  B  B2  1  0.000700  0.000700  0.999300  1
  Ir  Ir3  1  0.258441  0.740957  0.257891  1
  Ir  Ir4  1  0.740957  0.258441  0.257891  1
  Ir  Ir5  1  0.259120  0.259120  0.740880  1
  Ir  Ir6  1  0.740957  0.258441  0.742711  1
  Ir  Ir7  1  0.258441  0.740957  0.742711  1
  Rh  Rh8  1  0.742012  0.742012  0.257988  1
