# generated using pymatgen
data_LuPa(BrN)2
_symmetry_space_group_name_H-M   'P 1'
_cell_length_a   10.75724265
_cell_length_b   10.75724306
_cell_length_c   10.75724361
_cell_angle_alpha   20.79023607
_cell_angle_beta   20.79023250
_cell_angle_gamma   20.79022838
_symmetry_Int_Tables_number   1
_chemical_formula_structural   LuPa(BrN)2
_chemical_formula_sum   'Lu1 Pa1 Br2 N2'
_cell_volume   137.30922424
_cell_formula_units_Z   1
loop_
 _symmetry_equiv_pos_site_id
 _symmetry_equiv_pos_as_xyz
  1  'x, y, z'
loop_
 _atom_site_type_symbol
 _atom_site_label
 _atom_site_symmetry_multiplicity
 _atom_site_fract_x
 _atom_site_fract_y
 _atom_site_fract_z
 _atom_site_occupancy
  Lu  Lu0  1  0.787401  0.787401  0.787401  1
  Pa  Pa1  1  0.207266  0.207266  0.207266  1
  Br  Br2  1  0.606553  0.606553  0.606553  1
  Br  Br3  1  0.394521  0.394521  0.394521  1
  N  N4  1  0.862485  0.862485  0.862485  1
  N  N5  1  0.141773  0.141773  0.141773  1
