# generated using pymatgen
data_Dy5YAl18(Si3Os4)2
_symmetry_space_group_name_H-M   'P 1'
_cell_length_a   8.70543400
_cell_length_b   8.68133456
_cell_length_c   9.54431600
_cell_angle_alpha   90.00000000
_cell_angle_beta   90.00000000
_cell_angle_gamma   120.09168083
_symmetry_Int_Tables_number   1
_chemical_formula_structural   Dy5YAl18(Si3Os4)2
_chemical_formula_sum   'Dy5 Y1 Al18 Si6 Os8'
_cell_volume   624.09456845
_cell_formula_units_Z   1
loop_
 _symmetry_equiv_pos_site_id
 _symmetry_equiv_pos_as_xyz
  1  'x, y, z'
loop_
 _atom_site_type_symbol
 _atom_site_label
 _atom_site_symmetry_multiplicity
 _atom_site_fract_x
 _atom_site_fract_y
 _atom_site_fract_z
 _atom_site_occupancy
  Dy  Dy0  1  0.193388  0.386775  0.250000  1
  Dy  Dy1  1  0.806610  0.613241  0.750000  1
  Dy  Dy2  1  0.610374  0.807819  0.250000  1
  Dy  Dy3  1  0.389610  0.192181  0.750000  1
  Dy  Dy4  1  0.197449  0.807816  0.250000  1
  Y  Y5  1  0.802571  0.192200  0.750000  1
  Al  Al6  1  0.164925  0.329824  0.578317  1
  Al  Al7  1  0.835090  0.670180  0.421670  1
  Al  Al8  1  0.670479  0.834518  0.576731  1
  Al  Al9  1  0.835090  0.670180  0.078330  1
  Al  Al10  1  0.329514  0.165463  0.423256  1
  Al  Al11  1  0.164925  0.329824  0.921683  1
  Al  Al12  1  0.164048  0.834534  0.576744  1
  Al  Al13  1  0.329514  0.165463  0.076744  1
  Al  Al14  1  0.835952  0.165464  0.423239  1
  Al  Al15  1  0.670479  0.834518  0.923269  1
  Al  Al16  1  0.835952  0.165464  0.076761  1
  Al  Al17  1  0.164048  0.834534  0.923256  1
  Al  Al18  1  0.872562  0.433296  0.250000  1
  Al  Al19  1  0.127445  0.566715  0.750000  1
  Al  Al20  1  0.560737  0.433299  0.250000  1
  Al  Al21  1  0.439266  0.566699  0.750000  1
  Al  Al22  1  0.999592  0.999182  0.250000  1
  Al  Al23  1  0.000436  0.000792  0.750000  1
  Si  Si24  1  0.332067  0.664133  0.038428  1
  Si  Si25  1  0.667924  0.335878  0.961596  1
  Si  Si26  1  0.667924  0.335878  0.538404  1
  Si  Si27  1  0.332067  0.664133  0.461572  1
  Si  Si28  1  0.563603  0.127201  0.250000  1
  Si  Si29  1  0.436370  0.872780  0.750000  1
  Os  Os30  1  0.499981  0.999984  0.000015  1
  Os  Os31  1  0.000016  0.500021  0.000020  1
  Os  Os32  1  0.499981  0.999984  0.499985  1
  Os  Os33  1  0.499998  0.500001  0.999998  1
  Os  Os34  1  0.000016  0.500021  0.499980  1
  Os  Os35  1  0.499998  0.500001  0.500002  1
  Os  Os36  1  0.999998  0.000001  0.999995  1
  Os  Os37  1  0.999998  0.000001  0.500005  1
