# generated using pymatgen
data_La3Ce2Dy(SnRh)6
_symmetry_space_group_name_H-M   'P 1'
_cell_length_a   7.56821100
_cell_length_b   7.50160581
_cell_length_c   8.21389300
_cell_angle_alpha   90.00000000
_cell_angle_beta   90.00000000
_cell_angle_gamma   119.76460802
_symmetry_Int_Tables_number   1
_chemical_formula_structural   La3Ce2Dy(SnRh)6
_chemical_formula_sum   'La3 Ce2 Dy1 Sn6 Rh6'
_cell_volume   404.81108499
_cell_formula_units_Z   1
loop_
 _symmetry_equiv_pos_site_id
 _symmetry_equiv_pos_as_xyz
  1  'x, y, z'
loop_
 _atom_site_type_symbol
 _atom_site_label
 _atom_site_symmetry_multiplicity
 _atom_site_fract_x
 _atom_site_fract_y
 _atom_site_fract_z
 _atom_site_occupancy
  La  La0  1  0.585796  0.995979  0.750000  1
  La  La1  1  0.413044  0.409481  0.750000  1
  La  La2  1  0.999505  0.585843  0.750000  1
  Ce  Ce3  1  0.588477  0.000853  0.250000  1
  Ce  Ce4  1  0.413317  0.414240  0.250000  1
  Dy  Dy5  1  0.999906  0.594779  0.250000  1
  Sn  Sn6  1  0.247140  0.994914  0.006448  1
  Sn  Sn7  1  0.753128  0.748238  0.494542  1
  Sn  Sn8  1  0.999683  0.257451  0.491765  1
  Sn  Sn9  1  0.999683  0.257451  0.008235  1
  Sn  Sn10  1  0.753128  0.748238  0.005458  1
  Sn  Sn11  1  0.247140  0.994914  0.493552  1
  Rh  Rh12  1  0.656819  0.325393  0.023076  1
  Rh  Rh13  1  0.656819  0.325393  0.476924  1
  Rh  Rh14  1  0.343237  0.668452  0.023122  1
  Rh  Rh15  1  0.343237  0.668452  0.476878  1
  Rh  Rh16  1  0.000011  0.004353  0.750000  1
  Rh  Rh17  1  0.999924  0.005581  0.250000  1
