# generated using pymatgen
data_Li4Tb3GdSi8
_symmetry_space_group_name_H-M   'P 1'
_cell_length_a   3.80703500
_cell_length_b   7.61403287
_cell_length_c   10.22865053
_cell_angle_alpha   89.97577384
_cell_angle_beta   90.00000000
_cell_angle_gamma   90.00000000
_symmetry_Int_Tables_number   1
_chemical_formula_structural   Li4Tb3GdSi8
_chemical_formula_sum   'Li4 Tb3 Gd1 Si8'
_cell_volume   296.49673742
_cell_formula_units_Z   1
loop_
 _symmetry_equiv_pos_site_id
 _symmetry_equiv_pos_as_xyz
  1  'x, y, z'
loop_
 _atom_site_type_symbol
 _atom_site_label
 _atom_site_symmetry_multiplicity
 _atom_site_fract_x
 _atom_site_fract_y
 _atom_site_fract_z
 _atom_site_occupancy
  Li  Li0  1  0.250000  0.990828  0.391730  1
  Li  Li1  1  0.750000  0.009880  0.608817  1
  Li  Li2  1  0.250000  0.490271  0.107347  1
  Li  Li3  1  0.750000  0.507710  0.892399  1
  Tb  Tb4  1  0.250000  0.139513  0.864102  1
  Tb  Tb5  1  0.750000  0.860869  0.135406  1
  Tb  Tb6  1  0.250000  0.639256  0.635979  1
  Gd  Gd7  1  0.750000  0.360671  0.363590  1
  Si  Si8  1  0.750000  0.266891  0.068005  1
  Si  Si9  1  0.250000  0.730355  0.931290  1
  Si  Si10  1  0.750000  0.770321  0.431073  1
  Si  Si11  1  0.250000  0.233480  0.569022  1
  Si  Si12  1  0.750000  0.842260  0.820613  1
  Si  Si13  1  0.250000  0.156991  0.179371  1
  Si  Si14  1  0.750000  0.342744  0.680736  1
  Si  Si15  1  0.250000  0.657957  0.320518  1
