# generated using pymatgen
data_Ho2ErPa(Ni2Sn)2
_symmetry_space_group_name_H-M   'P 1'
_cell_length_a   7.38136215
_cell_length_b   7.38136214
_cell_length_c   3.58896800
_cell_angle_alpha   90.00000000
_cell_angle_beta   90.00000000
_cell_angle_gamma   92.22115666
_symmetry_Int_Tables_number   1
_chemical_formula_structural   Ho2ErPa(Ni2Sn)2
_chemical_formula_sum   'Ho2 Er1 Pa1 Ni4 Sn2'
_cell_volume   195.39623576
_cell_formula_units_Z   1
loop_
 _symmetry_equiv_pos_site_id
 _symmetry_equiv_pos_as_xyz
  1  'x, y, z'
loop_
 _atom_site_type_symbol
 _atom_site_label
 _atom_site_symmetry_multiplicity
 _atom_site_fract_x
 _atom_site_fract_y
 _atom_site_fract_z
 _atom_site_occupancy
  Ho  Ho0  1  0.171754  0.326595  0.500000  1
  Ho  Ho1  1  0.826595  0.671754  0.500000  1
  Er  Er2  1  0.323721  0.823721  0.500000  1
  Pa  Pa3  1  0.672757  0.172757  0.500000  1
  Ni  Ni4  1  0.862523  0.362523  0.000000  1
  Ni  Ni5  1  0.115724  0.615724  0.000000  1
  Ni  Ni6  1  0.395309  0.132612  0.000000  1
  Ni  Ni7  1  0.632612  0.895309  0.000000  1
  Sn  Sn8  1  0.492922  0.506083  0.000000  1
  Sn  Sn9  1  0.006083  0.992922  0.000000  1
