# generated using pymatgen
data_Tb2YbEr5(B6Ru)4
_symmetry_space_group_name_H-M   'P 1'
_cell_length_a   3.64598300
_cell_length_b   9.11600150
_cell_length_c   11.50391500
_cell_angle_alpha   89.91887807
_cell_angle_beta   90.00000000
_cell_angle_gamma   90.00000000
_symmetry_Int_Tables_number   1
_chemical_formula_structural   Tb2YbEr5(B6Ru)4
_chemical_formula_sum   'Tb2 Yb1 Er5 B24 Ru4'
_cell_volume   382.35278373
_cell_formula_units_Z   1
loop_
 _symmetry_equiv_pos_site_id
 _symmetry_equiv_pos_as_xyz
  1  'x, y, z'
loop_
 _atom_site_type_symbol
 _atom_site_label
 _atom_site_symmetry_multiplicity
 _atom_site_fract_x
 _atom_site_fract_y
 _atom_site_fract_z
 _atom_site_occupancy
  Tb  Tb0  1  0.000000  0.676112  0.585029  1
  Tb  Tb1  1  0.000000  0.822358  0.086290  1
  Yb  Yb2  1  0.000000  0.323101  0.413811  1
  Er  Er3  1  0.000000  0.178455  0.914686  1
  Er  Er4  1  0.000000  0.944077  0.371126  1
  Er  Er5  1  0.000000  0.058389  0.628030  1
  Er  Er6  1  0.000000  0.442456  0.129555  1
  Er  Er7  1  0.000000  0.556124  0.872099  1
  B  B8  1  0.500000  0.553766  0.432274  1
  B  B9  1  0.500000  0.445409  0.567575  1
  B  B10  1  0.500000  0.053807  0.066428  1
  B  B11  1  0.500000  0.946359  0.932284  1
  B  B12  1  0.500000  0.748579  0.418758  1
  B  B13  1  0.500000  0.251929  0.581093  1
  B  B14  1  0.500000  0.247872  0.080332  1
  B  B15  1  0.500000  0.751480  0.919098  1
  B  B16  1  0.500000  0.791095  0.266136  1
  B  B17  1  0.500000  0.209581  0.734574  1
  B  B18  1  0.500000  0.289841  0.233726  1
  B  B19  1  0.500000  0.709580  0.766317  1
  B  B20  1  0.500000  0.630911  0.185799  1
  B  B21  1  0.500000  0.368748  0.815642  1
  B  B22  1  0.500000  0.130838  0.314235  1
  B  B23  1  0.500000  0.869537  0.685121  1
  B  B24  1  0.500000  0.983398  0.212027  1
  B  B25  1  0.500000  0.017567  0.787287  1
  B  B26  1  0.500000  0.483097  0.287672  1
  B  B27  1  0.500000  0.516348  0.713025  1
  B  B28  1  0.500000  0.605957  0.029541  1
  B  B29  1  0.500000  0.393050  0.970882  1
  B  B30  1  0.500000  0.103571  0.471318  1
  B  B31  1  0.500000  0.896108  0.528708  1
  Ru  Ru32  1  0.000000  0.639178  0.320187  1
  Ru  Ru33  1  0.000000  0.361601  0.680752  1
  Ru  Ru34  1  0.000000  0.137004  0.177783  1
  Ru  Ru35  1  0.000000  0.862714  0.820801  1
