# generated using pymatgen
data_Y2LuCdRu2
_symmetry_space_group_name_H-M   'P 1'
_cell_length_a   3.41036700
_cell_length_b   3.41036700
_cell_length_c   11.17847500
_cell_angle_alpha   90.00000000
_cell_angle_beta   90.00000000
_cell_angle_gamma   90.00000000
_symmetry_Int_Tables_number   1
_chemical_formula_structural   Y2LuCdRu2
_chemical_formula_sum   'Y2 Lu1 Cd1 Ru2'
_cell_volume   130.01240571
_cell_formula_units_Z   1
loop_
 _symmetry_equiv_pos_site_id
 _symmetry_equiv_pos_as_xyz
  1  'x, y, z'
loop_
 _atom_site_type_symbol
 _atom_site_label
 _atom_site_symmetry_multiplicity
 _atom_site_fract_x
 _atom_site_fract_y
 _atom_site_fract_z
 _atom_site_occupancy
  Y  Y0  1  0.000000  0.000000  0.295673  1
  Y  Y1  1  0.000000  0.000000  0.704327  1
  Lu  Lu2  1  0.000000  0.000000  0.000000  1
  Cd  Cd3  1  0.500001  0.500001  0.500000  1
  Ru  Ru4  1  0.500001  0.500001  0.150183  1
  Ru  Ru5  1  0.500001  0.500001  0.849817  1
