# generated using pymatgen
data_Tb3InHg4
_symmetry_space_group_name_H-M   'P 1'
_cell_length_a   6.39294731
_cell_length_b   6.39294576
_cell_length_c   10.26976800
_cell_angle_alpha   90.00000000
_cell_angle_beta   90.00000000
_cell_angle_gamma   105.31714390
_symmetry_Int_Tables_number   1
_chemical_formula_structural   Tb3InHg4
_chemical_formula_sum   'Tb6 In2 Hg8'
_cell_volume   404.81378453
_cell_formula_units_Z   2
loop_
 _symmetry_equiv_pos_site_id
 _symmetry_equiv_pos_as_xyz
  1  'x, y, z'
loop_
 _atom_site_type_symbol
 _atom_site_label
 _atom_site_symmetry_multiplicity
 _atom_site_fract_x
 _atom_site_fract_y
 _atom_site_fract_z
 _atom_site_occupancy
  Tb  Tb0  1  0.787858  0.212142  0.000000  1
  Tb  Tb1  1  0.212142  0.787858  0.000000  1
  Tb  Tb2  1  0.212142  0.787858  0.500000  1
  Tb  Tb3  1  0.787858  0.212142  0.500000  1
  Tb  Tb4  1  0.567504  0.567504  0.250000  1
  Tb  Tb5  1  0.432496  0.432496  0.750000  1
  In  In6  1  0.990141  0.990141  0.250000  1
  In  In7  1  0.009859  0.009859  0.750000  1
  Hg  Hg8  1  0.037679  0.489291  0.250000  1
  Hg  Hg9  1  0.962321  0.510709  0.750000  1
  Hg  Hg10  1  0.489291  0.037679  0.250000  1
  Hg  Hg11  1  0.510709  0.962321  0.750000  1
  Hg  Hg12  1  0.290768  0.290768  0.028696  1
  Hg  Hg13  1  0.709232  0.709232  0.971304  1
  Hg  Hg14  1  0.709232  0.709232  0.528696  1
  Hg  Hg15  1  0.290768  0.290768  0.471304  1
