# generated using pymatgen
data_Y3As4Pd7
_symmetry_space_group_name_H-M   'P 1'
_cell_length_a   8.14911775
_cell_length_b   8.14911837
_cell_length_c   9.63939521
_cell_angle_alpha   55.57236596
_cell_angle_beta   55.57236117
_cell_angle_gamma   29.47115566
_symmetry_Int_Tables_number   1
_chemical_formula_structural   Y3As4Pd7
_chemical_formula_sum   'Y3 As4 Pd7'
_cell_volume   255.51668057
_cell_formula_units_Z   1
loop_
 _symmetry_equiv_pos_site_id
 _symmetry_equiv_pos_as_xyz
  1  'x, y, z'
loop_
 _atom_site_type_symbol
 _atom_site_label
 _atom_site_symmetry_multiplicity
 _atom_site_fract_x
 _atom_site_fract_y
 _atom_site_fract_z
 _atom_site_occupancy
  Y  Y0  1  0.500000  0.500000  0.500000  1
  Y  Y1  1  0.822624  0.822624  0.171769  1
  Y  Y2  1  0.177376  0.177376  0.828231  1
  As  As3  1  0.394035  0.394035  0.323114  1
  As  As4  1  0.605965  0.605965  0.676886  1
  As  As5  1  0.840365  0.840365  0.752244  1
  As  As6  1  0.159635  0.159635  0.247756  1
  Pd  Pd7  1  0.667210  0.667210  0.073860  1
  Pd  Pd8  1  0.011873  0.011873  0.207472  1
  Pd  Pd9  1  0.988127  0.988127  0.792528  1
  Pd  Pd10  1  0.500000  0.500000  0.000000  1
  Pd  Pd11  1  0.194842  0.194842  0.472907  1
  Pd  Pd12  1  0.805158  0.805158  0.527093  1
  Pd  Pd13  1  0.332790  0.332790  0.926140  1
