# generated using pymatgen
data_TbDy3Co4(P3Rh4)4
_symmetry_space_group_name_H-M   'P 1'
_cell_length_a   3.84909300
_cell_length_b   10.76562601
_cell_length_c   12.40600501
_cell_angle_alpha   89.99549959
_cell_angle_beta   90.00000000
_cell_angle_gamma   90.00000000
_symmetry_Int_Tables_number   1
_chemical_formula_structural   TbDy3Co4(P3Rh4)4
_chemical_formula_sum   'Tb1 Dy3 Co4 P12 Rh16'
_cell_volume   514.07874017
_cell_formula_units_Z   1
loop_
 _symmetry_equiv_pos_site_id
 _symmetry_equiv_pos_as_xyz
  1  'x, y, z'
loop_
 _atom_site_type_symbol
 _atom_site_label
 _atom_site_symmetry_multiplicity
 _atom_site_fract_x
 _atom_site_fract_y
 _atom_site_fract_z
 _atom_site_occupancy
  Tb  Tb0  1  0.250000  0.585113  0.707711  1
  Dy  Dy1  1  0.250000  0.914930  0.207734  1
  Dy  Dy2  1  0.750000  0.414908  0.292319  1
  Dy  Dy3  1  0.750000  0.085081  0.792261  1
  Co  Co4  1  0.250000  0.464196  0.934154  1
  Co  Co5  1  0.250000  0.035738  0.434043  1
  Co  Co6  1  0.750000  0.535702  0.066099  1
  Co  Co7  1  0.750000  0.964436  0.565908  1
  P  P8  1  0.250000  0.423855  0.106171  1
  P  P9  1  0.250000  0.076114  0.606064  1
  P  P10  1  0.750000  0.576073  0.894040  1
  P  P11  1  0.750000  0.923925  0.393947  1
  P  P12  1  0.250000  0.272023  0.872598  1
  P  P13  1  0.250000  0.227922  0.372582  1
  P  P14  1  0.750000  0.728003  0.127418  1
  P  P15  1  0.750000  0.772372  0.627221  1
  P  P16  1  0.250000  0.599465  0.388042  1
  P  P17  1  0.250000  0.900553  0.888002  1
  P  P18  1  0.750000  0.400309  0.611854  1
  P  P19  1  0.750000  0.099436  0.111983  1
  Rh  Rh20  1  0.250000  0.716227  0.987626  1
  Rh  Rh21  1  0.250000  0.783838  0.487592  1
  Rh  Rh22  1  0.750000  0.283681  0.012434  1
  Rh  Rh23  1  0.750000  0.216070  0.512389  1
  Rh  Rh24  1  0.250000  0.408052  0.480008  1
  Rh  Rh25  1  0.250000  0.091840  0.980019  1
  Rh  Rh26  1  0.750000  0.591841  0.519486  1
  Rh  Rh27  1  0.750000  0.908163  0.020002  1
  Rh  Rh28  1  0.250000  0.227354  0.178067  1
  Rh  Rh29  1  0.250000  0.272587  0.677997  1
  Rh  Rh30  1  0.750000  0.773032  0.822165  1
  Rh  Rh31  1  0.750000  0.727449  0.321862  1
  Rh  Rh32  1  0.250000  0.886802  0.698811  1
  Rh  Rh33  1  0.250000  0.613324  0.198815  1
  Rh  Rh34  1  0.750000  0.113311  0.301198  1
  Rh  Rh35  1  0.750000  0.386274  0.801380  1
