# generated using pymatgen
data_TaGa(Tc2W)2
_symmetry_space_group_name_H-M   'P 1'
_cell_length_a   4.41648100
_cell_length_b   6.29092400
_cell_length_c   13.29296401
_cell_angle_alpha   90.00000000
_cell_angle_beta   89.99653315
_cell_angle_gamma   90.00000000
_symmetry_Int_Tables_number   1
_chemical_formula_structural   TaGa(Tc2W)2
_chemical_formula_sum   'Ta3 Ga3 Tc12 W6'
_cell_volume   369.32833926
_cell_formula_units_Z   3
loop_
 _symmetry_equiv_pos_site_id
 _symmetry_equiv_pos_as_xyz
  1  'x, y, z'
loop_
 _atom_site_type_symbol
 _atom_site_label
 _atom_site_symmetry_multiplicity
 _atom_site_fract_x
 _atom_site_fract_y
 _atom_site_fract_z
 _atom_site_occupancy
  Ta  Ta0  1  0.000004  0.500000  0.996346  1
  Ta  Ta1  1  0.499835  0.000000  0.166676  1
  Ta  Ta2  1  0.999797  0.500000  0.337009  1
  Ga  Ga3  1  0.499982  0.000000  0.502316  1
  Ga  Ga4  1  0.000185  0.500000  0.666645  1
  Ga  Ga5  1  0.500179  0.000000  0.830995  1
  Tc  Tc6  1  0.499997  0.249574  0.000145  1
  Tc  Tc7  1  0.499997  0.750425  0.000145  1
  Tc  Tc8  1  0.999856  0.251143  0.166675  1
  Tc  Tc9  1  0.999856  0.748856  0.166675  1
  Tc  Tc10  1  0.499820  0.249588  0.333198  1
  Tc  Tc11  1  0.499820  0.750412  0.333198  1
  Tc  Tc12  1  0.999972  0.248535  0.499400  1
  Tc  Tc13  1  0.999972  0.751466  0.499400  1
  Tc  Tc14  1  0.500194  0.250810  0.666661  1
  Tc  Tc15  1  0.500194  0.749190  0.666661  1
  Tc  Tc16  1  0.000154  0.248563  0.833926  1
  Tc  Tc17  1  0.000154  0.751436  0.833926  1
  W  W18  1  0.999963  0.000000  0.993490  1
  W  W19  1  0.499855  0.500000  0.166669  1
  W  W20  1  0.999802  0.000000  0.339855  1
  W  W21  1  0.499928  0.500000  0.507876  1
  W  W22  1  0.000318  0.000000  0.666663  1
  W  W23  1  0.500162  0.500000  0.825450  1
