# generated using pymatgen
data_Y2ErIn3HgRh2
_symmetry_space_group_name_H-M   'P 1'
_cell_length_a   7.86355628
_cell_length_b   7.86186612
_cell_length_c   3.78471500
_cell_angle_alpha   90.00000000
_cell_angle_beta   90.00000000
_cell_angle_gamma   120.11171268
_symmetry_Int_Tables_number   1
_chemical_formula_structural   Y2ErIn3HgRh2
_chemical_formula_sum   'Y2 Er1 In3 Hg1 Rh2'
_cell_volume   202.40371223
_cell_formula_units_Z   1
loop_
 _symmetry_equiv_pos_site_id
 _symmetry_equiv_pos_as_xyz
  1  'x, y, z'
loop_
 _atom_site_type_symbol
 _atom_site_label
 _atom_site_symmetry_multiplicity
 _atom_site_fract_x
 _atom_site_fract_y
 _atom_site_fract_z
 _atom_site_occupancy
  Y  Y0  1  0.028518  0.614037  0.500000  1
  Y  Y1  1  0.386235  0.414505  0.500000  1
  Er  Er2  1  0.584824  0.969624  0.500000  1
  In  In3  1  0.257236  0.999113  0.000000  1
  In  In4  1  0.741501  0.743136  0.000000  1
  In  In5  1  0.000534  0.257631  0.000000  1
  Hg  Hg6  1  0.666319  0.331724  0.000000  1
  Rh  Rh7  1  0.336200  0.670189  0.000000  1
  Rh  Rh8  1  0.998634  0.000041  0.500000  1
