# generated using pymatgen
data_Dy11Ho(TcRu)2
_symmetry_space_group_name_H-M   'P 1'
_cell_length_a   6.28045423
_cell_length_b   7.38775440
_cell_length_c   9.16024778
_cell_angle_alpha   90.03694142
_cell_angle_beta   90.02977566
_cell_angle_gamma   90.00734917
_symmetry_Int_Tables_number   1
_chemical_formula_structural   Dy11Ho(TcRu)2
_chemical_formula_sum   'Dy11 Ho1 Tc2 Ru2'
_cell_volume   425.02118010
_cell_formula_units_Z   1
loop_
 _symmetry_equiv_pos_site_id
 _symmetry_equiv_pos_as_xyz
  1  'x, y, z'
loop_
 _atom_site_type_symbol
 _atom_site_label
 _atom_site_symmetry_multiplicity
 _atom_site_fract_x
 _atom_site_fract_y
 _atom_site_fract_z
 _atom_site_occupancy
  Dy  Dy0  1  0.334329  0.676444  0.063803  1
  Dy  Dy1  1  0.165436  0.176239  0.435844  1
  Dy  Dy2  1  0.664334  0.324315  0.562679  1
  Dy  Dy3  1  0.835739  0.824587  0.937492  1
  Dy  Dy4  1  0.664302  0.324172  0.937478  1
  Dy  Dy5  1  0.835519  0.824391  0.562692  1
  Dy  Dy6  1  0.334555  0.676348  0.436089  1
  Dy  Dy7  1  0.875175  0.539946  0.249828  1
  Dy  Dy8  1  0.624732  0.040225  0.249767  1
  Dy  Dy9  1  0.132398  0.456971  0.750191  1
  Dy  Dy10  1  0.367682  0.957324  0.750224  1
  Ho  Ho11  1  0.165591  0.176247  0.063954  1
  Tc  Tc12  1  0.038443  0.885661  0.249934  1
  Tc  Tc13  1  0.461486  0.385147  0.249813  1
  Ru  Ru14  1  0.961409  0.116001  0.750292  1
  Ru  Ru15  1  0.538870  0.615984  0.749921  1
