# generated using pymatgen
data_NdAgPtRhO7
_symmetry_space_group_name_H-M   'P 1'
_cell_length_a   7.47418681
_cell_length_b   7.30106517
_cell_length_c   7.30106352
_cell_angle_alpha   59.03764279
_cell_angle_beta   59.21245988
_cell_angle_gamma   59.21246838
_symmetry_Int_Tables_number   1
_chemical_formula_structural   NdAgPtRhO7
_chemical_formula_sum   'Nd2 Ag2 Pt2 Rh2 O14'
_cell_volume   276.29015439
_cell_formula_units_Z   2
loop_
 _symmetry_equiv_pos_site_id
 _symmetry_equiv_pos_as_xyz
  1  'x, y, z'
loop_
 _atom_site_type_symbol
 _atom_site_label
 _atom_site_symmetry_multiplicity
 _atom_site_fract_x
 _atom_site_fract_y
 _atom_site_fract_z
 _atom_site_occupancy
  Nd  Nd0  1  0.125000  0.625000  0.625000  1
  Nd  Nd1  1  0.625000  0.625000  0.625000  1
  Ag  Ag2  1  0.625000  0.625000  0.125000  1
  Ag  Ag3  1  0.625000  0.125000  0.625000  1
  Pt  Pt4  1  0.125000  0.125000  0.625000  1
  Pt  Pt5  1  0.125000  0.625000  0.125000  1
  Rh  Rh6  1  0.625000  0.125000  0.125000  1
  Rh  Rh7  1  0.125000  0.125000  0.125000  1
  O  O8  1  0.518270  0.481730  0.481730  1
  O  O9  1  0.731730  0.768270  0.768270  1
  O  O10  1  0.452088  0.041527  0.455601  1
  O  O11  1  0.199215  0.794399  0.208473  1
  O  O12  1  0.452088  0.455601  0.041527  1
  O  O13  1  0.034098  0.465902  0.465902  1
  O  O14  1  0.444302  0.055698  0.055698  1
  O  O15  1  0.050785  0.041527  0.455601  1
  O  O16  1  0.050785  0.455601  0.041527  1
  O  O17  1  0.805698  0.194302  0.194302  1
  O  O18  1  0.215902  0.784098  0.784098  1
  O  O19  1  0.797912  0.208473  0.794399  1
  O  O20  1  0.199215  0.208473  0.794399  1
  O  O21  1  0.797912  0.794399  0.208473  1
