# generated using pymatgen
data_Rb2Mn(FeS2)3
_symmetry_space_group_name_H-M   'P 1'
_cell_length_a   7.45250409
_cell_length_b   7.45250354
_cell_length_c   5.23939104
_cell_angle_alpha   89.88979995
_cell_angle_beta   90.11020448
_cell_angle_gamma   102.59249347
_symmetry_Int_Tables_number   1
_chemical_formula_structural   Rb2Mn(FeS2)3
_chemical_formula_sum   'Rb2 Mn1 Fe3 S6'
_cell_volume   283.99415364
_cell_formula_units_Z   1
loop_
 _symmetry_equiv_pos_site_id
 _symmetry_equiv_pos_as_xyz
  1  'x, y, z'
loop_
 _atom_site_type_symbol
 _atom_site_label
 _atom_site_symmetry_multiplicity
 _atom_site_fract_x
 _atom_site_fract_y
 _atom_site_fract_z
 _atom_site_occupancy
  Rb  Rb0  1  0.675151  0.324082  0.250205  1
  Rb  Rb1  1  0.324082  0.675151  0.749795  1
  Mn  Mn2  1  0.140407  0.140407  0.000000  1
  Fe  Fe3  1  0.857182  0.857182  0.000000  1
  Fe  Fe4  1  0.858524  0.858524  0.500000  1
  Fe  Fe5  1  0.141771  0.141771  0.500000  1
  S  S6  1  0.832187  0.631165  0.749524  1
  S  S7  1  0.168868  0.379490  0.249302  1
  S  S8  1  0.631165  0.832187  0.250476  1
  S  S9  1  0.379490  0.168868  0.750698  1
  S  S10  1  0.889119  0.102055  0.748505  1
  S  S11  1  0.102055  0.889119  0.251495  1
