# generated using pymatgen
data_Hg3(BS3)2
_symmetry_space_group_name_H-M   'P 1'
_cell_length_a   9.04380596
_cell_length_b   9.04380558
_cell_length_c   9.04380587
_cell_angle_alpha   71.07220416
_cell_angle_beta   71.07220349
_cell_angle_gamma   71.07220276
_symmetry_Int_Tables_number   1
_chemical_formula_structural   Hg3(BS3)2
_chemical_formula_sum   'Hg6 B4 S12'
_cell_volume   641.70626914
_cell_formula_units_Z   2
loop_
 _symmetry_equiv_pos_site_id
 _symmetry_equiv_pos_as_xyz
  1  'x, y, z'
loop_
 _atom_site_type_symbol
 _atom_site_label
 _atom_site_symmetry_multiplicity
 _atom_site_fract_x
 _atom_site_fract_y
 _atom_site_fract_z
 _atom_site_occupancy
  Hg  Hg0  1  0.750000  0.106676  0.393324  1
  Hg  Hg1  1  0.393324  0.750000  0.106676  1
  Hg  Hg2  1  0.106676  0.393324  0.750000  1
  Hg  Hg3  1  0.250000  0.893324  0.606676  1
  Hg  Hg4  1  0.606676  0.250000  0.893324  1
  Hg  Hg5  1  0.893324  0.606676  0.250000  1
  B  B6  1  0.094776  0.094776  0.094776  1
  B  B7  1  0.905224  0.905224  0.905224  1
  B  B8  1  0.594776  0.594776  0.594776  1
  B  B9  1  0.405224  0.405224  0.405224  1
  S  S10  1  0.706391  0.976386  0.027112  1
  S  S11  1  0.027112  0.706391  0.976386  1
  S  S12  1  0.976386  0.027112  0.706391  1
  S  S13  1  0.523614  0.793609  0.472888  1
  S  S14  1  0.793609  0.472888  0.523614  1
  S  S15  1  0.472888  0.523614  0.793609  1
  S  S16  1  0.972888  0.293609  0.023614  1
  S  S17  1  0.293609  0.023614  0.972888  1
  S  S18  1  0.023614  0.972888  0.293609  1
  S  S19  1  0.206391  0.527112  0.476386  1
  S  S20  1  0.527112  0.476386  0.206391  1
  S  S21  1  0.476386  0.206391  0.527112  1
