# generated using pymatgen
data_Ho16Sc4(Ir3Ru)3
_symmetry_space_group_name_H-M   'P 1'
_cell_length_a   10.67227600
_cell_length_b   10.67227600
_cell_length_c   6.29671300
_cell_angle_alpha   90.00000000
_cell_angle_beta   90.00000000
_cell_angle_gamma   90.00000000
_symmetry_Int_Tables_number   1
_chemical_formula_structural   Ho16Sc4(Ir3Ru)3
_chemical_formula_sum   'Ho16 Sc4 Ir9 Ru3'
_cell_volume   717.17971163
_cell_formula_units_Z   1
loop_
 _symmetry_equiv_pos_site_id
 _symmetry_equiv_pos_as_xyz
  1  'x, y, z'
loop_
 _atom_site_type_symbol
 _atom_site_label
 _atom_site_symmetry_multiplicity
 _atom_site_fract_x
 _atom_site_fract_y
 _atom_site_fract_z
 _atom_site_occupancy
  Ho  Ho0  1  0.290346  0.085368  0.376561  1
  Ho  Ho1  1  0.290423  0.914917  0.876932  1
  Ho  Ho2  1  0.709577  0.085083  0.876932  1
  Ho  Ho3  1  0.709654  0.914632  0.376561  1
  Ho  Ho4  1  0.585083  0.790423  0.876932  1
  Ho  Ho5  1  0.585368  0.209654  0.376561  1
  Ho  Ho6  1  0.414632  0.790346  0.376561  1
  Ho  Ho7  1  0.414917  0.209577  0.876932  1
  Ho  Ho8  1  0.211215  0.414132  0.624589  1
  Ho  Ho9  1  0.211081  0.585885  0.121773  1
  Ho  Ho10  1  0.788919  0.414115  0.121773  1
  Ho  Ho11  1  0.788785  0.585868  0.624589  1
  Ho  Ho12  1  0.914115  0.711081  0.121773  1
  Ho  Ho13  1  0.914132  0.288785  0.624589  1
  Ho  Ho14  1  0.085868  0.711215  0.624589  1
  Ho  Ho15  1  0.085885  0.288919  0.121773  1
  Sc  Sc16  1  0.000000  0.000000  0.499834  1
  Sc  Sc17  1  0.000000  0.000000  0.999703  1
  Sc  Sc18  1  0.500000  0.500000  0.999703  1
  Sc  Sc19  1  0.500000  0.500000  0.499834  1
  Ir  Ir20  1  0.853005  0.147261  0.250009  1
  Ir  Ir21  1  0.852668  0.852816  0.749695  1
  Ir  Ir22  1  0.147332  0.147184  0.749695  1
  Ir  Ir23  1  0.146995  0.852739  0.250009  1
  Ir  Ir24  1  0.647184  0.352668  0.749695  1
  Ir  Ir25  1  0.647261  0.646995  0.250009  1
  Ir  Ir26  1  0.352739  0.353005  0.250009  1
  Ir  Ir27  1  0.352816  0.647332  0.749695  1
  Ir  Ir28  1  0.000000  0.500000  0.378055  1
  Ru  Ru29  1  0.500000  0.000000  0.123477  1
  Ru  Ru30  1  0.500000  0.000000  0.623179  1
  Ru  Ru31  1  0.000000  0.500000  0.877978  1
