# generated using pymatgen
data_Li3Hf3Zr2(Co4P3)4
_symmetry_space_group_name_H-M   'P 1'
_cell_length_a   11.84969904
_cell_length_b   11.84969994
_cell_length_c   3.62639200
_cell_angle_alpha   90.00000000
_cell_angle_beta   90.00000000
_cell_angle_gamma   120.00990869
_symmetry_Int_Tables_number   1
_chemical_formula_structural   Li3Hf3Zr2(Co4P3)4
_chemical_formula_sum   'Li3 Hf3 Zr2 Co16 P12'
_cell_volume   440.93714106
_cell_formula_units_Z   1
loop_
 _symmetry_equiv_pos_site_id
 _symmetry_equiv_pos_as_xyz
  1  'x, y, z'
loop_
 _atom_site_type_symbol
 _atom_site_label
 _atom_site_symmetry_multiplicity
 _atom_site_fract_x
 _atom_site_fract_y
 _atom_site_fract_z
 _atom_site_occupancy
  Li  Li0  1  0.442204  0.442204  0.000000  1
  Li  Li1  1  0.557903  0.999987  0.000000  1
  Li  Li2  1  0.999987  0.557903  0.000000  1
  Hf  Hf3  1  0.666644  0.333289  0.000000  1
  Hf  Hf4  1  0.333289  0.666644  0.000000  1
  Hf  Hf5  1  0.811109  0.811109  0.500000  1
  Zr  Zr6  1  0.189075  0.999981  0.500000  1
  Zr  Zr7  1  0.999981  0.189075  0.500000  1
  Co  Co8  1  0.198181  0.377121  0.000000  1
  Co  Co9  1  0.178772  0.801782  0.000000  1
  Co  Co10  1  0.821138  0.623718  0.000000  1
  Co  Co11  1  0.801782  0.178772  0.000000  1
  Co  Co12  1  0.377121  0.198181  0.000000  1
  Co  Co13  1  0.127771  0.482677  0.500000  1
  Co  Co14  1  0.354866  0.872193  0.500000  1
  Co  Co15  1  0.517540  0.645320  0.500000  1
  Co  Co16  1  0.645320  0.517540  0.500000  1
  Co  Co17  1  0.872193  0.354866  0.500000  1
  Co  Co18  1  0.482677  0.127771  0.500000  1
  Co  Co19  1  0.999103  0.999103  0.000000  1
  Co  Co20  1  0.717174  0.999602  0.500000  1
  Co  Co21  1  0.999602  0.717174  0.500000  1
  Co  Co22  1  0.623718  0.821138  0.000000  1
  Co  Co23  1  0.282935  0.282935  0.500000  1
  P  P24  1  0.638039  0.638039  0.000000  1
  P  P25  1  0.362606  0.000020  0.000000  1
  P  P26  1  0.000020  0.362606  0.000000  1
  P  P27  1  0.484347  0.314669  0.500000  1
  P  P28  1  0.685358  0.169660  0.500000  1
  P  P29  1  0.830325  0.515517  0.500000  1
  P  P30  1  0.515517  0.830325  0.500000  1
  P  P31  1  0.169660  0.685358  0.500000  1
  P  P32  1  0.821770  0.999490  0.000000  1
  P  P33  1  0.999490  0.821770  0.000000  1
  P  P34  1  0.314669  0.484347  0.500000  1
  P  P35  1  0.178113  0.178113  0.000000  1
