# generated using pymatgen
data_Tm2UO6
_symmetry_space_group_name_H-M   'P 1'
_cell_length_a   6.38941468
_cell_length_b   6.38941489
_cell_length_c   6.38941502
_cell_angle_alpha   145.30316710
_cell_angle_beta   131.10156715
_cell_angle_gamma   61.34258690
_symmetry_Int_Tables_number   1
_chemical_formula_structural   Tm2UO6
_chemical_formula_sum   'Tm2 U1 O6'
_cell_volume   110.75371915
_cell_formula_units_Z   1
loop_
 _symmetry_equiv_pos_site_id
 _symmetry_equiv_pos_as_xyz
  1  'x, y, z'
loop_
 _atom_site_type_symbol
 _atom_site_label
 _atom_site_symmetry_multiplicity
 _atom_site_fract_x
 _atom_site_fract_y
 _atom_site_fract_z
 _atom_site_occupancy
  Tm  Tm0  1  0.333132  0.333132  0.000000  1
  Tm  Tm1  1  0.666868  0.666868  0.000000  1
  U  U2  1  0.000000  0.000000  0.000000  1
  O  O3  1  0.598608  0.841798  0.756811  1
  O  O4  1  0.401392  0.158202  0.243189  1
  O  O5  1  0.915012  0.158202  0.756811  1
  O  O6  1  0.236729  0.500000  0.736729  1
  O  O7  1  0.084988  0.841798  0.243189  1
  O  O8  1  0.763271  0.500000  0.263271  1
