# generated using pymatgen
data_HoEr11OsPd3
_symmetry_space_group_name_H-M   'P 1'
_cell_length_a   6.41717213
_cell_length_b   7.06847017
_cell_length_c   9.38613400
_cell_angle_alpha   90.00000000
_cell_angle_beta   90.00000000
_cell_angle_gamma   89.97614857
_symmetry_Int_Tables_number   1
_chemical_formula_structural   HoEr11OsPd3
_chemical_formula_sum   'Ho1 Er11 Os1 Pd3'
_cell_volume   425.75115056
_cell_formula_units_Z   1
loop_
 _symmetry_equiv_pos_site_id
 _symmetry_equiv_pos_as_xyz
  1  'x, y, z'
loop_
 _atom_site_type_symbol
 _atom_site_label
 _atom_site_symmetry_multiplicity
 _atom_site_fract_x
 _atom_site_fract_y
 _atom_site_fract_z
 _atom_site_occupancy
  Ho  Ho0  1  0.874245  0.524034  0.250000  1
  Er  Er1  1  0.329913  0.683953  0.051937  1
  Er  Er2  1  0.173605  0.182611  0.440969  1
  Er  Er3  1  0.673673  0.321238  0.562404  1
  Er  Er4  1  0.818368  0.814048  0.937314  1
  Er  Er5  1  0.673673  0.321238  0.937596  1
  Er  Er6  1  0.818368  0.814048  0.562686  1
  Er  Er7  1  0.329913  0.683953  0.448063  1
  Er  Er8  1  0.173605  0.182611  0.059031  1
  Er  Er9  1  0.630691  0.028978  0.250000  1
  Er  Er10  1  0.127404  0.476610  0.750000  1
  Er  Er11  1  0.378216  0.964238  0.750000  1
  Os  Os12  1  0.543657  0.609689  0.750000  1
  Pd  Pd13  1  0.054869  0.889505  0.250000  1
  Pd  Pd14  1  0.444171  0.393696  0.250000  1
  Pd  Pd15  1  0.955630  0.109552  0.750000  1
