# generated using pymatgen
data_TmIn6IrBr12
_symmetry_space_group_name_H-M   'P 1'
_cell_length_a   9.20522760
_cell_length_b   9.20522769
_cell_length_c   9.20522702
_cell_angle_alpha   104.96153405
_cell_angle_beta   104.96154043
_cell_angle_gamma   104.96154243
_symmetry_Int_Tables_number   1
_chemical_formula_structural   TmIn6IrBr12
_chemical_formula_sum   'Tm1 In6 Ir1 Br12'
_cell_volume   682.51571523
_cell_formula_units_Z   1
loop_
 _symmetry_equiv_pos_site_id
 _symmetry_equiv_pos_as_xyz
  1  'x, y, z'
loop_
 _atom_site_type_symbol
 _atom_site_label
 _atom_site_symmetry_multiplicity
 _atom_site_fract_x
 _atom_site_fract_y
 _atom_site_fract_z
 _atom_site_occupancy
  Tm  Tm0  1  0.500000  0.500000  0.500000  1
  In  In1  1  0.047170  0.063936  0.310019  1
  In  In2  1  0.310019  0.047170  0.063936  1
  In  In3  1  0.063936  0.310019  0.047170  1
  In  In4  1  0.952830  0.936064  0.689981  1
  In  In5  1  0.689981  0.952830  0.936064  1
  In  In6  1  0.936064  0.689981  0.952830  1
  Ir  Ir7  1  0.000000  0.000000  0.000000  1
  Br  Br8  1  0.982385  0.559368  0.193493  1
  Br  Br9  1  0.193493  0.982385  0.559368  1
  Br  Br10  1  0.559368  0.193493  0.982385  1
  Br  Br11  1  0.017615  0.440632  0.806507  1
  Br  Br12  1  0.806507  0.017615  0.440632  1
  Br  Br13  1  0.440632  0.806507  0.017615  1
  Br  Br14  1  0.493452  0.187435  0.388371  1
  Br  Br15  1  0.388371  0.493452  0.187435  1
  Br  Br16  1  0.187435  0.388371  0.493452  1
  Br  Br17  1  0.506548  0.812565  0.611629  1
  Br  Br18  1  0.611629  0.506548  0.812565  1
  Br  Br19  1  0.812565  0.611629  0.506548  1
