# generated using pymatgen
data_Hf2InCoPd
_symmetry_space_group_name_H-M   'P 1'
_cell_length_a   7.45358027
_cell_length_b   7.45358027
_cell_length_c   3.24680900
_cell_angle_alpha   90.00000000
_cell_angle_beta   90.00000000
_cell_angle_gamma   88.42025311
_symmetry_Int_Tables_number   1
_chemical_formula_structural   Hf2InCoPd
_chemical_formula_sum   'Hf4 In2 Co2 Pd2'
_cell_volume   180.31070430
_cell_formula_units_Z   2
loop_
 _symmetry_equiv_pos_site_id
 _symmetry_equiv_pos_as_xyz
  1  'x, y, z'
loop_
 _atom_site_type_symbol
 _atom_site_label
 _atom_site_symmetry_multiplicity
 _atom_site_fract_x
 _atom_site_fract_y
 _atom_site_fract_z
 _atom_site_occupancy
  Hf  Hf0  1  0.184139  0.315861  0.000000  1
  Hf  Hf1  1  0.815861  0.684139  0.000000  1
  Hf  Hf2  1  0.650949  0.150949  0.000000  1
  Hf  Hf3  1  0.349051  0.849051  0.000000  1
  In  In4  1  0.000000  0.000000  0.500000  1
  In  In5  1  0.500000  0.500000  0.500000  1
  Co  Co6  1  0.373972  0.126028  0.500000  1
  Co  Co7  1  0.626028  0.873972  0.500000  1
  Pd  Pd8  1  0.870156  0.370156  0.500000  1
  Pd  Pd9  1  0.129844  0.629844  0.500000  1
