# generated using pymatgen
data_Nd12Ir2OsRh
_symmetry_space_group_name_H-M   'P 1'
_cell_length_a   6.52302354
_cell_length_b   7.42405511
_cell_length_c   9.86012400
_cell_angle_alpha   90.00000000
_cell_angle_beta   90.00000000
_cell_angle_gamma   90.26624755
_symmetry_Int_Tables_number   1
_chemical_formula_structural   Nd12Ir2OsRh
_chemical_formula_sum   'Nd12 Ir2 Os1 Rh1'
_cell_volume   477.49389224
_cell_formula_units_Z   1
loop_
 _symmetry_equiv_pos_site_id
 _symmetry_equiv_pos_as_xyz
  1  'x, y, z'
loop_
 _atom_site_type_symbol
 _atom_site_label
 _atom_site_symmetry_multiplicity
 _atom_site_fract_x
 _atom_site_fract_y
 _atom_site_fract_z
 _atom_site_occupancy
  Nd  Nd0  1  0.330287  0.674110  0.066991  1
  Nd  Nd1  1  0.171871  0.177757  0.433278  1
  Nd  Nd2  1  0.669542  0.324409  0.563600  1
  Nd  Nd3  1  0.830076  0.824167  0.933249  1
  Nd  Nd4  1  0.669542  0.324409  0.936400  1
  Nd  Nd5  1  0.830076  0.824167  0.566751  1
  Nd  Nd6  1  0.330287  0.674110  0.433009  1
  Nd  Nd7  1  0.171871  0.177757  0.066722  1
  Nd  Nd8  1  0.856868  0.533061  0.250000  1
  Nd  Nd9  1  0.639061  0.037304  0.250000  1
  Nd  Nd10  1  0.139981  0.464757  0.750000  1
  Nd  Nd11  1  0.358710  0.964215  0.750000  1
  Ir  Ir12  1  0.937985  0.117464  0.750000  1
  Ir  Ir13  1  0.560038  0.617595  0.750000  1
  Os  Os14  1  0.443054  0.382418  0.250000  1
  Rh  Rh15  1  0.060750  0.882303  0.250000  1
