# generated using pymatgen
data_Th4Zn3CuGe4
_symmetry_space_group_name_H-M   'P 1'
_cell_length_a   4.21328000
_cell_length_b   4.21328042
_cell_length_c   16.80469100
_cell_angle_alpha   90.00000000
_cell_angle_beta   90.00000000
_cell_angle_gamma   119.99999669
_symmetry_Int_Tables_number   1
_chemical_formula_structural   Th4Zn3CuGe4
_chemical_formula_sum   'Th4 Zn3 Cu1 Ge4'
_cell_volume   258.34607299
_cell_formula_units_Z   1
loop_
 _symmetry_equiv_pos_site_id
 _symmetry_equiv_pos_as_xyz
  1  'x, y, z'
loop_
 _atom_site_type_symbol
 _atom_site_label
 _atom_site_symmetry_multiplicity
 _atom_site_fract_x
 _atom_site_fract_y
 _atom_site_fract_z
 _atom_site_occupancy
  Th  Th0  1  0.333333  0.666667  0.121066  1
  Th  Th1  1  0.333333  0.666667  0.625491  1
  Th  Th2  1  0.333333  0.666667  0.374509  1
  Th  Th3  1  0.333333  0.666667  0.878934  1
  Zn  Zn4  1  0.666667  0.333333  0.500000  1
  Zn  Zn5  1  0.000000  0.000000  0.241105  1
  Zn  Zn6  1  0.000000  0.000000  0.758895  1
  Cu  Cu7  1  0.000000  0.000000  0.000000  1
  Ge  Ge8  1  0.666667  0.333333  0.251903  1
  Ge  Ge9  1  0.666667  0.333333  0.748097  1
  Ge  Ge10  1  0.000000  0.000000  0.500000  1
  Ge  Ge11  1  0.666667  0.333333  0.000000  1
