# generated using pymatgen
data_Er3TmRe7Mo
_symmetry_space_group_name_H-M   'P 1'
_cell_length_a   5.42462900
_cell_length_b   5.42462967
_cell_length_c   8.82844200
_cell_angle_alpha   90.00000000
_cell_angle_beta   90.00000000
_cell_angle_gamma   120.00000204
_symmetry_Int_Tables_number   1
_chemical_formula_structural   Er3TmRe7Mo
_chemical_formula_sum   'Er3 Tm1 Re7 Mo1'
_cell_volume   224.98565419
_cell_formula_units_Z   1
loop_
 _symmetry_equiv_pos_site_id
 _symmetry_equiv_pos_as_xyz
  1  'x, y, z'
loop_
 _atom_site_type_symbol
 _atom_site_label
 _atom_site_symmetry_multiplicity
 _atom_site_fract_x
 _atom_site_fract_y
 _atom_site_fract_z
 _atom_site_occupancy
  Er  Er0  1  0.333333  0.666667  0.436389  1
  Er  Er1  1  0.666667  0.333333  0.563583  1
  Er  Er2  1  0.666667  0.333333  0.937539  1
  Tm  Tm3  1  0.333333  0.666667  0.062497  1
  Re  Re4  1  0.000000  0.000000  0.999995  1
  Re  Re5  1  0.828038  0.171962  0.248737  1
  Re  Re6  1  0.828038  0.656076  0.248737  1
  Re  Re7  1  0.343924  0.171962  0.248737  1
  Re  Re8  1  0.171976  0.828024  0.751272  1
  Re  Re9  1  0.171976  0.343953  0.751272  1
  Re  Re10  1  0.656047  0.828024  0.751272  1
  Mo  Mo11  1  0.000000  0.000000  0.499972  1
