# generated using pymatgen
data_Ca3Dy12Nb5(ReN4)12
_symmetry_space_group_name_H-M   'P 1'
_cell_length_a   11.22705158
_cell_length_b   11.23139819
_cell_length_c   11.22572072
_cell_angle_alpha   109.55651498
_cell_angle_beta   109.73914277
_cell_angle_gamma   109.58673239
_symmetry_Int_Tables_number   1
_chemical_formula_structural   Ca3Dy12Nb5(ReN4)12
_chemical_formula_sum   'Ca3 Dy12 Nb5 Re12 N48'
_cell_volume   1083.31058429
_cell_formula_units_Z   1
loop_
 _symmetry_equiv_pos_site_id
 _symmetry_equiv_pos_as_xyz
  1  'x, y, z'
loop_
 _atom_site_type_symbol
 _atom_site_label
 _atom_site_symmetry_multiplicity
 _atom_site_fract_x
 _atom_site_fract_y
 _atom_site_fract_z
 _atom_site_occupancy
  Ca  Ca0  1  0.500002  0.500001  0.000003  1
  Ca  Ca1  1  0.000000  0.000000  0.499998  1
  Ca  Ca2  1  0.499999  0.999997  0.499999  1
  Dy  Dy3  1  0.246158  0.373083  0.123079  1
  Dy  Dy4  1  0.378669  0.752134  0.125783  1
  Dy  Dy5  1  0.371323  0.128288  0.248796  1
  Dy  Dy6  1  0.879394  0.622966  0.251609  1
  Dy  Dy7  1  0.747920  0.124986  0.371492  1
  Dy  Dy8  1  0.129291  0.253862  0.375643  1
  Dy  Dy9  1  0.870710  0.746140  0.624357  1
  Dy  Dy10  1  0.252078  0.875014  0.628509  1
  Dy  Dy11  1  0.120609  0.377035  0.748393  1
  Dy  Dy12  1  0.628679  0.871714  0.751205  1
  Dy  Dy13  1  0.621333  0.247867  0.874217  1
  Dy  Dy14  1  0.753843  0.626916  0.876921  1
  Nb  Nb15  1  0.000000  0.000000  0.000001  1
  Nb  Nb16  1  0.500000  0.000000  0.999995  1
  Nb  Nb17  1  0.000002  0.499999  0.000001  1
  Nb  Nb18  1  0.000001  0.500000  0.499999  1
  Nb  Nb19  1  0.500001  0.500001  0.500002  1
  Re  Re20  1  0.876860  0.252140  0.125183  1
  Re  Re21  1  0.751940  0.881370  0.120929  1
  Re  Re22  1  0.627363  0.373183  0.250601  1
  Re  Re23  1  0.122474  0.870796  0.242423  1
  Re  Re24  1  0.245179  0.620181  0.377163  1
  Re  Re25  1  0.619018  0.743539  0.372454  1
  Re  Re26  1  0.380985  0.256462  0.627549  1
  Re  Re27  1  0.754822  0.379815  0.622837  1
  Re  Re28  1  0.877525  0.129203  0.757576  1
  Re  Re29  1  0.372637  0.626817  0.749402  1
  Re  Re30  1  0.248046  0.118629  0.879054  1
  Re  Re31  1  0.123142  0.747857  0.874816  1
  N  N32  1  0.311927  0.898565  0.010232  1
  N  N33  1  0.209737  0.121420  0.029521  1
  N  N34  1  0.882863  0.400721  0.085159  1
  N  N35  1  0.732439  0.708589  0.102266  1
  N  N36  1  0.632866  0.403810  0.103815  1
  N  N37  1  0.974615  0.682052  0.092687  1
  N  N38  1  0.593351  0.906438  0.113854  1
  N  N39  1  0.017875  0.202657  0.116435  1
  N  N40  1  0.202387  0.591451  0.191818  1
  N  N41  1  0.460130  0.596350  0.194402  1
  N  N42  1  0.114103  0.021317  0.208221  1
  N  N43  1  0.585705  0.184342  0.206640  1
  N  N44  1  0.484452  0.385575  0.296259  1
  N  N45  1  0.299993  0.903301  0.265244  1
  N  N46  1  0.898751  0.035379  0.299975  1
  N  N47  1  0.914870  0.300294  0.313135  1
  N  N48  1  0.291598  0.475308  0.377972  1
  N  N49  1  0.602711  0.899000  0.369685  1
  N  N50  1  0.813609  0.515303  0.404263  1
  N  N51  1  0.102187  0.869775  0.396045  1
  N  N52  1  0.094300  0.618125  0.412442  1
  N  N53  1  0.794113  0.760612  0.396463  1
  N  N54  1  0.604405  0.202139  0.474393  1
  N  N55  1  0.381801  0.289448  0.472790  1
  N  N56  1  0.618198  0.710553  0.527209  1
  N  N57  1  0.395597  0.797863  0.525612  1
  N  N58  1  0.205887  0.239389  0.603536  1
  N  N59  1  0.905698  0.381877  0.587560  1
  N  N60  1  0.897813  0.130224  0.603952  1
  N  N61  1  0.186392  0.484698  0.595737  1
  N  N62  1  0.397291  0.101003  0.630317  1
  N  N63  1  0.708403  0.524690  0.622031  1
  N  N64  1  0.085134  0.699706  0.686867  1
  N  N65  1  0.101246  0.964620  0.700021  1
  N  N66  1  0.700007  0.096698  0.734755  1
  N  N67  1  0.515544  0.614421  0.703737  1
  N  N68  1  0.414294  0.815659  0.793360  1
  N  N69  1  0.885893  0.978682  0.791779  1
  N  N70  1  0.539871  0.403652  0.805601  1
  N  N71  1  0.797614  0.408550  0.808186  1
  N  N72  1  0.406638  0.093563  0.886153  1
  N  N73  1  0.982129  0.797342  0.883565  1
  N  N74  1  0.025383  0.317946  0.907312  1
  N  N75  1  0.367137  0.596189  0.896184  1
  N  N76  1  0.267561  0.291414  0.897735  1
  N  N77  1  0.117136  0.599278  0.914842  1
  N  N78  1  0.688069  0.101433  0.989768  1
  N  N79  1  0.790263  0.878576  0.970471  1
