# generated using pymatgen
data_Er2Lu3SiPb3
_symmetry_space_group_name_H-M   'P 1'
_cell_length_a   9.19185991
_cell_length_b   9.19185899
_cell_length_c   6.42026700
_cell_angle_alpha   90.00000000
_cell_angle_beta   90.00000000
_cell_angle_gamma   120.12990579
_symmetry_Int_Tables_number   1
_chemical_formula_structural   Er2Lu3SiPb3
_chemical_formula_sum   'Er4 Lu6 Si2 Pb6'
_cell_volume   469.15946510
_cell_formula_units_Z   2
loop_
 _symmetry_equiv_pos_site_id
 _symmetry_equiv_pos_as_xyz
  1  'x, y, z'
loop_
 _atom_site_type_symbol
 _atom_site_label
 _atom_site_symmetry_multiplicity
 _atom_site_fract_x
 _atom_site_fract_y
 _atom_site_fract_z
 _atom_site_occupancy
  Er  Er0  1  0.249261  0.999982  0.750000  1
  Er  Er1  1  0.750739  0.000018  0.250000  1
  Er  Er2  1  0.999982  0.249261  0.750000  1
  Er  Er3  1  0.000018  0.750739  0.250000  1
  Lu  Lu4  1  0.751634  0.751634  0.750000  1
  Lu  Lu5  1  0.248366  0.248366  0.250000  1
  Lu  Lu6  1  0.333340  0.666660  0.500000  1
  Lu  Lu7  1  0.666660  0.333340  0.500000  1
  Lu  Lu8  1  0.666660  0.333340  0.000000  1
  Lu  Lu9  1  0.333340  0.666660  0.000000  1
  Si  Si10  1  0.000000  0.000000  0.500000  1
  Si  Si11  1  0.000000  0.000000  0.000000  1
  Pb  Pb12  1  0.605841  0.999502  0.750000  1
  Pb  Pb13  1  0.394159  0.000498  0.250000  1
  Pb  Pb14  1  0.999502  0.605841  0.750000  1
  Pb  Pb15  1  0.000498  0.394159  0.250000  1
  Pb  Pb16  1  0.395121  0.395121  0.750000  1
  Pb  Pb17  1  0.604879  0.604879  0.250000  1
