# generated using pymatgen
data_TbY7(Sc3Si4)4
_symmetry_space_group_name_H-M   'P 1'
_cell_length_a   7.10000502
_cell_length_b   7.38477208
_cell_length_c   14.00291420
_cell_angle_alpha   90.01688664
_cell_angle_beta   89.99076868
_cell_angle_gamma   89.99912267
_symmetry_Int_Tables_number   1
_chemical_formula_structural   TbY7(Sc3Si4)4
_chemical_formula_sum   'Tb1 Y7 Sc12 Si16'
_cell_volume   734.19961959
_cell_formula_units_Z   1
loop_
 _symmetry_equiv_pos_site_id
 _symmetry_equiv_pos_as_xyz
  1  'x, y, z'
loop_
 _atom_site_type_symbol
 _atom_site_label
 _atom_site_symmetry_multiplicity
 _atom_site_fract_x
 _atom_site_fract_y
 _atom_site_fract_z
 _atom_site_occupancy
  Tb  Tb0  1  0.487819  0.674754  0.597169  1
  Y  Y1  1  0.012054  0.174735  0.097180  1
  Y  Y2  1  0.987971  0.825265  0.902900  1
  Y  Y3  1  0.487997  0.674727  0.902753  1
  Y  Y4  1  0.988007  0.825341  0.597140  1
  Y  Y5  1  0.512011  0.325259  0.097192  1
  Y  Y6  1  0.011991  0.174810  0.402766  1
  Y  Y7  1  0.512062  0.325323  0.402800  1
  Sc  Sc8  1  0.160718  0.502213  0.749993  1
  Sc  Sc9  1  0.839324  0.497830  0.250027  1
  Sc  Sc10  1  0.339387  0.002181  0.249995  1
  Sc  Sc11  1  0.660681  0.997756  0.750018  1
  Sc  Sc12  1  0.330541  0.176720  0.625155  1
  Sc  Sc13  1  0.669515  0.823258  0.374874  1
  Sc  Sc14  1  0.169202  0.676787  0.374749  1
  Sc  Sc15  1  0.669398  0.823092  0.125195  1
  Sc  Sc16  1  0.830574  0.323088  0.625141  1
  Sc  Sc17  1  0.330691  0.176758  0.874864  1
  Sc  Sc18  1  0.830577  0.323225  0.874877  1
  Sc  Sc19  1  0.169350  0.676832  0.125211  1
  Si  Si20  1  0.033557  0.118424  0.750007  1
  Si  Si21  1  0.966506  0.881576  0.249959  1
  Si  Si22  1  0.466448  0.618519  0.249983  1
  Si  Si23  1  0.533550  0.381381  0.750016  1
  Si  Si24  1  0.285480  0.874840  0.750025  1
  Si  Si25  1  0.714463  0.125291  0.250026  1
  Si  Si26  1  0.214497  0.374770  0.249985  1
  Si  Si27  1  0.785649  0.625181  0.750130  1
  Si  Si28  1  0.156977  0.464357  0.539478  1
  Si  Si29  1  0.842966  0.535659  0.460450  1
  Si  Si30  1  0.342782  0.964454  0.460445  1
  Si  Si31  1  0.842866  0.535630  0.039543  1
  Si  Si32  1  0.657167  0.035679  0.539430  1
  Si  Si33  1  0.157225  0.464347  0.960490  1
  Si  Si34  1  0.657090  0.035620  0.960491  1
  Si  Si35  1  0.342905  0.964318  0.039543  1
