# generated using pymatgen
data_Hf3Nb2B4Ru10W
_symmetry_space_group_name_H-M   'P 1'
_cell_length_a   9.45778601
_cell_length_b   9.45257492
_cell_length_c   3.07658500
_cell_angle_alpha   90.00000000
_cell_angle_beta   90.00000000
_cell_angle_gamma   89.96038442
_symmetry_Int_Tables_number   1
_chemical_formula_structural   Hf3Nb2B4Ru10W
_chemical_formula_sum   'Hf3 Nb2 B4 Ru10 W1'
_cell_volume   275.04795894
_cell_formula_units_Z   1
loop_
 _symmetry_equiv_pos_site_id
 _symmetry_equiv_pos_as_xyz
  1  'x, y, z'
loop_
 _atom_site_type_symbol
 _atom_site_label
 _atom_site_symmetry_multiplicity
 _atom_site_fract_x
 _atom_site_fract_y
 _atom_site_fract_z
 _atom_site_occupancy
  Hf  Hf0  1  0.825188  0.676375  0.000000  1
  Hf  Hf1  1  0.175979  0.324569  0.000000  1
  Hf  Hf2  1  0.324257  0.824896  0.000000  1
  Nb  Nb3  1  0.676704  0.175772  0.000000  1
  Nb  Nb4  1  0.000140  0.999829  0.000000  1
  B  B5  1  0.621909  0.880140  0.000000  1
  B  B6  1  0.377977  0.120087  0.000000  1
  B  B7  1  0.119680  0.621660  0.000000  1
  B  B8  1  0.879540  0.377504  0.000000  1
  Ru  Ru9  1  0.569475  0.715878  0.500000  1
  Ru  Ru10  1  0.432700  0.283428  0.500000  1
  Ru  Ru11  1  0.072360  0.781258  0.500000  1
  Ru  Ru12  1  0.924483  0.217565  0.500000  1
  Ru  Ru13  1  0.284102  0.568724  0.500000  1
  Ru  Ru14  1  0.714689  0.428090  0.500000  1
  Ru  Ru15  1  0.218846  0.072832  0.500000  1
  Ru  Ru16  1  0.780428  0.929389  0.500000  1
  Ru  Ru17  1  0.502498  0.002636  0.500000  1
  Ru  Ru18  1  0.999334  0.499158  0.500000  1
  W  W19  1  0.499711  0.500211  0.000000  1
