# generated using pymatgen
data_La2Pa(InPt)3
_symmetry_space_group_name_H-M   'P 1'
_cell_length_a   7.73846122
_cell_length_b   7.73846111
_cell_length_c   4.09996000
_cell_angle_alpha   90.00000000
_cell_angle_beta   90.00000000
_cell_angle_gamma   119.82313135
_symmetry_Int_Tables_number   1
_chemical_formula_structural   La2Pa(InPt)3
_chemical_formula_sum   'La2 Pa1 In3 Pt3'
_cell_volume   213.00545696
_cell_formula_units_Z   1
loop_
 _symmetry_equiv_pos_site_id
 _symmetry_equiv_pos_as_xyz
  1  'x, y, z'
loop_
 _atom_site_type_symbol
 _atom_site_label
 _atom_site_symmetry_multiplicity
 _atom_site_fract_x
 _atom_site_fract_y
 _atom_site_fract_z
 _atom_site_occupancy
  La  La0  1  0.997184  0.587153  0.500000  1
  La  La1  1  0.587153  0.997184  0.500000  1
  Pa  Pa2  1  0.413003  0.413003  0.500000  1
  In  In3  1  0.757135  0.757135  0.000000  1
  In  In4  1  0.251345  0.992967  0.000000  1
  In  In5  1  0.992967  0.251345  0.000000  1
  Pt  Pt6  1  0.638350  0.338666  0.000000  1
  Pt  Pt7  1  0.338666  0.638350  0.000000  1
  Pt  Pt8  1  0.024199  0.024199  0.500000  1
