# generated using pymatgen
data_Hf3U2Co9As7
_symmetry_space_group_name_H-M   'P 1'
_cell_length_a   3.83867700
_cell_length_b   9.71968974
_cell_length_c   9.71969000
_cell_angle_alpha   119.99999682
_cell_angle_beta   90.00000000
_cell_angle_gamma   90.00000000
_symmetry_Int_Tables_number   1
_chemical_formula_structural   Hf3U2Co9As7
_chemical_formula_sum   'Hf3 U2 Co9 As7'
_cell_volume   314.06318595
_cell_formula_units_Z   1
loop_
 _symmetry_equiv_pos_site_id
 _symmetry_equiv_pos_as_xyz
  1  'x, y, z'
loop_
 _atom_site_type_symbol
 _atom_site_label
 _atom_site_symmetry_multiplicity
 _atom_site_fract_x
 _atom_site_fract_y
 _atom_site_fract_z
 _atom_site_occupancy
  Hf  Hf0  1  0.500000  0.769113  0.888244  1
  Hf  Hf1  1  0.500000  0.119129  0.230887  1
  Hf  Hf2  1  0.500000  0.111756  0.880871  1
  U  U3  1  0.000000  0.666667  0.333333  1
  U  U4  1  0.500000  0.333333  0.666667  1
  Co  Co5  1  0.000000  0.577086  0.936293  1
  Co  Co6  1  0.000000  0.359207  0.422914  1
  Co  Co7  1  0.000000  0.063707  0.640793  1
  Co  Co8  1  0.000000  0.877523  0.162359  1
  Co  Co9  1  0.000000  0.284835  0.122477  1
  Co  Co10  1  0.000000  0.837641  0.715165  1
  Co  Co11  1  0.500000  0.947473  0.389701  1
  Co  Co12  1  0.500000  0.442227  0.052527  1
  Co  Co13  1  0.500000  0.610299  0.557773  1
  As  As14  1  0.000000  0.000000  0.000000  1
  As  As15  1  0.500000  0.713117  0.131704  1
  As  As16  1  0.500000  0.418586  0.286883  1
  As  As17  1  0.500000  0.868296  0.581414  1
  As  As18  1  0.000000  0.573770  0.681473  1
  As  As19  1  0.000000  0.107703  0.426230  1
  As  As20  1  0.000000  0.318527  0.892297  1
