# generated using pymatgen
data_Tm8Sc12Si11Ge5
_symmetry_space_group_name_H-M   'P 1'
_cell_length_a   7.09485964
_cell_length_b   7.36326648
_cell_length_c   13.95107729
_cell_angle_alpha   89.97779097
_cell_angle_beta   89.34433024
_cell_angle_gamma   90.03500757
_symmetry_Int_Tables_number   1
_chemical_formula_structural   Tm8Sc12Si11Ge5
_chemical_formula_sum   'Tm8 Sc12 Si11 Ge5'
_cell_volume   728.77508818
_cell_formula_units_Z   1
loop_
 _symmetry_equiv_pos_site_id
 _symmetry_equiv_pos_as_xyz
  1  'x, y, z'
loop_
 _atom_site_type_symbol
 _atom_site_label
 _atom_site_symmetry_multiplicity
 _atom_site_fract_x
 _atom_site_fract_y
 _atom_site_fract_z
 _atom_site_occupancy
  Tm  Tm0  1  0.011977  0.175742  0.096299  1
  Tm  Tm1  1  0.989621  0.824049  0.903094  1
  Tm  Tm2  1  0.488093  0.677299  0.902810  1
  Tm  Tm3  1  0.993854  0.821037  0.598829  1
  Tm  Tm4  1  0.508324  0.322256  0.096583  1
  Tm  Tm5  1  0.005927  0.178736  0.401372  1
  Tm  Tm6  1  0.505440  0.321217  0.401292  1
  Tm  Tm7  1  0.494313  0.678581  0.598996  1
  Sc  Sc8  1  0.164819  0.502278  0.751088  1
  Sc  Sc9  1  0.835401  0.497731  0.250326  1
  Sc  Sc10  1  0.335501  0.002596  0.249171  1
  Sc  Sc11  1  0.664410  0.997703  0.750955  1
  Sc  Sc12  1  0.337311  0.171943  0.627093  1
  Sc  Sc13  1  0.662921  0.828578  0.372869  1
  Sc  Sc14  1  0.162849  0.671764  0.372898  1
  Sc  Sc15  1  0.666589  0.826136  0.125643  1
  Sc  Sc16  1  0.837348  0.328171  0.627181  1
  Sc  Sc17  1  0.332076  0.175813  0.874695  1
  Sc  Sc18  1  0.832994  0.322590  0.874847  1
  Sc  Sc19  1  0.169466  0.676385  0.124631  1
  Si  Si20  1  0.035755  0.113758  0.751253  1
  Si  Si21  1  0.964333  0.885526  0.248329  1
  Si  Si22  1  0.464276  0.614047  0.248633  1
  Si  Si23  1  0.536437  0.385565  0.751403  1
  Si  Si24  1  0.288302  0.869552  0.751007  1
  Si  Si25  1  0.711723  0.131068  0.248757  1
  Si  Si26  1  0.210912  0.369594  0.248634  1
  Si  Si27  1  0.788881  0.630237  0.751495  1
  Si  Si28  1  0.164162  0.463971  0.959847  1
  Si  Si29  1  0.658751  0.034491  0.960428  1
  Si  Si30  1  0.341347  0.965120  0.039206  1
  Ge  Ge31  1  0.175602  0.460973  0.540882  1
  Ge  Ge32  1  0.824434  0.539341  0.459439  1
  Ge  Ge33  1  0.324648  0.960553  0.459278  1
  Ge  Ge34  1  0.835674  0.536351  0.039872  1
  Ge  Ge35  1  0.675529  0.039248  0.540864  1
