# generated using pymatgen
data_Dy5Si8P4Ru10Rh9
_symmetry_space_group_name_H-M   'P 1'
_cell_length_a   12.73445624
_cell_length_b   12.68566775
_cell_length_c   3.97788100
_cell_angle_alpha   90.00000000
_cell_angle_beta   90.00000000
_cell_angle_gamma   120.03421873
_symmetry_Int_Tables_number   1
_chemical_formula_structural   Dy5Si8P4Ru10Rh9
_chemical_formula_sum   'Dy5 Si8 P4 Ru10 Rh9'
_cell_volume   556.32208881
_cell_formula_units_Z   1
loop_
 _symmetry_equiv_pos_site_id
 _symmetry_equiv_pos_as_xyz
  1  'x, y, z'
loop_
 _atom_site_type_symbol
 _atom_site_label
 _atom_site_symmetry_multiplicity
 _atom_site_fract_x
 _atom_site_fract_y
 _atom_site_fract_z
 _atom_site_occupancy
  Dy  Dy0  1  0.666901  0.332880  0.000000  1
  Dy  Dy1  1  0.334635  0.667564  0.000000  1
  Dy  Dy2  1  0.813248  0.000466  0.500000  1
  Dy  Dy3  1  0.185183  0.186624  0.500000  1
  Dy  Dy4  1  0.999767  0.812820  0.500000  1
  Si  Si5  1  0.621491  0.997494  0.000000  1
  Si  Si6  1  0.374088  0.377573  0.000000  1
  Si  Si7  1  0.002770  0.625555  0.000000  1
  Si  Si8  1  0.685538  0.524421  0.500000  1
  Si  Si9  1  0.839357  0.312511  0.500000  1
  Si  Si10  1  0.314645  0.838998  0.500000  1
  Si  Si11  1  0.525172  0.684354  0.500000  1
  Si  Si12  1  0.473462  0.158849  0.500000  1
  P  P13  1  0.180403  0.000129  0.000000  1
  P  P14  1  0.819512  0.818972  0.000000  1
  P  P15  1  0.996876  0.181995  0.000000  1
  P  P16  1  0.167270  0.478106  0.500000  1
  Ru  Ru17  1  0.127840  0.635656  0.500000  1
  Ru  Ru18  1  0.358206  0.485151  0.500000  1
  Ru  Ru19  1  0.514474  0.873804  0.500000  1
  Ru  Ru20  1  0.728777  0.727069  0.500000  1
  Ru  Ru21  1  0.004947  0.279386  0.500000  1
  Ru  Ru22  1  0.438585  0.002121  0.000000  1
  Ru  Ru23  1  0.562297  0.559497  0.000000  1
  Ru  Ru24  1  0.995359  0.437669  0.000000  1
  Ru  Ru25  1  0.816897  0.189238  0.000000  1
  Ru  Ru26  1  0.271087  0.999830  0.500000  1
  Rh  Rh27  1  0.627678  0.808286  0.000000  1
  Rh  Rh28  1  0.181441  0.376367  0.000000  1
  Rh  Rh29  1  0.371609  0.183365  0.000000  1
  Rh  Rh30  1  0.190786  0.817365  0.000000  1
  Rh  Rh31  1  0.810825  0.626711  0.000000  1
  Rh  Rh32  1  0.872915  0.511920  0.500000  1
  Rh  Rh33  1  0.486790  0.359543  0.500000  1
  Rh  Rh34  1  0.639100  0.126585  0.500000  1
  Rh  Rh35  1  0.000071  0.001126  0.000000  1
