# generated using pymatgen
data_Dy8Lu11ScSi15Hg
_symmetry_space_group_name_H-M   'P 1'
_cell_length_a   7.31569000
_cell_length_b   7.60629440
_cell_length_c   14.45968600
_cell_angle_alpha   90.02280142
_cell_angle_beta   89.55767318
_cell_angle_gamma   90.14046061
_symmetry_Int_Tables_number   1
_chemical_formula_structural   Dy8Lu11ScSi15Hg
_chemical_formula_sum   'Dy8 Lu11 Sc1 Si15 Hg1'
_cell_volume   804.58699606
_cell_formula_units_Z   1
loop_
 _symmetry_equiv_pos_site_id
 _symmetry_equiv_pos_as_xyz
  1  'x, y, z'
loop_
 _atom_site_type_symbol
 _atom_site_label
 _atom_site_symmetry_multiplicity
 _atom_site_fract_x
 _atom_site_fract_y
 _atom_site_fract_z
 _atom_site_occupancy
  Dy  Dy0  1  0.015324  0.176355  0.098603  1
  Dy  Dy1  1  0.985566  0.824133  0.905789  1
  Dy  Dy2  1  0.483463  0.679734  0.903891  1
  Dy  Dy3  1  0.986937  0.830247  0.598756  1
  Dy  Dy4  1  0.514126  0.320897  0.096948  1
  Dy  Dy5  1  0.010010  0.172471  0.396770  1
  Dy  Dy6  1  0.513108  0.319743  0.397636  1
  Dy  Dy7  1  0.492893  0.685473  0.600118  1
  Lu  Lu8  1  0.163153  0.508171  0.753671  1
  Lu  Lu9  1  0.837535  0.493083  0.249388  1
  Lu  Lu10  1  0.335649  0.005051  0.247753  1
  Lu  Lu11  1  0.666432  0.990989  0.751960  1
  Lu  Lu12  1  0.339396  0.170082  0.626421  1
  Lu  Lu13  1  0.664564  0.823267  0.374117  1
  Lu  Lu14  1  0.167650  0.677662  0.371537  1
  Lu  Lu15  1  0.669445  0.822233  0.122068  1
  Lu  Lu16  1  0.827800  0.325387  0.624388  1
  Lu  Lu17  1  0.329302  0.177851  0.879205  1
  Lu  Lu18  1  0.827936  0.322211  0.878898  1
  Sc  Sc19  1  0.170126  0.677571  0.125578  1
  Si  Si20  1  0.037321  0.116301  0.752698  1
  Si  Si21  1  0.964234  0.885106  0.246685  1
  Si  Si22  1  0.463632  0.610154  0.245409  1
  Si  Si23  1  0.534448  0.391495  0.752366  1
  Si  Si24  1  0.281351  0.873766  0.752688  1
  Si  Si25  1  0.715821  0.127271  0.246834  1
  Si  Si26  1  0.216763  0.371330  0.246344  1
  Si  Si27  1  0.784846  0.628587  0.753269  1
  Si  Si28  1  0.832270  0.534258  0.458368  1
  Si  Si29  1  0.335926  0.965521  0.458849  1
  Si  Si30  1  0.850762  0.533585  0.040635  1
  Si  Si31  1  0.663193  0.035396  0.537601  1
  Si  Si32  1  0.156415  0.469189  0.965664  1
  Si  Si33  1  0.656701  0.031284  0.960453  1
  Si  Si34  1  0.336052  0.961655  0.040554  1
  Hg  Hg35  1  0.169850  0.462492  0.538084  1
