# generated using pymatgen
data_La7Sm9(TmSn4)4
_symmetry_space_group_name_H-M   'P 1'
_cell_length_a   8.28054582
_cell_length_b   8.45031327
_cell_length_c   15.93615300
_cell_angle_alpha   90.03472877
_cell_angle_beta   90.28412937
_cell_angle_gamma   89.59424454
_symmetry_Int_Tables_number   1
_chemical_formula_structural   La7Sm9(TmSn4)4
_chemical_formula_sum   'La7 Sm9 Tm4 Sn16'
_cell_volume   1115.06186590
_cell_formula_units_Z   1
loop_
 _symmetry_equiv_pos_site_id
 _symmetry_equiv_pos_as_xyz
  1  'x, y, z'
loop_
 _atom_site_type_symbol
 _atom_site_label
 _atom_site_symmetry_multiplicity
 _atom_site_fract_x
 _atom_site_fract_y
 _atom_site_fract_z
 _atom_site_occupancy
  La  La0  1  0.014025  0.179994  0.598621  1
  La  La1  1  0.486308  0.678881  0.403381  1
  La  La2  1  0.985790  0.820301  0.096394  1
  La  La3  1  0.484322  0.677681  0.096335  1
  La  La4  1  0.986697  0.821159  0.403202  1
  La  La5  1  0.512753  0.321833  0.596433  1
  La  La6  1  0.014368  0.180361  0.902753  1
  Sm  Sm7  1  0.359613  0.836992  0.876951  1
  Sm  Sm8  1  0.857607  0.662538  0.622718  1
  Sm  Sm9  1  0.642240  0.163007  0.376618  1
  Sm  Sm10  1  0.138965  0.338631  0.120562  1
  Sm  Sm11  1  0.639497  0.162461  0.122585  1
  Sm  Sm12  1  0.141420  0.337275  0.377964  1
  Sm  Sm13  1  0.358101  0.837442  0.624578  1
  Sm  Sm14  1  0.860748  0.661477  0.878972  1
  Sm  Sm15  1  0.518601  0.321424  0.901272  1
  Tm  Tm16  1  0.195068  0.501552  0.751215  1
  Tm  Tm17  1  0.693368  0.998040  0.751010  1
  Tm  Tm18  1  0.804655  0.497616  0.249383  1
  Tm  Tm19  1  0.306006  0.002566  0.249637  1
  Sn  Sn20  1  0.303585  0.038913  0.042981  1
  Sn  Sn21  1  0.803481  0.460124  0.456265  1
  Sn  Sn22  1  0.695215  0.961999  0.544154  1
  Sn  Sn23  1  0.205042  0.534789  0.954171  1
  Sn  Sn24  1  0.695652  0.964118  0.955573  1
  Sn  Sn25  1  0.195801  0.541243  0.544084  1
  Sn  Sn26  1  0.304858  0.038554  0.456980  1
  Sn  Sn27  1  0.796517  0.458221  0.042043  1
  Sn  Sn28  1  0.557528  0.620050  0.750938  1
  Sn  Sn29  1  0.055495  0.876984  0.750649  1
  Sn  Sn30  1  0.441921  0.377940  0.249738  1
  Sn  Sn31  1  0.944083  0.123815  0.249099  1
  Sn  Sn32  1  0.326743  0.147514  0.752088  1
  Sn  Sn33  1  0.819063  0.356111  0.750911  1
  Sn  Sn34  1  0.676966  0.854683  0.249815  1
  Sn  Sn35  1  0.177899  0.643714  0.249932  1
