# generated using pymatgen
data_Tb3Pr5S11Cl
_symmetry_space_group_name_H-M   'P 1'
_cell_length_a   3.99263500
_cell_length_b   10.68824849
_cell_length_c   11.00297975
_cell_angle_alpha   90.13852979
_cell_angle_beta   90.00000000
_cell_angle_gamma   90.00000000
_symmetry_Int_Tables_number   1
_chemical_formula_structural   Tb3Pr5S11Cl
_chemical_formula_sum   'Tb3 Pr5 S11 Cl1'
_cell_volume   469.54281138
_cell_formula_units_Z   1
loop_
 _symmetry_equiv_pos_site_id
 _symmetry_equiv_pos_as_xyz
  1  'x, y, z'
loop_
 _atom_site_type_symbol
 _atom_site_label
 _atom_site_symmetry_multiplicity
 _atom_site_fract_x
 _atom_site_fract_y
 _atom_site_fract_z
 _atom_site_occupancy
  Tb  Tb0  1  0.750000  0.817505  0.506352  1
  Tb  Tb1  1  0.750000  0.682375  0.013111  1
  Tb  Tb2  1  0.250000  0.310032  0.002154  1
  Pr  Pr3  1  0.250000  0.984156  0.809231  1
  Pr  Pr4  1  0.750000  0.997547  0.188961  1
  Pr  Pr5  1  0.750000  0.519917  0.692819  1
  Pr  Pr6  1  0.250000  0.505730  0.308780  1
  Pr  Pr7  1  0.250000  0.183210  0.482066  1
  S  S8  1  0.750000  0.703252  0.269381  1
  S  S9  1  0.750000  0.789398  0.770099  1
  S  S10  1  0.250000  0.198739  0.224880  1
  S  S11  1  0.250000  0.941464  0.378882  1
  S  S12  1  0.750000  0.051661  0.622973  1
  S  S13  1  0.750000  0.444912  0.118978  1
  S  S14  1  0.250000  0.547435  0.889683  1
  S  S15  1  0.250000  0.862223  0.043125  1
  S  S16  1  0.750000  0.135611  0.948612  1
  S  S17  1  0.750000  0.376550  0.459836  1
  S  S18  1  0.250000  0.640339  0.544201  1
  Cl  Cl19  1  0.250000  0.307943  0.725876  1
