# generated using pymatgen
data_Ti8Al14SbIr7
_symmetry_space_group_name_H-M   'P 1'
_cell_length_a   8.69332428
_cell_length_b   8.69332254
_cell_length_c   8.69332376
_cell_angle_alpha   119.97030987
_cell_angle_beta   119.90231746
_cell_angle_gamma   90.11035572
_symmetry_Int_Tables_number   1
_chemical_formula_structural   Ti8Al14SbIr7
_chemical_formula_sum   'Ti8 Al14 Sb1 Ir7'
_cell_volume   465.00681297
_cell_formula_units_Z   1
loop_
 _symmetry_equiv_pos_site_id
 _symmetry_equiv_pos_as_xyz
  1  'x, y, z'
loop_
 _atom_site_type_symbol
 _atom_site_label
 _atom_site_symmetry_multiplicity
 _atom_site_fract_x
 _atom_site_fract_y
 _atom_site_fract_z
 _atom_site_occupancy
  Ti  Ti0  1  0.787022  0.285947  0.065472  1
  Ti  Ti1  1  0.220475  0.285947  0.498927  1
  Ti  Ti2  1  0.214304  0.714304  0.500000  1
  Ti  Ti3  1  0.220475  0.721550  0.934528  1
  Ti  Ti4  1  0.787022  0.721550  0.501073  1
  Ti  Ti5  1  0.779276  0.279276  0.500000  1
  Ti  Ti6  1  0.379672  0.123086  0.743414  1
  Ti  Ti7  1  0.379672  0.636257  0.256586  1
  Al  Al8  1  0.157636  0.340942  0.183303  1
  Al  Al9  1  0.157636  0.974333  0.816697  1
  Al  Al10  1  0.153943  0.342341  0.811603  1
  Al  Al11  1  0.530737  0.342341  0.188397  1
  Al  Al12  1  0.841073  0.656967  0.815895  1
  Al  Al13  1  0.841073  0.025179  0.184105  1
  Al  Al14  1  0.839473  0.658448  0.181025  1
  Al  Al15  1  0.477423  0.658448  0.818975  1
  Al  Al16  1  0.379277  0.121051  0.258227  1
  Al  Al17  1  0.862824  0.121051  0.741773  1
  Al  Al18  1  0.620970  0.878124  0.257155  1
  Al  Al19  1  0.620970  0.363816  0.742845  1
  Al  Al20  1  0.620887  0.878686  0.742201  1
  Al  Al21  1  0.136484  0.878686  0.257799  1
  Sb  Sb22  1  0.997195  0.497195  0.500000  1
  Ir  Ir23  1  0.000671  0.999495  0.501208  1
  Ir  Ir24  1  0.498287  0.999495  0.998824  1
  Ir  Ir25  1  0.497267  0.497267  0.000000  1
  Ir  Ir26  1  0.498287  0.499462  0.498792  1
  Ir  Ir27  1  0.000671  0.499462  0.001176  1
  Ir  Ir28  1  0.999942  0.999942  0.000000  1
  Ir  Ir29  1  0.499351  0.999351  0.500000  1
