# generated using pymatgen
data_Rb12Na8Ti(SnSb4)3
_symmetry_space_group_name_H-M   'P 1'
_cell_length_a   11.62358546
_cell_length_b   11.62358472
_cell_length_c   16.99064226
_cell_angle_alpha   90.02266409
_cell_angle_beta   90.02266736
_cell_angle_gamma   143.13248029
_symmetry_Int_Tables_number   1
_chemical_formula_structural   Rb12Na8Ti(SnSb4)3
_chemical_formula_sum   'Rb12 Na8 Ti1 Sn3 Sb12'
_cell_volume   1377.26297105
_cell_formula_units_Z   1
loop_
 _symmetry_equiv_pos_site_id
 _symmetry_equiv_pos_as_xyz
  1  'x, y, z'
loop_
 _atom_site_type_symbol
 _atom_site_label
 _atom_site_symmetry_multiplicity
 _atom_site_fract_x
 _atom_site_fract_y
 _atom_site_fract_z
 _atom_site_occupancy
  Rb  Rb0  1  0.601358  0.934591  0.829243  1
  Rb  Rb1  1  0.271899  0.274800  0.324868  1
  Rb  Rb2  1  0.233771  0.234080  0.824233  1
  Rb  Rb3  1  0.725200  0.728101  0.675132  1
  Rb  Rb4  1  0.445345  0.108660  0.668738  1
  Rb  Rb5  1  0.891340  0.554655  0.331262  1
  Rb  Rb6  1  0.065409  0.398642  0.170757  1
  Rb  Rb7  1  0.400495  0.066289  0.175215  1
  Rb  Rb8  1  0.570290  0.901843  0.331011  1
  Rb  Rb9  1  0.098157  0.429710  0.668989  1
  Rb  Rb10  1  0.933711  0.599505  0.824785  1
  Rb  Rb11  1  0.765920  0.766229  0.175767  1
  Na  Na12  1  0.082033  0.917967  0.000000  1
  Na  Na13  1  0.581573  0.418427  0.500000  1
  Na  Na14  1  0.918190  0.081810  0.000000  1
  Na  Na15  1  0.754492  0.245508  0.000000  1
  Na  Na16  1  0.745538  0.254462  0.500000  1
  Na  Na17  1  0.245154  0.754846  0.000000  1
  Na  Na18  1  0.254123  0.745877  0.500000  1
  Na  Na19  1  0.418812  0.581188  0.500000  1
  Ti  Ti20  1  0.083123  0.916877  0.500000  1
  Sn  Sn21  1  0.410258  0.589742  0.000000  1
  Sn  Sn22  1  0.915846  0.084154  0.500000  1
  Sn  Sn23  1  0.589578  0.410422  0.000000  1
  Sb  Sb24  1  0.065132  0.382056  0.397554  1
  Sb  Sb25  1  0.885985  0.564777  0.105011  1
  Sb  Sb26  1  0.435223  0.114015  0.894989  1
  Sb  Sb27  1  0.617944  0.934868  0.602446  1
  Sb  Sb28  1  0.946133  0.638345  0.595551  1
  Sb  Sb29  1  0.113647  0.435124  0.895291  1
  Sb  Sb30  1  0.564876  0.886353  0.104709  1
  Sb  Sb31  1  0.361655  0.053867  0.404449  1
  Sb  Sb32  1  0.210582  0.202927  0.593727  1
  Sb  Sb33  1  0.706309  0.706174  0.906695  1
  Sb  Sb34  1  0.293826  0.293691  0.093305  1
  Sb  Sb35  1  0.797073  0.789418  0.406273  1
