# generated using pymatgen
data_Ho16Cd4NiRu3
_symmetry_space_group_name_H-M   'P 1'
_cell_length_a   9.48683380
_cell_length_b   9.58803989
_cell_length_c   9.58804000
_cell_angle_alpha   59.99999961
_cell_angle_beta   59.64647115
_cell_angle_gamma   59.64647542
_symmetry_Int_Tables_number   1
_chemical_formula_structural   Ho16Cd4NiRu3
_chemical_formula_sum   'Ho16 Cd4 Ni1 Ru3'
_cell_volume   613.37278024
_cell_formula_units_Z   1
loop_
 _symmetry_equiv_pos_site_id
 _symmetry_equiv_pos_as_xyz
  1  'x, y, z'
loop_
 _atom_site_type_symbol
 _atom_site_label
 _atom_site_symmetry_multiplicity
 _atom_site_fract_x
 _atom_site_fract_y
 _atom_site_fract_z
 _atom_site_occupancy
  Ho  Ho0  1  0.350569  0.346197  0.346197  1
  Ho  Ho1  1  0.350569  0.346197  0.957035  1
  Ho  Ho2  1  0.350569  0.957035  0.346197  1
  Ho  Ho3  1  0.957557  0.347481  0.347481  1
  Ho  Ho4  1  0.811438  0.188099  0.188099  1
  Ho  Ho5  1  0.187406  0.812067  0.812067  1
  Ho  Ho6  1  0.187406  0.812067  0.188459  1
  Ho  Ho7  1  0.811438  0.188099  0.812364  1
  Ho  Ho8  1  0.187406  0.188459  0.812067  1
  Ho  Ho9  1  0.811438  0.812364  0.188099  1
  Ho  Ho10  1  0.938132  0.561423  0.561423  1
  Ho  Ho11  1  0.560418  0.936802  0.936802  1
  Ho  Ho12  1  0.560418  0.936802  0.565978  1
  Ho  Ho13  1  0.938132  0.561423  0.939021  1
  Ho  Ho14  1  0.560418  0.565978  0.936802  1
  Ho  Ho15  1  0.938132  0.939021  0.561423  1
  Cd  Cd16  1  0.579615  0.580644  0.580644  1
  Cd  Cd17  1  0.579615  0.580644  0.259099  1
  Cd  Cd18  1  0.579615  0.259099  0.580644  1
  Cd  Cd19  1  0.257788  0.580738  0.580738  1
  Ni  Ni20  1  0.574636  0.141788  0.141788  1
  Ru  Ru21  1  0.142428  0.140567  0.140567  1
  Ru  Ru22  1  0.142428  0.140567  0.576439  1
  Ru  Ru23  1  0.142428  0.576439  0.140567  1
