# generated using pymatgen
data_Tb2DyGa3(Ni3Sn)3
_symmetry_space_group_name_H-M   'P 1'
_cell_length_a   4.06180100
_cell_length_b   9.15951543
_cell_length_c   9.15951486
_cell_angle_alpha   59.97977992
_cell_angle_beta   90.00000000
_cell_angle_gamma   90.00000000
_symmetry_Int_Tables_number   1
_chemical_formula_structural   Tb2DyGa3(Ni3Sn)3
_chemical_formula_sum   'Tb2 Dy1 Ga3 Ni9 Sn3'
_cell_volume   295.05686278
_cell_formula_units_Z   1
loop_
 _symmetry_equiv_pos_site_id
 _symmetry_equiv_pos_as_xyz
  1  'x, y, z'
loop_
 _atom_site_type_symbol
 _atom_site_label
 _atom_site_symmetry_multiplicity
 _atom_site_fract_x
 _atom_site_fract_y
 _atom_site_fract_z
 _atom_site_occupancy
  Tb  Tb0  1  0.500000  0.332881  0.333833  1
  Tb  Tb1  1  0.500000  0.666167  0.667119  1
  Dy  Dy2  1  0.000000  0.000794  0.999206  1
  Ga  Ga3  1  0.500000  0.257984  0.742016  1
  Ga  Ga4  1  0.500000  0.742459  0.000026  1
  Ga  Ga5  1  0.500000  0.999974  0.257541  1
  Ni  Ni6  1  0.000000  0.160005  0.207579  1
  Ni  Ni7  1  0.000000  0.207346  0.632297  1
  Ni  Ni8  1  0.000000  0.633664  0.160126  1
  Ni  Ni9  1  0.000000  0.792421  0.839995  1
  Ni  Ni10  1  0.000000  0.367703  0.792654  1
  Ni  Ni11  1  0.000000  0.839874  0.366336  1
  Ni  Ni12  1  0.500000  0.721168  0.278832  1
  Ni  Ni13  1  0.500000  0.278555  0.999989  1
  Ni  Ni14  1  0.500000  0.000011  0.721445  1
  Sn  Sn15  1  0.000000  0.530612  0.469388  1
  Sn  Sn16  1  0.000000  0.468983  0.000701  1
  Sn  Sn17  1  0.000000  0.999299  0.531017  1
