# generated using pymatgen
data_LiV(ReO4)4
_symmetry_space_group_name_H-M   'P 1'
_cell_length_a   5.82287198
_cell_length_b   10.01617042
_cell_length_c   6.68472241
_cell_angle_alpha   89.90084597
_cell_angle_beta   89.95642739
_cell_angle_gamma   89.93138918
_symmetry_Int_Tables_number   1
_chemical_formula_structural   LiV(ReO4)4
_chemical_formula_sum   'Li1 V1 Re4 O16'
_cell_volume   389.87127479
_cell_formula_units_Z   1
loop_
 _symmetry_equiv_pos_site_id
 _symmetry_equiv_pos_as_xyz
  1  'x, y, z'
loop_
 _atom_site_type_symbol
 _atom_site_label
 _atom_site_symmetry_multiplicity
 _atom_site_fract_x
 _atom_site_fract_y
 _atom_site_fract_z
 _atom_site_occupancy
  Li  Li0  1  0.000005  0.999997  0.999994  1
  V  V1  1  0.499995  0.500013  0.000011  1
  Re  Re2  1  0.999454  0.336857  0.267165  1
  Re  Re3  1  0.500050  0.829283  0.266630  1
  Re  Re4  1  0.499922  0.170731  0.733345  1
  Re  Re5  1  0.000549  0.663102  0.732824  1
  O  O6  1  0.500636  0.172258  0.473197  1
  O  O7  1  0.000261  0.662201  0.473785  1
  O  O8  1  0.999735  0.337772  0.526212  1
  O  O9  1  0.499374  0.827730  0.526809  1
  O  O10  1  0.739853  0.083801  0.818174  1
  O  O11  1  0.248408  0.578950  0.823805  1
  O  O12  1  0.994793  0.173414  0.184506  1
  O  O13  1  0.494151  0.661119  0.170855  1
  O  O14  1  0.251720  0.415578  0.175534  1
  O  O15  1  0.745037  0.910678  0.181522  1
  O  O16  1  0.751573  0.421042  0.176199  1
  O  O17  1  0.260140  0.916225  0.181821  1
  O  O18  1  0.505862  0.338917  0.829164  1
  O  O19  1  0.005201  0.826580  0.815492  1
  O  O20  1  0.255021  0.089334  0.818485  1
  O  O21  1  0.748262  0.584421  0.824471  1
