# generated using pymatgen
data_La7Mn(TcC3)3
_symmetry_space_group_name_H-M   'P 1'
_cell_length_a   6.58278744
_cell_length_b   6.58278797
_cell_length_c   12.04508298
_cell_angle_alpha   70.75031413
_cell_angle_beta   70.75031348
_cell_angle_gamma   48.36733536
_symmetry_Int_Tables_number   1
_chemical_formula_structural   La7Mn(TcC3)3
_chemical_formula_sum   'La7 Mn1 Tc3 C9'
_cell_volume   363.74800791
_cell_formula_units_Z   1
loop_
 _symmetry_equiv_pos_site_id
 _symmetry_equiv_pos_as_xyz
  1  'x, y, z'
loop_
 _atom_site_type_symbol
 _atom_site_label
 _atom_site_symmetry_multiplicity
 _atom_site_fract_x
 _atom_site_fract_y
 _atom_site_fract_z
 _atom_site_occupancy
  La  La0  1  0.365800  0.365800  0.849903  1
  La  La1  1  0.140992  0.140992  0.685478  1
  La  La2  1  0.862818  0.862818  0.311016  1
  La  La3  1  0.144208  0.144208  0.377156  1
  La  La4  1  0.861013  0.861013  0.620191  1
  La  La5  1  0.994522  0.994522  0.003083  1
  La  La6  1  0.628492  0.628492  0.153662  1
  Mn  Mn7  1  0.361630  0.361630  0.141162  1
  Tc  Tc8  1  0.563948  0.563948  0.570206  1
  Tc  Tc9  1  0.431777  0.431777  0.427590  1
  Tc  Tc10  1  0.636840  0.636840  0.862682  1
  C  C11  1  0.385550  0.385550  0.283114  1
  C  C12  1  0.918357  0.918357  0.820545  1
  C  C13  1  0.390886  0.390886  0.611427  1
  C  C14  1  0.208897  0.208897  0.140148  1
  C  C15  1  0.799833  0.799833  0.863461  1
  C  C16  1  0.494341  0.494341  0.007140  1
  C  C17  1  0.090302  0.090302  0.173071  1
  C  C18  1  0.613234  0.613234  0.710872  1
  C  C19  1  0.606559  0.606559  0.388093  1
