# generated using pymatgen
data_TbTm4Pa7Ga20
_symmetry_space_group_name_H-M   'P 1'
_cell_length_a   6.05647037
_cell_length_b   9.50155444
_cell_length_c   11.64241100
_cell_angle_alpha   89.93834175
_cell_angle_beta   90.05450377
_cell_angle_gamma   90.05438120
_symmetry_Int_Tables_number   1
_chemical_formula_structural   TbTm4Pa7Ga20
_chemical_formula_sum   'Tb1 Tm4 Pa7 Ga20'
_cell_volume   669.97182823
_cell_formula_units_Z   1
loop_
 _symmetry_equiv_pos_site_id
 _symmetry_equiv_pos_as_xyz
  1  'x, y, z'
loop_
 _atom_site_type_symbol
 _atom_site_label
 _atom_site_symmetry_multiplicity
 _atom_site_fract_x
 _atom_site_fract_y
 _atom_site_fract_z
 _atom_site_occupancy
  Tb  Tb0  1  0.881482  0.501812  0.350610  1
  Tm  Tm1  1  0.857637  0.750227  0.072236  1
  Tm  Tm2  1  0.641766  0.750292  0.572449  1
  Tm  Tm3  1  0.142023  0.250319  0.928168  1
  Tm  Tm4  1  0.357057  0.248840  0.428171  1
  Pa  Pa5  1  0.619246  0.997709  0.852463  1
  Pa  Pa6  1  0.118693  0.002942  0.647558  1
  Pa  Pa7  1  0.381064  0.497865  0.147097  1
  Pa  Pa8  1  0.120204  0.497505  0.648647  1
  Pa  Pa9  1  0.380612  0.002090  0.147634  1
  Pa  Pa10  1  0.880839  0.997717  0.352362  1
  Pa  Pa11  1  0.619528  0.502424  0.852312  1
  Ga  Ga12  1  0.872235  0.052290  0.090804  1
  Ga  Ga13  1  0.627365  0.448389  0.591514  1
  Ga  Ga14  1  0.128137  0.551575  0.909423  1
  Ga  Ga15  1  0.372230  0.946743  0.409179  1
  Ga  Ga16  1  0.128455  0.948527  0.909274  1
  Ga  Ga17  1  0.369744  0.551639  0.409480  1
  Ga  Ga18  1  0.871263  0.448732  0.090754  1
  Ga  Ga19  1  0.628123  0.052299  0.590345  1
  Ga  Ga20  1  0.155587  0.750393  0.262507  1
  Ga  Ga21  1  0.345689  0.750472  0.763520  1
  Ga  Ga22  1  0.845410  0.250178  0.736446  1
  Ga  Ga23  1  0.652856  0.249718  0.237083  1
  Ga  Ga24  1  0.392024  0.750037  0.993675  1
  Ga  Ga25  1  0.108758  0.749816  0.494914  1
  Ga  Ga26  1  0.608719  0.250376  0.006344  1
  Ga  Ga27  1  0.892583  0.249671  0.506426  1
  Ga  Ga28  1  0.595086  0.750401  0.291263  1
  Ga  Ga29  1  0.903982  0.750099  0.791880  1
  Ga  Ga30  1  0.403498  0.250020  0.708482  1
  Ga  Ga31  1  0.098105  0.248883  0.206981  1
