# generated using pymatgen
data_La2Zn8IrPt3
_symmetry_space_group_name_H-M   'P 1'
_cell_length_a   7.71671049
_cell_length_b   7.71671049
_cell_length_c   4.22512900
_cell_angle_alpha   90.00000000
_cell_angle_beta   90.00000000
_cell_angle_gamma   89.47014262
_symmetry_Int_Tables_number   1
_chemical_formula_structural   La2Zn8IrPt3
_chemical_formula_sum   'La2 Zn8 Ir1 Pt3'
_cell_volume   251.58562132
_cell_formula_units_Z   1
loop_
 _symmetry_equiv_pos_site_id
 _symmetry_equiv_pos_as_xyz
  1  'x, y, z'
loop_
 _atom_site_type_symbol
 _atom_site_label
 _atom_site_symmetry_multiplicity
 _atom_site_fract_x
 _atom_site_fract_y
 _atom_site_fract_z
 _atom_site_occupancy
  La  La0  1  0.503292  0.496708  0.500000  1
  La  La1  1  0.994170  0.005830  0.000000  1
  Zn  Zn2  1  0.352025  0.092028  0.500000  1
  Zn  Zn3  1  0.653415  0.910238  0.500000  1
  Zn  Zn4  1  0.849340  0.405922  0.000000  1
  Zn  Zn5  1  0.150480  0.592857  0.000000  1
  Zn  Zn6  1  0.089762  0.346585  0.500000  1
  Zn  Zn7  1  0.907972  0.647975  0.500000  1
  Zn  Zn8  1  0.407143  0.849520  0.000000  1
  Zn  Zn9  1  0.594078  0.150660  0.000000  1
  Ir  Ir10  1  0.778896  0.221104  0.500000  1
  Pt  Pt11  1  0.218754  0.781246  0.500000  1
  Pt  Pt12  1  0.282230  0.281559  0.000000  1
  Pt  Pt13  1  0.718441  0.717770  0.000000  1
