# generated using pymatgen
data_Dy6LuCo17P12
_symmetry_space_group_name_H-M   'P 1'
_cell_length_a   3.71763200
_cell_length_b   10.60037300
_cell_length_c   12.33654300
_cell_angle_alpha   90.00000000
_cell_angle_beta   90.00000000
_cell_angle_gamma   90.00000000
_symmetry_Int_Tables_number   1
_chemical_formula_structural   Dy6LuCo17P12
_chemical_formula_sum   'Dy6 Lu1 Co17 P12'
_cell_volume   486.16201327
_cell_formula_units_Z   1
loop_
 _symmetry_equiv_pos_site_id
 _symmetry_equiv_pos_as_xyz
  1  'x, y, z'
loop_
 _atom_site_type_symbol
 _atom_site_label
 _atom_site_symmetry_multiplicity
 _atom_site_fract_x
 _atom_site_fract_y
 _atom_site_fract_z
 _atom_site_occupancy
  Dy  Dy0  1  0.000000  0.500000  0.530715  1
  Dy  Dy1  1  0.500000  0.000000  0.477915  1
  Dy  Dy2  1  0.500000  0.821998  0.207651  1
  Dy  Dy3  1  0.500000  0.178002  0.207651  1
  Dy  Dy4  1  0.000000  0.683342  0.795271  1
  Dy  Dy5  1  0.000000  0.316658  0.795271  1
  Lu  Lu6  1  0.500000  0.500000  0.154312  1
  Co  Co7  1  0.000000  0.000000  0.835391  1
  Co  Co8  1  0.500000  0.500000  0.703301  1
  Co  Co9  1  0.000000  0.000000  0.295555  1
  Co  Co10  1  0.000000  0.500000  0.982176  1
  Co  Co11  1  0.500000  0.000000  0.013226  1
  Co  Co12  1  0.500000  0.324826  0.987018  1
  Co  Co13  1  0.500000  0.675174  0.987018  1
  Co  Co14  1  0.000000  0.159880  0.999443  1
  Co  Co15  1  0.000000  0.840120  0.999443  1
  Co  Co16  1  0.500000  0.293381  0.436078  1
  Co  Co17  1  0.500000  0.706619  0.436078  1
  Co  Co18  1  0.000000  0.201092  0.570982  1
  Co  Co19  1  0.000000  0.798908  0.570982  1
  Co  Co20  1  0.500000  0.880900  0.707359  1
  Co  Co21  1  0.500000  0.119100  0.707359  1
  Co  Co22  1  0.000000  0.622555  0.302262  1
  Co  Co23  1  0.000000  0.377445  0.302262  1
  P  P24  1  0.500000  0.500000  0.881949  1
  P  P25  1  0.000000  0.000000  0.115782  1
  P  P26  1  0.500000  0.500000  0.363318  1
  P  P27  1  0.000000  0.000000  0.654582  1
  P  P28  1  0.500000  0.308095  0.618479  1
  P  P29  1  0.500000  0.691905  0.618479  1
  P  P30  1  0.000000  0.188248  0.387253  1
  P  P31  1  0.000000  0.811752  0.387253  1
  P  P32  1  0.500000  0.853773  0.887492  1
  P  P33  1  0.500000  0.146227  0.887492  1
  P  P34  1  0.000000  0.667227  0.096600  1
  P  P35  1  0.000000  0.332773  0.096600  1
