# generated using pymatgen
data_TbYb3(Mo2C3)2
_symmetry_space_group_name_H-M   'P 1'
_cell_length_a   6.52814700
_cell_length_b   5.92818667
_cell_length_c   11.85289947
_cell_angle_alpha   66.78243701
_cell_angle_beta   90.00000000
_cell_angle_gamma   90.00000000
_symmetry_Int_Tables_number   1
_chemical_formula_structural   TbYb3(Mo2C3)2
_chemical_formula_sum   'Tb2 Yb6 Mo8 C12'
_cell_volume   421.55940173
_cell_formula_units_Z   2
loop_
 _symmetry_equiv_pos_site_id
 _symmetry_equiv_pos_as_xyz
  1  'x, y, z'
loop_
 _atom_site_type_symbol
 _atom_site_label
 _atom_site_symmetry_multiplicity
 _atom_site_fract_x
 _atom_site_fract_y
 _atom_site_fract_z
 _atom_site_occupancy
  Tb  Tb0  1  0.002691  0.265471  0.363811  1
  Tb  Tb1  1  0.502691  0.734529  0.136189  1
  Yb  Yb2  1  0.796106  0.680998  0.905686  1
  Yb  Yb3  1  0.296106  0.319002  0.594314  1
  Yb  Yb4  1  0.207145  0.313836  0.091432  1
  Yb  Yb5  1  0.707145  0.686164  0.408568  1
  Yb  Yb6  1  0.994119  0.730235  0.637124  1
  Yb  Yb7  1  0.494119  0.269765  0.862876  1
  Mo  Mo8  1  0.989489  0.823353  0.124863  1
  Mo  Mo9  1  0.489489  0.176647  0.375137  1
  Mo  Mo10  1  0.010905  0.178551  0.877968  1
  Mo  Mo11  1  0.510905  0.821449  0.622032  1
  Mo  Mo12  1  0.765846  0.183526  0.655446  1
  Mo  Mo13  1  0.233049  0.812817  0.344088  1
  Mo  Mo14  1  0.733049  0.187183  0.155912  1
  Mo  Mo15  1  0.265846  0.816474  0.844554  1
  C  C16  1  0.643194  0.507151  0.648908  1
  C  C17  1  0.143194  0.492849  0.851092  1
  C  C18  1  0.355760  0.489916  0.348414  1
  C  C19  1  0.855760  0.510084  0.151586  1
  C  C20  1  0.218998  0.921147  0.992015  1
  C  C21  1  0.718998  0.078853  0.507985  1
  C  C22  1  0.782336  0.083515  0.009422  1
  C  C23  1  0.282336  0.916485  0.490578  1
  C  C24  1  0.472388  0.026041  0.242940  1
  C  C25  1  0.027973  0.034076  0.743584  1
  C  C26  1  0.972388  0.973959  0.257060  1
  C  C27  1  0.527973  0.965924  0.756416  1
