# generated using pymatgen
data_HoTm5Al24(Os3Ru)2
_symmetry_space_group_name_H-M   'P 1'
_cell_length_a   8.77920528
_cell_length_b   8.77920461
_cell_length_c   9.56866700
_cell_angle_alpha   90.00000000
_cell_angle_beta   90.00000000
_cell_angle_gamma   119.97106850
_symmetry_Int_Tables_number   1
_chemical_formula_structural   HoTm5Al24(Os3Ru)2
_chemical_formula_sum   'Ho1 Tm5 Al24 Os6 Ru2'
_cell_volume   638.87954664
_cell_formula_units_Z   1
loop_
 _symmetry_equiv_pos_site_id
 _symmetry_equiv_pos_as_xyz
  1  'x, y, z'
loop_
 _atom_site_type_symbol
 _atom_site_label
 _atom_site_symmetry_multiplicity
 _atom_site_fract_x
 _atom_site_fract_y
 _atom_site_fract_z
 _atom_site_occupancy
  Ho  Ho0  1  0.805960  0.194040  0.750000  1
  Tm  Tm1  1  0.194619  0.805381  0.250000  1
  Tm  Tm2  1  0.389080  0.194624  0.750000  1
  Tm  Tm3  1  0.610744  0.805361  0.250000  1
  Tm  Tm4  1  0.805376  0.610920  0.750000  1
  Tm  Tm5  1  0.194639  0.389256  0.250000  1
  Al  Al6  1  0.666488  0.333512  0.980860  1
  Al  Al7  1  0.333334  0.666666  0.019388  1
  Al  Al8  1  0.333334  0.666666  0.480612  1
  Al  Al9  1  0.666488  0.333512  0.519140  1
  Al  Al10  1  0.837342  0.162658  0.422527  1
  Al  Al11  1  0.162692  0.837308  0.577231  1
  Al  Al12  1  0.325354  0.162671  0.422737  1
  Al  Al13  1  0.162692  0.837308  0.922769  1
  Al  Al14  1  0.674563  0.837093  0.577152  1
  Al  Al15  1  0.837342  0.162658  0.077473  1
  Al  Al16  1  0.837329  0.674646  0.422737  1
  Al  Al17  1  0.674563  0.837093  0.922848  1
  Al  Al18  1  0.162907  0.325437  0.577152  1
  Al  Al19  1  0.325354  0.162671  0.077263  1
  Al  Al20  1  0.162907  0.325437  0.922848  1
  Al  Al21  1  0.837329  0.674646  0.077263  1
  Al  Al22  1  0.438630  0.561370  0.750000  1
  Al  Al23  1  0.561407  0.438593  0.250000  1
  Al  Al24  1  0.123204  0.561895  0.750000  1
  Al  Al25  1  0.877209  0.438613  0.250000  1
  Al  Al26  1  0.438105  0.876796  0.750000  1
  Al  Al27  1  0.561387  0.122791  0.250000  1
  Al  Al28  1  0.000202  0.999798  0.750000  1
  Al  Al29  1  0.999992  0.000008  0.250000  1
  Os  Os30  1  0.499922  0.500078  0.000050  1
  Os  Os31  1  0.000255  0.500482  0.000320  1
  Os  Os32  1  0.499922  0.500078  0.499950  1
  Os  Os33  1  0.499518  0.999745  0.000320  1
  Os  Os34  1  0.000255  0.500482  0.499680  1
  Os  Os35  1  0.499518  0.999745  0.499680  1
  Ru  Ru36  1  0.000017  0.999983  0.000049  1
  Ru  Ru37  1  0.000017  0.999983  0.499951  1
