# generated using pymatgen
data_HoTm2U(ReB6)2
_symmetry_space_group_name_H-M   'P 1'
_cell_length_a   3.66298900
_cell_length_b   9.10617801
_cell_length_c   11.46613911
_cell_angle_alpha   90.34335779
_cell_angle_beta   90.00000000
_cell_angle_gamma   90.00000000
_symmetry_Int_Tables_number   1
_chemical_formula_structural   HoTm2U(ReB6)2
_chemical_formula_sum   'Ho2 Tm4 U2 Re4 B24'
_cell_volume   382.45571770
_cell_formula_units_Z   2
loop_
 _symmetry_equiv_pos_site_id
 _symmetry_equiv_pos_as_xyz
  1  'x, y, z'
loop_
 _atom_site_type_symbol
 _atom_site_label
 _atom_site_symmetry_multiplicity
 _atom_site_fract_x
 _atom_site_fract_y
 _atom_site_fract_z
 _atom_site_occupancy
  Ho  Ho0  1  0.000000  0.822931  0.085796  1
  Ho  Ho1  1  0.000000  0.177069  0.914204  1
  Tm  Tm2  1  0.000000  0.944874  0.372803  1
  Tm  Tm3  1  0.000000  0.055126  0.627197  1
  Tm  Tm4  1  0.000000  0.443736  0.126789  1
  Tm  Tm5  1  0.000000  0.556264  0.873211  1
  U  U6  1  0.000000  0.322566  0.413649  1
  U  U7  1  0.000000  0.677434  0.586351  1
  Re  Re8  1  0.000000  0.635573  0.325135  1
  Re  Re9  1  0.000000  0.364427  0.674865  1
  Re  Re10  1  0.000000  0.140992  0.182504  1
  Re  Re11  1  0.000000  0.859008  0.817496  1
  B  B12  1  0.500000  0.552843  0.434033  1
  B  B13  1  0.500000  0.447157  0.565967  1
  B  B14  1  0.500000  0.053406  0.067202  1
  B  B15  1  0.500000  0.946594  0.932798  1
  B  B16  1  0.500000  0.748984  0.420372  1
  B  B17  1  0.500000  0.251016  0.579628  1
  B  B18  1  0.500000  0.248799  0.080348  1
  B  B19  1  0.500000  0.751201  0.919652  1
  B  B20  1  0.500000  0.792151  0.265696  1
  B  B21  1  0.500000  0.207849  0.734304  1
  B  B22  1  0.500000  0.293357  0.234900  1
  B  B23  1  0.500000  0.706643  0.765100  1
  B  B24  1  0.500000  0.630899  0.185209  1
  B  B25  1  0.500000  0.369101  0.814791  1
  B  B26  1  0.500000  0.132840  0.315393  1
  B  B27  1  0.500000  0.867160  0.684607  1
  B  B28  1  0.500000  0.981794  0.212601  1
  B  B29  1  0.500000  0.018206  0.787399  1
  B  B30  1  0.500000  0.481591  0.287118  1
  B  B31  1  0.500000  0.518409  0.712882  1
  B  B32  1  0.500000  0.603528  0.029061  1
  B  B33  1  0.500000  0.396472  0.970939  1
  B  B34  1  0.500000  0.109454  0.469889  1
  B  B35  1  0.500000  0.890546  0.530111  1
