# generated using pymatgen
data_Zr5Co16(Si4W)3
_symmetry_space_group_name_H-M   'P 1'
_cell_length_a   12.13433400
_cell_length_b   12.13433530
_cell_length_c   3.67787700
_cell_angle_alpha   90.00000000
_cell_angle_beta   90.00000000
_cell_angle_gamma   119.99999646
_symmetry_Int_Tables_number   1
_chemical_formula_structural   Zr5Co16(Si4W)3
_chemical_formula_sum   'Zr5 Co16 Si12 W3'
_cell_volume   468.98589814
_cell_formula_units_Z   1
loop_
 _symmetry_equiv_pos_site_id
 _symmetry_equiv_pos_as_xyz
  1  'x, y, z'
loop_
 _atom_site_type_symbol
 _atom_site_label
 _atom_site_symmetry_multiplicity
 _atom_site_fract_x
 _atom_site_fract_y
 _atom_site_fract_z
 _atom_site_occupancy
  Zr  Zr0  1  0.666667  0.333333  0.000000  1
  Zr  Zr1  1  0.333333  0.666667  0.000000  1
  Zr  Zr2  1  0.814406  0.814406  0.500000  1
  Zr  Zr3  1  0.185594  0.000000  0.500000  1
  Zr  Zr4  1  0.000000  0.185594  0.500000  1
  Co  Co5  1  0.196668  0.374939  0.000000  1
  Co  Co6  1  0.178271  0.803332  0.000000  1
  Co  Co7  1  0.821729  0.625061  0.000000  1
  Co  Co8  1  0.803332  0.178271  0.000000  1
  Co  Co9  1  0.374939  0.196668  0.000000  1
  Co  Co10  1  0.123160  0.479677  0.500000  1
  Co  Co11  1  0.356516  0.876840  0.500000  1
  Co  Co12  1  0.520323  0.643484  0.500000  1
  Co  Co13  1  0.643484  0.520323  0.500000  1
  Co  Co14  1  0.876840  0.356516  0.500000  1
  Co  Co15  1  0.479677  0.123160  0.500000  1
  Co  Co16  1  0.000000  0.000000  0.000000  1
  Co  Co17  1  0.719181  0.000000  0.500000  1
  Co  Co18  1  0.000000  0.719181  0.500000  1
  Co  Co19  1  0.625061  0.821729  0.000000  1
  Co  Co20  1  0.280819  0.280819  0.500000  1
  Si  Si21  1  0.642229  0.642229  0.000000  1
  Si  Si22  1  0.357771  0.000000  0.000000  1
  Si  Si23  1  0.000000  0.357771  0.000000  1
  Si  Si24  1  0.483281  0.312132  0.500000  1
  Si  Si25  1  0.687868  0.171149  0.500000  1
  Si  Si26  1  0.828851  0.516719  0.500000  1
  Si  Si27  1  0.516719  0.828851  0.500000  1
  Si  Si28  1  0.171149  0.687868  0.500000  1
  Si  Si29  1  0.821249  0.000000  0.000000  1
  Si  Si30  1  0.000000  0.821249  0.000000  1
  Si  Si31  1  0.312132  0.483281  0.500000  1
  Si  Si32  1  0.178751  0.178751  0.000000  1
  W  W33  1  0.437287  0.437287  0.000000  1
  W  W34  1  0.562713  0.000000  0.000000  1
  W  W35  1  0.000000  0.562713  0.000000  1
