# generated using pymatgen
data_Dy3Sc17Bi12
_symmetry_space_group_name_H-M   'P 1'
_cell_length_a   7.87459109
_cell_length_b   9.05234400
_cell_length_c   11.52815614
_cell_angle_alpha   90.00000000
_cell_angle_beta   90.01737317
_cell_angle_gamma   90.00000000
_symmetry_Int_Tables_number   1
_chemical_formula_structural   Dy3Sc17Bi12
_chemical_formula_sum   'Dy3 Sc17 Bi12'
_cell_volume   821.76736533
_cell_formula_units_Z   1
loop_
 _symmetry_equiv_pos_site_id
 _symmetry_equiv_pos_as_xyz
  1  'x, y, z'
loop_
 _atom_site_type_symbol
 _atom_site_label
 _atom_site_symmetry_multiplicity
 _atom_site_fract_x
 _atom_site_fract_y
 _atom_site_fract_z
 _atom_site_occupancy
  Dy  Dy0  1  0.815548  0.250000  0.281094  1
  Dy  Dy1  1  0.684750  0.750000  0.781268  1
  Dy  Dy2  1  0.183981  0.750000  0.718635  1
  Sc  Sc3  1  0.348967  0.750000  0.220138  1
  Sc  Sc4  1  0.851015  0.750000  0.278746  1
  Sc  Sc5  1  0.650150  0.250000  0.781805  1
  Sc  Sc6  1  0.150921  0.250000  0.719552  1
  Sc  Sc7  1  0.694968  0.566820  0.061593  1
  Sc  Sc8  1  0.192982  0.932937  0.437786  1
  Sc  Sc9  1  0.305969  0.067285  0.939611  1
  Sc  Sc10  1  0.807001  0.432076  0.561198  1
  Sc  Sc11  1  0.305969  0.432715  0.939611  1
  Sc  Sc12  1  0.807001  0.067924  0.561198  1
  Sc  Sc13  1  0.694968  0.933180  0.061593  1
  Sc  Sc14  1  0.192982  0.567063  0.437786  1
  Sc  Sc15  1  0.480092  0.250000  0.487441  1
  Sc  Sc16  1  0.980583  0.250000  0.012071  1
  Sc  Sc17  1  0.518239  0.750000  0.509804  1
  Sc  Sc18  1  0.020120  0.750000  0.990600  1
  Sc  Sc19  1  0.313630  0.250000  0.217619  1
  Bi  Bi20  1  0.403246  0.750000  0.967026  1
  Bi  Bi21  1  0.901416  0.750000  0.532461  1
  Bi  Bi22  1  0.592184  0.250000  0.037724  1
  Bi  Bi23  1  0.099504  0.250000  0.464784  1
  Bi  Bi24  1  0.560286  0.992424  0.325904  1
  Bi  Bi25  1  0.069370  0.506222  0.172818  1
  Bi  Bi26  1  0.436375  0.489797  0.671703  1
  Bi  Bi27  1  0.935876  0.010354  0.829003  1
  Bi  Bi28  1  0.436375  0.010203  0.671703  1
  Bi  Bi29  1  0.935876  0.489646  0.829003  1
  Bi  Bi30  1  0.560286  0.507576  0.325904  1
  Bi  Bi31  1  0.069370  0.993778  0.172818  1
