# generated using pymatgen
data_PrCuPt3Au
_symmetry_space_group_name_H-M   'P 1'
_cell_length_a   5.27774358
_cell_length_b   5.27774299
_cell_length_c   5.27774228
_cell_angle_alpha   62.04834307
_cell_angle_beta   62.04834378
_cell_angle_gamma   62.04834764
_symmetry_Int_Tables_number   1
_chemical_formula_structural   PrCuPt3Au
_chemical_formula_sum   'Pr1 Cu1 Pt3 Au1'
_cell_volume   108.71225710
_cell_formula_units_Z   1
loop_
 _symmetry_equiv_pos_site_id
 _symmetry_equiv_pos_as_xyz
  1  'x, y, z'
loop_
 _atom_site_type_symbol
 _atom_site_label
 _atom_site_symmetry_multiplicity
 _atom_site_fract_x
 _atom_site_fract_y
 _atom_site_fract_z
 _atom_site_occupancy
  Pr  Pr0  1  0.001439  0.001439  0.001439  1
  Cu  Cu1  1  0.623617  0.623617  0.623617  1
  Pt  Pt2  1  0.623150  0.623150  0.126275  1
  Pt  Pt3  1  0.623150  0.126275  0.623150  1
  Pt  Pt4  1  0.126275  0.623150  0.623150  1
  Au  Au5  1  0.252368  0.252368  0.252368  1
