# generated using pymatgen
data_Dy3Er4Tm3In8(RuPt)2
_symmetry_space_group_name_H-M   'P 1'
_cell_length_a   3.59062800
_cell_length_b   8.04939276
_cell_length_c   18.25967527
_cell_angle_alpha   89.87779215
_cell_angle_beta   90.00000000
_cell_angle_gamma   90.00000000
_symmetry_Int_Tables_number   1
_chemical_formula_structural   Dy3Er4Tm3In8(RuPt)2
_chemical_formula_sum   'Dy3 Er4 Tm3 In8 Ru2 Pt2'
_cell_volume   527.74678167
_cell_formula_units_Z   1
loop_
 _symmetry_equiv_pos_site_id
 _symmetry_equiv_pos_as_xyz
  1  'x, y, z'
loop_
 _atom_site_type_symbol
 _atom_site_label
 _atom_site_symmetry_multiplicity
 _atom_site_fract_x
 _atom_site_fract_y
 _atom_site_fract_z
 _atom_site_occupancy
  Dy  Dy0  1  0.000000  0.752006  0.279379  1
  Dy  Dy1  1  0.000000  0.999907  0.999857  1
  Dy  Dy2  1  0.000000  0.500262  0.500060  1
  Er  Er3  1  0.000000  0.117245  0.412463  1
  Er  Er4  1  0.000000  0.883688  0.588106  1
  Er  Er5  1  0.000000  0.380688  0.912876  1
  Er  Er6  1  0.000000  0.618911  0.086793  1
  Tm  Tm7  1  0.000000  0.235677  0.222565  1
  Tm  Tm8  1  0.000000  0.764201  0.777298  1
  Tm  Tm9  1  0.000000  0.247734  0.720929  1
  In  In10  1  0.500000  0.424814  0.351016  1
  In  In11  1  0.500000  0.573604  0.648946  1
  In  In12  1  0.500000  0.066052  0.850059  1
  In  In13  1  0.500000  0.934603  0.149618  1
  In  In14  1  0.500000  0.293468  0.066071  1
  In  In15  1  0.500000  0.706007  0.933788  1
  In  In16  1  0.500000  0.206539  0.569208  1
  In  In17  1  0.500000  0.794476  0.431492  1
  Ru  Ru18  1  0.500000  0.023778  0.303901  1
  Ru  Ru19  1  0.500000  0.979355  0.696427  1
  Pt  Pt20  1  0.500000  0.478044  0.802917  1
  Pt  Pt21  1  0.500000  0.518941  0.196232  1
