# generated using pymatgen
data_Dy6GaNiOs
_symmetry_space_group_name_H-M   'P 1'
_cell_length_a   8.37141733
_cell_length_b   8.37028044
_cell_length_c   8.37141845
_cell_angle_alpha   113.05632864
_cell_angle_beta   110.14758761
_cell_angle_gamma   105.30834246
_symmetry_Int_Tables_number   1
_chemical_formula_structural   Dy6GaNiOs
_chemical_formula_sum   'Dy12 Ga2 Ni2 Os2'
_cell_volume   449.44456542
_cell_formula_units_Z   2
loop_
 _symmetry_equiv_pos_site_id
 _symmetry_equiv_pos_as_xyz
  1  'x, y, z'
loop_
 _atom_site_type_symbol
 _atom_site_label
 _atom_site_symmetry_multiplicity
 _atom_site_fract_x
 _atom_site_fract_y
 _atom_site_fract_z
 _atom_site_occupancy
  Dy  Dy0  1  0.048747  0.741777  0.307672  1
  Dy  Dy1  1  0.951253  0.258223  0.692328  1
  Dy  Dy2  1  0.565894  0.258223  0.306970  1
  Dy  Dy3  1  0.434106  0.741777  0.693030  1
  Dy  Dy4  1  0.669482  0.856767  0.187286  1
  Dy  Dy5  1  0.330675  0.517873  0.187197  1
  Dy  Dy6  1  0.330519  0.143233  0.812714  1
  Dy  Dy7  1  0.669326  0.482127  0.812803  1
  Dy  Dy8  1  0.180648  0.222021  0.401909  1
  Dy  Dy9  1  0.820112  0.222021  0.041373  1
  Dy  Dy10  1  0.179888  0.777979  0.958627  1
  Dy  Dy11  1  0.819352  0.777979  0.598091  1
  Ga  Ga12  1  0.000000  0.500000  0.500000  1
  Ga  Ga13  1  0.500000  0.000000  0.500000  1
  Ni  Ni14  1  0.883746  0.884060  0.000314  1
  Ni  Ni15  1  0.116254  0.115940  0.999686  1
  Os  Os16  1  0.670626  0.500000  0.170626  1
  Os  Os17  1  0.329374  0.500000  0.829374  1
