# generated using pymatgen
data_Tm7CoSn23Os5
_symmetry_space_group_name_H-M   'P 1'
_cell_length_a   9.78178650
_cell_length_b   9.82396816
_cell_length_c   10.01953555
_cell_angle_alpha   89.99999897
_cell_angle_beta   89.97731671
_cell_angle_gamma   120.14275278
_symmetry_Int_Tables_number   1
_chemical_formula_structural   Tm7CoSn23Os5
_chemical_formula_sum   'Tm7 Co1 Sn23 Os5'
_cell_volume   832.63906571
_cell_formula_units_Z   1
loop_
 _symmetry_equiv_pos_site_id
 _symmetry_equiv_pos_as_xyz
  1  'x, y, z'
loop_
 _atom_site_type_symbol
 _atom_site_label
 _atom_site_symmetry_multiplicity
 _atom_site_fract_x
 _atom_site_fract_y
 _atom_site_fract_z
 _atom_site_occupancy
  Tm  Tm0  1  0.485952  0.513636  0.302512  1
  Tm  Tm1  1  0.513343  0.484408  0.695664  1
  Tm  Tm2  1  0.485952  0.972317  0.302512  1
  Tm  Tm3  1  0.513343  0.028934  0.695664  1
  Tm  Tm4  1  0.027160  0.513580  0.302079  1
  Tm  Tm5  1  0.969002  0.484501  0.696825  1
  Tm  Tm6  1  0.014015  0.007007  0.007554  1
  Co  Co7  1  0.657089  0.828544  0.798333  1
  Sn  Sn8  1  0.115817  0.882276  0.282375  1
  Sn  Sn9  1  0.877782  0.109807  0.724643  1
  Sn  Sn10  1  0.115817  0.233541  0.282375  1
  Sn  Sn11  1  0.877782  0.767975  0.724643  1
  Sn  Sn12  1  0.760590  0.880294  0.275046  1
  Sn  Sn13  1  0.237823  0.118912  0.723412  1
  Sn  Sn14  1  0.779138  0.221741  0.464325  1
  Sn  Sn15  1  0.220439  0.776884  0.535681  1
  Sn  Sn16  1  0.779138  0.557398  0.464325  1
  Sn  Sn17  1  0.220439  0.443555  0.535681  1
  Sn  Sn18  1  0.443739  0.221870  0.463319  1
  Sn  Sn19  1  0.560578  0.780289  0.540915  1
  Sn  Sn20  1  0.352110  0.998843  0.999862  1
  Sn  Sn21  1  0.653491  0.996826  0.994067  1
  Sn  Sn22  1  0.000627  0.349909  0.000114  1
  Sn  Sn23  1  0.000627  0.650719  0.000114  1
  Sn  Sn24  1  0.653491  0.656664  0.994067  1
  Sn  Sn25  1  0.352110  0.353266  0.999862  1
  Sn  Sn26  1  0.334468  0.667235  0.130744  1
  Sn  Sn27  1  0.665145  0.332573  0.867917  1
  Sn  Sn28  1  0.335398  0.667699  0.823295  1
  Sn  Sn29  1  0.666101  0.333050  0.172720  1
  Sn  Sn30  1  0.997653  0.998827  0.502283  1
  Os  Os31  1  0.828256  0.168871  0.201492  1
  Os  Os32  1  0.169605  0.829814  0.796878  1
  Os  Os33  1  0.828256  0.659386  0.201492  1
  Os  Os34  1  0.169605  0.339789  0.796878  1
  Os  Os35  1  0.338120  0.169061  0.200338  1
