# generated using pymatgen
data_Pr2Nd2IrPd3O14
_symmetry_space_group_name_H-M   'P 1'
_cell_length_a   7.42744661
_cell_length_b   7.42270444
_cell_length_c   7.45578721
_cell_angle_alpha   60.14667046
_cell_angle_beta   60.17943621
_cell_angle_gamma   60.02111694
_symmetry_Int_Tables_number   1
_chemical_formula_structural   Pr2Nd2IrPd3O14
_chemical_formula_sum   'Pr2 Nd2 Ir1 Pd3 O14'
_cell_volume   291.41754782
_cell_formula_units_Z   1
loop_
 _symmetry_equiv_pos_site_id
 _symmetry_equiv_pos_as_xyz
  1  'x, y, z'
loop_
 _atom_site_type_symbol
 _atom_site_label
 _atom_site_symmetry_multiplicity
 _atom_site_fract_x
 _atom_site_fract_y
 _atom_site_fract_z
 _atom_site_occupancy
  Pr  Pr0  1  0.625000  0.125000  0.125000  1
  Pr  Pr1  1  0.125000  0.125000  0.625000  1
  Nd  Nd2  1  0.125000  0.625000  0.125000  1
  Nd  Nd3  1  0.125000  0.125000  0.125000  1
  Ir  Ir4  1  0.625000  0.625000  0.125000  1
  Pd  Pd5  1  0.125000  0.625000  0.625000  1
  Pd  Pd6  1  0.625000  0.125000  0.625000  1
  Pd  Pd7  1  0.625000  0.625000  0.625000  1
  O  O8  1  0.707666  0.705610  0.288275  1
  O  O9  1  0.289303  0.289190  0.714212  1
  O  O10  1  0.707938  0.289527  0.713007  1
  O  O11  1  0.297598  0.707095  0.288211  1
  O  O12  1  0.289303  0.707294  0.714212  1
  O  O13  1  0.707666  0.298449  0.288275  1
  O  O14  1  0.542334  0.544390  0.961725  1
  O  O15  1  0.960697  0.960810  0.535788  1
  O  O16  1  0.542062  0.960473  0.536993  1
  O  O17  1  0.952402  0.542905  0.961789  1
  O  O18  1  0.960697  0.542706  0.535788  1
  O  O19  1  0.542334  0.951551  0.961725  1
  O  O20  1  0.248492  0.251840  0.247828  1
  O  O21  1  0.001508  0.998160  0.002172  1
