# generated using pymatgen
data_Y3Ho(Tc3Ir)2
_symmetry_space_group_name_H-M   'P 1'
_cell_length_a   5.24670300
_cell_length_b   5.24670181
_cell_length_c   9.29204200
_cell_angle_alpha   90.00000000
_cell_angle_beta   90.00000000
_cell_angle_gamma   120.00000119
_symmetry_Int_Tables_number   1
_chemical_formula_structural   Y3Ho(Tc3Ir)2
_chemical_formula_sum   'Y3 Ho1 Tc6 Ir2'
_cell_volume   221.52087277
_cell_formula_units_Z   1
loop_
 _symmetry_equiv_pos_site_id
 _symmetry_equiv_pos_as_xyz
  1  'x, y, z'
loop_
 _atom_site_type_symbol
 _atom_site_label
 _atom_site_symmetry_multiplicity
 _atom_site_fract_x
 _atom_site_fract_y
 _atom_site_fract_z
 _atom_site_occupancy
  Y  Y0  1  0.333333  0.666667  0.435378  1
  Y  Y1  1  0.666667  0.333333  0.564595  1
  Y  Y2  1  0.666667  0.333333  0.935466  1
  Ho  Ho3  1  0.333333  0.666667  0.064644  1
  Tc  Tc4  1  0.829642  0.170358  0.249903  1
  Tc  Tc5  1  0.829642  0.659284  0.249903  1
  Tc  Tc6  1  0.340716  0.170358  0.249903  1
  Tc  Tc7  1  0.170382  0.829618  0.750044  1
  Tc  Tc8  1  0.170382  0.340765  0.750044  1
  Tc  Tc9  1  0.659235  0.829618  0.750044  1
  Ir  Ir10  1  0.000000  0.000000  0.500020  1
  Ir  Ir11  1  0.000000  0.000000  0.000055  1
