# generated using pymatgen
data_Li8Y2Ho6Sn5Sb3
_symmetry_space_group_name_H-M   'P 1'
_cell_length_a   9.38755013
_cell_length_b   9.39003425
_cell_length_c   7.18474000
_cell_angle_alpha   89.99915901
_cell_angle_beta   89.99872131
_cell_angle_gamma   120.01007283
_symmetry_Int_Tables_number   1
_chemical_formula_structural   Li8Y2Ho6Sn5Sb3
_chemical_formula_sum   'Li8 Y2 Ho6 Sn5 Sb3'
_cell_volume   548.42474661
_cell_formula_units_Z   1
loop_
 _symmetry_equiv_pos_site_id
 _symmetry_equiv_pos_as_xyz
  1  'x, y, z'
loop_
 _atom_site_type_symbol
 _atom_site_label
 _atom_site_symmetry_multiplicity
 _atom_site_fract_x
 _atom_site_fract_y
 _atom_site_fract_z
 _atom_site_occupancy
  Li  Li0  1  0.166364  0.332946  0.283889  1
  Li  Li1  1  0.166367  0.833431  0.283899  1
  Li  Li2  1  0.667085  0.833547  0.283772  1
  Li  Li3  1  0.833309  0.666446  0.785956  1
  Li  Li4  1  0.833306  0.166857  0.785975  1
  Li  Li5  1  0.333611  0.166804  0.786017  1
  Li  Li6  1  0.333220  0.666606  0.676107  1
  Li  Li7  1  0.666694  0.333354  0.179338  1
  Y  Y8  1  0.512171  0.024575  0.490746  1
  Y  Y9  1  0.512204  0.487646  0.490749  1
  Ho  Ho10  1  0.975513  0.487764  0.490561  1
  Ho  Ho11  1  0.489686  0.979257  0.995924  1
  Ho  Ho12  1  0.489672  0.510390  0.995933  1
  Ho  Ho13  1  0.020554  0.510277  0.996070  1
  Ho  Ho14  1  0.000004  0.999956  0.497443  1
  Ho  Ho15  1  0.000054  0.000070  0.004563  1
  Sn  Sn16  1  0.833456  0.666378  0.231385  1
  Sn  Sn17  1  0.833457  0.167074  0.231362  1
  Sn  Sn18  1  0.333422  0.166703  0.230917  1
  Sn  Sn19  1  0.332968  0.666486  0.259021  1
  Sn  Sn20  1  0.667118  0.333555  0.760922  1
  Sb  Sb21  1  0.166488  0.333363  0.733645  1
  Sb  Sb22  1  0.166498  0.833131  0.733608  1
  Sb  Sb23  1  0.666777  0.833386  0.734170  1
