# generated using pymatgen
data_Ti7Nb5Sn9Hg
_symmetry_space_group_name_H-M   'P 1'
_cell_length_a   9.38826300
_cell_length_b   9.38633437
_cell_length_c   5.72054354
_cell_angle_alpha   89.67215973
_cell_angle_beta   90.00000000
_cell_angle_gamma   120.00680071
_symmetry_Int_Tables_number   1
_chemical_formula_structural   Ti7Nb5Sn9Hg
_chemical_formula_sum   'Ti7 Nb5 Sn9 Hg1'
_cell_volume   436.52583277
_cell_formula_units_Z   1
loop_
 _symmetry_equiv_pos_site_id
 _symmetry_equiv_pos_as_xyz
  1  'x, y, z'
loop_
 _atom_site_type_symbol
 _atom_site_label
 _atom_site_symmetry_multiplicity
 _atom_site_fract_x
 _atom_site_fract_y
 _atom_site_fract_z
 _atom_site_occupancy
  Ti  Ti0  1  0.842013  0.684027  0.756150  1
  Ti  Ti1  1  0.156949  0.841262  0.241541  1
  Ti  Ti2  1  0.684313  0.841262  0.241541  1
  Ti  Ti3  1  0.315687  0.158738  0.758459  1
  Ti  Ti4  1  0.843051  0.158738  0.758459  1
  Ti  Ti5  1  0.157987  0.315973  0.243850  1
  Ti  Ti6  1  0.500000  0.000000  0.500000  1
  Nb  Nb7  1  0.500000  0.500000  0.000000  1
  Nb  Nb8  1  0.000000  0.500000  0.000000  1
  Nb  Nb9  1  0.000000  0.500000  0.500000  1
  Nb  Nb10  1  0.500000  0.000000  0.000000  1
  Nb  Nb11  1  0.500000  0.500000  0.500000  1
  Sn  Sn12  1  0.200645  0.401290  0.746706  1
  Sn  Sn13  1  0.796495  0.199016  0.256766  1
  Sn  Sn14  1  0.402520  0.199016  0.256766  1
  Sn  Sn15  1  0.597480  0.800984  0.743234  1
  Sn  Sn16  1  0.203505  0.800984  0.743234  1
  Sn  Sn17  1  0.799355  0.598710  0.253294  1
  Sn  Sn18  1  0.665979  0.331957  0.753368  1
  Sn  Sn19  1  0.334021  0.668043  0.246632  1
  Sn  Sn20  1  0.000000  0.000000  0.000000  1
  Hg  Hg21  1  0.000000  0.000000  0.500000  1
