# generated using pymatgen
data_Y7ErTi11Si16Pt
_symmetry_space_group_name_H-M   'P 1'
_cell_length_a   7.05517467
_cell_length_b   7.05809622
_cell_length_c   12.88024935
_cell_angle_alpha   90.24661226
_cell_angle_beta   89.80430280
_cell_angle_gamma   89.69695295
_symmetry_Int_Tables_number   1
_chemical_formula_structural   Y7ErTi11Si16Pt
_chemical_formula_sum   'Y7 Er1 Ti11 Si16 Pt1'
_cell_volume   641.36750161
_cell_formula_units_Z   1
loop_
 _symmetry_equiv_pos_site_id
 _symmetry_equiv_pos_as_xyz
  1  'x, y, z'
loop_
 _atom_site_type_symbol
 _atom_site_label
 _atom_site_symmetry_multiplicity
 _atom_site_fract_x
 _atom_site_fract_y
 _atom_site_fract_z
 _atom_site_occupancy
  Y  Y0  1  0.340374  0.003434  0.466814  1
  Y  Y1  1  0.496337  0.842578  0.718189  1
  Y  Y2  1  0.501732  0.156836  0.213718  1
  Y  Y3  1  0.842454  0.496160  0.281973  1
  Y  Y4  1  0.156574  0.502080  0.785519  1
  Y  Y5  1  0.655576  0.998960  0.968755  1
  Y  Y6  1  0.003434  0.340360  0.533256  1
  Er  Er7  1  0.998820  0.655667  0.031239  1
  Ti  Ti8  1  0.175959  0.825108  0.248536  1
  Ti  Ti9  1  0.825491  0.176324  0.751612  1
  Ti  Ti10  1  0.673128  0.673089  0.500079  1
  Ti  Ti11  1  0.148437  0.005589  0.878081  1
  Ti  Ti12  1  0.495171  0.653902  0.124269  1
  Ti  Ti13  1  0.507316  0.349976  0.627709  1
  Ti  Ti14  1  0.655213  0.494896  0.876107  1
  Ti  Ti15  1  0.350099  0.507181  0.372178  1
  Ti  Ti16  1  0.849660  0.992787  0.374583  1
  Ti  Ti17  1  0.006200  0.147595  0.122097  1
  Ti  Ti18  1  0.992579  0.849595  0.625480  1
  Si  Si19  1  0.200412  0.132745  0.686627  1
  Si  Si20  1  0.372208  0.707798  0.932849  1
  Si  Si21  1  0.630773  0.294996  0.433778  1
  Si  Si22  1  0.711201  0.373737  0.067778  1
  Si  Si23  1  0.295212  0.630904  0.566166  1
  Si  Si24  1  0.798819  0.866958  0.182945  1
  Si  Si25  1  0.132974  0.200765  0.313476  1
  Si  Si26  1  0.868139  0.798193  0.817003  1
  Si  Si27  1  0.284562  0.940464  0.064948  1
  Si  Si28  1  0.548416  0.790709  0.314830  1
  Si  Si29  1  0.449284  0.211307  0.815688  1
  Si  Si30  1  0.790480  0.548083  0.685207  1
  Si  Si31  1  0.210157  0.449591  0.183699  1
  Si  Si32  1  0.708640  0.048358  0.565423  1
  Si  Si33  1  0.944248  0.286282  0.935422  1
  Si  Si34  1  0.048164  0.708604  0.434902  1
  Pt  Pt35  1  0.331759  0.338389  0.999065  1
