# generated using pymatgen
data_Dy4Al17Si(Ir2Pd)2
_symmetry_space_group_name_H-M   'P 1'
_cell_length_a   7.56587018
_cell_length_b   7.56587803
_cell_length_c   9.41145100
_cell_angle_alpha   90.00000000
_cell_angle_beta   90.00000000
_cell_angle_gamma   119.53359141
_symmetry_Int_Tables_number   1
_chemical_formula_structural   Dy4Al17Si(Ir2Pd)2
_chemical_formula_sum   'Dy4 Al17 Si1 Ir4 Pd2'
_cell_volume   468.73504752
_cell_formula_units_Z   1
loop_
 _symmetry_equiv_pos_site_id
 _symmetry_equiv_pos_as_xyz
  1  'x, y, z'
loop_
 _atom_site_type_symbol
 _atom_site_label
 _atom_site_symmetry_multiplicity
 _atom_site_fract_x
 _atom_site_fract_y
 _atom_site_fract_z
 _atom_site_occupancy
  Dy  Dy0  1  0.994103  0.675606  0.250000  1
  Dy  Dy1  1  0.004289  0.329011  0.750000  1
  Dy  Dy2  1  0.675610  0.994102  0.250000  1
  Dy  Dy3  1  0.329007  0.004290  0.750000  1
  Al  Al4  1  0.870735  0.870735  0.750000  1
  Al  Al5  1  0.001027  0.340124  0.076702  1
  Al  Al6  1  0.998691  0.661240  0.924183  1
  Al  Al7  1  0.998691  0.661240  0.575817  1
  Al  Al8  1  0.340124  0.001027  0.423297  1
  Al  Al9  1  0.001027  0.340124  0.423298  1
  Al  Al10  1  0.661240  0.998691  0.575818  1
  Al  Al11  1  0.661240  0.998691  0.924182  1
  Al  Al12  1  0.340124  0.001027  0.076703  1
  Al  Al13  1  0.336221  0.336221  0.559695  1
  Al  Al14  1  0.661519  0.661519  0.444483  1
  Al  Al15  1  0.661519  0.661519  0.055517  1
  Al  Al16  1  0.336221  0.336221  0.940305  1
  Al  Al17  1  0.335012  0.549288  0.250000  1
  Al  Al18  1  0.662182  0.451246  0.750000  1
  Al  Al19  1  0.549288  0.335012  0.250000  1
  Al  Al20  1  0.451246  0.662182  0.750000  1
  Si  Si21  1  0.134471  0.134471  0.250000  1
  Ir  Ir22  1  0.670428  0.326951  0.000534  1
  Ir  Ir23  1  0.326949  0.670426  0.000534  1
  Ir  Ir24  1  0.326949  0.670426  0.499466  1
  Ir  Ir25  1  0.670428  0.326951  0.499466  1
  Pd  Pd26  1  0.000830  0.000830  0.005179  1
  Pd  Pd27  1  0.000830  0.000830  0.494821  1
