# generated using pymatgen
data_Hf4NbGaRh10
_symmetry_space_group_name_H-M   'P 1'
_cell_length_a   4.16253600
_cell_length_b   5.58408289
_cell_length_c   10.93165194
_cell_angle_alpha   89.77471422
_cell_angle_beta   90.00000000
_cell_angle_gamma   90.00000000
_symmetry_Int_Tables_number   1
_chemical_formula_structural   Hf4NbGaRh10
_chemical_formula_sum   'Hf4 Nb1 Ga1 Rh10'
_cell_volume   254.09276366
_cell_formula_units_Z   1
loop_
 _symmetry_equiv_pos_site_id
 _symmetry_equiv_pos_as_xyz
  1  'x, y, z'
loop_
 _atom_site_type_symbol
 _atom_site_label
 _atom_site_symmetry_multiplicity
 _atom_site_fract_x
 _atom_site_fract_y
 _atom_site_fract_z
 _atom_site_occupancy
  Hf  Hf0  1  0.500000  0.168908  0.647562  1
  Hf  Hf1  1  0.500000  0.831092  0.352438  1
  Hf  Hf2  1  0.500000  0.682604  0.862710  1
  Hf  Hf3  1  0.500000  0.317396  0.137290  1
  Nb  Nb4  1  0.000000  0.500000  0.500000  1
  Ga  Ga5  1  0.000000  0.000000  0.000000  1
  Rh  Rh6  1  0.500000  0.192800  0.891342  1
  Rh  Rh7  1  0.500000  0.807200  0.108658  1
  Rh  Rh8  1  0.500000  0.689840  0.605750  1
  Rh  Rh9  1  0.500000  0.310160  0.394250  1
  Rh  Rh10  1  0.000000  0.426571  0.742735  1
  Rh  Rh11  1  0.000000  0.573429  0.257265  1
  Rh  Rh12  1  0.000000  0.000000  0.500000  1
  Rh  Rh13  1  0.000000  0.500000  0.000000  1
  Rh  Rh14  1  0.000000  0.071070  0.242420  1
  Rh  Rh15  1  0.000000  0.928930  0.757580  1
