# generated using pymatgen
data_Cs16Ti3MoSe16
_symmetry_space_group_name_H-M   'P 1'
_cell_length_a   8.95541210
_cell_length_b   10.61815200
_cell_length_c   15.59715100
_cell_angle_alpha   90.00000000
_cell_angle_beta   90.03923189
_cell_angle_gamma   90.00000000
_symmetry_Int_Tables_number   1
_chemical_formula_structural   Cs16Ti3MoSe16
_chemical_formula_sum   'Cs16 Ti3 Mo1 Se16'
_cell_volume   1483.13160066
_cell_formula_units_Z   1
loop_
 _symmetry_equiv_pos_site_id
 _symmetry_equiv_pos_as_xyz
  1  'x, y, z'
loop_
 _atom_site_type_symbol
 _atom_site_label
 _atom_site_symmetry_multiplicity
 _atom_site_fract_x
 _atom_site_fract_y
 _atom_site_fract_z
 _atom_site_occupancy
  Cs  Cs0  1  0.999810  0.001258  0.999834  1
  Cs  Cs1  1  0.499920  0.998672  0.499632  1
  Cs  Cs2  1  0.999810  0.498742  0.999834  1
  Cs  Cs3  1  0.499920  0.501328  0.499632  1
  Cs  Cs4  1  0.995352  0.750000  0.421660  1
  Cs  Cs5  1  0.495284  0.250000  0.078790  1
  Cs  Cs6  1  0.004809  0.250000  0.578535  1
  Cs  Cs7  1  0.504735  0.750000  0.920601  1
  Cs  Cs8  1  0.831734  0.055875  0.281007  1
  Cs  Cs9  1  0.331409  0.944035  0.218853  1
  Cs  Cs10  1  0.167604  0.556072  0.718884  1
  Cs  Cs11  1  0.668992  0.442995  0.780748  1
  Cs  Cs12  1  0.167604  0.943928  0.718884  1
  Cs  Cs13  1  0.668992  0.057005  0.780748  1
  Cs  Cs14  1  0.831734  0.444125  0.281007  1
  Cs  Cs15  1  0.331409  0.555965  0.218853  1
  Ti  Ti16  1  0.762906  0.750000  0.665449  1
  Ti  Ti17  1  0.237002  0.250000  0.334555  1
  Ti  Ti18  1  0.736270  0.750000  0.165251  1
  Mo  Mo19  1  0.263857  0.250000  0.835839  1
  Se  Se20  1  0.991574  0.250000  0.826039  1
  Se  Se21  1  0.506441  0.250000  0.326793  1
  Se  Se22  1  0.493269  0.750000  0.673590  1
  Se  Se23  1  0.005632  0.750000  0.173434  1
  Se  Se24  1  0.653871  0.566159  0.090106  1
  Se  Se25  1  0.154414  0.433848  0.409492  1
  Se  Se26  1  0.348738  0.063666  0.911078  1
  Se  Se27  1  0.845454  0.934020  0.590577  1
  Se  Se28  1  0.348738  0.436334  0.911078  1
  Se  Se29  1  0.845454  0.565980  0.590577  1
  Se  Se30  1  0.653871  0.933841  0.090106  1
  Se  Se31  1  0.154414  0.066152  0.409492  1
  Se  Se32  1  0.631829  0.750000  0.309360  1
  Se  Se33  1  0.132165  0.250000  0.190585  1
  Se  Se34  1  0.367359  0.250000  0.689583  1
  Se  Se35  1  0.867622  0.750000  0.809510  1
