# generated using pymatgen
data_UNi10Pd
_symmetry_space_group_name_H-M   'P 1'
_cell_length_a   4.16943100
_cell_length_b   4.88848900
_cell_length_c   8.33180100
_cell_angle_alpha   90.00000000
_cell_angle_beta   90.00000000
_cell_angle_gamma   90.00000000
_symmetry_Int_Tables_number   1
_chemical_formula_structural   UNi10Pd
_chemical_formula_sum   'U1 Ni10 Pd1'
_cell_volume   169.82058081
_cell_formula_units_Z   1
loop_
 _symmetry_equiv_pos_site_id
 _symmetry_equiv_pos_as_xyz
  1  'x, y, z'
loop_
 _atom_site_type_symbol
 _atom_site_label
 _atom_site_symmetry_multiplicity
 _atom_site_fract_x
 _atom_site_fract_y
 _atom_site_fract_z
 _atom_site_occupancy
  U  U0  1  0.000000  0.000000  0.500000  1
  Ni  Ni1  1  0.000000  0.500000  0.328832  1
  Ni  Ni2  1  0.000000  0.000000  0.833334  1
  Ni  Ni3  1  0.000000  0.000000  0.166666  1
  Ni  Ni4  1  0.000000  0.500000  0.671168  1
  Ni  Ni5  1  0.500000  0.500000  0.500000  1
  Ni  Ni6  1  0.500000  0.000000  0.000000  1
  Ni  Ni7  1  0.500000  0.751098  0.248731  1
  Ni  Ni8  1  0.500000  0.248902  0.751269  1
  Ni  Ni9  1  0.500000  0.248902  0.248731  1
  Ni  Ni10  1  0.500000  0.751098  0.751269  1
  Pd  Pd11  1  0.000000  0.500000  0.000000  1
