# generated using pymatgen
data_ErNp7(TcB6)4
_symmetry_space_group_name_H-M   'P 1'
_cell_length_a   3.61809800
_cell_length_b   9.27548130
_cell_length_c   11.33067755
_cell_angle_alpha   89.93974199
_cell_angle_beta   90.00000000
_cell_angle_gamma   90.00000000
_symmetry_Int_Tables_number   1
_chemical_formula_structural   ErNp7(TcB6)4
_chemical_formula_sum   'Er1 Np7 Tc4 B24'
_cell_volume   380.25279971
_cell_formula_units_Z   1
loop_
 _symmetry_equiv_pos_site_id
 _symmetry_equiv_pos_as_xyz
  1  'x, y, z'
loop_
 _atom_site_type_symbol
 _atom_site_label
 _atom_site_symmetry_multiplicity
 _atom_site_fract_x
 _atom_site_fract_y
 _atom_site_fract_z
 _atom_site_occupancy
  Er  Er0  1  0.000000  0.337478  0.407253  1
  Np  Np1  1  0.000000  0.662206  0.593924  1
  Np  Np2  1  0.000000  0.837951  0.093856  1
  Np  Np3  1  0.000000  0.162016  0.907056  1
  Np  Np4  1  0.000000  0.958937  0.399604  1
  Np  Np5  1  0.000000  0.040855  0.599077  1
  Np  Np6  1  0.000000  0.459206  0.099483  1
  Np  Np7  1  0.000000  0.540737  0.900092  1
  Tc  Tc8  1  0.000000  0.647321  0.318655  1
  Tc  Tc9  1  0.000000  0.354311  0.681359  1
  Tc  Tc10  1  0.000000  0.145625  0.180068  1
  Tc  Tc11  1  0.000000  0.854099  0.818522  1
  B  B12  1  0.500000  0.552261  0.431959  1
  B  B13  1  0.500000  0.448324  0.568438  1
  B  B14  1  0.500000  0.052145  0.068420  1
  B  B15  1  0.500000  0.947672  0.931758  1
  B  B16  1  0.500000  0.743157  0.423879  1
  B  B17  1  0.500000  0.256165  0.576597  1
  B  B18  1  0.500000  0.243654  0.076624  1
  B  B19  1  0.500000  0.756875  0.923667  1
  B  B20  1  0.500000  0.805192  0.274283  1
  B  B21  1  0.500000  0.194789  0.725578  1
  B  B22  1  0.500000  0.304988  0.225317  1
  B  B23  1  0.500000  0.694873  0.774513  1
  B  B24  1  0.500000  0.645598  0.188486  1
  B  B25  1  0.500000  0.353820  0.811561  1
  B  B26  1  0.500000  0.145814  0.311859  1
  B  B27  1  0.500000  0.853893  0.688071  1
  B  B28  1  0.500000  0.988819  0.220598  1
  B  B29  1  0.500000  0.011566  0.779485  1
  B  B30  1  0.500000  0.488771  0.279843  1
  B  B31  1  0.500000  0.511656  0.720083  1
  B  B32  1  0.500000  0.643014  0.039676  1
  B  B33  1  0.500000  0.357228  0.960360  1
  B  B34  1  0.500000  0.141620  0.460658  1
  B  B35  1  0.500000  0.857364  0.539338  1
