# generated using pymatgen
data_Tb8Sc12Co(Si4Ni)3
_symmetry_space_group_name_H-M   'P 1'
_cell_length_a   6.90975998
_cell_length_b   7.59459217
_cell_length_c   13.92518100
_cell_angle_alpha   90.00000000
_cell_angle_beta   90.00000000
_cell_angle_gamma   89.91333158
_symmetry_Int_Tables_number   1
_chemical_formula_structural   Tb8Sc12Co(Si4Ni)3
_chemical_formula_sum   'Tb8 Sc12 Co1 Si12 Ni3'
_cell_volume   730.74822799
_cell_formula_units_Z   1
loop_
 _symmetry_equiv_pos_site_id
 _symmetry_equiv_pos_as_xyz
  1  'x, y, z'
loop_
 _atom_site_type_symbol
 _atom_site_label
 _atom_site_symmetry_multiplicity
 _atom_site_fract_x
 _atom_site_fract_y
 _atom_site_fract_z
 _atom_site_occupancy
  Tb  Tb0  1  0.005428  0.180711  0.091376  1
  Tb  Tb1  1  0.995106  0.820941  0.907264  1
  Tb  Tb2  1  0.494502  0.680543  0.907824  1
  Tb  Tb3  1  0.995106  0.820941  0.592736  1
  Tb  Tb4  1  0.505422  0.319231  0.091284  1
  Tb  Tb5  1  0.005428  0.180711  0.408624  1
  Tb  Tb6  1  0.505422  0.319231  0.408716  1
  Tb  Tb7  1  0.494502  0.680543  0.592176  1
  Sc  Sc8  1  0.175753  0.504092  0.750000  1
  Sc  Sc9  1  0.822804  0.494028  0.250000  1
  Sc  Sc10  1  0.322780  0.006066  0.250000  1
  Sc  Sc11  1  0.682139  0.995638  0.750000  1
  Sc  Sc12  1  0.316939  0.168594  0.631522  1
  Sc  Sc13  1  0.679513  0.829879  0.370085  1
  Sc  Sc14  1  0.179107  0.670381  0.369940  1
  Sc  Sc15  1  0.679513  0.829879  0.129915  1
  Sc  Sc16  1  0.822919  0.328849  0.630639  1
  Sc  Sc17  1  0.316939  0.168594  0.868478  1
  Sc  Sc18  1  0.822919  0.328849  0.869361  1
  Sc  Sc19  1  0.179107  0.670381  0.130060  1
  Co  Co20  1  0.030454  0.106228  0.750000  1
  Si  Si21  1  0.278603  0.872618  0.750000  1
  Si  Si22  1  0.721237  0.126385  0.250000  1
  Si  Si23  1  0.220630  0.373369  0.250000  1
  Si  Si24  1  0.779347  0.626969  0.750000  1
  Si  Si25  1  0.159945  0.465804  0.539272  1
  Si  Si26  1  0.840674  0.534699  0.460449  1
  Si  Si27  1  0.341225  0.965434  0.460372  1
  Si  Si28  1  0.840674  0.534699  0.039551  1
  Si  Si29  1  0.658063  0.034653  0.539246  1
  Si  Si30  1  0.159945  0.465804  0.960728  1
  Si  Si31  1  0.658063  0.034653  0.960754  1
  Si  Si32  1  0.341225  0.965434  0.039628  1
  Ni  Ni33  1  0.968010  0.894817  0.250000  1
  Ni  Ni34  1  0.467598  0.605082  0.250000  1
  Ni  Ni35  1  0.532962  0.395275  0.750000  1
