# generated using pymatgen
data_HfSe23
_symmetry_space_group_name_H-M   'P 1'
_cell_length_a   5.47981727
_cell_length_b   10.19867044
_cell_length_c   16.83485300
_cell_angle_alpha   90.13933130
_cell_angle_beta   87.65978431
_cell_angle_gamma   90.47881021
_symmetry_Int_Tables_number   1
_chemical_formula_structural   HfSe23
_chemical_formula_sum   'Hf1 Se23'
_cell_volume   940.02734465
_cell_formula_units_Z   1
loop_
 _symmetry_equiv_pos_site_id
 _symmetry_equiv_pos_as_xyz
  1  'x, y, z'
loop_
 _atom_site_type_symbol
 _atom_site_label
 _atom_site_symmetry_multiplicity
 _atom_site_fract_x
 _atom_site_fract_y
 _atom_site_fract_z
 _atom_site_occupancy
  Hf  Hf0  1  0.531694  0.330974  0.445070  1
  Se  Se1  1  0.593113  0.786917  0.408467  1
  Se  Se2  1  0.011324  0.319459  0.115838  1
  Se  Se3  1  0.829437  0.139767  0.426091  1
  Se  Se4  1  0.308789  0.807512  0.514077  1
  Se  Se5  1  0.233855  0.261257  0.997906  1
  Se  Se6  1  0.745919  0.723083  0.005496  1
  Se  Se7  1  0.118501  0.305941  0.371781  1
  Se  Se8  1  0.772953  0.565533  0.398253  1
  Se  Se9  1  0.764069  0.136998  0.153868  1
  Se  Se10  1  0.224584  0.861887  0.139383  1
  Se  Se11  1  0.749387  0.661897  0.647336  1
  Se  Se12  1  0.251394  0.424616  0.576718  1
  Se  Se13  1  0.225314  0.859788  0.859501  1
  Se  Se14  1  0.765628  0.135560  0.854321  1
  Se  Se15  1  0.983927  0.673630  0.115048  1
  Se  Se16  1  0.538438  0.860842  0.626920  1
  Se  Se17  1  0.338728  0.200005  0.566957  1
  Se  Se18  1  0.981534  0.672553  0.888927  1
  Se  Se19  1  0.008386  0.319456  0.886816  1
  Se  Se20  1  0.549725  0.446813  0.303672  1
  Se  Se21  1  0.001849  0.997021  0.230609  1
  Se  Se22  1  0.458070  0.511597  0.693919  1
  Se  Se23  1  0.013380  0.996893  0.773030  1
