# generated using pymatgen
data_Er2Tm6Re3RuC8
_symmetry_space_group_name_H-M   'P 1'
_cell_length_a   5.02998400
_cell_length_b   6.50242850
_cell_length_c   9.73072409
_cell_angle_alpha   89.90486940
_cell_angle_beta   90.00000000
_cell_angle_gamma   90.00000000
_symmetry_Int_Tables_number   1
_chemical_formula_structural   Er2Tm6Re3RuC8
_chemical_formula_sum   'Er2 Tm6 Re3 Ru1 C8'
_cell_volume   318.26343711
_cell_formula_units_Z   1
loop_
 _symmetry_equiv_pos_site_id
 _symmetry_equiv_pos_as_xyz
  1  'x, y, z'
loop_
 _atom_site_type_symbol
 _atom_site_label
 _atom_site_symmetry_multiplicity
 _atom_site_fract_x
 _atom_site_fract_y
 _atom_site_fract_z
 _atom_site_occupancy
  Er  Er0  1  0.250000  0.466220  0.216309  1
  Er  Er1  1  0.750000  0.034585  0.716700  1
  Tm  Tm2  1  0.750000  0.532510  0.785390  1
  Tm  Tm3  1  0.250000  0.966758  0.282260  1
  Tm  Tm4  1  0.750000  0.677173  0.442562  1
  Tm  Tm5  1  0.250000  0.827144  0.943613  1
  Tm  Tm6  1  0.750000  0.177152  0.058174  1
  Tm  Tm7  1  0.250000  0.322343  0.557988  1
  Re  Re8  1  0.250000  0.782569  0.632098  1
  Re  Re9  1  0.750000  0.218072  0.369396  1
  Re  Re10  1  0.750000  0.718634  0.131370  1
  Ru  Ru11  1  0.250000  0.282262  0.867607  1
  C  C12  1  0.250000  0.673972  0.446342  1
  C  C13  1  0.250000  0.550293  0.756977  1
  C  C14  1  0.750000  0.451092  0.240829  1
  C  C15  1  0.750000  0.824505  0.944984  1
  C  C16  1  0.250000  0.047880  0.739970  1
  C  C17  1  0.250000  0.170497  0.052512  1
  C  C18  1  0.750000  0.325730  0.554962  1
  C  C19  1  0.750000  0.950607  0.259954  1
