# generated using pymatgen
data_La2SmY3CoI10
_symmetry_space_group_name_H-M   'P 1'
_cell_length_a   7.86638415
_cell_length_b   9.93437708
_cell_length_c   9.82233076
_cell_angle_alpha   106.95293228
_cell_angle_beta   95.68666894
_cell_angle_gamma   105.51808886
_symmetry_Int_Tables_number   1
_chemical_formula_structural   La2SmY3CoI10
_chemical_formula_sum   'La2 Sm1 Y3 Co1 I10'
_cell_volume   694.28671005
_cell_formula_units_Z   1
loop_
 _symmetry_equiv_pos_site_id
 _symmetry_equiv_pos_as_xyz
  1  'x, y, z'
loop_
 _atom_site_type_symbol
 _atom_site_label
 _atom_site_symmetry_multiplicity
 _atom_site_fract_x
 _atom_site_fract_y
 _atom_site_fract_z
 _atom_site_occupancy
  La  La0  1  0.887434  0.959300  0.229898  1
  La  La1  1  0.113336  0.041592  0.770711  1
  Sm  Sm2  1  0.028898  0.713645  0.913271  1
  Y  Y3  1  0.971313  0.282688  0.086025  1
  Y  Y4  1  0.654940  0.876515  0.837986  1
  Y  Y5  1  0.344536  0.125529  0.162158  1
  Co  Co6  1  0.000202  0.000109  0.000155  1
  I  I7  1  0.645367  0.554311  0.729520  1
  I  I8  1  0.347258  0.445810  0.268142  1
  I  I9  1  0.732158  0.911230  0.543281  1
  I  I10  1  0.268791  0.089161  0.456390  1
  I  I11  1  0.081735  0.373863  0.823515  1
  I  I12  1  0.916538  0.621320  0.180828  1
  I  I13  1  0.449079  0.820712  0.091002  1
  I  I14  1  0.554351  0.181440  0.911185  1
  I  I15  1  0.232625  0.741173  0.655816  1
  I  I16  1  0.771440  0.261601  0.340116  1
