# generated using pymatgen
data_DyIn(Pd2Au)2
_symmetry_space_group_name_H-M   'P 1'
_cell_length_a   6.00139100
_cell_length_b   6.00003276
_cell_length_c   7.88574800
_cell_angle_alpha   89.99927426
_cell_angle_beta   89.99977087
_cell_angle_gamma   90.04385013
_symmetry_Int_Tables_number   1
_chemical_formula_structural   DyIn(Pd2Au)2
_chemical_formula_sum   'Dy2 In2 Pd8 Au4'
_cell_volume   283.95420954
_cell_formula_units_Z   2
loop_
 _symmetry_equiv_pos_site_id
 _symmetry_equiv_pos_as_xyz
  1  'x, y, z'
loop_
 _atom_site_type_symbol
 _atom_site_label
 _atom_site_symmetry_multiplicity
 _atom_site_fract_x
 _atom_site_fract_y
 _atom_site_fract_z
 _atom_site_occupancy
  Dy  Dy0  1  0.250024  0.250000  0.999995  1
  Dy  Dy1  1  0.749976  0.750001  0.000005  1
  In  In2  1  0.250021  0.250014  0.500002  1
  In  In3  1  0.749979  0.749987  0.499998  1
  Pd  Pd4  1  0.999985  0.999995  0.255021  1
  Pd  Pd5  1  0.000012  0.500006  0.254960  1
  Pd  Pd6  1  0.500008  0.000004  0.255004  1
  Pd  Pd7  1  0.499986  0.499983  0.255067  1
  Pd  Pd8  1  0.499992  0.999996  0.744995  1
  Pd  Pd9  1  0.500014  0.500018  0.744932  1
  Pd  Pd10  1  0.000015  0.000005  0.744979  1
  Pd  Pd11  1  0.999988  0.499995  0.745040  1
  Au  Au12  1  0.750000  0.250004  0.000006  1
  Au  Au13  1  0.250000  0.749997  0.999994  1
  Au  Au14  1  0.750049  0.249994  0.500001  1
  Au  Au15  1  0.249951  0.750007  0.499999  1
