# generated using pymatgen
data_Tm3In3IrRuAu
_symmetry_space_group_name_H-M   'P 1'
_cell_length_a   7.85850200
_cell_length_b   7.85850305
_cell_length_c   3.61763400
_cell_angle_alpha   90.00000000
_cell_angle_beta   90.00000000
_cell_angle_gamma   120.00000401
_symmetry_Int_Tables_number   1
_chemical_formula_structural   Tm3In3IrRuAu
_chemical_formula_sum   'Tm3 In3 Ir1 Ru1 Au1'
_cell_volume   193.47944583
_cell_formula_units_Z   1
loop_
 _symmetry_equiv_pos_site_id
 _symmetry_equiv_pos_as_xyz
  1  'x, y, z'
loop_
 _atom_site_type_symbol
 _atom_site_label
 _atom_site_symmetry_multiplicity
 _atom_site_fract_x
 _atom_site_fract_y
 _atom_site_fract_z
 _atom_site_occupancy
  Tm  Tm0  1  0.408641  0.382733  0.500000  1
  Tm  Tm1  1  0.617267  0.025908  0.500000  1
  Tm  Tm2  1  0.974092  0.591359  0.500000  1
  In  In3  1  0.731346  0.735406  0.000000  1
  In  In4  1  0.264594  0.995941  0.000000  1
  In  In5  1  0.004059  0.268654  0.000000  1
  Ir  Ir6  1  0.666667  0.333333  0.000000  1
  Ru  Ru7  1  0.000000  0.000000  0.500000  1
  Au  Au8  1  0.333333  0.666667  0.000000  1
