# generated using pymatgen
data_TbYNi9P7Ir3
_symmetry_space_group_name_H-M   'P 1'
_cell_length_a   9.15564700
_cell_length_b   9.15564735
_cell_length_c   3.81610800
_cell_angle_alpha   90.00000000
_cell_angle_beta   90.00000000
_cell_angle_gamma   120.00000237
_symmetry_Int_Tables_number   1
_chemical_formula_structural   TbYNi9P7Ir3
_chemical_formula_sum   'Tb1 Y1 Ni9 P7 Ir3'
_cell_volume   277.03164111
_cell_formula_units_Z   1
loop_
 _symmetry_equiv_pos_site_id
 _symmetry_equiv_pos_as_xyz
  1  'x, y, z'
loop_
 _atom_site_type_symbol
 _atom_site_label
 _atom_site_symmetry_multiplicity
 _atom_site_fract_x
 _atom_site_fract_y
 _atom_site_fract_z
 _atom_site_occupancy
  Tb  Tb0  1  0.333333  0.666667  0.500000  1
  Y  Y1  1  0.666667  0.333333  0.000000  1
  Ni  Ni2  1  0.061952  0.629458  0.000000  1
  Ni  Ni3  1  0.567506  0.938048  0.000000  1
  Ni  Ni4  1  0.370542  0.432494  0.000000  1
  Ni  Ni5  1  0.272757  0.119417  0.000000  1
  Ni  Ni6  1  0.846660  0.727243  0.000000  1
  Ni  Ni7  1  0.880583  0.153340  0.000000  1
  Ni  Ni8  1  0.076070  0.880205  0.500000  1
  Ni  Ni9  1  0.804135  0.923930  0.500000  1
  Ni  Ni10  1  0.119795  0.195865  0.500000  1
  P  P11  1  0.292128  0.881073  0.000000  1
  P  P12  1  0.588946  0.707872  0.000000  1
  P  P13  1  0.118927  0.411054  0.000000  1
  P  P14  1  0.397872  0.291943  0.500000  1
  P  P15  1  0.894072  0.602128  0.500000  1
  P  P16  1  0.708057  0.105928  0.500000  1
  P  P17  1  0.000000  0.000000  0.000000  1
  Ir  Ir18  1  0.427601  0.044997  0.500000  1
  Ir  Ir19  1  0.617396  0.572399  0.500000  1
  Ir  Ir20  1  0.955003  0.382604  0.500000  1
