# generated using pymatgen
data_Er5Lu15(CoBi5)2
_symmetry_space_group_name_H-M   'P 1'
_cell_length_a   7.93874294
_cell_length_b   9.28897300
_cell_length_c   11.94463440
_cell_angle_alpha   90.00000000
_cell_angle_beta   89.94431280
_cell_angle_gamma   90.00000000
_symmetry_Int_Tables_number   1
_chemical_formula_structural   Er5Lu15(CoBi5)2
_chemical_formula_sum   'Er5 Lu15 Co2 Bi10'
_cell_volume   880.82999769
_cell_formula_units_Z   1
loop_
 _symmetry_equiv_pos_site_id
 _symmetry_equiv_pos_as_xyz
  1  'x, y, z'
loop_
 _atom_site_type_symbol
 _atom_site_label
 _atom_site_symmetry_multiplicity
 _atom_site_fract_x
 _atom_site_fract_y
 _atom_site_fract_z
 _atom_site_occupancy
  Er  Er0  1  0.427622  0.500000  0.271833  1
  Er  Er1  1  0.259439  0.500000  0.993443  1
  Er  Er2  1  0.740519  0.500000  0.493764  1
  Er  Er3  1  0.089862  0.500000  0.718901  1
  Er  Er4  1  0.910488  0.500000  0.218505  1
  Lu  Lu5  1  0.427571  0.174078  0.562936  1
  Lu  Lu6  1  0.572286  0.826185  0.062971  1
  Lu  Lu7  1  0.071015  0.730988  0.436403  1
  Lu  Lu8  1  0.929081  0.269010  0.936402  1
  Lu  Lu9  1  0.071015  0.269012  0.436403  1
  Lu  Lu10  1  0.929081  0.730990  0.936402  1
  Lu  Lu11  1  0.427571  0.825922  0.562936  1
  Lu  Lu12  1  0.572286  0.173815  0.062971  1
  Lu  Lu13  1  0.572099  0.500000  0.771730  1
  Lu  Lu14  1  0.907508  0.000000  0.200208  1
  Lu  Lu15  1  0.092579  0.000000  0.700364  1
  Lu  Lu16  1  0.196539  0.000000  0.996868  1
  Lu  Lu17  1  0.803587  0.000000  0.496979  1
  Lu  Lu18  1  0.370151  0.000000  0.309803  1
  Lu  Lu19  1  0.629694  0.000000  0.809901  1
  Co  Co20  1  0.171939  0.000000  0.488410  1
  Co  Co21  1  0.828181  0.000000  0.988228  1
  Bi  Bi22  1  0.812292  0.741526  0.672700  1
  Bi  Bi23  1  0.186930  0.257769  0.172216  1
  Bi  Bi24  1  0.680189  0.240457  0.325123  1
  Bi  Bi25  1  0.320660  0.759197  0.825059  1
  Bi  Bi26  1  0.680189  0.759543  0.325123  1
  Bi  Bi27  1  0.320660  0.240803  0.825059  1
  Bi  Bi28  1  0.812292  0.258474  0.672700  1
  Bi  Bi29  1  0.186930  0.742231  0.172216  1
  Bi  Bi30  1  0.346435  0.500000  0.527239  1
  Bi  Bi31  1  0.653312  0.500000  0.026207  1
