# generated using pymatgen
data_TbNdP7(Rh3W)3
_symmetry_space_group_name_H-M   'P 1'
_cell_length_a   3.95523602
_cell_length_b   9.54505771
_cell_length_c   9.54514901
_cell_angle_alpha   119.99440588
_cell_angle_beta   89.99494011
_cell_angle_gamma   90.01776273
_symmetry_Int_Tables_number   1
_chemical_formula_structural   TbNdP7(Rh3W)3
_chemical_formula_sum   'Tb1 Nd1 P7 Rh9 W3'
_cell_volume   312.09640287
_cell_formula_units_Z   1
loop_
 _symmetry_equiv_pos_site_id
 _symmetry_equiv_pos_as_xyz
  1  'x, y, z'
loop_
 _atom_site_type_symbol
 _atom_site_label
 _atom_site_symmetry_multiplicity
 _atom_site_fract_x
 _atom_site_fract_y
 _atom_site_fract_z
 _atom_site_occupancy
  Tb  Tb0  1  0.761922  0.333339  0.666684  1
  Nd  Nd1  1  0.261941  0.666644  0.333299  1
  P  P2  1  0.261994  0.999996  0.999959  1
  P  P3  1  0.761879  0.884170  0.595018  1
  P  P4  1  0.761877  0.404961  0.289143  1
  P  P5  1  0.761881  0.710844  0.115795  1
  P  P6  1  0.261922  0.117607  0.412969  1
  P  P7  1  0.261938  0.587055  0.704664  1
  P  P8  1  0.261913  0.295378  0.882421  1
  Rh  Rh9  1  0.261881  0.886500  0.159003  1
  Rh  Rh10  1  0.261886  0.840975  0.727427  1
  Rh  Rh11  1  0.261889  0.272533  0.113543  1
  Rh  Rh12  1  0.761909  0.612495  0.563735  1
  Rh  Rh13  1  0.761915  0.436217  0.048727  1
  Rh  Rh14  1  0.761911  0.951224  0.387489  1
  Rh  Rh15  1  0.261853  0.368492  0.437330  1
  Rh  Rh16  1  0.261860  0.562733  0.931215  1
  Rh  Rh17  1  0.261857  0.068839  0.631535  1
  W  W18  1  0.761921  0.090304  0.871294  1
  W  W19  1  0.761927  0.128739  0.219100  1
  W  W20  1  0.761922  0.780956  0.909649  1
