# generated using pymatgen
data_Rb3SnSe3
_symmetry_space_group_name_H-M   'P 1'
_cell_length_a   13.45223700
_cell_length_b   9.37872031
_cell_length_c   9.52028263
_cell_angle_alpha   64.54013906
_cell_angle_beta   90.00000000
_cell_angle_gamma   90.00000000
_symmetry_Int_Tables_number   1
_chemical_formula_structural   Rb3SnSe3
_chemical_formula_sum   'Rb12 Sn4 Se12'
_cell_volume   1084.47906626
_cell_formula_units_Z   4
loop_
 _symmetry_equiv_pos_site_id
 _symmetry_equiv_pos_as_xyz
  1  'x, y, z'
loop_
 _atom_site_type_symbol
 _atom_site_label
 _atom_site_symmetry_multiplicity
 _atom_site_fract_x
 _atom_site_fract_y
 _atom_site_fract_z
 _atom_site_occupancy
  Rb  Rb0  1  0.931824  0.712618  0.775145  1
  Rb  Rb1  1  0.431824  0.787382  0.224855  1
  Rb  Rb2  1  0.068176  0.287382  0.224855  1
  Rb  Rb3  1  0.568176  0.212618  0.775145  1
  Rb  Rb4  1  0.835628  0.986880  0.001726  1
  Rb  Rb5  1  0.335628  0.513120  0.998274  1
  Rb  Rb6  1  0.164372  0.013120  0.998274  1
  Rb  Rb7  1  0.664372  0.486880  0.001726  1
  Rb  Rb8  1  0.787316  0.188502  0.441653  1
  Rb  Rb9  1  0.287316  0.311498  0.558347  1
  Rb  Rb10  1  0.212684  0.811498  0.558347  1
  Rb  Rb11  1  0.712684  0.688502  0.441653  1
  Sn  Sn12  1  0.992545  0.373609  0.655801  1
  Sn  Sn13  1  0.492545  0.126391  0.344199  1
  Sn  Sn14  1  0.007455  0.626391  0.344199  1
  Sn  Sn15  1  0.507455  0.873609  0.655801  1
  Se  Se16  1  0.815489  0.379112  0.754087  1
  Se  Se17  1  0.315489  0.120888  0.245913  1
  Se  Se18  1  0.184511  0.620888  0.245913  1
  Se  Se19  1  0.684511  0.879112  0.754087  1
  Se  Se20  1  0.027483  0.106936  0.651134  1
  Se  Se21  1  0.527483  0.393064  0.348866  1
  Se  Se22  1  0.972517  0.893064  0.348866  1
  Se  Se23  1  0.472517  0.606936  0.651134  1
  Se  Se24  1  0.124596  0.428167  0.822435  1
  Se  Se25  1  0.624596  0.071833  0.177565  1
  Se  Se26  1  0.875404  0.571833  0.177565  1
  Se  Se27  1  0.375404  0.928167  0.822435  1
