# generated using pymatgen
data_Tm12Tc3Ag
_symmetry_space_group_name_H-M   'P 1'
_cell_length_a   6.23570473
_cell_length_b   7.39402694
_cell_length_c   9.07741400
_cell_angle_alpha   90.00000000
_cell_angle_beta   90.00000000
_cell_angle_gamma   89.60249519
_symmetry_Int_Tables_number   1
_chemical_formula_structural   Tm12Tc3Ag
_chemical_formula_sum   'Tm12 Tc3 Ag1'
_cell_volume   418.52197119
_cell_formula_units_Z   1
loop_
 _symmetry_equiv_pos_site_id
 _symmetry_equiv_pos_as_xyz
  1  'x, y, z'
loop_
 _atom_site_type_symbol
 _atom_site_label
 _atom_site_symmetry_multiplicity
 _atom_site_fract_x
 _atom_site_fract_y
 _atom_site_fract_z
 _atom_site_occupancy
  Tm  Tm0  1  0.329405  0.675729  0.069638  1
  Tm  Tm1  1  0.166539  0.179415  0.435029  1
  Tm  Tm2  1  0.666446  0.308550  0.553249  1
  Tm  Tm3  1  0.847114  0.833952  0.945097  1
  Tm  Tm4  1  0.666446  0.308550  0.946751  1
  Tm  Tm5  1  0.847114  0.833952  0.554903  1
  Tm  Tm6  1  0.329405  0.675729  0.430362  1
  Tm  Tm7  1  0.166539  0.179415  0.064971  1
  Tm  Tm8  1  0.870186  0.542410  0.250000  1
  Tm  Tm9  1  0.621772  0.037066  0.250000  1
  Tm  Tm10  1  0.116393  0.452333  0.750000  1
  Tm  Tm11  1  0.370422  0.977710  0.750000  1
  Tc  Tc12  1  0.035152  0.885713  0.250000  1
  Tc  Tc13  1  0.464932  0.383953  0.250000  1
  Tc  Tc14  1  0.951730  0.114807  0.750000  1
  Ag  Ag15  1  0.550405  0.610715  0.750000  1
