# generated using pymatgen
data_CsTc6S7
_symmetry_space_group_name_H-M   'P 1'
_cell_length_a   9.53963332
_cell_length_b   9.53963275
_cell_length_c   9.53963213
_cell_angle_alpha   60.18993214
_cell_angle_beta   60.18992932
_cell_angle_gamma   60.18992357
_symmetry_Int_Tables_number   1
_chemical_formula_structural   CsTc6S7
_chemical_formula_sum   'Cs2 Tc12 S14'
_cell_volume   616.51528380
_cell_formula_units_Z   2
loop_
 _symmetry_equiv_pos_site_id
 _symmetry_equiv_pos_as_xyz
  1  'x, y, z'
loop_
 _atom_site_type_symbol
 _atom_site_label
 _atom_site_symmetry_multiplicity
 _atom_site_fract_x
 _atom_site_fract_y
 _atom_site_fract_z
 _atom_site_occupancy
  Cs  Cs0  1  0.375279  0.375279  0.375279  1
  Cs  Cs1  1  0.624721  0.624721  0.624721  1
  Tc  Tc2  1  0.311715  0.126730  0.991509  1
  Tc  Tc3  1  0.198839  0.880728  0.063141  1
  Tc  Tc4  1  0.880728  0.063141  0.198839  1
  Tc  Tc5  1  0.936859  0.801161  0.119272  1
  Tc  Tc6  1  0.801161  0.119272  0.936859  1
  Tc  Tc7  1  0.119272  0.936859  0.801161  1
  Tc  Tc8  1  0.991509  0.311715  0.126730  1
  Tc  Tc9  1  0.873270  0.008491  0.688285  1
  Tc  Tc10  1  0.126730  0.991509  0.311715  1
  Tc  Tc11  1  0.008491  0.688285  0.873270  1
  Tc  Tc12  1  0.688285  0.873270  0.008491  1
  Tc  Tc13  1  0.063141  0.198839  0.880728  1
  S  S14  1  0.986395  0.231445  0.650701  1
  S  S15  1  0.231445  0.650701  0.986395  1
  S  S16  1  0.650701  0.986395  0.231445  1
  S  S17  1  0.013605  0.768555  0.349299  1
  S  S18  1  0.768555  0.349299  0.013605  1
  S  S19  1  0.349299  0.013605  0.768555  1
  S  S20  1  0.167435  0.410067  0.824925  1
  S  S21  1  0.410067  0.824925  0.167435  1
  S  S22  1  0.824925  0.167435  0.410067  1
  S  S23  1  0.832565  0.589933  0.175075  1
  S  S24  1  0.589933  0.175075  0.832565  1
  S  S25  1  0.175075  0.832565  0.589933  1
  S  S26  1  0.781983  0.781983  0.781983  1
  S  S27  1  0.218017  0.218017  0.218017  1
