# generated using pymatgen
data_La2Y3Si4
_symmetry_space_group_name_H-M   'P 1'
_cell_length_a   7.57407700
_cell_length_b   7.87847000
_cell_length_c   15.00406400
_cell_angle_alpha   90.00000000
_cell_angle_beta   90.00000000
_cell_angle_gamma   90.00000000
_symmetry_Int_Tables_number   1
_chemical_formula_structural   La2Y3Si4
_chemical_formula_sum   'La8 Y12 Si16'
_cell_volume   895.32458390
_cell_formula_units_Z   4
loop_
 _symmetry_equiv_pos_site_id
 _symmetry_equiv_pos_as_xyz
  1  'x, y, z'
loop_
 _atom_site_type_symbol
 _atom_site_label
 _atom_site_symmetry_multiplicity
 _atom_site_fract_x
 _atom_site_fract_y
 _atom_site_fract_z
 _atom_site_occupancy
  La  La0  1  0.018734  0.178157  0.401942  1
  La  La1  1  0.518734  0.321843  0.401942  1
  La  La2  1  0.481266  0.678157  0.901942  1
  La  La3  1  0.481266  0.678157  0.598058  1
  La  La4  1  0.981266  0.821843  0.598058  1
  La  La5  1  0.981266  0.821843  0.901942  1
  La  La6  1  0.518734  0.321843  0.098058  1
  La  La7  1  0.018734  0.178157  0.098058  1
  Y  Y8  1  0.324612  0.178213  0.623135  1
  Y  Y9  1  0.675388  0.821787  0.376865  1
  Y  Y10  1  0.657786  0.990116  0.750000  1
  Y  Y11  1  0.175388  0.678213  0.376865  1
  Y  Y12  1  0.824612  0.321787  0.876865  1
  Y  Y13  1  0.824612  0.321787  0.623135  1
  Y  Y14  1  0.842214  0.490116  0.250000  1
  Y  Y15  1  0.342214  0.009884  0.250000  1
  Y  Y16  1  0.324612  0.178213  0.876865  1
  Y  Y17  1  0.175388  0.678213  0.123135  1
  Y  Y18  1  0.675388  0.821787  0.123135  1
  Y  Y19  1  0.157786  0.509884  0.750000  1
  Si  Si20  1  0.276629  0.880786  0.750000  1
  Si  Si21  1  0.468516  0.613904  0.250000  1
  Si  Si22  1  0.031484  0.113904  0.750000  1
  Si  Si23  1  0.531484  0.386096  0.750000  1
  Si  Si24  1  0.146294  0.468559  0.538805  1
  Si  Si25  1  0.968516  0.886096  0.250000  1
  Si  Si26  1  0.723371  0.119214  0.250000  1
  Si  Si27  1  0.853706  0.531441  0.038805  1
  Si  Si28  1  0.353706  0.968559  0.038805  1
  Si  Si29  1  0.146294  0.468559  0.961195  1
  Si  Si30  1  0.646294  0.031441  0.538805  1
  Si  Si31  1  0.353706  0.968559  0.461195  1
  Si  Si32  1  0.853706  0.531441  0.461195  1
  Si  Si33  1  0.776629  0.619214  0.750000  1
  Si  Si34  1  0.223371  0.380786  0.250000  1
  Si  Si35  1  0.646294  0.031441  0.961195  1
