# generated using pymatgen
data_Yb2ZnSi3
_symmetry_space_group_name_H-M   'P 1'
_cell_length_a   8.23870397
_cell_length_b   8.14847841
_cell_length_c   5.87028636
_cell_angle_alpha   69.83331147
_cell_angle_beta   68.18885717
_cell_angle_gamma   41.97783599
_symmetry_Int_Tables_number   1
_chemical_formula_structural   Yb2ZnSi3
_chemical_formula_sum   'Yb4 Zn2 Si6'
_cell_volume   243.21956134
_cell_formula_units_Z   2
loop_
 _symmetry_equiv_pos_site_id
 _symmetry_equiv_pos_as_xyz
  1  'x, y, z'
loop_
 _atom_site_type_symbol
 _atom_site_label
 _atom_site_symmetry_multiplicity
 _atom_site_fract_x
 _atom_site_fract_y
 _atom_site_fract_z
 _atom_site_occupancy
  Yb  Yb0  1  0.243911  0.756089  0.243911  1
  Yb  Yb1  1  0.756089  0.243911  0.756089  1
  Yb  Yb2  1  0.250000  0.250000  0.250000  1
  Yb  Yb3  1  0.750000  0.750000  0.750000  1
  Zn  Zn4  1  0.333477  0.333477  0.666523  1
  Zn  Zn5  1  0.666523  0.666523  0.333477  1
  Si  Si6  1  0.166091  0.166091  0.833909  1
  Si  Si7  1  0.833909  0.833909  0.166091  1
  Si  Si8  1  0.833107  0.332597  0.166893  1
  Si  Si9  1  0.667403  0.166893  0.332597  1
  Si  Si10  1  0.332597  0.833107  0.667403  1
  Si  Si11  1  0.166893  0.667403  0.833107  1
