# generated using pymatgen
data_AcPa3CdO10
_symmetry_space_group_name_H-M   'P 1'
_cell_length_a   6.66777161
_cell_length_b   6.66777367
_cell_length_c   6.63673400
_cell_angle_alpha   100.30628219
_cell_angle_beta   98.93291760
_cell_angle_gamma   131.86429484
_symmetry_Int_Tables_number   1
_chemical_formula_structural   AcPa3CdO10
_chemical_formula_sum   'Ac1 Pa3 Cd1 O10'
_cell_volume   200.43046353
_cell_formula_units_Z   1
loop_
 _symmetry_equiv_pos_site_id
 _symmetry_equiv_pos_as_xyz
  1  'x, y, z'
loop_
 _atom_site_type_symbol
 _atom_site_label
 _atom_site_symmetry_multiplicity
 _atom_site_fract_x
 _atom_site_fract_y
 _atom_site_fract_z
 _atom_site_occupancy
  Ac  Ac0  1  0.002558  0.004454  0.007012  1
  Pa  Pa1  1  0.800375  0.596479  0.396855  1
  Pa  Pa2  1  0.196285  0.401654  0.597939  1
  Pa  Pa3  1  0.600929  0.197055  0.797983  1
  Cd  Cd4  1  0.398930  0.799568  0.198498  1
  O  O5  1  0.238681  0.746414  0.506418  1
  O  O6  1  0.636315  0.524651  0.688888  1
  O  O7  1  0.032791  0.345430  0.872398  1
  O  O8  1  0.478402  0.172584  0.102421  1
  O  O9  1  0.860035  0.957080  0.330731  1
  O  O10  1  0.373653  0.470697  0.330731  1
  O  O11  1  0.760005  0.267739  0.506418  1
  O  O12  1  0.164237  0.052573  0.688889  1
  O  O13  1  0.526967  0.839605  0.872399  1
  O  O14  1  0.929837  0.624019  0.102420  1
