# generated using pymatgen
data_HfAlIrRu
_symmetry_space_group_name_H-M   'P 1'
_cell_length_a   4.44481104
_cell_length_b   4.44481114
_cell_length_c   4.44481100
_cell_angle_alpha   59.99999362
_cell_angle_beta   59.99999286
_cell_angle_gamma   60.00000030
_symmetry_Int_Tables_number   1
_chemical_formula_structural   HfAlIrRu
_chemical_formula_sum   'Hf1 Al1 Ir1 Ru1'
_cell_volume   62.09331887
_cell_formula_units_Z   1
loop_
 _symmetry_equiv_pos_site_id
 _symmetry_equiv_pos_as_xyz
  1  'x, y, z'
loop_
 _atom_site_type_symbol
 _atom_site_label
 _atom_site_symmetry_multiplicity
 _atom_site_fract_x
 _atom_site_fract_y
 _atom_site_fract_z
 _atom_site_occupancy
  Hf  Hf0  1  0.000000  0.000000  0.000000  1
  Al  Al1  1  0.500000  0.500000  0.500000  1
  Ir  Ir2  1  0.750000  0.750000  0.750000  1
  Ru  Ru3  1  0.250000  0.250000  0.250000  1
