# generated using pymatgen
data_Nd3SmC5
_symmetry_space_group_name_H-M   'P 1'
_cell_length_a   3.83969600
_cell_length_b   6.85636965
_cell_length_c   12.45014578
_cell_angle_alpha   90.72189479
_cell_angle_beta   90.00000000
_cell_angle_gamma   90.00000000
_symmetry_Int_Tables_number   1
_chemical_formula_structural   Nd3SmC5
_chemical_formula_sum   'Nd6 Sm2 C10'
_cell_volume   327.74119263
_cell_formula_units_Z   2
loop_
 _symmetry_equiv_pos_site_id
 _symmetry_equiv_pos_as_xyz
  1  'x, y, z'
loop_
 _atom_site_type_symbol
 _atom_site_label
 _atom_site_symmetry_multiplicity
 _atom_site_fract_x
 _atom_site_fract_y
 _atom_site_fract_z
 _atom_site_occupancy
  Nd  Nd0  1  0.000000  0.251869  0.541390  1
  Nd  Nd1  1  0.000000  0.748131  0.458610  1
  Nd  Nd2  1  0.000000  0.752859  0.957398  1
  Nd  Nd3  1  0.000000  0.247141  0.042602  1
  Nd  Nd4  1  0.500000  0.606033  0.697360  1
  Nd  Nd5  1  0.500000  0.393967  0.302640  1
  Sm  Sm6  1  0.500000  0.110274  0.805313  1
  Sm  Sm7  1  0.500000  0.889726  0.194687  1
  C  C8  1  0.500000  0.500000  0.500000  1
  C  C9  1  0.500000  0.000000  0.000000  1
  C  C10  1  0.000000  0.360906  0.736022  1
  C  C11  1  0.000000  0.639094  0.263978  1
  C  C12  1  0.000000  0.863076  0.762519  1
  C  C13  1  0.000000  0.136924  0.237481  1
  C  C14  1  0.000000  0.387743  0.841419  1
  C  C15  1  0.000000  0.612257  0.158581  1
  C  C16  1  0.000000  0.080268  0.338099  1
  C  C17  1  0.000000  0.919732  0.661901  1
