# generated using pymatgen
data_Zr10BeTlSiSb5
_symmetry_space_group_name_H-M   'P 1'
_cell_length_a   8.64571735
_cell_length_b   8.63886960
_cell_length_c   5.84478025
_cell_angle_alpha   90.00022228
_cell_angle_beta   89.99955579
_cell_angle_gamma   120.02622087
_symmetry_Int_Tables_number   1
_chemical_formula_structural   Zr10BeTlSiSb5
_chemical_formula_sum   'Zr10 Be1 Tl1 Si1 Sb5'
_cell_volume   377.95662410
_cell_formula_units_Z   1
loop_
 _symmetry_equiv_pos_site_id
 _symmetry_equiv_pos_as_xyz
  1  'x, y, z'
loop_
 _atom_site_type_symbol
 _atom_site_label
 _atom_site_symmetry_multiplicity
 _atom_site_fract_x
 _atom_site_fract_y
 _atom_site_fract_z
 _atom_site_occupancy
  Zr  Zr0  1  0.253902  0.000000  0.244424  1
  Zr  Zr1  1  0.255313  0.255219  0.755186  1
  Zr  Zr2  1  0.000094  0.744781  0.755186  1
  Zr  Zr3  1  0.002127  0.257483  0.244091  1
  Zr  Zr4  1  0.744644  0.742517  0.244091  1
  Zr  Zr5  1  0.746551  0.000000  0.756007  1
  Zr  Zr6  1  0.330754  0.663284  0.000193  1
  Zr  Zr7  1  0.667822  0.337028  0.500010  1
  Zr  Zr8  1  0.667471  0.336716  0.000193  1
  Zr  Zr9  1  0.330794  0.662972  0.500010  1
  Be  Be10  1  0.998902  0.000000  0.000823  1
  Tl  Tl11  1  0.610221  0.000000  0.250860  1
  Si  Si12  1  0.998628  0.000000  0.498849  1
  Sb  Sb13  1  0.607027  0.608704  0.750080  1
  Sb  Sb14  1  0.998323  0.391296  0.750080  1
  Sb  Sb15  1  0.999922  0.607390  0.249831  1
  Sb  Sb16  1  0.392532  0.392610  0.249831  1
  Sb  Sb17  1  0.394973  0.000000  0.750250  1
