# generated using pymatgen
data_La12Cd(CoNi)3
_symmetry_space_group_name_H-M   'P 1'
_cell_length_a   8.85907839
_cell_length_b   8.88126586
_cell_length_c   8.85907753
_cell_angle_alpha   109.90422592
_cell_angle_beta   109.26040674
_cell_angle_gamma   109.14833743
_symmetry_Int_Tables_number   1
_chemical_formula_structural   La12Cd(CoNi)3
_chemical_formula_sum   'La12 Cd1 Co3 Ni3'
_cell_volume   537.21977919
_cell_formula_units_Z   1
loop_
 _symmetry_equiv_pos_site_id
 _symmetry_equiv_pos_as_xyz
  1  'x, y, z'
loop_
 _atom_site_type_symbol
 _atom_site_label
 _atom_site_symmetry_multiplicity
 _atom_site_fract_x
 _atom_site_fract_y
 _atom_site_fract_z
 _atom_site_occupancy
  La  La0  1  0.810589  0.686492  0.497098  1
  La  La1  1  0.180581  0.308466  0.489142  1
  La  La2  1  0.180674  0.691534  0.872116  1
  La  La3  1  0.810606  0.313508  0.124095  1
  La  La4  1  0.682769  0.494921  0.812647  1
  La  La5  1  0.317725  0.505079  0.187848  1
  La  La6  1  0.682455  0.870021  0.187954  1
  La  La7  1  0.317934  0.129979  0.812434  1
  La  La8  1  0.508448  0.817959  0.690340  1
  La  La9  1  0.492590  0.183320  0.309485  1
  La  La10  1  0.126163  0.816680  0.309269  1
  La  La11  1  0.872382  0.182041  0.690490  1
  Cd  Cd12  1  0.999168  0.000000  0.999168  1
  Co  Co13  1  0.636161  0.500000  0.136161  1
  Co  Co14  1  0.499772  0.877039  0.376743  1
  Co  Co15  1  0.499703  0.122961  0.622733  1
  Ni  Ni16  1  0.878707  0.377729  0.505418  1
  Ni  Ni17  1  0.127689  0.622271  0.500978  1
  Ni  Ni18  1  0.375883  0.500000  0.875883  1
