# generated using pymatgen
data_Cs3Ca2Br7
_symmetry_space_group_name_H-M   'P 1'
_cell_length_a   5.77369891
_cell_length_b   5.77369934
_cell_length_c   15.33438084
_cell_angle_alpha   100.85125139
_cell_angle_beta   100.85125251
_cell_angle_gamma   90.00000337
_symmetry_Int_Tables_number   1
_chemical_formula_structural   Cs3Ca2Br7
_chemical_formula_sum   'Cs3 Ca2 Br7'
_cell_volume   492.73068262
_cell_formula_units_Z   1
loop_
 _symmetry_equiv_pos_site_id
 _symmetry_equiv_pos_as_xyz
  1  'x, y, z'
loop_
 _atom_site_type_symbol
 _atom_site_label
 _atom_site_symmetry_multiplicity
 _atom_site_fract_x
 _atom_site_fract_y
 _atom_site_fract_z
 _atom_site_occupancy
  Cs  Cs0  1  0.000000  0.000000  0.000000  1
  Cs  Cs1  1  0.181250  0.181250  0.362500  1
  Cs  Cs2  1  0.818751  0.818751  0.637500  1
  Ca  Ca3  1  0.598745  0.598745  0.197490  1
  Ca  Ca4  1  0.401256  0.401256  0.802510  1
  Br  Br5  1  0.500001  0.500001  0.000000  1
  Br  Br6  1  0.595441  0.095440  0.190881  1
  Br  Br7  1  0.095440  0.595441  0.190881  1
  Br  Br8  1  0.695149  0.695149  0.390295  1
  Br  Br9  1  0.304852  0.304852  0.609705  1
  Br  Br10  1  0.904561  0.404560  0.809119  1
  Br  Br11  1  0.404560  0.904561  0.809119  1
