# generated using pymatgen
data_Sm10ErPa9Rh16
_symmetry_space_group_name_H-M   'P 1'
_cell_length_a   7.41245100
_cell_length_b   7.51740268
_cell_length_c   14.63402200
_cell_angle_alpha   90.00000000
_cell_angle_beta   90.00000000
_cell_angle_gamma   89.79807650
_symmetry_Int_Tables_number   1
_chemical_formula_structural   Sm10ErPa9Rh16
_chemical_formula_sum   'Sm10 Er1 Pa9 Rh16'
_cell_volume   815.43745680
_cell_formula_units_Z   1
loop_
 _symmetry_equiv_pos_site_id
 _symmetry_equiv_pos_as_xyz
  1  'x, y, z'
loop_
 _atom_site_type_symbol
 _atom_site_label
 _atom_site_symmetry_multiplicity
 _atom_site_fract_x
 _atom_site_fract_y
 _atom_site_fract_z
 _atom_site_occupancy
  Sm  Sm0  1  0.502283  0.674315  0.592107  1
  Sm  Sm1  1  0.002413  0.825913  0.910843  1
  Sm  Sm2  1  0.494586  0.325265  0.094534  1
  Sm  Sm3  1  0.997612  0.179440  0.405582  1
  Sm  Sm4  1  0.494586  0.325265  0.405466  1
  Sm  Sm5  1  0.997612  0.179440  0.094418  1
  Sm  Sm6  1  0.502283  0.674315  0.907893  1
  Sm  Sm7  1  0.002413  0.825913  0.589157  1
  Sm  Sm8  1  0.309220  0.969270  0.750000  1
  Sm  Sm9  1  0.691154  0.027208  0.250000  1
  Er  Er10  1  0.188799  0.477468  0.250000  1
  Pa  Pa11  1  0.655233  0.157375  0.619488  1
  Pa  Pa12  1  0.161378  0.338037  0.880653  1
  Pa  Pa13  1  0.343939  0.842351  0.121319  1
  Pa  Pa14  1  0.842662  0.655953  0.378685  1
  Pa  Pa15  1  0.343939  0.842351  0.378681  1
  Pa  Pa16  1  0.842662  0.655953  0.121315  1
  Pa  Pa17  1  0.655233  0.157375  0.880512  1
  Pa  Pa18  1  0.161378  0.338037  0.619347  1
  Pa  Pa19  1  0.810766  0.530088  0.750000  1
  Rh  Rh20  1  0.680855  0.949748  0.460894  1
  Rh  Rh21  1  0.178546  0.549550  0.041686  1
  Rh  Rh22  1  0.324320  0.052485  0.963187  1
  Rh  Rh23  1  0.825940  0.451118  0.542291  1
  Rh  Rh24  1  0.324320  0.052485  0.536813  1
  Rh  Rh25  1  0.825940  0.451118  0.957709  1
  Rh  Rh26  1  0.680855  0.949748  0.039106  1
  Rh  Rh27  1  0.178546  0.549550  0.458314  1
  Rh  Rh28  1  0.460569  0.361143  0.750000  1
  Rh  Rh29  1  0.939696  0.161047  0.750000  1
  Rh  Rh30  1  0.543264  0.650933  0.250000  1
  Rh  Rh31  1  0.047380  0.843573  0.250000  1
  Rh  Rh32  1  0.703907  0.862467  0.750000  1
  Rh  Rh33  1  0.163911  0.610805  0.750000  1
  Rh  Rh34  1  0.307227  0.112103  0.250000  1
  Rh  Rh35  1  0.814567  0.390800  0.250000  1
