# generated using pymatgen
data_BeNb10Si4Ge
_symmetry_space_group_name_H-M   'P 1'
_cell_length_a   7.57639050
_cell_length_b   7.57638964
_cell_length_c   7.57025414
_cell_angle_alpha   128.39608187
_cell_angle_beta   128.38088373
_cell_angle_gamma   76.05593505
_symmetry_Int_Tables_number   1
_chemical_formula_structural   BeNb10Si4Ge
_chemical_formula_sum   'Be1 Nb10 Si4 Ge1'
_cell_volume   259.46651346
_cell_formula_units_Z   1
loop_
 _symmetry_equiv_pos_site_id
 _symmetry_equiv_pos_as_xyz
  1  'x, y, z'
loop_
 _atom_site_type_symbol
 _atom_site_label
 _atom_site_symmetry_multiplicity
 _atom_site_fract_x
 _atom_site_fract_y
 _atom_site_fract_z
 _atom_site_occupancy
  Be  Be0  1  0.124855  0.624867  0.749722  1
  Nb  Nb1  1  0.019132  0.188598  0.505336  1
  Nb  Nb2  1  0.516212  0.019409  0.835173  1
  Nb  Nb3  1  0.177801  0.681058  0.153968  1
  Nb  Nb4  1  0.472910  0.976167  0.153968  1
  Nb  Nb5  1  0.689738  0.514519  0.505589  1
  Nb  Nb6  1  0.991069  0.815852  0.505589  1
  Nb  Nb7  1  0.316739  0.486203  0.505336  1
  Nb  Nb8  1  0.815763  0.318960  0.835173  1
  Nb  Nb9  1  0.495628  0.497812  0.993440  1
  Nb  Nb10  1  0.002657  0.996917  0.999573  1
  Si  Si11  1  0.367629  0.129660  0.497289  1
  Si  Si12  1  0.878249  0.378269  0.256518  1
  Si  Si13  1  0.750804  0.752042  0.002961  1
  Si  Si14  1  0.250919  0.252157  0.002961  1
  Ge  Ge15  1  0.629896  0.867509  0.497405  1
