# generated using pymatgen
data_SmLu19ZnBi11
_symmetry_space_group_name_H-M   'P 1'
_cell_length_a   8.07045457
_cell_length_b   9.35214000
_cell_length_c   11.76062600
_cell_angle_alpha   90.00000000
_cell_angle_beta   89.73925764
_cell_angle_gamma   90.00000000
_symmetry_Int_Tables_number   1
_chemical_formula_structural   SmLu19ZnBi11
_chemical_formula_sum   'Sm1 Lu19 Zn1 Bi11'
_cell_volume   887.63606336
_cell_formula_units_Z   1
loop_
 _symmetry_equiv_pos_site_id
 _symmetry_equiv_pos_as_xyz
  1  'x, y, z'
loop_
 _atom_site_type_symbol
 _atom_site_label
 _atom_site_symmetry_multiplicity
 _atom_site_fract_x
 _atom_site_fract_y
 _atom_site_fract_z
 _atom_site_occupancy
  Sm  Sm0  1  0.313321  0.750000  0.279983  1
  Lu  Lu1  1  0.037248  0.250000  0.508560  1
  Lu  Lu2  1  0.980696  0.750000  0.491134  1
  Lu  Lu3  1  0.476139  0.750000  0.009739  1
  Lu  Lu4  1  0.525228  0.250000  0.989630  1
  Lu  Lu5  1  0.356044  0.250000  0.295325  1
  Lu  Lu6  1  0.647963  0.750000  0.717406  1
  Lu  Lu7  1  0.150026  0.750000  0.781275  1
  Lu  Lu8  1  0.852543  0.250000  0.216737  1
  Lu  Lu9  1  0.193169  0.250000  0.778534  1
  Lu  Lu10  1  0.809402  0.750000  0.216844  1
  Lu  Lu11  1  0.673799  0.250000  0.709050  1
  Lu  Lu12  1  0.194170  0.067254  0.061699  1
  Lu  Lu13  1  0.806068  0.933017  0.940145  1
  Lu  Lu14  1  0.309313  0.952479  0.558970  1
  Lu  Lu15  1  0.806068  0.566983  0.940145  1
  Lu  Lu16  1  0.683166  0.072706  0.445536  1
  Lu  Lu17  1  0.194170  0.432746  0.061699  1
  Lu  Lu18  1  0.683166  0.427294  0.445536  1
  Lu  Lu19  1  0.309313  0.547521  0.558970  1
  Zn  Zn20  1  0.407053  0.250000  0.539780  1
  Bi  Bi21  1  0.598778  0.750000  0.459566  1
  Bi  Bi22  1  0.094303  0.750000  0.041524  1
  Bi  Bi23  1  0.905709  0.250000  0.954112  1
  Bi  Bi24  1  0.059700  0.004407  0.323914  1
  Bi  Bi25  1  0.935568  0.998056  0.676033  1
  Bi  Bi26  1  0.435489  0.996978  0.824915  1
  Bi  Bi27  1  0.935568  0.501944  0.676033  1
  Bi  Bi28  1  0.565816  0.005311  0.174189  1
  Bi  Bi29  1  0.059700  0.495593  0.323914  1
  Bi  Bi30  1  0.565816  0.494689  0.174189  1
  Bi  Bi31  1  0.435489  0.503022  0.824915  1
