# generated using pymatgen
data_TbHo2Er7(In2Pd)4
_symmetry_space_group_name_H-M   'P 1'
_cell_length_a   3.59775700
_cell_length_b   8.13925483
_cell_length_c   18.21520859
_cell_angle_alpha   89.99218422
_cell_angle_beta   90.00000000
_cell_angle_gamma   90.00000000
_symmetry_Int_Tables_number   1
_chemical_formula_structural   TbHo2Er7(In2Pd)4
_chemical_formula_sum   'Tb1 Ho2 Er7 In8 Pd4'
_cell_volume   533.39705996
_cell_formula_units_Z   1
loop_
 _symmetry_equiv_pos_site_id
 _symmetry_equiv_pos_as_xyz
  1  'x, y, z'
loop_
 _atom_site_type_symbol
 _atom_site_label
 _atom_site_symmetry_multiplicity
 _atom_site_fract_x
 _atom_site_fract_y
 _atom_site_fract_z
 _atom_site_occupancy
  Tb  Tb0  1  0.000000  0.500063  0.499999  1
  Ho  Ho1  1  0.000000  0.999974  0.999792  1
  Ho  Ho2  1  0.000000  0.739491  0.280940  1
  Er  Er3  1  0.000000  0.260415  0.719218  1
  Er  Er4  1  0.000000  0.760194  0.780627  1
  Er  Er5  1  0.000000  0.239706  0.219235  1
  Er  Er6  1  0.000000  0.617636  0.083754  1
  Er  Er7  1  0.000000  0.382365  0.916177  1
  Er  Er8  1  0.000000  0.882522  0.583851  1
  Er  Er9  1  0.000000  0.117628  0.416420  1
  In  In10  1  0.500000  0.707659  0.932625  1
  In  In11  1  0.500000  0.292130  0.067148  1
  In  In12  1  0.500000  0.793320  0.432844  1
  In  In13  1  0.500000  0.207152  0.567539  1
  In  In14  1  0.500000  0.580758  0.650391  1
  In  In15  1  0.500000  0.418461  0.349690  1
  In  In16  1  0.500000  0.920089  0.150026  1
  In  In17  1  0.500000  0.080205  0.849730  1
  Pd  Pd18  1  0.500000  0.522067  0.195681  1
  Pd  Pd19  1  0.500000  0.476707  0.804145  1
  Pd  Pd20  1  0.500000  0.976772  0.696139  1
  Pd  Pd21  1  0.500000  0.024685  0.304029  1
