# generated using pymatgen
data_Cs3Ti2FeO7
_symmetry_space_group_name_H-M   'P 1'
_cell_length_a   10.18192919
_cell_length_b   10.18191999
_cell_length_c   7.89401500
_cell_angle_alpha   73.20581117
_cell_angle_beta   73.20624413
_cell_angle_gamma   122.41462766
_symmetry_Int_Tables_number   1
_chemical_formula_structural   Cs3Ti2FeO7
_chemical_formula_sum   'Cs6 Ti4 Fe2 O14'
_cell_volume   552.75680493
_cell_formula_units_Z   2
loop_
 _symmetry_equiv_pos_site_id
 _symmetry_equiv_pos_as_xyz
  1  'x, y, z'
loop_
 _atom_site_type_symbol
 _atom_site_label
 _atom_site_symmetry_multiplicity
 _atom_site_fract_x
 _atom_site_fract_y
 _atom_site_fract_z
 _atom_site_occupancy
  Cs  Cs0  1  0.582483  0.974211  0.739279  1
  Cs  Cs1  1  0.009284  0.990714  0.750002  1
  Cs  Cs2  1  0.974210  0.582484  0.239281  1
  Cs  Cs3  1  0.990716  0.009286  0.249998  1
  Cs  Cs4  1  0.025790  0.417516  0.760719  1
  Cs  Cs5  1  0.417517  0.025789  0.260721  1
  Ti  Ti6  1  0.769809  0.565593  0.757696  1
  Ti  Ti7  1  0.434403  0.230190  0.742308  1
  Ti  Ti8  1  0.565597  0.769810  0.257692  1
  Ti  Ti9  1  0.230191  0.434407  0.242304  1
  Fe  Fe10  1  0.439818  0.560171  0.750000  1
  Fe  Fe11  1  0.560182  0.439829  0.250000  1
  O  O12  1  0.669178  0.671854  0.728505  1
  O  O13  1  0.671853  0.669174  0.228506  1
  O  O14  1  0.506599  0.252934  0.483775  1
  O  O15  1  0.328147  0.330826  0.771494  1
  O  O16  1  0.995064  0.269138  0.449222  1
  O  O17  1  0.493401  0.747066  0.516225  1
  O  O18  1  0.269134  0.995064  0.949228  1
  O  O19  1  0.252941  0.506608  0.983773  1
  O  O20  1  0.350742  0.649256  0.250002  1
  O  O21  1  0.330822  0.328146  0.271495  1
  O  O22  1  0.730866  0.004936  0.050772  1
  O  O23  1  0.649258  0.350744  0.749998  1
  O  O24  1  0.004936  0.730862  0.550778  1
  O  O25  1  0.747059  0.493392  0.016227  1
