# generated using pymatgen
data_Ho7Er13(PtRh)6
_symmetry_space_group_name_H-M   'P 1'
_cell_length_a   10.94287417
_cell_length_b   10.94063804
_cell_length_c   6.29224100
_cell_angle_alpha   89.99945536
_cell_angle_beta   90.01002151
_cell_angle_gamma   89.99521351
_symmetry_Int_Tables_number   1
_chemical_formula_structural   Ho7Er13(PtRh)6
_chemical_formula_sum   'Ho7 Er13 Pt6 Rh6'
_cell_volume   753.31982244
_cell_formula_units_Z   1
loop_
 _symmetry_equiv_pos_site_id
 _symmetry_equiv_pos_as_xyz
  1  'x, y, z'
loop_
 _atom_site_type_symbol
 _atom_site_label
 _atom_site_symmetry_multiplicity
 _atom_site_fract_x
 _atom_site_fract_y
 _atom_site_fract_z
 _atom_site_occupancy
  Ho  Ho0  1  0.293231  0.090264  0.372805  1
  Ho  Ho1  1  0.293175  0.910019  0.872706  1
  Ho  Ho2  1  0.706118  0.088245  0.871755  1
  Ho  Ho3  1  0.706158  0.911874  0.371719  1
  Ho  Ho4  1  0.586222  0.790807  0.872252  1
  Ho  Ho5  1  0.586118  0.209259  0.372172  1
  Ho  Ho6  1  0.410141  0.792076  0.376011  1
  Er  Er7  1  0.410202  0.207591  0.876146  1
  Er  Er8  1  0.209660  0.412432  0.625250  1
  Er  Er9  1  0.209511  0.587432  0.125214  1
  Er  Er10  1  0.794201  0.412148  0.125412  1
  Er  Er11  1  0.794205  0.587785  0.625472  1
  Er  Er12  1  0.913302  0.705540  0.126639  1
  Er  Er13  1  0.913223  0.294397  0.626700  1
  Er  Er14  1  0.090163  0.706007  0.627825  1
  Er  Er15  1  0.090189  0.294010  0.127740  1
  Er  Er16  1  0.999878  0.999699  0.500466  1
  Er  Er17  1  0.999831  0.000420  0.000296  1
  Er  Er18  1  0.497778  0.498668  0.000484  1
  Er  Er19  1  0.497948  0.501054  0.500537  1
  Pt  Pt20  1  0.845700  0.154745  0.250939  1
  Pt  Pt21  1  0.845630  0.845258  0.750883  1
  Pt  Pt22  1  0.153736  0.155833  0.750079  1
  Pt  Pt23  1  0.153181  0.844277  0.249732  1
  Pt  Pt24  1  0.654936  0.346500  0.750183  1
  Pt  Pt25  1  0.655248  0.653260  0.249945  1
  Rh  Rh26  1  0.345343  0.345864  0.249880  1
  Rh  Rh27  1  0.345249  0.653935  0.750483  1
  Rh  Rh28  1  0.499570  0.000350  0.121365  1
  Rh  Rh29  1  0.499543  0.000337  0.621802  1
  Rh  Rh30  1  0.000360  0.500113  0.878773  1
  Rh  Rh31  1  0.000250  0.499803  0.378335  1
