# generated using pymatgen
data_Ho6Tm7Th3(CdIr)4
_symmetry_space_group_name_H-M   'P 1'
_cell_length_a   9.66047432
_cell_length_b   9.65313660
_cell_length_c   9.65313700
_cell_angle_alpha   60.00000206
_cell_angle_beta   60.02512494
_cell_angle_gamma   60.02512717
_symmetry_Int_Tables_number   1
_chemical_formula_structural   Ho6Tm7Th3(CdIr)4
_chemical_formula_sum   'Ho6 Tm7 Th3 Cd4 Ir4'
_cell_volume   636.77383948
_cell_formula_units_Z   1
loop_
 _symmetry_equiv_pos_site_id
 _symmetry_equiv_pos_as_xyz
  1  'x, y, z'
loop_
 _atom_site_type_symbol
 _atom_site_label
 _atom_site_symmetry_multiplicity
 _atom_site_fract_x
 _atom_site_fract_y
 _atom_site_fract_z
 _atom_site_occupancy
  Ho  Ho0  1  0.186050  0.813573  0.813573  1
  Ho  Ho1  1  0.814998  0.184976  0.184976  1
  Ho  Ho2  1  0.814998  0.184976  0.815051  1
  Ho  Ho3  1  0.186050  0.813573  0.186805  1
  Ho  Ho4  1  0.814998  0.815051  0.184976  1
  Ho  Ho5  1  0.186050  0.186805  0.813573  1
  Tm  Tm6  1  0.198578  0.600475  0.600475  1
  Tm  Tm7  1  0.062521  0.438820  0.438820  1
  Tm  Tm8  1  0.437188  0.063018  0.063018  1
  Tm  Tm9  1  0.437188  0.063018  0.436777  1
  Tm  Tm10  1  0.062521  0.438820  0.059840  1
  Tm  Tm11  1  0.437188  0.436777  0.063018  1
  Tm  Tm12  1  0.062521  0.059840  0.438820  1
  Th  Th13  1  0.598143  0.600629  0.600629  1
  Th  Th14  1  0.598143  0.600629  0.200600  1
  Th  Th15  1  0.598143  0.200600  0.600629  1
  Cd  Cd16  1  0.834565  0.831185  0.831185  1
  Cd  Cd17  1  0.834565  0.831185  0.503065  1
  Cd  Cd18  1  0.834565  0.503065  0.831185  1
  Cd  Cd19  1  0.501045  0.832985  0.832985  1
  Ir  Ir20  1  0.392010  0.391821  0.391821  1
  Ir  Ir21  1  0.392010  0.391821  0.824349  1
  Ir  Ir22  1  0.392010  0.824349  0.391821  1
  Ir  Ir23  1  0.823954  0.392016  0.392016  1
