# generated using pymatgen
data_YbSm(Co3Si2)2
_symmetry_space_group_name_H-M   'P 1'
_cell_length_a   6.28535158
_cell_length_b   6.28535082
_cell_length_c   6.28535068
_cell_angle_alpha   130.23277110
_cell_angle_beta   114.51171660
_cell_angle_gamma   86.51578181
_symmetry_Int_Tables_number   1
_chemical_formula_structural   YbSm(Co3Si2)2
_chemical_formula_sum   'Yb1 Sm1 Co6 Si4'
_cell_volume   164.62813477
_cell_formula_units_Z   1
loop_
 _symmetry_equiv_pos_site_id
 _symmetry_equiv_pos_as_xyz
  1  'x, y, z'
loop_
 _atom_site_type_symbol
 _atom_site_label
 _atom_site_symmetry_multiplicity
 _atom_site_fract_x
 _atom_site_fract_y
 _atom_site_fract_z
 _atom_site_occupancy
  Yb  Yb0  1  0.250000  0.536291  0.286291  1
  Sm  Sm1  1  0.750000  0.463267  0.713267  1
  Co  Co2  1  0.999423  0.999449  0.498871  1
  Co  Co3  1  0.500577  0.999449  0.000026  1
  Co  Co4  1  0.718975  0.999305  0.719322  1
  Co  Co5  1  0.220016  0.500348  0.719322  1
  Co  Co6  1  0.279984  0.999305  0.280331  1
  Co  Co7  1  0.781025  0.500348  0.280331  1
  Si  Si8  1  0.081957  0.881401  0.799443  1
  Si  Si9  1  0.922102  0.123777  0.201676  1
  Si  Si10  1  0.577898  0.779575  0.201676  1
  Si  Si11  1  0.418043  0.217485  0.799443  1
