# generated using pymatgen
data_Hf2GaH
_symmetry_space_group_name_H-M   'P 1'
_cell_length_a   5.46264996
_cell_length_b   5.46264922
_cell_length_c   5.46264939
_cell_angle_alpha   104.40657519
_cell_angle_beta   104.40656403
_cell_angle_gamma   120.15878115
_symmetry_Int_Tables_number   1
_chemical_formula_structural   Hf2GaH
_chemical_formula_sum   'Hf4 Ga2 H2'
_cell_volume   122.15776509
_cell_formula_units_Z   2
loop_
 _symmetry_equiv_pos_site_id
 _symmetry_equiv_pos_as_xyz
  1  'x, y, z'
loop_
 _atom_site_type_symbol
 _atom_site_label
 _atom_site_symmetry_multiplicity
 _atom_site_fract_x
 _atom_site_fract_y
 _atom_site_fract_z
 _atom_site_occupancy
  Hf  Hf0  1  0.161148  0.661148  0.822297  1
  Hf  Hf1  1  0.838852  0.338852  0.177703  1
  Hf  Hf2  1  0.338852  0.161148  0.500000  1
  Hf  Hf3  1  0.661148  0.838852  0.500000  1
  Ga  Ga4  1  0.250000  0.250000  0.000000  1
  Ga  Ga5  1  0.750000  0.750000  0.000000  1
  H  H6  1  0.750000  0.250000  0.500000  1
  H  H7  1  0.250000  0.750000  0.500000  1
