# generated using pymatgen
data_Dy6MnVB14
_symmetry_space_group_name_H-M   'P 1'
_cell_length_a   8.10487673
_cell_length_b   8.10487713
_cell_length_c   9.36292400
_cell_angle_alpha   90.00000000
_cell_angle_beta   90.00000000
_cell_angle_gamma   155.59989859
_symmetry_Int_Tables_number   1
_chemical_formula_structural   Dy6MnVB14
_chemical_formula_sum   'Dy6 Mn1 V1 B14'
_cell_volume   254.07731662
_cell_formula_units_Z   1
loop_
 _symmetry_equiv_pos_site_id
 _symmetry_equiv_pos_as_xyz
  1  'x, y, z'
loop_
 _atom_site_type_symbol
 _atom_site_label
 _atom_site_symmetry_multiplicity
 _atom_site_fract_x
 _atom_site_fract_y
 _atom_site_fract_z
 _atom_site_occupancy
  Dy  Dy0  1  0.894084  0.105916  0.441284  1
  Dy  Dy1  1  0.105277  0.894723  0.562443  1
  Dy  Dy2  1  0.894084  0.105916  0.058716  1
  Dy  Dy3  1  0.105277  0.894723  0.937557  1
  Dy  Dy4  1  0.243046  0.756954  0.250000  1
  Dy  Dy5  1  0.758273  0.241727  0.750000  1
  Mn  Mn6  1  0.945880  0.054120  0.750000  1
  V  V7  1  0.052722  0.947278  0.250000  1
  B  B8  1  0.727686  0.272314  0.468838  1
  B  B9  1  0.273022  0.726978  0.533643  1
  B  B10  1  0.727686  0.272314  0.031162  1
  B  B11  1  0.273022  0.726978  0.966357  1
  B  B12  1  0.632778  0.367222  0.149027  1
  B  B13  1  0.369663  0.630337  0.847706  1
  B  B14  1  0.632778  0.367222  0.350973  1
  B  B15  1  0.369663  0.630337  0.652294  1
  B  B16  1  0.520821  0.479179  0.093835  1
  B  B17  1  0.478195  0.521805  0.903372  1
  B  B18  1  0.520821  0.479179  0.406165  1
  B  B19  1  0.478195  0.521805  0.596628  1
  B  B20  1  0.458336  0.541664  0.250000  1
  B  B21  1  0.538691  0.461309  0.750000  1
