# generated using pymatgen
data_Tb15ThIn3AgIr4
_symmetry_space_group_name_H-M   'P 1'
_cell_length_a   9.70899481
_cell_length_b   9.69024118
_cell_length_c   9.70899456
_cell_angle_alpha   60.00331663
_cell_angle_beta   60.06836176
_cell_angle_gamma   60.00331654
_symmetry_Int_Tables_number   1
_chemical_formula_structural   Tb15ThIn3AgIr4
_chemical_formula_sum   'Tb15 Th1 In3 Ag1 Ir4'
_cell_volume   646.26967824
_cell_formula_units_Z   1
loop_
 _symmetry_equiv_pos_site_id
 _symmetry_equiv_pos_as_xyz
  1  'x, y, z'
loop_
 _atom_site_type_symbol
 _atom_site_label
 _atom_site_symmetry_multiplicity
 _atom_site_fract_x
 _atom_site_fract_y
 _atom_site_fract_z
 _atom_site_occupancy
  Tb  Tb0  1  0.942840  0.939820  0.558141  1
  Tb  Tb1  1  0.939907  0.558402  0.939907  1
  Tb  Tb2  1  0.313120  0.683076  0.313120  1
  Tb  Tb3  1  0.936299  0.560073  0.562680  1
  Tb  Tb4  1  0.311780  0.309337  0.687898  1
  Tb  Tb5  1  0.098411  0.100776  0.098411  1
  Tb  Tb6  1  0.562680  0.560073  0.936299  1
  Tb  Tb7  1  0.101901  0.102366  0.696750  1
  Tb  Tb8  1  0.690852  0.307229  0.690852  1
  Tb  Tb9  1  0.689297  0.687294  0.311901  1
  Tb  Tb10  1  0.687898  0.309337  0.311780  1
  Tb  Tb11  1  0.311901  0.687294  0.689297  1
  Tb  Tb12  1  0.560479  0.936208  0.560479  1
  Tb  Tb13  1  0.696750  0.102366  0.101901  1
  Tb  Tb14  1  0.558141  0.939820  0.942840  1
  Th  Th15  1  0.097831  0.708453  0.097831  1
  In  In16  1  0.004977  0.331774  0.332003  1
  In  In17  1  0.331376  0.005841  0.331376  1
  In  In18  1  0.332003  0.331774  0.004977  1
  Ag  Ag19  1  0.333363  0.333341  0.333363  1
  Ir  Ir20  1  0.892296  0.894455  0.892296  1
  Ir  Ir21  1  0.891255  0.893621  0.323018  1
  Ir  Ir22  1  0.323018  0.893621  0.891255  1
  Ir  Ir23  1  0.891628  0.323647  0.891628  1
