# generated using pymatgen
data_Tl2InOs3Pb2O13
_symmetry_space_group_name_H-M   'P 1'
_cell_length_a   7.53559513
_cell_length_b   7.58831776
_cell_length_c   7.58831713
_cell_angle_alpha   58.65563719
_cell_angle_beta   58.84269505
_cell_angle_gamma   58.84268897
_symmetry_Int_Tables_number   1
_chemical_formula_structural   Tl2InOs3Pb2O13
_chemical_formula_sum   'Tl2 In1 Os3 Pb2 O13'
_cell_volume   298.27768295
_cell_formula_units_Z   1
loop_
 _symmetry_equiv_pos_site_id
 _symmetry_equiv_pos_as_xyz
  1  'x, y, z'
loop_
 _atom_site_type_symbol
 _atom_site_label
 _atom_site_symmetry_multiplicity
 _atom_site_fract_x
 _atom_site_fract_y
 _atom_site_fract_z
 _atom_site_occupancy
  Tl  Tl0  1  0.995965  0.996060  0.996060  1
  Tl  Tl1  1  0.512894  0.997034  0.997034  1
  In  In2  1  0.500490  0.501273  0.501273  1
  Os  Os3  1  0.000513  0.500784  0.500784  1
  Os  Os4  1  0.500949  0.500120  0.999999  1
  Os  Os5  1  0.500949  0.999999  0.500120  1
  Pb  Pb6  1  0.002221  0.005611  0.498408  1
  Pb  Pb7  1  0.002221  0.498408  0.005611  1
  O  O8  1  0.854965  0.415146  0.415146  1
  O  O9  1  0.428739  0.808888  0.808888  1
  O  O10  1  0.410820  0.430603  0.850880  1
  O  O11  1  0.805033  0.803508  0.425835  1
  O  O12  1  0.805033  0.425835  0.803508  1
  O  O13  1  0.410820  0.850880  0.430603  1
  O  O14  1  0.149052  0.581951  0.581951  1
  O  O15  1  0.572529  0.190901  0.190901  1
  O  O16  1  0.587082  0.565353  0.153580  1
  O  O17  1  0.193865  0.195057  0.574059  1
  O  O18  1  0.193865  0.574059  0.195057  1
  O  O19  1  0.587082  0.153580  0.565353  1
  O  O20  1  0.109909  0.129946  0.129946  1
