# generated using pymatgen
data_NaPr4Nd2OsBr12
_symmetry_space_group_name_H-M   'P 1'
_cell_length_a   9.62058055
_cell_length_b   9.61671984
_cell_length_c   9.62862611
_cell_angle_alpha   107.25125804
_cell_angle_beta   107.18809941
_cell_angle_gamma   107.16702665
_symmetry_Int_Tables_number   1
_chemical_formula_structural   NaPr4Nd2OsBr12
_chemical_formula_sum   'Na1 Pr4 Nd2 Os1 Br12'
_cell_volume   737.75868171
_cell_formula_units_Z   1
loop_
 _symmetry_equiv_pos_site_id
 _symmetry_equiv_pos_as_xyz
  1  'x, y, z'
loop_
 _atom_site_type_symbol
 _atom_site_label
 _atom_site_symmetry_multiplicity
 _atom_site_fract_x
 _atom_site_fract_y
 _atom_site_fract_z
 _atom_site_occupancy
  Na  Na0  1  0.499970  0.500001  0.500050  1
  Pr  Pr1  1  0.111953  0.320206  0.031465  1
  Pr  Pr2  1  0.320355  0.031035  0.112472  1
  Pr  Pr3  1  0.031138  0.112050  0.320143  1
  Pr  Pr4  1  0.968439  0.887068  0.679539  1
  Nd  Nd5  1  0.681016  0.968611  0.887872  1
  Nd  Nd6  1  0.887316  0.680843  0.968079  1
  Os  Os7  1  0.999915  0.999737  0.999734  1
  Br  Br8  1  0.215432  0.684440  0.070706  1
  Br  Br9  1  0.455033  0.373084  0.156112  1
  Br  Br10  1  0.684843  0.071254  0.215872  1
  Br  Br11  1  0.928189  0.780003  0.312635  1
  Br  Br12  1  0.156113  0.455138  0.373248  1
  Br  Br13  1  0.373096  0.155795  0.455133  1
  Br  Br14  1  0.626881  0.845245  0.547492  1
  Br  Br15  1  0.844076  0.545147  0.629262  1
  Br  Br16  1  0.071194  0.218736  0.684957  1
  Br  Br17  1  0.316230  0.928109  0.781863  1
  Br  Br18  1  0.547825  0.629333  0.845201  1
  Br  Br19  1  0.780987  0.314170  0.928166  1
