# generated using pymatgen
data_Dy5Mn3(Co4As3)4
_symmetry_space_group_name_H-M   'P 1'
_cell_length_a   12.52354400
_cell_length_b   12.52354428
_cell_length_c   3.80914300
_cell_angle_alpha   90.00000000
_cell_angle_beta   90.00000000
_cell_angle_gamma   120.00000453
_symmetry_Int_Tables_number   1
_chemical_formula_structural   Dy5Mn3(Co4As3)4
_chemical_formula_sum   'Dy5 Mn3 Co16 As12'
_cell_volume   517.38328095
_cell_formula_units_Z   1
loop_
 _symmetry_equiv_pos_site_id
 _symmetry_equiv_pos_as_xyz
  1  'x, y, z'
loop_
 _atom_site_type_symbol
 _atom_site_label
 _atom_site_symmetry_multiplicity
 _atom_site_fract_x
 _atom_site_fract_y
 _atom_site_fract_z
 _atom_site_occupancy
  Dy  Dy0  1  0.187151  0.187151  0.500000  1
  Dy  Dy1  1  0.812849  0.000000  0.500000  1
  Dy  Dy2  1  0.000000  0.812849  0.500000  1
  Dy  Dy3  1  0.333333  0.666667  0.000000  1
  Dy  Dy4  1  0.666667  0.333333  0.000000  1
  Mn  Mn5  1  0.561692  0.561692  0.000000  1
  Mn  Mn6  1  0.438308  0.000000  0.000000  1
  Mn  Mn7  1  0.000000  0.438308  0.000000  1
  Co  Co8  1  0.715608  0.715608  0.500000  1
  Co  Co9  1  0.284392  0.000000  0.500000  1
  Co  Co10  1  0.000000  0.284392  0.500000  1
  Co  Co11  1  0.178085  0.376840  0.000000  1
  Co  Co12  1  0.623160  0.801244  0.000000  1
  Co  Co13  1  0.198756  0.821915  0.000000  1
  Co  Co14  1  0.801244  0.623160  0.000000  1
  Co  Co15  1  0.821915  0.198756  0.000000  1
  Co  Co16  1  0.376840  0.178085  0.000000  1
  Co  Co17  1  0.356884  0.481388  0.500000  1
  Co  Co18  1  0.518612  0.875497  0.500000  1
  Co  Co19  1  0.124503  0.643116  0.500000  1
  Co  Co20  1  0.875497  0.518612  0.500000  1
  Co  Co21  1  0.643116  0.124503  0.500000  1
  Co  Co22  1  0.481388  0.356884  0.500000  1
  Co  Co23  1  0.000000  0.000000  0.000000  1
  As  As24  1  0.820744  0.820744  0.000000  1
  As  As25  1  0.179256  0.000000  0.000000  1
  As  As26  1  0.000000  0.179256  0.000000  1
  As  As27  1  0.168217  0.482306  0.500000  1
  As  As28  1  0.517694  0.685912  0.500000  1
  As  As29  1  0.314088  0.831783  0.500000  1
  As  As30  1  0.685912  0.517694  0.500000  1
  As  As31  1  0.831783  0.314088  0.500000  1
  As  As32  1  0.482306  0.168217  0.500000  1
  As  As33  1  0.363951  0.363951  0.000000  1
  As  As34  1  0.636049  0.000000  0.000000  1
  As  As35  1  0.000000  0.636049  0.000000  1
