# generated using pymatgen
data_Pr8Si12AgRh3
_symmetry_space_group_name_H-M   'P 1'
_cell_length_a   8.30777900
_cell_length_b   8.30777904
_cell_length_c   8.55412700
_cell_angle_alpha   90.00000000
_cell_angle_beta   90.00000000
_cell_angle_gamma   119.99999585
_symmetry_Int_Tables_number   1
_chemical_formula_structural   Pr8Si12AgRh3
_chemical_formula_sum   'Pr8 Si12 Ag1 Rh3'
_cell_volume   511.30049834
_cell_formula_units_Z   1
loop_
 _symmetry_equiv_pos_site_id
 _symmetry_equiv_pos_as_xyz
  1  'x, y, z'
loop_
 _atom_site_type_symbol
 _atom_site_label
 _atom_site_symmetry_multiplicity
 _atom_site_fract_x
 _atom_site_fract_y
 _atom_site_fract_z
 _atom_site_occupancy
  Pr  Pr0  1  0.000000  0.000000  0.749096  1
  Pr  Pr1  1  0.000000  0.000000  0.251410  1
  Pr  Pr2  1  0.495451  0.504549  0.745086  1
  Pr  Pr3  1  0.495451  0.990904  0.745086  1
  Pr  Pr4  1  0.009096  0.504549  0.745086  1
  Pr  Pr5  1  0.498653  0.501347  0.254771  1
  Pr  Pr6  1  0.002696  0.501347  0.254771  1
  Pr  Pr7  1  0.498653  0.997304  0.254771  1
  Si  Si8  1  0.839681  0.160319  0.000635  1
  Si  Si9  1  0.839681  0.679363  0.000635  1
  Si  Si10  1  0.320637  0.160319  0.000635  1
  Si  Si11  1  0.832471  0.167529  0.499573  1
  Si  Si12  1  0.832471  0.664943  0.499573  1
  Si  Si13  1  0.335057  0.167529  0.499573  1
  Si  Si14  1  0.166083  0.833917  0.500600  1
  Si  Si15  1  0.667834  0.833917  0.500600  1
  Si  Si16  1  0.166083  0.332166  0.500600  1
  Si  Si17  1  0.168257  0.831743  0.999649  1
  Si  Si18  1  0.663484  0.831743  0.999649  1
  Si  Si19  1  0.168257  0.336516  0.999649  1
  Ag  Ag20  1  0.666667  0.333333  0.993812  1
  Rh  Rh21  1  0.666667  0.333333  0.505862  1
  Rh  Rh22  1  0.333333  0.666667  0.493604  1
  Rh  Rh23  1  0.333333  0.666667  0.005274  1
