# generated using pymatgen
data_Sm3Dy5Np4O24
_symmetry_space_group_name_H-M   'P 1'
_cell_length_a   5.58342600
_cell_length_b   7.89368090
_cell_length_c   11.89324874
_cell_angle_alpha   73.99711475
_cell_angle_beta   90.00000000
_cell_angle_gamma   90.00000000
_symmetry_Int_Tables_number   1
_chemical_formula_structural   Sm3Dy5Np4O24
_chemical_formula_sum   'Sm3 Dy5 Np4 O24'
_cell_volume   503.86732735
_cell_formula_units_Z   1
loop_
 _symmetry_equiv_pos_site_id
 _symmetry_equiv_pos_as_xyz
  1  'x, y, z'
loop_
 _atom_site_type_symbol
 _atom_site_label
 _atom_site_symmetry_multiplicity
 _atom_site_fract_x
 _atom_site_fract_y
 _atom_site_fract_z
 _atom_site_occupancy
  Sm  Sm0  1  0.254466  0.000000  0.250000  1
  Sm  Sm1  1  0.695795  0.500000  0.750000  1
  Sm  Sm2  1  0.305610  0.500000  0.250000  1
  Dy  Dy3  1  0.744406  0.000000  0.750000  1
  Dy  Dy4  1  0.185975  0.794801  0.579853  1
  Dy  Dy5  1  0.812586  0.795114  0.078431  1
  Dy  Dy6  1  0.185975  0.205199  0.920147  1
  Dy  Dy7  1  0.812586  0.204886  0.421569  1
  Np  Np8  1  0.255091  0.724329  0.885697  1
  Np  Np9  1  0.745522  0.720842  0.387556  1
  Np  Np10  1  0.255091  0.275671  0.614303  1
  Np  Np11  1  0.745522  0.279158  0.112444  1
  O  O12  1  0.043416  0.945398  0.895904  1
  O  O13  1  0.552476  0.849281  0.931339  1
  O  O14  1  0.951945  0.943332  0.399062  1
  O  O15  1  0.450067  0.801456  0.726287  1
  O  O16  1  0.449344  0.845178  0.434258  1
  O  O17  1  0.967491  0.717477  0.766422  1
  O  O18  1  0.553898  0.797450  0.227314  1
  O  O19  1  0.876800  0.628437  0.553944  1
  O  O20  1  0.380002  0.483876  0.884288  1
  O  O21  1  0.031779  0.714987  0.267277  1
  O  O22  1  0.380002  0.516124  0.615712  1
  O  O23  1  0.876800  0.371563  0.946056  1
  O  O24  1  0.124803  0.631906  0.052552  1
  O  O25  1  0.618667  0.481067  0.386307  1
  O  O26  1  0.967491  0.282523  0.733578  1
  O  O27  1  0.618667  0.518933  0.113693  1
  O  O28  1  0.124803  0.368094  0.447448  1
  O  O29  1  0.450067  0.198544  0.773713  1
  O  O30  1  0.031779  0.285013  0.232723  1
  O  O31  1  0.552476  0.150719  0.568661  1
  O  O32  1  0.553898  0.202550  0.272686  1
  O  O33  1  0.043416  0.054602  0.604096  1
  O  O34  1  0.449344  0.154822  0.065742  1
  O  O35  1  0.951945  0.056668  0.100938  1
