# generated using pymatgen
data_Pr3ThAl10(Ga4Ir3)2
_symmetry_space_group_name_H-M   'P 1'
_cell_length_a   7.63213491
_cell_length_b   7.62977012
_cell_length_c   9.66927201
_cell_angle_alpha   90.07591224
_cell_angle_beta   89.87268934
_cell_angle_gamma   119.55483137
_symmetry_Int_Tables_number   1
_chemical_formula_structural   Pr3ThAl10(Ga4Ir3)2
_chemical_formula_sum   'Pr3 Th1 Al10 Ga8 Ir6'
_cell_volume   489.79184785
_cell_formula_units_Z   1
loop_
 _symmetry_equiv_pos_site_id
 _symmetry_equiv_pos_as_xyz
  1  'x, y, z'
loop_
 _atom_site_type_symbol
 _atom_site_label
 _atom_site_symmetry_multiplicity
 _atom_site_fract_x
 _atom_site_fract_y
 _atom_site_fract_z
 _atom_site_occupancy
  Pr  Pr0  1  0.003160  0.331894  0.754142  1
  Pr  Pr1  1  0.672122  0.997117  0.248973  1
  Pr  Pr2  1  0.328694  0.002075  0.751181  1
  Th  Th3  1  0.996568  0.668870  0.245476  1
  Al  Al4  1  0.996653  0.665045  0.572398  1
  Al  Al5  1  0.337142  0.003972  0.428008  1
  Al  Al6  1  0.003045  0.332741  0.430007  1
  Al  Al7  1  0.665336  0.998258  0.572263  1
  Al  Al8  1  0.663756  0.995748  0.926672  1
  Al  Al9  1  0.339106  0.006887  0.073188  1
  Al  Al10  1  0.333560  0.333339  0.550654  1
  Al  Al11  1  0.664062  0.665821  0.451053  1
  Al  Al12  1  0.663824  0.665263  0.047848  1
  Al  Al13  1  0.333341  0.333875  0.950399  1
  Ga  Ga14  1  0.133489  0.131290  0.250634  1
  Ga  Ga15  1  0.869247  0.872912  0.749485  1
  Ga  Ga16  1  0.000818  0.330861  0.077813  1
  Ga  Ga17  1  0.998854  0.666359  0.919214  1
  Ga  Ga18  1  0.344504  0.547370  0.250693  1
  Ga  Ga19  1  0.656313  0.451964  0.749311  1
  Ga  Ga20  1  0.543934  0.341515  0.250246  1
  Ga  Ga21  1  0.453863  0.658942  0.749790  1
  Ir  Ir22  1  0.667626  0.328982  0.001156  1
  Ir  Ir23  1  0.331951  0.672873  0.002414  1
  Ir  Ir24  1  0.326756  0.669918  0.498574  1
  Ir  Ir25  1  0.672924  0.331374  0.498016  1
  Ir  Ir26  1  0.999624  0.997139  0.002632  1
  Ir  Ir27  1  0.999735  0.997596  0.497761  1
