# generated using pymatgen
data_TbDy7(OsBr4)2
_symmetry_space_group_name_H-M   'P 1'
_cell_length_a   9.01225849
_cell_length_b   9.00679455
_cell_length_c   6.55080229
_cell_angle_alpha   89.66624844
_cell_angle_beta   89.62080890
_cell_angle_gamma   89.42167506
_symmetry_Int_Tables_number   1
_chemical_formula_structural   TbDy7(OsBr4)2
_chemical_formula_sum   'Tb1 Dy7 Os2 Br8'
_cell_volume   531.69129778
_cell_formula_units_Z   1
loop_
 _symmetry_equiv_pos_site_id
 _symmetry_equiv_pos_as_xyz
  1  'x, y, z'
loop_
 _atom_site_type_symbol
 _atom_site_label
 _atom_site_symmetry_multiplicity
 _atom_site_fract_x
 _atom_site_fract_y
 _atom_site_fract_z
 _atom_site_occupancy
  Tb  Tb0  1  0.249137  0.901823  0.010126  1
  Dy  Dy1  1  0.751988  0.097781  0.989452  1
  Dy  Dy2  1  0.097581  0.752049  0.489414  1
  Dy  Dy3  1  0.902175  0.248015  0.510622  1
  Dy  Dy4  1  0.752744  0.903439  0.506478  1
  Dy  Dy5  1  0.247079  0.096681  0.493507  1
  Dy  Dy6  1  0.096384  0.247385  0.993468  1
  Dy  Dy7  1  0.903178  0.752784  0.006428  1
  Os  Os8  1  0.995600  0.004323  0.250021  1
  Os  Os9  1  0.003991  0.995828  0.749777  1
  Br  Br10  1  0.416339  0.818051  0.412095  1
  Br  Br11  1  0.583661  0.181913  0.588512  1
  Br  Br12  1  0.181686  0.583364  0.088535  1
  Br  Br13  1  0.818094  0.416347  0.911532  1
  Br  Br14  1  0.411940  0.188984  0.091246  1
  Br  Br15  1  0.588443  0.811212  0.908770  1
  Br  Br16  1  0.811345  0.588100  0.408800  1
  Br  Br17  1  0.188637  0.411920  0.591218  1
