# generated using pymatgen
data_Hf8In4PdPt7
_symmetry_space_group_name_H-M   'P 1'
_cell_length_a   7.57778303
_cell_length_b   7.57778303
_cell_length_c   6.72897380
_cell_angle_alpha   89.94092427
_cell_angle_beta   90.05907573
_cell_angle_gamma   90.01011666
_symmetry_Int_Tables_number   1
_chemical_formula_structural   Hf8In4PdPt7
_chemical_formula_sum   'Hf8 In4 Pd1 Pt7'
_cell_volume   386.39607070
_cell_formula_units_Z   1
loop_
 _symmetry_equiv_pos_site_id
 _symmetry_equiv_pos_as_xyz
  1  'x, y, z'
loop_
 _atom_site_type_symbol
 _atom_site_label
 _atom_site_symmetry_multiplicity
 _atom_site_fract_x
 _atom_site_fract_y
 _atom_site_fract_z
 _atom_site_occupancy
  Hf  Hf0  1  0.151311  0.154265  0.001075  1
  Hf  Hf1  1  0.845735  0.848689  0.001075  1
  Hf  Hf2  1  0.653140  0.346860  0.500268  1
  Hf  Hf3  1  0.348506  0.651494  0.498451  1
  Hf  Hf4  1  0.681096  0.318904  0.000034  1
  Hf  Hf5  1  0.320410  0.679590  0.001250  1
  Hf  Hf6  1  0.818222  0.819866  0.499188  1
  Hf  Hf7  1  0.180134  0.181778  0.499188  1
  In  In8  1  0.499678  0.000257  0.250230  1
  In  In9  1  0.498069  0.999509  0.750083  1
  In  In10  1  0.999743  0.500322  0.250230  1
  In  In11  1  0.000491  0.501931  0.750083  1
  Pd  Pd12  1  0.132419  0.867581  0.720261  1
  Pt  Pt13  1  0.368947  0.368864  0.222838  1
  Pt  Pt14  1  0.631302  0.631281  0.777453  1
  Pt  Pt15  1  0.631136  0.631053  0.222838  1
  Pt  Pt16  1  0.871113  0.128887  0.723843  1
  Pt  Pt17  1  0.868679  0.131321  0.277847  1
  Pt  Pt18  1  0.368719  0.368698  0.777453  1
  Pt  Pt19  1  0.131148  0.868852  0.276309  1
