# generated using pymatgen
data_Li2DyCr2Ni9P7
_symmetry_space_group_name_H-M   'P 1'
_cell_length_a   9.07442229
_cell_length_b   9.05505628
_cell_length_c   3.62758200
_cell_angle_alpha   90.00000000
_cell_angle_beta   90.00000000
_cell_angle_gamma   119.55053616
_symmetry_Int_Tables_number   1
_chemical_formula_structural   Li2DyCr2Ni9P7
_chemical_formula_sum   'Li2 Dy1 Cr2 Ni9 P7'
_cell_volume   259.30280079
_cell_formula_units_Z   1
loop_
 _symmetry_equiv_pos_site_id
 _symmetry_equiv_pos_as_xyz
  1  'x, y, z'
loop_
 _atom_site_type_symbol
 _atom_site_label
 _atom_site_symmetry_multiplicity
 _atom_site_fract_x
 _atom_site_fract_y
 _atom_site_fract_z
 _atom_site_occupancy
  Li  Li0  1  0.221395  0.105242  0.500000  1
  Li  Li1  1  0.667059  0.334409  0.500000  1
  Dy  Dy2  1  0.330774  0.663395  0.000000  1
  Cr  Cr3  1  0.878690  0.782572  0.500000  1
  Cr  Cr4  1  0.900470  0.120354  0.500000  1
  Ni  Ni5  1  0.713765  0.877157  0.000000  1
  Ni  Ni6  1  0.161808  0.276817  0.000000  1
  Ni  Ni7  1  0.123228  0.845624  0.000000  1
  Ni  Ni8  1  0.631323  0.568185  0.000000  1
  Ni  Ni9  1  0.936381  0.369673  0.000000  1
  Ni  Ni10  1  0.434387  0.062012  0.000000  1
  Ni  Ni11  1  0.564054  0.952573  0.500000  1
  Ni  Ni12  1  0.389443  0.432856  0.500000  1
  Ni  Ni13  1  0.046697  0.610904  0.500000  1
  P  P14  1  0.595910  0.710479  0.500000  1
  P  P15  1  0.112881  0.400917  0.500000  1
  P  P16  1  0.288307  0.879928  0.500000  1
  P  P17  1  0.991811  0.997060  0.000000  1
  P  P18  1  0.882711  0.586819  0.000000  1
  P  P19  1  0.703506  0.120461  0.000000  1
  P  P20  1  0.425400  0.302564  0.000000  1
