# generated using pymatgen
data_Y5Tm3(SiI6)2
_symmetry_space_group_name_H-M   'P 1'
_cell_length_a   4.19499500
_cell_length_b   13.97978229
_cell_length_c   14.75870782
_cell_angle_alpha   89.86783133
_cell_angle_beta   90.00000000
_cell_angle_gamma   90.00000000
_symmetry_Int_Tables_number   1
_chemical_formula_structural   Y5Tm3(SiI6)2
_chemical_formula_sum   'Y5 Tm3 Si2 I12'
_cell_volume   865.52384156
_cell_formula_units_Z   1
loop_
 _symmetry_equiv_pos_site_id
 _symmetry_equiv_pos_as_xyz
  1  'x, y, z'
loop_
 _atom_site_type_symbol
 _atom_site_label
 _atom_site_symmetry_multiplicity
 _atom_site_fract_x
 _atom_site_fract_y
 _atom_site_fract_z
 _atom_site_occupancy
  Y  Y0  1  0.500000  0.115150  0.347516  1
  Y  Y1  1  0.500000  0.884930  0.652639  1
  Y  Y2  1  0.500000  0.613963  0.151036  1
  Y  Y3  1  0.000000  0.111363  0.575702  1
  Y  Y4  1  0.000000  0.889081  0.424774  1
  Tm  Tm5  1  0.500000  0.386352  0.849356  1
  Tm  Tm6  1  0.000000  0.608626  0.926614  1
  Tm  Tm7  1  0.000000  0.391585  0.073626  1
  Si  Si8  1  0.500000  0.000260  0.500221  1
  Si  Si9  1  0.500000  0.499321  0.999066  1
  I  I10  1  0.500000  0.250058  0.160647  1
  I  I11  1  0.500000  0.749351  0.838499  1
  I  I12  1  0.500000  0.745597  0.336392  1
  I  I13  1  0.500000  0.255267  0.665091  1
  I  I14  1  0.000000  0.260048  0.415540  1
  I  I15  1  0.000000  0.739927  0.584787  1
  I  I16  1  0.000000  0.758302  0.081718  1
  I  I17  1  0.000000  0.244197  0.915344  1
  I  I18  1  0.000000  0.000347  0.238885  1
  I  I19  1  0.000000  0.999768  0.761357  1
  I  I20  1  0.000000  0.497600  0.258186  1
  I  I21  1  0.000000  0.498908  0.743003  1
