# generated using pymatgen
data_Ce2PdPtPb
_symmetry_space_group_name_H-M   'P 1'
_cell_length_a   7.99376000
_cell_length_b   7.99410600
_cell_length_c   3.72165700
_cell_angle_alpha   90.00000000
_cell_angle_beta   90.00000000
_cell_angle_gamma   90.00000000
_symmetry_Int_Tables_number   1
_chemical_formula_structural   Ce2PdPtPb
_chemical_formula_sum   'Ce4 Pd2 Pt2 Pb2'
_cell_volume   237.82491619
_cell_formula_units_Z   2
loop_
 _symmetry_equiv_pos_site_id
 _symmetry_equiv_pos_as_xyz
  1  'x, y, z'
loop_
 _atom_site_type_symbol
 _atom_site_label
 _atom_site_symmetry_multiplicity
 _atom_site_fract_x
 _atom_site_fract_y
 _atom_site_fract_z
 _atom_site_occupancy
  Ce  Ce0  1  0.668339  0.174621  0.500000  1
  Ce  Ce1  1  0.178992  0.327000  0.500000  1
  Ce  Ce2  1  0.831661  0.674621  0.500000  1
  Ce  Ce3  1  0.321008  0.827000  0.500000  1
  Pd  Pd4  1  0.629027  0.870957  0.000000  1
  Pd  Pd5  1  0.870973  0.370957  0.000000  1
  Pt  Pt6  1  0.376442  0.123722  0.000000  1
  Pt  Pt7  1  0.123558  0.623722  0.000000  1
  Pb  Pb8  1  0.995389  0.003700  0.000000  1
  Pb  Pb9  1  0.504611  0.503700  0.000000  1
