# generated using pymatgen
data_Hf6Al13V3Fe7
_symmetry_space_group_name_H-M   'P 1'
_cell_length_a   8.50385479
_cell_length_b   8.50385491
_cell_length_c   8.50385585
_cell_angle_alpha   59.65778517
_cell_angle_beta   59.65778847
_cell_angle_gamma   59.65777314
_symmetry_Int_Tables_number   1
_chemical_formula_structural   Hf6Al13V3Fe7
_chemical_formula_sum   'Hf6 Al13 V3 Fe7'
_cell_volume   431.46198194
_cell_formula_units_Z   1
loop_
 _symmetry_equiv_pos_site_id
 _symmetry_equiv_pos_as_xyz
  1  'x, y, z'
loop_
 _atom_site_type_symbol
 _atom_site_label
 _atom_site_symmetry_multiplicity
 _atom_site_fract_x
 _atom_site_fract_y
 _atom_site_fract_z
 _atom_site_occupancy
  Hf  Hf0  1  0.701084  0.701084  0.298622  1
  Hf  Hf1  1  0.296228  0.704471  0.296228  1
  Hf  Hf2  1  0.704471  0.296228  0.296228  1
  Hf  Hf3  1  0.296228  0.296228  0.704471  1
  Hf  Hf4  1  0.701084  0.298622  0.701084  1
  Hf  Hf5  1  0.298622  0.701084  0.701084  1
  Al  Al6  1  0.882207  0.882207  0.882207  1
  Al  Al7  1  0.118506  0.118506  0.646663  1
  Al  Al8  1  0.118506  0.646663  0.118506  1
  Al  Al9  1  0.646663  0.118506  0.118506  1
  Al  Al10  1  0.119435  0.119435  0.119435  1
  Al  Al11  1  0.665539  0.665539  0.002239  1
  Al  Al12  1  0.665539  0.002239  0.665539  1
  Al  Al13  1  0.002239  0.665539  0.665539  1
  Al  Al14  1  0.664786  0.664786  0.664786  1
  Al  Al15  1  0.334030  0.334030  0.999217  1
  Al  Al16  1  0.334030  0.999217  0.334030  1
  Al  Al17  1  0.999217  0.334030  0.334030  1
  Al  Al18  1  0.334047  0.334047  0.334047  1
  V  V19  1  0.880243  0.880243  0.357937  1
  V  V20  1  0.880243  0.357937  0.880243  1
  V  V21  1  0.357937  0.880243  0.880243  1
  Fe  Fe22  1  0.004949  0.004949  0.004949  1
  Fe  Fe23  1  0.997348  0.997348  0.495657  1
  Fe  Fe24  1  0.503277  0.997256  0.503277  1
  Fe  Fe25  1  0.997256  0.503277  0.503277  1
  Fe  Fe26  1  0.503277  0.503277  0.997256  1
  Fe  Fe27  1  0.997348  0.495657  0.997348  1
  Fe  Fe28  1  0.495657  0.997348  0.997348  1
