# generated using pymatgen
data_TbEr15CdIn3IrPd3
_symmetry_space_group_name_H-M   'P 1'
_cell_length_a   9.62534843
_cell_length_b   9.64590977
_cell_length_c   9.62187400
_cell_angle_alpha   60.08239422
_cell_angle_beta   60.01193996
_cell_angle_gamma   60.06706817
_symmetry_Int_Tables_number   1
_chemical_formula_structural   TbEr15CdIn3IrPd3
_chemical_formula_sum   'Tb1 Er15 Cd1 In3 Ir1 Pd3'
_cell_volume   632.46021133
_cell_formula_units_Z   1
loop_
 _symmetry_equiv_pos_site_id
 _symmetry_equiv_pos_as_xyz
  1  'x, y, z'
loop_
 _atom_site_type_symbol
 _atom_site_label
 _atom_site_symmetry_multiplicity
 _atom_site_fract_x
 _atom_site_fract_y
 _atom_site_fract_z
 _atom_site_occupancy
  Tb  Tb0  1  0.064279  0.064186  0.435768  1
  Er  Er1  1  0.645624  0.063010  0.645683  1
  Er  Er2  1  0.190679  0.807487  0.190675  1
  Er  Er3  1  0.437028  0.062494  0.437253  1
  Er  Er4  1  0.185461  0.193391  0.810575  1
  Er  Er5  1  0.651164  0.644650  0.652316  1
  Er  Er6  1  0.055058  0.643854  0.650544  1
  Er  Er7  1  0.437028  0.062494  0.063223  1
  Er  Er8  1  0.651164  0.644650  0.051871  1
  Er  Er9  1  0.190679  0.807487  0.811160  1
  Er  Er10  1  0.809651  0.193314  0.812141  1
  Er  Er11  1  0.809651  0.193314  0.184895  1
  Er  Er12  1  0.810767  0.808828  0.190202  1
  Er  Er13  1  0.061733  0.434267  0.441252  1
  Er  Er14  1  0.437802  0.432721  0.064739  1
  Er  Er15  1  0.061733  0.434267  0.062749  1
  Cd  Cd16  1  0.748222  0.419586  0.416097  1
  In  In17  1  0.416960  0.417417  0.750344  1
  In  In18  1  0.419648  0.747735  0.416308  1
  In  In19  1  0.416960  0.417417  0.415282  1
  Ir  Ir20  1  0.858683  0.428912  0.856203  1
  Pd  Pd21  1  0.854854  0.859142  0.855025  1
  Pd  Pd22  1  0.430323  0.860239  0.854720  1
  Pd  Pd23  1  0.854854  0.859142  0.430979  1
