# generated using pymatgen
data_LiNd3In3HgPt
_symmetry_space_group_name_H-M   'P 1'
_cell_length_a   8.08037400
_cell_length_b   8.08037336
_cell_length_c   3.94867100
_cell_angle_alpha   90.00000000
_cell_angle_beta   90.00000000
_cell_angle_gamma   119.99999441
_symmetry_Int_Tables_number   1
_chemical_formula_structural   LiNd3In3HgPt
_chemical_formula_sum   'Li1 Nd3 In3 Hg1 Pt1'
_cell_volume   223.27726172
_cell_formula_units_Z   1
loop_
 _symmetry_equiv_pos_site_id
 _symmetry_equiv_pos_as_xyz
  1  'x, y, z'
loop_
 _atom_site_type_symbol
 _atom_site_label
 _atom_site_symmetry_multiplicity
 _atom_site_fract_x
 _atom_site_fract_y
 _atom_site_fract_z
 _atom_site_occupancy
  Li  Li0  1  0.000000  0.000000  0.500000  1
  Nd  Nd1  1  0.023066  0.602013  0.500000  1
  Nd  Nd2  1  0.578949  0.976934  0.500000  1
  Nd  Nd3  1  0.397987  0.421051  0.500000  1
  In  In4  1  0.000209  0.248470  0.000000  1
  In  In5  1  0.248261  0.999791  0.000000  1
  In  In6  1  0.751530  0.751739  0.000000  1
  Hg  Hg7  1  0.666667  0.333333  0.000000  1
  Pt  Pt8  1  0.333333  0.666667  0.000000  1
