# generated using pymatgen
data_Er12Th8Sn13Bi3
_symmetry_space_group_name_H-M   'P 1'
_cell_length_a   8.14842013
_cell_length_b   8.20342268
_cell_length_c   15.48979900
_cell_angle_alpha   90.04241631
_cell_angle_beta   89.94271024
_cell_angle_gamma   90.01959734
_symmetry_Int_Tables_number   1
_chemical_formula_structural   Er12Th8Sn13Bi3
_chemical_formula_sum   'Er12 Th8 Sn13 Bi3'
_cell_volume   1035.41373885
_cell_formula_units_Z   1
loop_
 _symmetry_equiv_pos_site_id
 _symmetry_equiv_pos_as_xyz
  1  'x, y, z'
loop_
 _atom_site_type_symbol
 _atom_site_label
 _atom_site_symmetry_multiplicity
 _atom_site_fract_x
 _atom_site_fract_y
 _atom_site_fract_z
 _atom_site_occupancy
  Er  Er0  1  0.362912  0.835519  0.874768  1
  Er  Er1  1  0.865968  0.660294  0.626151  1
  Er  Er2  1  0.633994  0.159744  0.373533  1
  Er  Er3  1  0.135331  0.341911  0.124777  1
  Er  Er4  1  0.642096  0.163559  0.124303  1
  Er  Er5  1  0.141744  0.336685  0.375692  1
  Er  Er6  1  0.358368  0.836822  0.624276  1
  Er  Er7  1  0.862385  0.662887  0.875916  1
  Er  Er8  1  0.191214  0.496972  0.749819  1
  Er  Er9  1  0.690884  0.003331  0.753097  1
  Er  Er10  1  0.808610  0.503898  0.247512  1
  Er  Er11  1  0.308777  0.996288  0.252528  1
  Th  Th12  1  0.520343  0.322449  0.903579  1
  Th  Th13  1  0.024230  0.179791  0.597096  1
  Th  Th14  1  0.475597  0.679934  0.402878  1
  Th  Th15  1  0.977114  0.818897  0.096510  1
  Th  Th16  1  0.481983  0.676820  0.095821  1
  Th  Th17  1  0.984284  0.821792  0.403133  1
  Th  Th18  1  0.515630  0.321980  0.596915  1
  Th  Th19  1  0.016715  0.180464  0.903101  1
  Sn  Sn20  1  0.201866  0.539918  0.957700  1
  Sn  Sn21  1  0.703316  0.960454  0.957324  1
  Sn  Sn22  1  0.202915  0.539865  0.542750  1
  Sn  Sn23  1  0.297056  0.039987  0.457392  1
  Sn  Sn24  1  0.798634  0.460134  0.042164  1
  Sn  Sn25  1  0.557648  0.622802  0.749163  1
  Sn  Sn26  1  0.056754  0.878069  0.750071  1
  Sn  Sn27  1  0.443016  0.377352  0.249579  1
  Sn  Sn28  1  0.943406  0.122923  0.250208  1
  Sn  Sn29  1  0.326388  0.142172  0.750455  1
  Sn  Sn30  1  0.825918  0.357517  0.749569  1
  Sn  Sn31  1  0.673291  0.857201  0.249919  1
  Sn  Sn32  1  0.173450  0.642661  0.249713  1
  Bi  Bi33  1  0.298429  0.041424  0.042670  1
  Bi  Bi34  1  0.797854  0.458606  0.457398  1
  Bi  Bi35  1  0.701879  0.958875  0.542518  1
