# generated using pymatgen
data_Tb4Nd16Ir7Rh5
_symmetry_space_group_name_H-M   'P 1'
_cell_length_a   11.18012726
_cell_length_b   11.18012726
_cell_length_c   6.58219918
_cell_angle_alpha   90.01890421
_cell_angle_beta   90.01890421
_cell_angle_gamma   89.98381435
_symmetry_Int_Tables_number   1
_chemical_formula_structural   Tb4Nd16Ir7Rh5
_chemical_formula_sum   'Tb4 Nd16 Ir7 Rh5'
_cell_volume   822.74348082
_cell_formula_units_Z   1
loop_
 _symmetry_equiv_pos_site_id
 _symmetry_equiv_pos_as_xyz
  1  'x, y, z'
loop_
 _atom_site_type_symbol
 _atom_site_label
 _atom_site_symmetry_multiplicity
 _atom_site_fract_x
 _atom_site_fract_y
 _atom_site_fract_z
 _atom_site_occupancy
  Tb  Tb0  1  0.000086  0.999630  0.499944  1
  Tb  Tb1  1  0.000370  0.999914  0.000056  1
  Tb  Tb2  1  0.499883  0.499884  0.999724  1
  Tb  Tb3  1  0.500116  0.500117  0.500276  1
  Nd  Nd4  1  0.289041  0.088844  0.383343  1
  Nd  Nd5  1  0.289484  0.911131  0.882929  1
  Nd  Nd6  1  0.709986  0.088266  0.882068  1
  Nd  Nd7  1  0.710119  0.909558  0.383577  1
  Nd  Nd8  1  0.588788  0.788926  0.883597  1
  Nd  Nd9  1  0.587252  0.211203  0.383283  1
  Nd  Nd10  1  0.410858  0.789111  0.383463  1
  Nd  Nd11  1  0.411090  0.210866  0.883309  1
  Nd  Nd12  1  0.211074  0.411212  0.616403  1
  Nd  Nd13  1  0.210889  0.589142  0.116537  1
  Nd  Nd14  1  0.788797  0.412748  0.116717  1
  Nd  Nd15  1  0.789134  0.588910  0.616691  1
  Nd  Nd16  1  0.911156  0.710959  0.116657  1
  Nd  Nd17  1  0.911734  0.290014  0.617932  1
  Nd  Nd18  1  0.088869  0.710516  0.617071  1
  Nd  Nd19  1  0.090442  0.289881  0.116423  1
  Ir  Ir20  1  0.849930  0.850470  0.750023  1
  Ir  Ir21  1  0.149530  0.150070  0.749977  1
  Ir  Ir22  1  0.150181  0.849819  0.250000  1
  Ir  Ir23  1  0.650742  0.349258  0.750000  1
  Ir  Ir24  1  0.650427  0.650146  0.249912  1
  Ir  Ir25  1  0.349854  0.349573  0.250088  1
  Ir  Ir26  1  0.349716  0.650284  0.750000  1
  Rh  Rh27  1  0.849936  0.150064  0.250000  1
  Rh  Rh28  1  0.500768  0.000325  0.120082  1
  Rh  Rh29  1  0.500316  0.000241  0.619439  1
  Rh  Rh30  1  0.999759  0.499684  0.880561  1
  Rh  Rh31  1  0.999675  0.499232  0.379918  1
