# generated using pymatgen
data_U2Sn5Pt3
_symmetry_space_group_name_H-M   'P 1'
_cell_length_a   4.55416770
_cell_length_b   7.38963800
_cell_length_c   13.57969100
_cell_angle_alpha   90.00000000
_cell_angle_beta   80.34686263
_cell_angle_gamma   90.00000000
_symmetry_Int_Tables_number   1
_chemical_formula_structural   U2Sn5Pt3
_chemical_formula_sum   'U4 Sn10 Pt6'
_cell_volume   450.53540295
_cell_formula_units_Z   2
loop_
 _symmetry_equiv_pos_site_id
 _symmetry_equiv_pos_as_xyz
  1  'x, y, z'
loop_
 _atom_site_type_symbol
 _atom_site_label
 _atom_site_symmetry_multiplicity
 _atom_site_fract_x
 _atom_site_fract_y
 _atom_site_fract_z
 _atom_site_occupancy
  U  U0  1  0.477969  0.238777  0.044058  1
  U  U1  1  0.828246  0.756771  0.343508  1
  U  U2  1  0.171753  0.256771  0.656493  1
  U  U3  1  0.522030  0.738777  0.955942  1
  Sn  Sn4  1  0.952254  0.897657  0.095493  1
  Sn  Sn5  1  0.401276  0.604207  0.197444  1
  Sn  Sn6  1  0.880709  0.230764  0.238582  1
  Sn  Sn7  1  0.294535  0.043117  0.410926  1
  Sn  Sn8  1  0.289470  0.482246  0.421058  1
  Sn  Sn9  1  0.710529  0.982246  0.578942  1
  Sn  Sn10  1  0.705464  0.543117  0.589074  1
  Sn  Sn11  1  0.119290  0.730764  0.761418  1
  Sn  Sn12  1  0.598723  0.104207  0.802556  1
  Sn  Sn13  1  0.047745  0.397658  0.904507  1
  Pt  Pt14  1  0.948478  0.511496  0.103046  1
  Pt  Pt15  1  0.396345  0.985326  0.207309  1
  Pt  Pt16  1  0.779924  0.270349  0.440152  1
  Pt  Pt17  1  0.220075  0.770349  0.559848  1
  Pt  Pt18  1  0.603655  0.485325  0.792690  1
  Pt  Pt19  1  0.051521  0.011496  0.896955  1
