# generated using pymatgen
data_CeTh4Al2Tc3
_symmetry_space_group_name_H-M   'P 1'
_cell_length_a   8.67357873
_cell_length_b   8.54698500
_cell_length_c   8.53289327
_cell_angle_alpha   109.90482904
_cell_angle_beta   109.48508826
_cell_angle_gamma   110.37941891
_symmetry_Int_Tables_number   1
_chemical_formula_structural   CeTh4Al2Tc3
_chemical_formula_sum   'Ce2 Th8 Al4 Tc6'
_cell_volume   478.60934862
_cell_formula_units_Z   2
loop_
 _symmetry_equiv_pos_site_id
 _symmetry_equiv_pos_as_xyz
  1  'x, y, z'
loop_
 _atom_site_type_symbol
 _atom_site_label
 _atom_site_symmetry_multiplicity
 _atom_site_fract_x
 _atom_site_fract_y
 _atom_site_fract_z
 _atom_site_occupancy
  Ce  Ce0  1  0.946742  0.254646  0.197562  1
  Ce  Ce1  1  0.196419  0.941195  0.249715  1
  Th  Th2  1  0.783881  0.787380  0.782465  1
  Th  Th3  1  0.310637  0.558055  0.757378  1
  Th  Th4  1  0.756370  0.309241  0.559575  1
  Th  Th5  1  0.557506  0.751172  0.304527  1
  Th  Th6  1  0.723655  0.504280  0.999253  1
  Th  Th7  1  0.002157  0.721982  0.506151  1
  Th  Th8  1  0.500215  0.993048  0.716018  1
  Th  Th9  1  0.254501  0.201330  0.943388  1
  Al  Al10  1  0.403922  0.398720  0.405295  1
  Al  Al11  1  0.096478  0.496072  0.001711  1
  Al  Al12  1  0.999686  0.093156  0.491380  1
  Al  Al13  1  0.499811  0.009258  0.098256  1
  Tc  Tc14  1  0.870829  0.115282  0.736159  1
  Tc  Tc15  1  0.742033  0.885460  0.111126  1
  Tc  Tc16  1  0.121366  0.757738  0.894646  1
  Tc  Tc17  1  0.233687  0.601190  0.373045  1
  Tc  Tc18  1  0.370869  0.229921  0.615539  1
  Tc  Tc19  1  0.629235  0.390874  0.256812  1
