# generated using pymatgen
data_Tm2Lu4TcBi2
_symmetry_space_group_name_H-M   'P 1'
_cell_length_a   8.13124300
_cell_length_b   8.14061594
_cell_length_c   4.25058200
_cell_angle_alpha   90.00000000
_cell_angle_beta   90.00000000
_cell_angle_gamma   119.96193216
_symmetry_Int_Tables_number   1
_chemical_formula_structural   Tm2Lu4TcBi2
_chemical_formula_sum   'Tm2 Lu4 Tc1 Bi2'
_cell_volume   243.75846292
_cell_formula_units_Z   1
loop_
 _symmetry_equiv_pos_site_id
 _symmetry_equiv_pos_as_xyz
  1  'x, y, z'
loop_
 _atom_site_type_symbol
 _atom_site_label
 _atom_site_symmetry_multiplicity
 _atom_site_fract_x
 _atom_site_fract_y
 _atom_site_fract_z
 _atom_site_occupancy
  Tm  Tm0  1  0.000162  0.614069  0.000000  1
  Tm  Tm1  1  0.386093  0.385931  0.000000  1
  Lu  Lu2  1  0.231159  0.000000  0.500000  1
  Lu  Lu3  1  0.999580  0.231260  0.500000  1
  Lu  Lu4  1  0.768320  0.768740  0.500000  1
  Lu  Lu5  1  0.615454  0.000000  0.000000  1
  Tc  Tc6  1  0.998763  0.000000  0.000000  1
  Bi  Bi7  1  0.333790  0.667111  0.500000  1
  Bi  Bi8  1  0.666680  0.332889  0.500000  1
