# generated using pymatgen
data_AcNdSbI2
_symmetry_space_group_name_H-M   'P 1'
_cell_length_a   4.59783300
_cell_length_b   4.59783259
_cell_length_c   11.84080700
_cell_angle_alpha   90.00000000
_cell_angle_beta   90.00000000
_cell_angle_gamma   119.99999573
_symmetry_Int_Tables_number   1
_chemical_formula_structural   AcNdSbI2
_chemical_formula_sum   'Ac1 Nd1 Sb1 I2'
_cell_volume   216.77954500
_cell_formula_units_Z   1
loop_
 _symmetry_equiv_pos_site_id
 _symmetry_equiv_pos_as_xyz
  1  'x, y, z'
loop_
 _atom_site_type_symbol
 _atom_site_label
 _atom_site_symmetry_multiplicity
 _atom_site_fract_x
 _atom_site_fract_y
 _atom_site_fract_z
 _atom_site_occupancy
  Ac  Ac0  1  0.666666  0.333333  0.151799  1
  Nd  Nd1  1  0.333333  0.666666  0.845236  1
  Sb  Sb2  1  0.000000  0.000000  0.988875  1
  I  I3  1  0.333333  0.666666  0.333098  1
  I  I4  1  0.666666  0.333333  0.680991  1
