# generated using pymatgen
data_Ce2YEr5(Si3Rh)4
_symmetry_space_group_name_H-M   'P 1'
_cell_length_a   8.16790109
_cell_length_b   8.16763618
_cell_length_c   7.96657800
_cell_angle_alpha   90.00000000
_cell_angle_beta   90.00000000
_cell_angle_gamma   120.01784338
_symmetry_Int_Tables_number   1
_chemical_formula_structural   Ce2YEr5(Si3Rh)4
_chemical_formula_sum   'Ce2 Y1 Er5 Si12 Rh4'
_cell_volume   460.18364902
_cell_formula_units_Z   1
loop_
 _symmetry_equiv_pos_site_id
 _symmetry_equiv_pos_as_xyz
  1  'x, y, z'
loop_
 _atom_site_type_symbol
 _atom_site_label
 _atom_site_symmetry_multiplicity
 _atom_site_fract_x
 _atom_site_fract_y
 _atom_site_fract_z
 _atom_site_occupancy
  Ce  Ce0  1  0.000025  0.999962  0.250000  1
  Ce  Ce1  1  0.000045  0.999954  0.750000  1
  Y  Y2  1  0.492530  0.507470  0.250000  1
  Er  Er3  1  0.492935  0.986062  0.250000  1
  Er  Er4  1  0.013944  0.507067  0.250000  1
  Er  Er5  1  0.507179  0.492827  0.750000  1
  Er  Er6  1  0.985703  0.492798  0.750000  1
  Er  Er7  1  0.507197  0.014288  0.750000  1
  Si  Si8  1  0.832652  0.167350  0.502457  1
  Si  Si9  1  0.832843  0.665197  0.502843  1
  Si  Si10  1  0.334792  0.167152  0.502844  1
  Si  Si11  1  0.832652  0.167350  0.997543  1
  Si  Si12  1  0.832843  0.665197  0.997157  1
  Si  Si13  1  0.334792  0.167152  0.997156  1
  Si  Si14  1  0.167515  0.832479  0.003009  1
  Si  Si15  1  0.665188  0.832859  0.002158  1
  Si  Si16  1  0.167144  0.334823  0.002155  1
  Si  Si17  1  0.167515  0.832479  0.496991  1
  Si  Si18  1  0.665188  0.832859  0.497842  1
  Si  Si19  1  0.167144  0.334823  0.497845  1
  Rh  Rh20  1  0.666896  0.333059  0.472269  1
  Rh  Rh21  1  0.666896  0.333059  0.027731  1
  Rh  Rh22  1  0.333190  0.666865  0.969728  1
  Rh  Rh23  1  0.333190  0.666865  0.530272  1
