# generated using pymatgen
data_SmLuNpRu3
_symmetry_space_group_name_H-M   'P 1'
_cell_length_a   5.24718615
_cell_length_b   5.24718577
_cell_length_c   5.24718500
_cell_angle_alpha   67.82702596
_cell_angle_beta   67.82702762
_cell_angle_gamma   67.82702065
_symmetry_Int_Tables_number   1
_chemical_formula_structural   SmLuNpRu3
_chemical_formula_sum   'Sm1 Lu1 Np1 Ru3'
_cell_volume   119.15174297
_cell_formula_units_Z   1
loop_
 _symmetry_equiv_pos_site_id
 _symmetry_equiv_pos_as_xyz
  1  'x, y, z'
loop_
 _atom_site_type_symbol
 _atom_site_label
 _atom_site_symmetry_multiplicity
 _atom_site_fract_x
 _atom_site_fract_y
 _atom_site_fract_z
 _atom_site_occupancy
  Sm  Sm0  1  0.375022  0.375022  0.375022  1
  Lu  Lu1  1  0.631552  0.631552  0.631552  1
  Np  Np2  1  0.998927  0.998927  0.998927  1
  Ru  Ru3  1  0.997680  0.499138  0.997680  1
  Ru  Ru4  1  0.499138  0.997680  0.997680  1
  Ru  Ru5  1  0.997680  0.997680  0.499138  1
