# generated using pymatgen
data_TbHoEr10(GaCo2)2
_symmetry_space_group_name_H-M   'P 1'
_cell_length_a   8.22982773
_cell_length_b   8.22982686
_cell_length_c   8.19877564
_cell_angle_alpha   106.88385298
_cell_angle_beta   109.46446897
_cell_angle_gamma   112.25308518
_symmetry_Int_Tables_number   1
_chemical_formula_structural   TbHoEr10(GaCo2)2
_chemical_formula_sum   'Tb1 Ho1 Er10 Ga2 Co4'
_cell_volume   425.77682377
_cell_formula_units_Z   1
loop_
 _symmetry_equiv_pos_site_id
 _symmetry_equiv_pos_as_xyz
  1  'x, y, z'
loop_
 _atom_site_type_symbol
 _atom_site_label
 _atom_site_symmetry_multiplicity
 _atom_site_fract_x
 _atom_site_fract_y
 _atom_site_fract_z
 _atom_site_occupancy
  Tb  Tb0  1  0.696709  0.263102  0.959811  1
  Ho  Ho1  1  0.301146  0.738467  0.039614  1
  Er  Er2  1  0.697657  0.739124  0.436782  1
  Er  Er3  1  0.301690  0.260680  0.562370  1
  Er  Er4  1  0.811833  0.137188  0.327158  1
  Er  Er5  1  0.810447  0.484325  0.671802  1
  Er  Er6  1  0.187477  0.861354  0.671802  1
  Er  Er7  1  0.189970  0.515325  0.327158  1
  Er  Er8  1  0.600663  0.780762  0.819860  1
  Er  Er9  1  0.961335  0.780993  0.180568  1
  Er  Er10  1  0.039100  0.219196  0.819860  1
  Er  Er11  1  0.399576  0.219233  0.180568  1
  Ga  Ga12  1  0.497510  0.501950  0.999461  1
  Ga  Ga13  1  0.498725  0.999425  0.498149  1
  Co  Co14  1  0.840317  0.500744  0.341061  1
  Co  Co15  1  0.163164  0.499295  0.662460  1
  Co  Co16  1  0.004904  0.114817  0.119721  1
  Co  Co17  1  0.997775  0.884022  0.881797  1
