# generated using pymatgen
data_Er2Nb3B4Ru10W
_symmetry_space_group_name_H-M   'P 1'
_cell_length_a   9.58637672
_cell_length_b   9.52594135
_cell_length_c   3.06680500
_cell_angle_alpha   90.00000000
_cell_angle_beta   90.00000000
_cell_angle_gamma   89.56730989
_symmetry_Int_Tables_number   1
_chemical_formula_structural   Er2Nb3B4Ru10W
_chemical_formula_sum   'Er2 Nb3 B4 Ru10 W1'
_cell_volume   280.05038453
_cell_formula_units_Z   1
loop_
 _symmetry_equiv_pos_site_id
 _symmetry_equiv_pos_as_xyz
  1  'x, y, z'
loop_
 _atom_site_type_symbol
 _atom_site_label
 _atom_site_symmetry_multiplicity
 _atom_site_fract_x
 _atom_site_fract_y
 _atom_site_fract_z
 _atom_site_occupancy
  Er  Er0  1  0.176349  0.176195  0.000000  1
  Er  Er1  1  0.823651  0.823805  0.000000  1
  Nb  Nb2  1  0.000000  0.500000  0.000000  1
  Nb  Nb3  1  0.676242  0.324718  0.000000  1
  Nb  Nb4  1  0.323758  0.675282  0.000000  1
  B  B5  1  0.379120  0.380832  0.000000  1
  B  B6  1  0.620880  0.619168  0.000000  1
  B  B7  1  0.879414  0.121796  0.000000  1
  B  B8  1  0.120586  0.878204  0.000000  1
  Ru  Ru9  1  0.500000  0.500000  0.500000  1
  Ru  Ru10  1  0.000000  0.000000  0.500000  1
  Ru  Ru11  1  0.439384  0.219548  0.500000  1
  Ru  Ru12  1  0.560616  0.780452  0.500000  1
  Ru  Ru13  1  0.919070  0.283989  0.500000  1
  Ru  Ru14  1  0.080930  0.716011  0.500000  1
  Ru  Ru15  1  0.712493  0.076960  0.500000  1
  Ru  Ru16  1  0.287507  0.923040  0.500000  1
  Ru  Ru17  1  0.776537  0.562500  0.500000  1
  Ru  Ru18  1  0.223463  0.437500  0.500000  1
  W  W19  1  0.500000  0.000000  0.000000  1
