# generated using pymatgen
data_Sr(UH4)3
_symmetry_space_group_name_H-M   'P 1'
_cell_length_a   6.64962100
_cell_length_b   6.76605500
_cell_length_c   6.76605500
_cell_angle_alpha   90.00000000
_cell_angle_beta   90.00000000
_cell_angle_gamma   90.00000000
_symmetry_Int_Tables_number   1
_chemical_formula_structural   Sr(UH4)3
_chemical_formula_sum   'Sr2 U6 H24'
_cell_volume   304.41632632
_cell_formula_units_Z   2
loop_
 _symmetry_equiv_pos_site_id
 _symmetry_equiv_pos_as_xyz
  1  'x, y, z'
loop_
 _atom_site_type_symbol
 _atom_site_label
 _atom_site_symmetry_multiplicity
 _atom_site_fract_x
 _atom_site_fract_y
 _atom_site_fract_z
 _atom_site_occupancy
  Sr  Sr0  1  0.250000  0.000000  0.500000  1
  Sr  Sr1  1  0.750000  0.000000  0.500000  1
  U  U2  1  0.000000  0.000000  0.000000  1
  U  U3  1  0.500000  0.500000  0.500000  1
  U  U4  1  0.000000  0.500000  0.250454  1
  U  U5  1  0.000000  0.500000  0.749546  1
  U  U6  1  0.500000  0.750454  0.000000  1
  U  U7  1  0.500000  0.249546  0.000000  1
  H  H8  1  0.000000  0.166623  0.280619  1
  H  H9  1  0.500000  0.219381  0.666623  1
  H  H10  1  0.500000  0.780619  0.333377  1
  H  H11  1  0.813993  0.642099  0.500000  1
  H  H12  1  0.186007  0.642099  0.500000  1
  H  H13  1  0.345918  0.500000  0.802841  1
  H  H14  1  0.654082  0.500000  0.802841  1
  H  H15  1  0.313993  0.000000  0.142099  1
  H  H16  1  0.154082  0.302841  0.000000  1
  H  H17  1  0.845918  0.697159  0.000000  1
  H  H18  1  0.313993  0.000000  0.857901  1
  H  H19  1  0.845918  0.302841  0.000000  1
  H  H20  1  0.686007  0.000000  0.142099  1
  H  H21  1  0.686007  0.000000  0.857901  1
  H  H22  1  0.154082  0.697159  0.000000  1
  H  H23  1  0.000000  0.833377  0.719381  1
  H  H24  1  0.000000  0.166623  0.719381  1
  H  H25  1  0.000000  0.833377  0.280619  1
  H  H26  1  0.654082  0.500000  0.197159  1
  H  H27  1  0.345918  0.500000  0.197159  1
  H  H28  1  0.813993  0.357901  0.500000  1
  H  H29  1  0.186007  0.357901  0.500000  1
  H  H30  1  0.500000  0.780619  0.666623  1
  H  H31  1  0.500000  0.219381  0.333377  1
