# generated using pymatgen
data_DyY4Bi3C
_symmetry_space_group_name_H-M   'P 1'
_cell_length_a   9.16780505
_cell_length_b   9.16986561
_cell_length_c   6.52240200
_cell_angle_alpha   89.99931777
_cell_angle_beta   90.00051963
_cell_angle_gamma   120.00025788
_symmetry_Int_Tables_number   1
_chemical_formula_structural   DyY4Bi3C
_chemical_formula_sum   'Dy2 Y8 Bi6 C2'
_cell_volume   474.85980077
_cell_formula_units_Z   2
loop_
 _symmetry_equiv_pos_site_id
 _symmetry_equiv_pos_as_xyz
  1  'x, y, z'
loop_
 _atom_site_type_symbol
 _atom_site_label
 _atom_site_symmetry_multiplicity
 _atom_site_fract_x
 _atom_site_fract_y
 _atom_site_fract_z
 _atom_site_occupancy
  Dy  Dy0  1  0.792734  0.792817  0.250000  1
  Dy  Dy1  1  0.207175  0.999992  0.249988  1
  Y  Y2  1  0.666516  0.333300  0.499999  1
  Y  Y3  1  0.333481  0.666701  0.499996  1
  Y  Y4  1  0.333476  0.666695  0.000006  1
  Y  Y5  1  0.666522  0.333301  0.000005  1
  Y  Y6  1  0.999918  0.208733  0.250009  1
  Y  Y7  1  0.208755  0.208561  0.749992  1
  Y  Y8  1  0.791348  0.999892  0.750009  1
  Y  Y9  1  0.000085  0.791567  0.749996  1
  Bi  Bi10  1  0.401603  0.401515  0.250002  1
  Bi  Bi11  1  0.598224  0.999888  0.250004  1
  Bi  Bi12  1  0.000014  0.598458  0.250004  1
  Bi  Bi13  1  0.598354  0.598366  0.749996  1
  Bi  Bi14  1  0.401781  0.999974  0.750000  1
  Bi  Bi15  1  0.000016  0.401558  0.749998  1
  C  C16  1  0.000001  0.999342  0.499034  1
  C  C17  1  0.000000  0.999341  0.000959  1
