# generated using pymatgen
data_Be9NbMoW
_symmetry_space_group_name_H-M   'P 1'
_cell_length_a   7.40666042
_cell_length_b   7.40666017
_cell_length_c   7.40666010
_cell_angle_alpha   35.08540410
_cell_angle_beta   35.08540696
_cell_angle_gamma   35.08540223
_symmetry_Int_Tables_number   1
_chemical_formula_structural   Be9NbMoW
_chemical_formula_sum   'Be9 Nb1 Mo1 W1'
_cell_volume   119.88168713
_cell_formula_units_Z   1
loop_
 _symmetry_equiv_pos_site_id
 _symmetry_equiv_pos_as_xyz
  1  'x, y, z'
loop_
 _atom_site_type_symbol
 _atom_site_label
 _atom_site_symmetry_multiplicity
 _atom_site_fract_x
 _atom_site_fract_y
 _atom_site_fract_z
 _atom_site_occupancy
  Be  Be0  1  0.500054  0.500054  0.500054  1
  Be  Be1  1  0.334413  0.334413  0.334414  1
  Be  Be2  1  0.665725  0.665725  0.665724  1
  Be  Be3  1  0.077287  0.584566  0.584566  1
  Be  Be4  1  0.584566  0.584566  0.077287  1
  Be  Be5  1  0.584566  0.077287  0.584566  1
  Be  Be6  1  0.415493  0.922509  0.415493  1
  Be  Be7  1  0.922509  0.415493  0.415493  1
  Be  Be8  1  0.415493  0.415493  0.922509  1
  Nb  Nb9  1  0.999853  0.999853  0.999853  1
  Mo  Mo10  1  0.143997  0.143997  0.143997  1
  W  W11  1  0.856045  0.856045  0.856045  1
