# generated using pymatgen
data_La8Y12Si15B
_symmetry_space_group_name_H-M   'P 1'
_cell_length_a   7.60066674
_cell_length_b   7.83677172
_cell_length_c   14.92585124
_cell_angle_alpha   89.68894012
_cell_angle_beta   90.66298993
_cell_angle_gamma   89.92421679
_symmetry_Int_Tables_number   1
_chemical_formula_structural   La8Y12Si15B
_chemical_formula_sum   'La8 Y12 Si15 B1'
_cell_volume   888.98023099
_cell_formula_units_Z   1
loop_
 _symmetry_equiv_pos_site_id
 _symmetry_equiv_pos_as_xyz
  1  'x, y, z'
loop_
 _atom_site_type_symbol
 _atom_site_label
 _atom_site_symmetry_multiplicity
 _atom_site_fract_x
 _atom_site_fract_y
 _atom_site_fract_z
 _atom_site_occupancy
  La  La0  1  0.030249  0.183739  0.403468  1
  La  La1  1  0.537405  0.317031  0.399331  1
  La  La2  1  0.472973  0.679145  0.900348  1
  La  La3  1  0.461635  0.674738  0.596586  1
  La  La4  1  0.972316  0.817072  0.597342  1
  La  La5  1  0.974351  0.823000  0.900383  1
  La  La6  1  0.527467  0.320664  0.098650  1
  La  La7  1  0.027417  0.177061  0.099376  1
  Y  Y8  1  0.304936  0.198713  0.614192  1
  Y  Y9  1  0.686235  0.818578  0.379941  1
  Y  Y10  1  0.644432  0.993157  0.746839  1
  Y  Y11  1  0.191366  0.663120  0.385063  1
  Y  Y12  1  0.817034  0.322678  0.876010  1
  Y  Y13  1  0.821027  0.326417  0.621799  1
  Y  Y14  1  0.856327  0.490620  0.250627  1
  Y  Y15  1  0.352368  0.005481  0.250914  1
  Y  Y16  1  0.317438  0.178416  0.876333  1
  Y  Y17  1  0.183384  0.676525  0.123715  1
  Y  Y18  1  0.684165  0.821344  0.124083  1
  Y  Y19  1  0.144545  0.510740  0.744979  1
  Si  Si20  1  0.264939  0.886606  0.747354  1
  Si  Si21  1  0.479560  0.612541  0.251905  1
  Si  Si22  1  0.023721  0.115475  0.748720  1
  Si  Si23  1  0.520419  0.386347  0.748016  1
  Si  Si24  1  0.980676  0.880392  0.253767  1
  Si  Si25  1  0.736641  0.116202  0.251227  1
  Si  Si26  1  0.859202  0.530218  0.039454  1
  Si  Si27  1  0.359920  0.968880  0.040087  1
  Si  Si28  1  0.141644  0.469501  0.960093  1
  Si  Si29  1  0.638247  0.030122  0.541564  1
  Si  Si30  1  0.360791  0.970732  0.459084  1
  Si  Si31  1  0.875956  0.527349  0.464266  1
  Si  Si32  1  0.762626  0.620754  0.749418  1
  Si  Si33  1  0.236385  0.377925  0.250470  1
  Si  Si34  1  0.642766  0.029812  0.959906  1
  B  B35  1  0.109438  0.478903  0.544689  1
