# generated using pymatgen
data_DyEr2AuO7
_symmetry_space_group_name_H-M   'P 1'
_cell_length_a   6.45752829
_cell_length_b   6.45752882
_cell_length_c   7.40454700
_cell_angle_alpha   90.00000000
_cell_angle_beta   90.00000000
_cell_angle_gamma   108.78302081
_symmetry_Int_Tables_number   1
_chemical_formula_structural   DyEr2AuO7
_chemical_formula_sum   'Dy2 Er4 Au2 O14'
_cell_volume   292.32371997
_cell_formula_units_Z   2
loop_
 _symmetry_equiv_pos_site_id
 _symmetry_equiv_pos_as_xyz
  1  'x, y, z'
loop_
 _atom_site_type_symbol
 _atom_site_label
 _atom_site_symmetry_multiplicity
 _atom_site_fract_x
 _atom_site_fract_y
 _atom_site_fract_z
 _atom_site_occupancy
  Dy  Dy0  1  0.504487  0.504487  0.500000  1
  Dy  Dy1  1  0.495513  0.495513  0.000000  1
  Er  Er2  1  0.001936  0.471384  0.748235  1
  Er  Er3  1  0.998064  0.528616  0.248235  1
  Er  Er4  1  0.528616  0.998064  0.751765  1
  Er  Er5  1  0.471384  0.001936  0.251765  1
  Au  Au6  1  0.998804  0.998804  0.500000  1
  Au  Au7  1  0.001196  0.001196  0.000000  1
  O  O8  1  0.640081  0.359919  0.750000  1
  O  O9  1  0.359919  0.640081  0.250000  1
  O  O10  1  0.918657  0.081343  0.750000  1
  O  O11  1  0.081343  0.918657  0.250000  1
  O  O12  1  0.916205  0.666904  0.523131  1
  O  O13  1  0.083795  0.333096  0.023131  1
  O  O14  1  0.333096  0.083795  0.976869  1
  O  O15  1  0.666904  0.916205  0.476869  1
  O  O16  1  0.365890  0.634110  0.750000  1
  O  O17  1  0.634110  0.365890  0.250000  1
  O  O18  1  0.920070  0.669564  0.973968  1
  O  O19  1  0.079930  0.330436  0.473968  1
  O  O20  1  0.330436  0.079930  0.526032  1
  O  O21  1  0.669564  0.920070  0.026032  1
