# generated using pymatgen
data_La2Sb4PtRh2
_symmetry_space_group_name_H-M   'P 1'
_cell_length_a   4.60820500
_cell_length_b   11.26121400
_cell_length_c   16.40991900
_cell_angle_alpha   90.00000000
_cell_angle_beta   90.00000000
_cell_angle_gamma   90.00000000
_symmetry_Int_Tables_number   1
_chemical_formula_structural   La2Sb4PtRh2
_chemical_formula_sum   'La8 Sb16 Pt4 Rh8'
_cell_volume   851.57605205
_cell_formula_units_Z   4
loop_
 _symmetry_equiv_pos_site_id
 _symmetry_equiv_pos_as_xyz
  1  'x, y, z'
loop_
 _atom_site_type_symbol
 _atom_site_label
 _atom_site_symmetry_multiplicity
 _atom_site_fract_x
 _atom_site_fract_y
 _atom_site_fract_z
 _atom_site_occupancy
  La  La0  1  0.250000  0.747749  0.503791  1
  La  La1  1  0.250000  0.752251  0.003791  1
  La  La2  1  0.750000  0.252251  0.496209  1
  La  La3  1  0.750000  0.247749  0.996209  1
  La  La4  1  0.250000  0.586975  0.751298  1
  La  La5  1  0.250000  0.913025  0.251298  1
  La  La6  1  0.750000  0.413025  0.248702  1
  La  La7  1  0.750000  0.086975  0.748702  1
  Sb  Sb8  1  0.250000  0.269278  0.652410  1
  Sb  Sb9  1  0.250000  0.230722  0.152410  1
  Sb  Sb10  1  0.750000  0.730722  0.347590  1
  Sb  Sb11  1  0.750000  0.769278  0.847590  1
  Sb  Sb12  1  0.250000  0.885764  0.708955  1
  Sb  Sb13  1  0.250000  0.614236  0.208955  1
  Sb  Sb14  1  0.750000  0.114236  0.291045  1
  Sb  Sb15  1  0.750000  0.385764  0.791045  1
  Sb  Sb16  1  0.250000  0.071654  0.895023  1
  Sb  Sb17  1  0.250000  0.428346  0.395023  1
  Sb  Sb18  1  0.750000  0.928346  0.104977  1
  Sb  Sb19  1  0.750000  0.571654  0.604977  1
  Sb  Sb20  1  0.250000  0.446655  0.932620  1
  Sb  Sb21  1  0.250000  0.053345  0.432620  1
  Sb  Sb22  1  0.750000  0.553345  0.067380  1
  Sb  Sb23  1  0.750000  0.946655  0.567380  1
  Pt  Pt24  1  0.250000  0.463398  0.558692  1
  Pt  Pt25  1  0.250000  0.036602  0.058692  1
  Pt  Pt26  1  0.750000  0.536602  0.441308  1
  Pt  Pt27  1  0.750000  0.963398  0.941308  1
  Rh  Rh28  1  0.250000  0.053848  0.592916  1
  Rh  Rh29  1  0.250000  0.446152  0.092916  1
  Rh  Rh30  1  0.750000  0.946152  0.407084  1
  Rh  Rh31  1  0.750000  0.553848  0.907084  1
  Rh  Rh32  1  0.250000  0.279157  0.818108  1
  Rh  Rh33  1  0.250000  0.220843  0.318108  1
  Rh  Rh34  1  0.750000  0.720843  0.181892  1
  Rh  Rh35  1  0.750000  0.779157  0.681892  1
