# generated using pymatgen
data_Ca8Zn2CuSi12Rh
_symmetry_space_group_name_H-M   'P 1'
_cell_length_a   8.15508000
_cell_length_b   8.15507998
_cell_length_c   8.72617500
_cell_angle_alpha   90.00000000
_cell_angle_beta   90.00000000
_cell_angle_gamma   119.99999198
_symmetry_Int_Tables_number   1
_chemical_formula_structural   Ca8Zn2CuSi12Rh
_chemical_formula_sum   'Ca8 Zn2 Cu1 Si12 Rh1'
_cell_volume   502.58675062
_cell_formula_units_Z   1
loop_
 _symmetry_equiv_pos_site_id
 _symmetry_equiv_pos_as_xyz
  1  'x, y, z'
loop_
 _atom_site_type_symbol
 _atom_site_label
 _atom_site_symmetry_multiplicity
 _atom_site_fract_x
 _atom_site_fract_y
 _atom_site_fract_z
 _atom_site_occupancy
  Ca  Ca0  1  0.000000  0.000000  0.749810  1
  Ca  Ca1  1  0.000000  0.000000  0.250126  1
  Ca  Ca2  1  0.495830  0.504170  0.754146  1
  Ca  Ca3  1  0.495830  0.991661  0.754146  1
  Ca  Ca4  1  0.008339  0.504170  0.754146  1
  Ca  Ca5  1  0.496042  0.503958  0.245914  1
  Ca  Ca6  1  0.007919  0.503958  0.245914  1
  Ca  Ca7  1  0.496042  0.992081  0.245914  1
  Zn  Zn8  1  0.666667  0.333333  0.999288  1
  Zn  Zn9  1  0.666667  0.333333  0.500953  1
  Cu  Cu10  1  0.333333  0.666667  0.499701  1
  Si  Si11  1  0.837722  0.162278  0.999913  1
  Si  Si12  1  0.837722  0.675444  0.999913  1
  Si  Si13  1  0.324556  0.162278  0.999913  1
  Si  Si14  1  0.835933  0.164067  0.499795  1
  Si  Si15  1  0.835933  0.671865  0.499795  1
  Si  Si16  1  0.328135  0.164067  0.499795  1
  Si  Si17  1  0.169647  0.830353  0.500119  1
  Si  Si18  1  0.660706  0.830353  0.500119  1
  Si  Si19  1  0.169647  0.339294  0.500119  1
  Si  Si20  1  0.170205  0.829795  0.000116  1
  Si  Si21  1  0.659592  0.829795  0.000116  1
  Si  Si22  1  0.170205  0.340408  0.000116  1
  Rh  Rh23  1  0.333333  0.666667  0.000112  1
