# generated using pymatgen
data_HoZr(PaRh2)2
_symmetry_space_group_name_H-M   'P 1'
_cell_length_a   4.49074600
_cell_length_b   5.40361504
_cell_length_c   6.74284312
_cell_angle_alpha   89.77085092
_cell_angle_beta   90.00000000
_cell_angle_gamma   90.00000000
_symmetry_Int_Tables_number   1
_chemical_formula_structural   HoZr(PaRh2)2
_chemical_formula_sum   'Ho1 Zr1 Pa2 Rh4'
_cell_volume   163.62229356
_cell_formula_units_Z   1
loop_
 _symmetry_equiv_pos_site_id
 _symmetry_equiv_pos_as_xyz
  1  'x, y, z'
loop_
 _atom_site_type_symbol
 _atom_site_label
 _atom_site_symmetry_multiplicity
 _atom_site_fract_x
 _atom_site_fract_y
 _atom_site_fract_z
 _atom_site_occupancy
  Ho  Ho0  1  0.250000  0.348463  0.681781  1
  Zr  Zr1  1  0.250000  0.144690  0.179965  1
  Pa  Pa2  1  0.750000  0.863639  0.823119  1
  Pa  Pa3  1  0.750000  0.647497  0.318325  1
  Rh  Rh4  1  0.750000  0.159679  0.424259  1
  Rh  Rh5  1  0.250000  0.836658  0.545019  1
  Rh  Rh6  1  0.250000  0.671440  0.052380  1
  Rh  Rh7  1  0.750000  0.327933  0.975150  1
