# generated using pymatgen
data_Dy4Zr4Cu5Ni7P12
_symmetry_space_group_name_H-M   'P 1'
_cell_length_a   3.75862100
_cell_length_b   10.32415283
_cell_length_c   12.40224507
_cell_angle_alpha   89.95316210
_cell_angle_beta   90.00000000
_cell_angle_gamma   90.00000000
_symmetry_Int_Tables_number   1
_chemical_formula_structural   Dy4Zr4Cu5Ni7P12
_chemical_formula_sum   'Dy4 Zr4 Cu5 Ni7 P12'
_cell_volume   481.26372106
_cell_formula_units_Z   1
loop_
 _symmetry_equiv_pos_site_id
 _symmetry_equiv_pos_as_xyz
  1  'x, y, z'
loop_
 _atom_site_type_symbol
 _atom_site_label
 _atom_site_symmetry_multiplicity
 _atom_site_fract_x
 _atom_site_fract_y
 _atom_site_fract_z
 _atom_site_occupancy
  Dy  Dy0  1  0.250000  0.067556  0.204981  1
  Dy  Dy1  1  0.750000  0.928933  0.794239  1
  Dy  Dy2  1  0.750000  0.574795  0.296224  1
  Dy  Dy3  1  0.250000  0.429335  0.704715  1
  Zr  Zr4  1  0.250000  0.159210  0.497242  1
  Zr  Zr5  1  0.750000  0.840405  0.503272  1
  Zr  Zr6  1  0.750000  0.661598  0.002196  1
  Zr  Zr7  1  0.250000  0.339060  0.996269  1
  Cu  Cu8  1  0.250000  0.730074  0.665728  1
  Cu  Cu9  1  0.750000  0.270448  0.334326  1
  Cu  Cu10  1  0.750000  0.230171  0.834535  1
  Cu  Cu11  1  0.250000  0.772162  0.165392  1
  Cu  Cu12  1  0.250000  0.364278  0.222398  1
  Ni  Ni13  1  0.750000  0.636099  0.779916  1
  Ni  Ni14  1  0.750000  0.864096  0.280202  1
  Ni  Ni15  1  0.250000  0.136235  0.719724  1
  Ni  Ni16  1  0.250000  0.604978  0.486728  1
  Ni  Ni17  1  0.750000  0.396549  0.516288  1
  Ni  Ni18  1  0.750000  0.099245  0.011837  1
  Ni  Ni19  1  0.250000  0.897583  0.984254  1
  P  P20  1  0.250000  0.949077  0.624859  1
  P  P21  1  0.750000  0.051184  0.375296  1
  P  P22  1  0.750000  0.449431  0.875284  1
  P  P23  1  0.250000  0.554309  0.123497  1
  P  P24  1  0.250000  0.400107  0.410477  1
  P  P25  1  0.750000  0.601486  0.594918  1
  P  P26  1  0.750000  0.897401  0.094317  1
  P  P27  1  0.250000  0.101175  0.903891  1
  P  P28  1  0.250000  0.770080  0.357761  1
  P  P29  1  0.750000  0.230470  0.643019  1
  P  P30  1  0.750000  0.261050  0.139338  1
  P  P31  1  0.250000  0.731419  0.856878  1
