# generated using pymatgen
data_Dy5Ho2Sn23Os6
_symmetry_space_group_name_H-M   'P 1'
_cell_length_a   9.86193914
_cell_length_b   9.86476777
_cell_length_c   10.13063101
_cell_angle_alpha   90.00000040
_cell_angle_beta   89.99684776
_cell_angle_gamma   120.00948725
_symmetry_Int_Tables_number   1
_chemical_formula_structural   Dy5Ho2Sn23Os6
_chemical_formula_sum   'Dy5 Ho2 Sn23 Os6'
_cell_volume   853.44351995
_cell_formula_units_Z   1
loop_
 _symmetry_equiv_pos_site_id
 _symmetry_equiv_pos_as_xyz
  1  'x, y, z'
loop_
 _atom_site_type_symbol
 _atom_site_label
 _atom_site_symmetry_multiplicity
 _atom_site_fract_x
 _atom_site_fract_y
 _atom_site_fract_z
 _atom_site_occupancy
  Dy  Dy0  1  0.999987  0.999993  0.000021  1
  Dy  Dy1  1  0.514730  0.485224  0.698021  1
  Dy  Dy2  1  0.514730  0.029505  0.698021  1
  Dy  Dy3  1  0.970492  0.485245  0.698072  1
  Dy  Dy4  1  0.029432  0.514717  0.301941  1
  Ho  Ho5  1  0.485515  0.971128  0.301748  1
  Ho  Ho6  1  0.485515  0.514388  0.301748  1
  Sn  Sn7  1  0.666574  0.333287  0.174865  1
  Sn  Sn8  1  0.666653  0.333326  0.870053  1
  Sn  Sn9  1  0.333691  0.666846  0.130339  1
  Sn  Sn10  1  0.349810  0.349768  0.000074  1
  Sn  Sn11  1  0.999931  0.650218  0.000048  1
  Sn  Sn12  1  0.650167  0.999956  0.000058  1
  Sn  Sn13  1  0.650167  0.650211  0.000058  1
  Sn  Sn14  1  0.333325  0.666663  0.825258  1
  Sn  Sn15  1  0.439802  0.219901  0.463041  1
  Sn  Sn16  1  0.220025  0.780256  0.536627  1
  Sn  Sn17  1  0.220025  0.439769  0.536627  1
  Sn  Sn18  1  0.560243  0.780121  0.536508  1
  Sn  Sn19  1  0.117836  0.882346  0.275929  1
  Sn  Sn20  1  0.779814  0.560200  0.463175  1
  Sn  Sn21  1  0.779814  0.219614  0.463175  1
  Sn  Sn22  1  0.349810  0.000041  0.000074  1
  Sn  Sn23  1  0.117836  0.235491  0.275929  1
  Sn  Sn24  1  0.764394  0.882197  0.275982  1
  Sn  Sn25  1  0.235363  0.117681  0.724122  1
  Sn  Sn26  1  0.882280  0.764624  0.724114  1
  Sn  Sn27  1  0.882280  0.117655  0.724114  1
  Sn  Sn28  1  0.999969  0.999985  0.499999  1
  Sn  Sn29  1  0.999931  0.349713  0.000048  1
  Os  Os30  1  0.170282  0.829717  0.797785  1
  Os  Os31  1  0.170282  0.340564  0.797785  1
  Os  Os32  1  0.659407  0.829703  0.797783  1
  Os  Os33  1  0.340676  0.170338  0.202294  1
  Os  Os34  1  0.829607  0.659405  0.202283  1
  Os  Os35  1  0.829607  0.170203  0.202283  1
