# generated using pymatgen
data_Mg2Sc4B4RuRh9
_symmetry_space_group_name_H-M   'P 1'
_cell_length_a   9.49004365
_cell_length_b   9.49004365
_cell_length_c   3.05497800
_cell_angle_alpha   90.00000000
_cell_angle_beta   90.00000000
_cell_angle_gamma   90.33538150
_symmetry_Int_Tables_number   1
_chemical_formula_structural   Mg2Sc4B4RuRh9
_chemical_formula_sum   'Mg2 Sc4 B4 Ru1 Rh9'
_cell_volume   275.12944136
_cell_formula_units_Z   1
loop_
 _symmetry_equiv_pos_site_id
 _symmetry_equiv_pos_as_xyz
  1  'x, y, z'
loop_
 _atom_site_type_symbol
 _atom_site_label
 _atom_site_symmetry_multiplicity
 _atom_site_fract_x
 _atom_site_fract_y
 _atom_site_fract_z
 _atom_site_occupancy
  Mg  Mg0  1  0.000000  0.000000  0.000000  1
  Mg  Mg1  1  0.500000  0.500000  0.000000  1
  Sc  Sc2  1  0.672735  0.172735  0.000000  1
  Sc  Sc3  1  0.327265  0.827265  0.000000  1
  Sc  Sc4  1  0.178060  0.321940  0.000000  1
  Sc  Sc5  1  0.821940  0.678060  0.000000  1
  B  B6  1  0.126823  0.626823  0.000000  1
  B  B7  1  0.873177  0.373177  0.000000  1
  B  B8  1  0.621800  0.878200  0.000000  1
  B  B9  1  0.378200  0.121800  0.000000  1
  Ru  Ru10  1  0.500000  0.000000  0.500000  1
  Rh  Rh11  1  0.000000  0.500000  0.500000  1
  Rh  Rh12  1  0.219517  0.072462  0.500000  1
  Rh  Rh13  1  0.780483  0.927538  0.500000  1
  Rh  Rh14  1  0.071018  0.778916  0.500000  1
  Rh  Rh15  1  0.721084  0.428982  0.500000  1
  Rh  Rh16  1  0.928982  0.221084  0.500000  1
  Rh  Rh17  1  0.278916  0.571018  0.500000  1
  Rh  Rh18  1  0.572462  0.719517  0.500000  1
  Rh  Rh19  1  0.427538  0.280483  0.500000  1
