# generated using pymatgen
data_La8Er2IrRu3
_symmetry_space_group_name_H-M   'P 1'
_cell_length_a   6.65878919
_cell_length_b   7.26337479
_cell_length_c   9.07939330
_cell_angle_alpha   94.57837070
_cell_angle_beta   110.87899091
_cell_angle_gamma   90.06873798
_symmetry_Int_Tables_number   1
_chemical_formula_structural   La8Er2IrRu3
_chemical_formula_sum   'La8 Er2 Ir1 Ru3'
_cell_volume   408.77572291
_cell_formula_units_Z   1
loop_
 _symmetry_equiv_pos_site_id
 _symmetry_equiv_pos_as_xyz
  1  'x, y, z'
loop_
 _atom_site_type_symbol
 _atom_site_label
 _atom_site_symmetry_multiplicity
 _atom_site_fract_x
 _atom_site_fract_y
 _atom_site_fract_z
 _atom_site_occupancy
  La  La0  1  0.805176  0.586431  0.818581  1
  La  La1  1  0.981277  0.907353  0.181459  1
  La  La2  1  0.202011  0.406932  0.183376  1
  La  La3  1  0.021155  0.090675  0.819961  1
  La  La4  1  0.210660  0.681955  0.577552  1
  La  La5  1  0.635336  0.818338  0.421935  1
  La  La6  1  0.786650  0.317573  0.422209  1
  La  La7  1  0.360085  0.184700  0.571358  1
  Er  Er8  1  0.435869  0.748708  0.999652  1
  Er  Er9  1  0.566563  0.249214  0.999740  1
  Ir  Ir10  1  0.596685  0.926955  0.788127  1
  Ru  Ru11  1  0.819406  0.580313  0.213597  1
  Ru  Ru12  1  0.396173  0.076870  0.216744  1
  Ru  Ru13  1  0.182953  0.423983  0.785709  1
