# generated using pymatgen
data_CeNd(ZnP)6
_symmetry_space_group_name_H-M   'P 1'
_cell_length_a   4.05360900
_cell_length_b   4.05360929
_cell_length_c   20.09621100
_cell_angle_alpha   90.00000000
_cell_angle_beta   90.00000000
_cell_angle_gamma   119.99998943
_symmetry_Int_Tables_number   1
_chemical_formula_structural   CeNd(ZnP)6
_chemical_formula_sum   'Ce1 Nd1 Zn6 P6'
_cell_volume   285.97535153
_cell_formula_units_Z   1
loop_
 _symmetry_equiv_pos_site_id
 _symmetry_equiv_pos_as_xyz
  1  'x, y, z'
loop_
 _atom_site_type_symbol
 _atom_site_label
 _atom_site_symmetry_multiplicity
 _atom_site_fract_x
 _atom_site_fract_y
 _atom_site_fract_z
 _atom_site_occupancy
  Ce  Ce0  1  0.000000  0.000000  0.500000  1
  Nd  Nd1  1  0.000000  0.000000  0.000000  1
  Zn  Zn2  1  0.333333  0.666667  0.750746  1
  Zn  Zn3  1  0.666667  0.333333  0.249254  1
  Zn  Zn4  1  0.333333  0.666667  0.129363  1
  Zn  Zn5  1  0.666667  0.333333  0.870637  1
  Zn  Zn6  1  0.666667  0.333333  0.628925  1
  Zn  Zn7  1  0.333333  0.666667  0.371075  1
  P  P8  1  0.333333  0.666667  0.585496  1
  P  P9  1  0.666667  0.333333  0.414504  1
  P  P10  1  0.666667  0.333333  0.088367  1
  P  P11  1  0.333333  0.666667  0.911633  1
  P  P12  1  0.333333  0.666667  0.251076  1
  P  P13  1  0.666667  0.333333  0.748924  1
