# generated using pymatgen
data_HgPd8
_symmetry_space_group_name_H-M   'P 1'
_cell_length_a   6.33332864
_cell_length_b   6.33332854
_cell_length_c   6.33350700
_cell_angle_alpha   95.65458728
_cell_angle_beta   95.65453069
_cell_angle_gamma   143.41113210
_symmetry_Int_Tables_number   1
_chemical_formula_structural   HgPd8
_chemical_formula_sum   'Hg1 Pd8'
_cell_volume   143.77419034
_cell_formula_units_Z   1
loop_
 _symmetry_equiv_pos_site_id
 _symmetry_equiv_pos_as_xyz
  1  'x, y, z'
loop_
 _atom_site_type_symbol
 _atom_site_label
 _atom_site_symmetry_multiplicity
 _atom_site_fract_x
 _atom_site_fract_y
 _atom_site_fract_z
 _atom_site_occupancy
  Hg  Hg0  1  0.000000  0.000000  0.000000  1
  Pd  Pd1  1  0.669278  0.330724  0.000000  1
  Pd  Pd2  1  0.330724  0.669278  0.000000  1
  Pd  Pd3  1  0.336048  0.000000  0.336047  1
  Pd  Pd4  1  0.000000  0.336047  0.336047  1
  Pd  Pd5  1  0.669279  0.669280  0.338558  1
  Pd  Pd6  1  0.330722  0.330721  0.661442  1
  Pd  Pd7  1  0.663952  0.000000  0.663953  1
  Pd  Pd8  1  0.000000  0.663953  0.663953  1
