# generated using pymatgen
data_Li4HoNi9As7
_symmetry_space_group_name_H-M   'P 1'
_cell_length_a   9.40207400
_cell_length_b   9.40207369
_cell_length_c   3.82986500
_cell_angle_alpha   90.00000000
_cell_angle_beta   90.00000000
_cell_angle_gamma   120.00000812
_symmetry_Int_Tables_number   1
_chemical_formula_structural   Li4HoNi9As7
_chemical_formula_sum   'Li4 Ho1 Ni9 As7'
_cell_volume   293.19825261
_cell_formula_units_Z   1
loop_
 _symmetry_equiv_pos_site_id
 _symmetry_equiv_pos_as_xyz
  1  'x, y, z'
loop_
 _atom_site_type_symbol
 _atom_site_label
 _atom_site_symmetry_multiplicity
 _atom_site_fract_x
 _atom_site_fract_y
 _atom_site_fract_z
 _atom_site_occupancy
  Li  Li0  1  0.773116  0.544808  0.500000  1
  Li  Li1  1  0.455192  0.228307  0.500000  1
  Li  Li2  1  0.771693  0.226884  0.500000  1
  Li  Li3  1  0.000000  0.000000  0.500000  1
  Ho  Ho4  1  0.333333  0.666667  0.000000  1
  Ni  Ni5  1  0.274220  0.374892  0.500000  1
  Ni  Ni6  1  0.625108  0.899327  0.500000  1
  Ni  Ni7  1  0.100673  0.725780  0.500000  1
  Ni  Ni8  1  0.495647  0.451963  0.000000  1
  Ni  Ni9  1  0.548037  0.043684  0.000000  1
  Ni  Ni10  1  0.956316  0.504353  0.000000  1
  Ni  Ni11  1  0.716258  0.761393  0.000000  1
  Ni  Ni12  1  0.238607  0.954865  0.000000  1
  Ni  Ni13  1  0.045135  0.283742  0.000000  1
  As  As14  1  0.963038  0.756553  0.000000  1
  As  As15  1  0.243447  0.206486  0.000000  1
  As  As16  1  0.793514  0.036962  0.000000  1
  As  As17  1  0.666667  0.333333  0.000000  1
  As  As18  1  0.544790  0.618781  0.500000  1
  As  As19  1  0.381219  0.926008  0.500000  1
  As  As20  1  0.073992  0.455210  0.500000  1
