# generated using pymatgen
data_Nd5Ho5(Pb3Cl)2
_symmetry_space_group_name_H-M   'P 1'
_cell_length_a   9.37086600
_cell_length_b   9.37184202
_cell_length_c   6.70581500
_cell_angle_alpha   90.00000000
_cell_angle_beta   90.00000000
_cell_angle_gamma   119.99655502
_symmetry_Int_Tables_number   1
_chemical_formula_structural   Nd5Ho5(Pb3Cl)2
_chemical_formula_sum   'Nd5 Ho5 Pb6 Cl2'
_cell_volume   510.03732739
_cell_formula_units_Z   1
loop_
 _symmetry_equiv_pos_site_id
 _symmetry_equiv_pos_as_xyz
  1  'x, y, z'
loop_
 _atom_site_type_symbol
 _atom_site_label
 _atom_site_symmetry_multiplicity
 _atom_site_fract_x
 _atom_site_fract_y
 _atom_site_fract_z
 _atom_site_occupancy
  Nd  Nd0  1  0.740902  0.000000  0.750000  1
  Nd  Nd1  1  0.999663  0.260038  0.250000  1
  Nd  Nd2  1  0.000287  0.741016  0.750000  1
  Nd  Nd3  1  0.739625  0.739962  0.250000  1
  Nd  Nd4  1  0.259271  0.258984  0.750000  1
  Ho  Ho5  1  0.259982  0.000000  0.250000  1
  Ho  Ho6  1  0.333286  0.667132  0.000392  1
  Ho  Ho7  1  0.666155  0.332868  0.000392  1
  Ho  Ho8  1  0.666155  0.332868  0.499608  1
  Ho  Ho9  1  0.333286  0.667132  0.499608  1
  Pb  Pb10  1  0.604686  0.000000  0.250000  1
  Pb  Pb11  1  0.391536  0.000000  0.750000  1
  Pb  Pb12  1  0.002856  0.612069  0.250000  1
  Pb  Pb13  1  0.000013  0.392042  0.750000  1
  Pb  Pb14  1  0.390787  0.387931  0.250000  1
  Pb  Pb15  1  0.607970  0.607958  0.750000  1
  Cl  Cl16  1  0.001768  0.000000  0.002313  1
  Cl  Cl17  1  0.001768  0.000000  0.497687  1
