# generated using pymatgen
data_Hf4V2Ga5Sn
_symmetry_space_group_name_H-M   'P 1'
_cell_length_a   5.43749800
_cell_length_b   8.55521512
_cell_length_c   9.05630382
_cell_angle_alpha   89.10424947
_cell_angle_beta   90.00000000
_cell_angle_gamma   90.00000000
_symmetry_Int_Tables_number   1
_chemical_formula_structural   Hf4V2Ga5Sn
_chemical_formula_sum   'Hf8 V4 Ga10 Sn2'
_cell_volume   421.23839745
_cell_formula_units_Z   2
loop_
 _symmetry_equiv_pos_site_id
 _symmetry_equiv_pos_as_xyz
  1  'x, y, z'
loop_
 _atom_site_type_symbol
 _atom_site_label
 _atom_site_symmetry_multiplicity
 _atom_site_fract_x
 _atom_site_fract_y
 _atom_site_fract_z
 _atom_site_occupancy
  Hf  Hf0  1  0.750000  0.471078  0.625205  1
  Hf  Hf1  1  0.250000  0.528922  0.374795  1
  Hf  Hf2  1  0.750000  0.973094  0.392912  1
  Hf  Hf3  1  0.250000  0.026906  0.607088  1
  Hf  Hf4  1  0.750000  0.374251  0.184715  1
  Hf  Hf5  1  0.250000  0.625749  0.815285  1
  Hf  Hf6  1  0.750000  0.855830  0.803593  1
  Hf  Hf7  1  0.250000  0.144170  0.196407  1
  V  V8  1  0.001895  0.736027  0.109633  1
  V  V9  1  0.501895  0.263973  0.890367  1
  V  V10  1  0.998105  0.263973  0.890367  1
  V  V11  1  0.498105  0.736027  0.109633  1
  Ga  Ga12  1  0.006215  0.744593  0.566425  1
  Ga  Ga13  1  0.506215  0.255407  0.433575  1
  Ga  Ga14  1  0.993785  0.255407  0.433575  1
  Ga  Ga15  1  0.493785  0.744593  0.566425  1
  Ga  Ga16  1  0.750000  0.547262  0.924118  1
  Ga  Ga17  1  0.250000  0.452738  0.075882  1
  Ga  Ga18  1  0.750000  0.140262  0.667750  1
  Ga  Ga19  1  0.250000  0.859738  0.332250  1
  Ga  Ga20  1  0.750000  0.640619  0.341053  1
  Ga  Ga21  1  0.250000  0.359381  0.658947  1
  Sn  Sn22  1  0.750000  0.043984  0.078691  1
  Sn  Sn23  1  0.250000  0.956016  0.921309  1
