# generated using pymatgen
data_Nd2ZnGaPt2
_symmetry_space_group_name_H-M   'P 1'
_cell_length_a   4.48867900
_cell_length_b   7.07839400
_cell_length_c   7.96199700
_cell_angle_alpha   90.00000000
_cell_angle_beta   90.00000000
_cell_angle_gamma   90.00000000
_symmetry_Int_Tables_number   1
_chemical_formula_structural   Nd2ZnGaPt2
_chemical_formula_sum   'Nd4 Zn2 Ga2 Pt4'
_cell_volume   252.97365243
_cell_formula_units_Z   2
loop_
 _symmetry_equiv_pos_site_id
 _symmetry_equiv_pos_as_xyz
  1  'x, y, z'
loop_
 _atom_site_type_symbol
 _atom_site_label
 _atom_site_symmetry_multiplicity
 _atom_site_fract_x
 _atom_site_fract_y
 _atom_site_fract_z
 _atom_site_occupancy
  Nd  Nd0  1  0.250000  0.025464  0.689434  1
  Nd  Nd1  1  0.250000  0.525464  0.810566  1
  Nd  Nd2  1  0.750000  0.974846  0.309845  1
  Nd  Nd3  1  0.750000  0.474846  0.190155  1
  Zn  Zn4  1  0.250000  0.158362  0.070915  1
  Zn  Zn5  1  0.250000  0.658362  0.429085  1
  Ga  Ga6  1  0.750000  0.846503  0.932424  1
  Ga  Ga7  1  0.750000  0.346503  0.567576  1
  Pt  Pt8  1  0.250000  0.273030  0.394065  1
  Pt  Pt9  1  0.250000  0.773030  0.105935  1
  Pt  Pt10  1  0.750000  0.721794  0.612943  1
  Pt  Pt11  1  0.750000  0.221794  0.887057  1
