# generated using pymatgen
data_TbCe2Y2Al2Ru3
_symmetry_space_group_name_H-M   'P 1'
_cell_length_a   8.45966155
_cell_length_b   8.43753620
_cell_length_c   8.46559760
_cell_angle_alpha   110.07089248
_cell_angle_beta   110.52275813
_cell_angle_gamma   109.79474636
_symmetry_Int_Tables_number   1
_chemical_formula_structural   TbCe2Y2Al2Ru3
_chemical_formula_sum   'Tb2 Ce4 Y4 Al4 Ru6'
_cell_volume   453.45794114
_cell_formula_units_Z   2
loop_
 _symmetry_equiv_pos_site_id
 _symmetry_equiv_pos_as_xyz
  1  'x, y, z'
loop_
 _atom_site_type_symbol
 _atom_site_label
 _atom_site_symmetry_multiplicity
 _atom_site_fract_x
 _atom_site_fract_y
 _atom_site_fract_z
 _atom_site_occupancy
  Tb  Tb0  1  0.724474  0.509064  0.998358  1
  Tb  Tb1  1  0.994623  0.723216  0.508753  1
  Ce  Ce2  1  0.499339  0.991691  0.702580  1
  Ce  Ce3  1  0.253722  0.201096  0.947044  1
  Ce  Ce4  1  0.940501  0.247107  0.191419  1
  Ce  Ce5  1  0.197263  0.942733  0.247982  1
  Y  Y6  1  0.773954  0.775926  0.775482  1
  Y  Y7  1  0.312113  0.564322  0.751645  1
  Y  Y8  1  0.756091  0.316259  0.565023  1
  Y  Y9  1  0.565419  0.748778  0.307872  1
  Al  Al10  1  0.406254  0.404866  0.407572  1
  Al  Al11  1  0.097155  0.499176  0.007834  1
  Al  Al12  1  0.002367  0.094790  0.500727  1
  Al  Al13  1  0.498022  0.002812  0.092253  1
  Ru  Ru14  1  0.899102  0.120795  0.754992  1
  Ru  Ru15  1  0.755491  0.905528  0.122267  1
  Ru  Ru16  1  0.121582  0.755219  0.908822  1
  Ru  Ru17  1  0.234991  0.608839  0.380791  1
  Ru  Ru18  1  0.370653  0.220620  0.603687  1
  Ru  Ru19  1  0.596886  0.367163  0.224898  1
