# generated using pymatgen
data_Zr5Si2AsH
_symmetry_space_group_name_H-M   'P 1'
_cell_length_a   8.03226010
_cell_length_b   8.03225980
_cell_length_c   8.03226000
_cell_angle_alpha   128.36166014
_cell_angle_beta   128.36165843
_cell_angle_gamma   76.03987897
_symmetry_Int_Tables_number   1
_chemical_formula_structural   Zr5Si2AsH
_chemical_formula_sum   'Zr10 Si4 As2 H2'
_cell_volume   309.76192482
_cell_formula_units_Z   2
loop_
 _symmetry_equiv_pos_site_id
 _symmetry_equiv_pos_as_xyz
  1  'x, y, z'
loop_
 _atom_site_type_symbol
 _atom_site_label
 _atom_site_symmetry_multiplicity
 _atom_site_fract_x
 _atom_site_fract_y
 _atom_site_fract_z
 _atom_site_occupancy
  Zr  Zr0  1  0.500000  0.500000  0.000000  1
  Zr  Zr1  1  0.000000  0.000000  0.000000  1
  Zr  Zr2  1  0.521731  0.021731  0.831782  1
  Zr  Zr3  1  0.189950  0.689950  0.168218  1
  Zr  Zr4  1  0.021731  0.189950  0.500000  1
  Zr  Zr5  1  0.689950  0.521731  0.500000  1
  Zr  Zr6  1  0.478269  0.978269  0.168218  1
  Zr  Zr7  1  0.810050  0.310050  0.831782  1
  Zr  Zr8  1  0.978269  0.810050  0.500000  1
  Zr  Zr9  1  0.310050  0.478269  0.500000  1
  Si  Si10  1  0.873038  0.373038  0.246075  1
  Si  Si11  1  0.126962  0.626962  0.753925  1
  Si  Si12  1  0.373038  0.126962  0.500000  1
  Si  Si13  1  0.626962  0.873038  0.500000  1
  As  As14  1  0.250000  0.250000  0.000000  1
  As  As15  1  0.750000  0.750000  0.000000  1
  H  H16  1  0.250000  0.750000  0.500000  1
  H  H17  1  0.750000  0.250000  0.500000  1
