# generated using pymatgen
data_Tb4Y8Co4RhPb
_symmetry_space_group_name_H-M   'P 1'
_cell_length_a   8.38743648
_cell_length_b   8.38743700
_cell_length_c   8.38743669
_cell_angle_alpha   110.95439076
_cell_angle_beta   110.45594553
_cell_angle_gamma   107.03095313
_symmetry_Int_Tables_number   1
_chemical_formula_structural   Tb4Y8Co4RhPb
_chemical_formula_sum   'Tb4 Y8 Co4 Rh1 Pb1'
_cell_volume   453.59595434
_cell_formula_units_Z   1
loop_
 _symmetry_equiv_pos_site_id
 _symmetry_equiv_pos_as_xyz
  1  'x, y, z'
loop_
 _atom_site_type_symbol
 _atom_site_label
 _atom_site_symmetry_multiplicity
 _atom_site_fract_x
 _atom_site_fract_y
 _atom_site_fract_z
 _atom_site_occupancy
  Tb  Tb0  1  0.403519  0.206937  0.196582  1
  Tb  Tb1  1  0.596481  0.793063  0.803418  1
  Tb  Tb2  1  0.010356  0.206937  0.803418  1
  Tb  Tb3  1  0.989644  0.793063  0.196582  1
  Y  Y4  1  0.185951  0.293470  0.479421  1
  Y  Y5  1  0.814049  0.706530  0.520579  1
  Y  Y6  1  0.185951  0.706530  0.892481  1
  Y  Y7  1  0.814049  0.293470  0.107519  1
  Y  Y8  1  0.312482  0.618680  0.306199  1
  Y  Y9  1  0.687518  0.381320  0.693801  1
  Y  Y10  1  0.312482  0.006283  0.693801  1
  Y  Y11  1  0.687518  0.993717  0.306199  1
  Co  Co12  1  0.381473  0.000000  0.381473  1
  Co  Co13  1  0.618527  0.000000  0.618527  1
  Co  Co14  1  0.110450  0.610450  0.500000  1
  Co  Co15  1  0.889550  0.389550  0.500000  1
  Rh  Rh16  1  0.000000  0.000000  0.000000  1
  Pb  Pb17  1  0.500000  0.500000  0.000000  1
