# generated using pymatgen
data_NpVBr6
_symmetry_space_group_name_H-M   'P 1'
_cell_length_a   6.89749940
_cell_length_b   6.87427028
_cell_length_c   7.12105000
_cell_angle_alpha   90.14644288
_cell_angle_beta   90.30291523
_cell_angle_gamma   120.27970475
_symmetry_Int_Tables_number   1
_chemical_formula_structural   NpVBr6
_chemical_formula_sum   'Np1 V1 Br6'
_cell_volume   291.57344269
_cell_formula_units_Z   1
loop_
 _symmetry_equiv_pos_site_id
 _symmetry_equiv_pos_as_xyz
  1  'x, y, z'
loop_
 _atom_site_type_symbol
 _atom_site_label
 _atom_site_symmetry_multiplicity
 _atom_site_fract_x
 _atom_site_fract_y
 _atom_site_fract_z
 _atom_site_occupancy
  Np  Np0  1  0.666505  0.333819  0.999763  1
  V  V1  1  0.333430  0.666614  0.000203  1
  Br  Br2  1  0.634358  0.659660  0.217109  1
  Br  Br3  1  0.025880  0.367159  0.216478  1
  Br  Br4  1  0.342533  0.975674  0.217056  1
  Br  Br5  1  0.632608  0.974245  0.783121  1
  Br  Br6  1  0.024660  0.657763  0.783233  1
  Br  Br7  1  0.340022  0.365063  0.783038  1
