# generated using pymatgen
data_Sc2Pa6BiSb9
_symmetry_space_group_name_H-M   'P 1'
_cell_length_a   9.30873200
_cell_length_b   9.30873080
_cell_length_c   6.25016700
_cell_angle_alpha   90.00000000
_cell_angle_beta   90.00000000
_cell_angle_gamma   120.00000427
_symmetry_Int_Tables_number   1
_chemical_formula_structural   Sc2Pa6BiSb9
_chemical_formula_sum   'Sc2 Pa6 Bi1 Sb9'
_cell_volume   469.03281950
_cell_formula_units_Z   1
loop_
 _symmetry_equiv_pos_site_id
 _symmetry_equiv_pos_as_xyz
  1  'x, y, z'
loop_
 _atom_site_type_symbol
 _atom_site_label
 _atom_site_symmetry_multiplicity
 _atom_site_fract_x
 _atom_site_fract_y
 _atom_site_fract_z
 _atom_site_occupancy
  Sc  Sc0  1  0.000000  0.000000  0.000000  1
  Sc  Sc1  1  0.000000  0.000000  0.500000  1
  Pa  Pa2  1  0.004174  0.615957  0.246910  1
  Pa  Pa3  1  0.384043  0.388215  0.246910  1
  Pa  Pa4  1  0.384043  0.995826  0.753090  1
  Pa  Pa5  1  0.611785  0.615957  0.753090  1
  Pa  Pa6  1  0.611785  0.995826  0.246910  1
  Pa  Pa7  1  0.004174  0.388215  0.753090  1
  Bi  Bi8  1  0.666667  0.333333  0.500000  1
  Sb  Sb9  1  0.998661  0.268923  0.250628  1
  Sb  Sb10  1  0.333333  0.666667  0.500000  1
  Sb  Sb11  1  0.666667  0.333333  0.000000  1
  Sb  Sb12  1  0.333333  0.666667  0.000000  1
  Sb  Sb13  1  0.270262  0.268923  0.749372  1
  Sb  Sb14  1  0.731077  0.001339  0.749372  1
  Sb  Sb15  1  0.998661  0.729738  0.749372  1
  Sb  Sb16  1  0.731077  0.729738  0.250628  1
  Sb  Sb17  1  0.270262  0.001339  0.250628  1
