# generated using pymatgen
data_Y4HoThRh2
_symmetry_space_group_name_H-M   'P 1'
_cell_length_a   6.38727954
_cell_length_b   7.13561192
_cell_length_c   9.70851130
_cell_angle_alpha   89.92861174
_cell_angle_beta   90.10781349
_cell_angle_gamma   88.89836392
_symmetry_Int_Tables_number   1
_chemical_formula_structural   Y4HoThRh2
_chemical_formula_sum   'Y8 Ho2 Th2 Rh4'
_cell_volume   442.40332229
_cell_formula_units_Z   2
loop_
 _symmetry_equiv_pos_site_id
 _symmetry_equiv_pos_as_xyz
  1  'x, y, z'
loop_
 _atom_site_type_symbol
 _atom_site_label
 _atom_site_symmetry_multiplicity
 _atom_site_fract_x
 _atom_site_fract_y
 _atom_site_fract_z
 _atom_site_occupancy
  Y  Y0  1  0.139476  0.465516  0.750269  1
  Y  Y1  1  0.860524  0.534484  0.249731  1
  Y  Y2  1  0.669770  0.323169  0.934323  1
  Y  Y3  1  0.830460  0.822923  0.563788  1
  Y  Y4  1  0.330230  0.676831  0.065677  1
  Y  Y5  1  0.169540  0.177077  0.436212  1
  Y  Y6  1  0.330380  0.676602  0.434110  1
  Y  Y7  1  0.669620  0.323398  0.565890  1
  Ho  Ho8  1  0.169582  0.176661  0.064432  1
  Ho  Ho9  1  0.830418  0.823339  0.935568  1
  Th  Th10  1  0.654067  0.042094  0.249498  1
  Th  Th11  1  0.345933  0.957906  0.750502  1
  Rh  Rh12  1  0.450160  0.369109  0.249305  1
  Rh  Rh13  1  0.549840  0.630891  0.750695  1
  Rh  Rh14  1  0.951996  0.115268  0.751090  1
  Rh  Rh15  1  0.048004  0.884732  0.248910  1
