# generated using pymatgen
data_TmCo5As3
_symmetry_space_group_name_H-M   'P 1'
_cell_length_a   3.76503200
_cell_length_b   12.13832900
_cell_length_c   10.64068100
_cell_angle_alpha   90.00000000
_cell_angle_beta   90.00000000
_cell_angle_gamma   90.00000000
_symmetry_Int_Tables_number   1
_chemical_formula_structural   TmCo5As3
_chemical_formula_sum   'Tm4 Co20 As12'
_cell_volume   486.29185978
_cell_formula_units_Z   4
loop_
 _symmetry_equiv_pos_site_id
 _symmetry_equiv_pos_as_xyz
  1  'x, y, z'
loop_
 _atom_site_type_symbol
 _atom_site_label
 _atom_site_symmetry_multiplicity
 _atom_site_fract_x
 _atom_site_fract_y
 _atom_site_fract_z
 _atom_site_occupancy
  Tm  Tm0  1  0.750000  0.701596  0.081131  1
  Tm  Tm1  1  0.250000  0.298404  0.918869  1
  Tm  Tm2  1  0.250000  0.798404  0.581131  1
  Tm  Tm3  1  0.750000  0.201596  0.418869  1
  Co  Co4  1  0.750000  0.697476  0.384099  1
  Co  Co5  1  0.250000  0.302524  0.615901  1
  Co  Co6  1  0.250000  0.802524  0.884099  1
  Co  Co7  1  0.750000  0.197476  0.115901  1
  Co  Co8  1  0.750000  0.991360  0.212656  1
  Co  Co9  1  0.250000  0.008640  0.787344  1
  Co  Co10  1  0.250000  0.508640  0.712656  1
  Co  Co11  1  0.750000  0.491360  0.287344  1
  Co  Co12  1  0.750000  0.677692  0.783868  1
  Co  Co13  1  0.250000  0.322308  0.216132  1
  Co  Co14  1  0.250000  0.822308  0.283868  1
  Co  Co15  1  0.750000  0.177692  0.716132  1
  Co  Co16  1  0.750000  0.931741  0.969013  1
  Co  Co17  1  0.250000  0.068259  0.030987  1
  Co  Co18  1  0.250000  0.568259  0.469013  1
  Co  Co19  1  0.750000  0.431741  0.530987  1
  Co  Co20  1  0.750000  0.987307  0.592587  1
  Co  Co21  1  0.250000  0.012693  0.407413  1
  Co  Co22  1  0.250000  0.512693  0.092587  1
  Co  Co23  1  0.750000  0.487306  0.907413  1
  As  As24  1  0.750000  0.614775  0.584645  1
  As  As25  1  0.250000  0.385225  0.415355  1
  As  As26  1  0.250000  0.885225  0.084645  1
  As  As27  1  0.750000  0.114775  0.915355  1
  As  As28  1  0.750000  0.890211  0.400040  1
  As  As29  1  0.250000  0.109789  0.599960  1
  As  As30  1  0.250000  0.609789  0.900040  1
  As  As31  1  0.750000  0.390211  0.099960  1
  As  As32  1  0.750000  0.869996  0.767923  1
  As  As33  1  0.250000  0.130004  0.232077  1
  As  As34  1  0.250000  0.630004  0.267923  1
  As  As35  1  0.750000  0.369996  0.732077  1
