# generated using pymatgen
data_EuEr4Mn2O12
_symmetry_space_group_name_H-M   'P 1'
_cell_length_a   6.75936653
_cell_length_b   6.75936673
_cell_length_c   7.21184806
_cell_angle_alpha   74.51059516
_cell_angle_beta   74.51059451
_cell_angle_gamma   50.25179459
_symmetry_Int_Tables_number   1
_chemical_formula_structural   EuEr4Mn2O12
_chemical_formula_sum   'Eu1 Er4 Mn2 O12'
_cell_volume   242.06966504
_cell_formula_units_Z   1
loop_
 _symmetry_equiv_pos_site_id
 _symmetry_equiv_pos_as_xyz
  1  'x, y, z'
loop_
 _atom_site_type_symbol
 _atom_site_label
 _atom_site_symmetry_multiplicity
 _atom_site_fract_x
 _atom_site_fract_y
 _atom_site_fract_z
 _atom_site_occupancy
  Eu  Eu0  1  0.000000  0.000000  0.500000  1
  Er  Er1  1  0.306354  0.306354  0.351685  1
  Er  Er2  1  0.693646  0.693646  0.648315  1
  Er  Er3  1  0.306084  0.306084  0.841642  1
  Er  Er4  1  0.693916  0.693916  0.158358  1
  Mn  Mn5  1  0.754658  0.245342  0.000000  1
  Mn  Mn6  1  0.245342  0.754658  0.000000  1
  O  O7  1  0.902317  0.424093  0.917143  1
  O  O8  1  0.424093  0.902317  0.917143  1
  O  O9  1  0.097683  0.575907  0.082857  1
  O  O10  1  0.575907  0.097683  0.082857  1
  O  O11  1  0.094910  0.595807  0.575136  1
  O  O12  1  0.595807  0.094910  0.575136  1
  O  O13  1  0.905090  0.404193  0.424864  1
  O  O14  1  0.404193  0.905090  0.424864  1
  O  O15  1  0.999534  0.999534  0.823223  1
  O  O16  1  0.000466  0.000466  0.176777  1
  O  O17  1  0.499405  0.499405  0.818177  1
  O  O18  1  0.500595  0.500595  0.181823  1
