# generated using pymatgen
data_DyHf4Zr5Sn6
_symmetry_space_group_name_H-M   'P 1'
_cell_length_a   8.59561629
_cell_length_b   8.59561739
_cell_length_c   5.82424300
_cell_angle_alpha   90.00000000
_cell_angle_beta   90.00000000
_cell_angle_gamma   120.79390247
_symmetry_Int_Tables_number   1
_chemical_formula_structural   DyHf4Zr5Sn6
_chemical_formula_sum   'Dy1 Hf4 Zr5 Sn6'
_cell_volume   369.65281575
_cell_formula_units_Z   1
loop_
 _symmetry_equiv_pos_site_id
 _symmetry_equiv_pos_as_xyz
  1  'x, y, z'
loop_
 _atom_site_type_symbol
 _atom_site_label
 _atom_site_symmetry_multiplicity
 _atom_site_fract_x
 _atom_site_fract_y
 _atom_site_fract_z
 _atom_site_occupancy
  Dy  Dy0  1  0.765803  0.765803  0.750000  1
  Hf  Hf1  1  0.665384  0.333468  0.000592  1
  Hf  Hf2  1  0.333468  0.665384  0.000592  1
  Hf  Hf3  1  0.333468  0.665384  0.499408  1
  Hf  Hf4  1  0.665384  0.333468  0.499408  1
  Zr  Zr5  1  0.250831  0.000874  0.750000  1
  Zr  Zr6  1  0.000874  0.250831  0.750000  1
  Zr  Zr7  1  0.240089  0.240089  0.250000  1
  Zr  Zr8  1  0.749234  0.000061  0.250000  1
  Zr  Zr9  1  0.000061  0.749234  0.250000  1
  Sn  Sn10  1  0.391230  0.391230  0.750000  1
  Sn  Sn11  1  0.604672  0.002771  0.750000  1
  Sn  Sn12  1  0.002771  0.604672  0.750000  1
  Sn  Sn13  1  0.605730  0.605730  0.250000  1
  Sn  Sn14  1  0.391401  0.999599  0.250000  1
  Sn  Sn15  1  0.999599  0.391401  0.250000  1
