# generated using pymatgen
data_Lu6Co16P12RuRh
_symmetry_space_group_name_H-M   'P 1'
_cell_length_a   3.66983000
_cell_length_b   10.47642800
_cell_length_c   12.15035200
_cell_angle_alpha   90.00000000
_cell_angle_beta   90.00000000
_cell_angle_gamma   90.00000000
_symmetry_Int_Tables_number   1
_chemical_formula_structural   Lu6Co16P12RuRh
_chemical_formula_sum   'Lu6 Co16 P12 Ru1 Rh1'
_cell_volume   467.14105691
_cell_formula_units_Z   1
loop_
 _symmetry_equiv_pos_site_id
 _symmetry_equiv_pos_as_xyz
  1  'x, y, z'
loop_
 _atom_site_type_symbol
 _atom_site_label
 _atom_site_symmetry_multiplicity
 _atom_site_fract_x
 _atom_site_fract_y
 _atom_site_fract_z
 _atom_site_occupancy
  Lu  Lu0  1  0.000000  0.500000  0.525502  1
  Lu  Lu1  1  0.500000  0.000000  0.474764  1
  Lu  Lu2  1  0.500000  0.818648  0.207659  1
  Lu  Lu3  1  0.500000  0.181352  0.207659  1
  Lu  Lu4  1  0.000000  0.680700  0.792756  1
  Lu  Lu5  1  0.000000  0.319300  0.792756  1
  Co  Co6  1  0.500000  0.500000  0.703709  1
  Co  Co7  1  0.000000  0.000000  0.296018  1
  Co  Co8  1  0.000000  0.500000  0.987260  1
  Co  Co9  1  0.500000  0.000000  0.014212  1
  Co  Co10  1  0.500000  0.333181  0.991749  1
  Co  Co11  1  0.500000  0.666819  0.991749  1
  Co  Co12  1  0.000000  0.168146  0.008474  1
  Co  Co13  1  0.000000  0.831854  0.008474  1
  Co  Co14  1  0.500000  0.297548  0.431160  1
  Co  Co15  1  0.500000  0.702452  0.431160  1
  Co  Co16  1  0.000000  0.202585  0.568100  1
  Co  Co17  1  0.000000  0.797415  0.568100  1
  Co  Co18  1  0.500000  0.876692  0.707367  1
  Co  Co19  1  0.500000  0.123308  0.707367  1
  Co  Co20  1  0.000000  0.622195  0.292425  1
  Co  Co21  1  0.000000  0.377805  0.292425  1
  P  P22  1  0.500000  0.500000  0.880979  1
  P  P23  1  0.000000  0.000000  0.118466  1
  P  P24  1  0.500000  0.500000  0.352975  1
  P  P25  1  0.000000  0.000000  0.645908  1
  P  P26  1  0.500000  0.313244  0.616735  1
  P  P27  1  0.500000  0.686756  0.616735  1
  P  P28  1  0.000000  0.186882  0.383155  1
  P  P29  1  0.000000  0.813118  0.383155  1
  P  P30  1  0.500000  0.843924  0.892628  1
  P  P31  1  0.500000  0.156076  0.892628  1
  P  P32  1  0.000000  0.655398  0.108132  1
  P  P33  1  0.000000  0.344602  0.108132  1
  Ru  Ru34  1  0.500000  0.500000  0.160784  1
  Rh  Rh35  1  0.000000  0.000000  0.838743  1
