# generated using pymatgen
data_La2Ga7Ir
_symmetry_space_group_name_H-M   'P 1'
_cell_length_a   6.21243329
_cell_length_b   6.21197826
_cell_length_c   11.51328561
_cell_angle_alpha   74.34916012
_cell_angle_beta   74.34799445
_cell_angle_gamma   89.99999963
_symmetry_Int_Tables_number   1
_chemical_formula_structural   La2Ga7Ir
_chemical_formula_sum   'La4 Ga14 Ir2'
_cell_volume   410.70496965
_cell_formula_units_Z   2
loop_
 _symmetry_equiv_pos_site_id
 _symmetry_equiv_pos_as_xyz
  1  'x, y, z'
loop_
 _atom_site_type_symbol
 _atom_site_label
 _atom_site_symmetry_multiplicity
 _atom_site_fract_x
 _atom_site_fract_y
 _atom_site_fract_z
 _atom_site_occupancy
  La  La0  1  0.995176  0.995176  0.009649  1
  La  La1  1  0.496027  0.496027  0.007944  1
  La  La2  1  0.746017  0.246017  0.507967  1
  La  La3  1  0.245209  0.745209  0.509584  1
  Ga  Ga4  1  0.200767  0.200767  0.598467  1
  Ga  Ga5  1  0.811748  0.811748  0.376506  1
  Ga  Ga6  1  0.615580  0.126377  0.252390  1
  Ga  Ga7  1  0.132030  0.621233  0.252390  1
  Ga  Ga8  1  0.615580  0.621233  0.252390  1
  Ga  Ga9  1  0.132030  0.126377  0.252390  1
  Ga  Ga10  1  0.871302  0.365330  0.752382  1
  Ga  Ga11  1  0.376315  0.882286  0.752382  1
  Ga  Ga12  1  0.871302  0.882286  0.752382  1
  Ga  Ga13  1  0.376315  0.365330  0.752382  1
  Ga  Ga14  1  0.693570  0.693570  0.612859  1
  Ga  Ga15  1  0.061853  0.561853  0.876294  1
  Ga  Ga16  1  0.450676  0.950676  0.098646  1
  Ga  Ga17  1  0.943692  0.443692  0.112616  1
  Ir  Ir18  1  0.314857  0.314857  0.370285  1
  Ir  Ir19  1  0.564784  0.064784  0.870432  1
