# generated using pymatgen
data_Zr4Fe2Si3AsPd2
_symmetry_space_group_name_H-M   'P 1'
_cell_length_a   3.92255300
_cell_length_b   6.56220577
_cell_length_c   7.47548495
_cell_angle_alpha   92.03516749
_cell_angle_beta   90.00000000
_cell_angle_gamma   90.00000000
_symmetry_Int_Tables_number   1
_chemical_formula_structural   Zr4Fe2Si3AsPd2
_chemical_formula_sum   'Zr4 Fe2 Si3 As1 Pd2'
_cell_volume   192.30209023
_cell_formula_units_Z   1
loop_
 _symmetry_equiv_pos_site_id
 _symmetry_equiv_pos_as_xyz
  1  'x, y, z'
loop_
 _atom_site_type_symbol
 _atom_site_label
 _atom_site_symmetry_multiplicity
 _atom_site_fract_x
 _atom_site_fract_y
 _atom_site_fract_z
 _atom_site_occupancy
  Zr  Zr0  1  0.250000  0.478533  0.196004  1
  Zr  Zr1  1  0.750000  0.526549  0.802786  1
  Zr  Zr2  1  0.750000  0.015627  0.677393  1
  Zr  Zr3  1  0.250000  0.981281  0.323960  1
  Fe  Fe4  1  0.750000  0.648280  0.439563  1
  Fe  Fe5  1  0.250000  0.358781  0.553037  1
  Si  Si6  1  0.250000  0.715894  0.597734  1
  Si  Si7  1  0.750000  0.285982  0.402510  1
  Si  Si8  1  0.750000  0.757444  0.134789  1
  As  As9  1  0.250000  0.245966  0.860762  1
  Pd  Pd10  1  0.250000  0.842746  0.936756  1
  Pd  Pd11  1  0.750000  0.142918  0.074707  1
