# generated using pymatgen
data_Ba3Sr(U2Se5)4
_symmetry_space_group_name_H-M   'P 1'
_cell_length_a   7.90210608
_cell_length_b   8.82432207
_cell_length_c   12.35399307
_cell_angle_alpha   89.66300481
_cell_angle_beta   89.89068756
_cell_angle_gamma   90.16602132
_symmetry_Int_Tables_number   1
_chemical_formula_structural   Ba3Sr(U2Se5)4
_chemical_formula_sum   'Ba3 Sr1 U8 Se20'
_cell_volume   861.43283160
_cell_formula_units_Z   1
loop_
 _symmetry_equiv_pos_site_id
 _symmetry_equiv_pos_as_xyz
  1  'x, y, z'
loop_
 _atom_site_type_symbol
 _atom_site_label
 _atom_site_symmetry_multiplicity
 _atom_site_fract_x
 _atom_site_fract_y
 _atom_site_fract_z
 _atom_site_occupancy
  Ba  Ba0  1  0.554668  0.507978  0.169946  1
  Ba  Ba1  1  0.945718  0.508546  0.667979  1
  Ba  Ba2  1  0.445712  0.492260  0.831057  1
  Sr  Sr3  1  0.052083  0.491589  0.329915  1
  U  U4  1  0.022489  0.999745  0.317895  1
  U  U5  1  0.519774  0.000756  0.182289  1
  U  U6  1  0.978138  0.000535  0.679344  1
  U  U7  1  0.477053  0.998590  0.817301  1
  U  U8  1  0.069412  0.753890  0.009267  1
  U  U9  1  0.570529  0.244604  0.491776  1
  U  U10  1  0.929834  0.243182  0.993454  1
  U  U11  1  0.430747  0.753065  0.506455  1
  Se  Se12  1  0.663151  0.955586  0.402425  1
  Se  Se13  1  0.164185  0.045515  0.097246  1
  Se  Se14  1  0.336453  0.044859  0.595919  1
  Se  Se15  1  0.836945  0.955106  0.903026  1
  Se  Se16  1  0.450549  0.791196  0.001636  1
  Se  Se17  1  0.954320  0.211896  0.496189  1
  Se  Se18  1  0.548345  0.208283  0.998865  1
  Se  Se19  1  0.048973  0.788961  0.499830  1
  Se  Se20  1  0.839962  0.782525  0.189751  1
  Se  Se21  1  0.336213  0.220661  0.312604  1
  Se  Se22  1  0.160190  0.216407  0.812406  1
  Se  Se23  1  0.660377  0.783371  0.687899  1
  Se  Se24  1  0.307219  0.770194  0.284672  1
  Se  Se25  1  0.813676  0.228516  0.216858  1
  Se  Se26  1  0.688986  0.225066  0.714527  1
  Se  Se27  1  0.188372  0.775573  0.785057  1
  Se  Se28  1  0.173429  0.462230  0.077721  1
  Se  Se29  1  0.685707  0.538956  0.427954  1
  Se  Se30  1  0.823746  0.538956  0.928483  1
  Se  Se31  1  0.323045  0.461405  0.570252  1
