# generated using pymatgen
data_CsRb3(Ho3Se5)4
_symmetry_space_group_name_H-M   'P 1'
_cell_length_a   4.13344200
_cell_length_b   12.33548238
_cell_length_c   22.09785800
_cell_angle_alpha   90.18453229
_cell_angle_beta   90.00000000
_cell_angle_gamma   90.00000000
_symmetry_Int_Tables_number   1
_chemical_formula_structural   CsRb3(Ho3Se5)4
_chemical_formula_sum   'Cs1 Rb3 Ho12 Se20'
_cell_volume   1126.71976167
_cell_formula_units_Z   1
loop_
 _symmetry_equiv_pos_site_id
 _symmetry_equiv_pos_as_xyz
  1  'x, y, z'
loop_
 _atom_site_type_symbol
 _atom_site_label
 _atom_site_symmetry_multiplicity
 _atom_site_fract_x
 _atom_site_fract_y
 _atom_site_fract_z
 _atom_site_occupancy
  Cs  Cs0  1  0.250000  0.644958  0.590913  1
  Rb  Rb1  1  0.250000  0.849929  0.094428  1
  Rb  Rb2  1  0.750000  0.149876  0.905679  1
  Rb  Rb3  1  0.750000  0.349712  0.405372  1
  Ho  Ho4  1  0.750000  0.799786  0.827025  1
  Ho  Ho5  1  0.250000  0.200732  0.173432  1
  Ho  Ho6  1  0.250000  0.297607  0.674340  1
  Ho  Ho7  1  0.750000  0.700898  0.325922  1
  Ho  Ho8  1  0.250000  0.957534  0.698780  1
  Ho  Ho9  1  0.750000  0.043389  0.301583  1
  Ho  Ho10  1  0.750000  0.456065  0.802464  1
  Ho  Ho11  1  0.250000  0.543251  0.198059  1
  Ho  Ho12  1  0.750000  0.390597  0.053705  1
  Ho  Ho13  1  0.250000  0.609519  0.946457  1
  Ho  Ho14  1  0.250000  0.892140  0.445833  1
  Ho  Ho15  1  0.750000  0.109960  0.553631  1
  Se  Se16  1  0.250000  0.948515  0.569233  1
  Se  Se17  1  0.750000  0.053605  0.430561  1
  Se  Se18  1  0.750000  0.447409  0.931020  1
  Se  Se19  1  0.250000  0.552707  0.069319  1
  Se  Se20  1  0.750000  0.767036  0.954557  1
  Se  Se21  1  0.250000  0.233019  0.045856  1
  Se  Se22  1  0.250000  0.267621  0.546161  1
  Se  Se23  1  0.750000  0.734942  0.452787  1
  Se  Se24  1  0.250000  0.954148  0.827396  1
  Se  Se25  1  0.750000  0.046440  0.173090  1
  Se  Se26  1  0.750000  0.450643  0.674601  1
  Se  Se27  1  0.250000  0.546512  0.326619  1
  Se  Se28  1  0.750000  0.126824  0.684611  1
  Se  Se29  1  0.250000  0.873433  0.315097  1
  Se  Se30  1  0.250000  0.627116  0.815666  1
  Se  Se31  1  0.750000  0.372962  0.184505  1
  Se  Se32  1  0.750000  0.695990  0.197652  1
  Se  Se33  1  0.250000  0.303339  0.802811  1
  Se  Se34  1  0.250000  0.196158  0.302080  1
  Se  Se35  1  0.750000  0.805631  0.698753  1
