# generated using pymatgen
data_Zr6Be(TlCl5)3
_symmetry_space_group_name_H-M   'P 1'
_cell_length_a   10.23541624
_cell_length_b   10.23541653
_cell_length_c   14.37871400
_cell_angle_alpha   87.54005391
_cell_angle_beta   87.54005384
_cell_angle_gamma   69.60325051
_symmetry_Int_Tables_number   1
_chemical_formula_structural   Zr6Be(TlCl5)3
_chemical_formula_sum   'Zr12 Be2 Tl6 Cl30'
_cell_volume   1409.99121829
_cell_formula_units_Z   2
loop_
 _symmetry_equiv_pos_site_id
 _symmetry_equiv_pos_as_xyz
  1  'x, y, z'
loop_
 _atom_site_type_symbol
 _atom_site_label
 _atom_site_symmetry_multiplicity
 _atom_site_fract_x
 _atom_site_fract_y
 _atom_site_fract_z
 _atom_site_occupancy
  Zr  Zr0  1  0.546494  0.850058  0.133357  1
  Zr  Zr1  1  0.453506  0.149942  0.866643  1
  Zr  Zr2  1  0.149942  0.453506  0.366643  1
  Zr  Zr3  1  0.850058  0.546494  0.633357  1
  Zr  Zr4  1  0.271257  0.998893  0.001247  1
  Zr  Zr5  1  0.728743  0.001107  0.998753  1
  Zr  Zr6  1  0.001107  0.728743  0.498753  1
  Zr  Zr7  1  0.998893  0.271257  0.501247  1
  Zr  Zr8  1  0.424905  0.194829  0.096595  1
  Zr  Zr9  1  0.575095  0.805171  0.903405  1
  Zr  Zr10  1  0.805171  0.575095  0.403405  1
  Zr  Zr11  1  0.194829  0.424905  0.596595  1
  Be  Be12  1  0.500000  0.000000  0.000000  1
  Be  Be13  1  0.000000  0.500000  0.500000  1
  Tl  Tl14  1  0.937184  0.062816  0.250000  1
  Tl  Tl15  1  0.062816  0.937184  0.750000  1
  Tl  Tl16  1  0.636702  0.136570  0.569813  1
  Tl  Tl17  1  0.363298  0.863430  0.430187  1
  Tl  Tl18  1  0.863430  0.363298  0.930187  1
  Tl  Tl19  1  0.136570  0.636702  0.069813  1
  Cl  Cl20  1  0.292915  0.841818  0.149678  1
  Cl  Cl21  1  0.707085  0.158182  0.850322  1
  Cl  Cl22  1  0.158182  0.707085  0.350322  1
  Cl  Cl23  1  0.841818  0.292915  0.649678  1
  Cl  Cl24  1  0.579325  0.675692  0.290800  1
  Cl  Cl25  1  0.420675  0.324308  0.709200  1
  Cl  Cl26  1  0.324308  0.420675  0.209200  1
  Cl  Cl27  1  0.675692  0.579325  0.790800  1
  Cl  Cl28  1  0.672772  0.217995  0.101957  1
  Cl  Cl29  1  0.327228  0.782005  0.898043  1
  Cl  Cl30  1  0.782005  0.327228  0.398043  1
  Cl  Cl31  1  0.217995  0.672772  0.601957  1
  Cl  Cl32  1  0.479756  0.047741  0.250395  1
  Cl  Cl33  1  0.520244  0.952259  0.749605  1
  Cl  Cl34  1  0.952259  0.520244  0.249605  1
  Cl  Cl35  1  0.047741  0.479756  0.750395  1
  Cl  Cl36  1  0.622120  0.630148  0.540291  1
  Cl  Cl37  1  0.377880  0.369852  0.459709  1
  Cl  Cl38  1  0.369852  0.377880  0.959709  1
  Cl  Cl39  1  0.630148  0.622120  0.040291  1
  Cl  Cl40  1  0.802898  0.842749  0.145027  1
  Cl  Cl41  1  0.197102  0.157251  0.854973  1
  Cl  Cl42  1  0.157251  0.197102  0.354973  1
  Cl  Cl43  1  0.842749  0.802898  0.645027  1
  Cl  Cl44  1  0.784673  0.836660  0.398599  1
  Cl  Cl45  1  0.215327  0.163340  0.601401  1
  Cl  Cl46  1  0.163340  0.215327  0.101401  1
  Cl  Cl47  1  0.836660  0.784673  0.898599  1
  Cl  Cl48  1  0.000000  0.000000  0.000000  1
  Cl  Cl49  1  0.000000  0.000000  0.500000  1
