# generated using pymatgen
data_Tb15Y5(Cd3Fe)2
_symmetry_space_group_name_H-M   'P 1'
_cell_length_a   9.60095300
_cell_length_b   9.60095344
_cell_length_c   9.80757700
_cell_angle_alpha   90.00000000
_cell_angle_beta   90.00000000
_cell_angle_gamma   119.99999502
_symmetry_Int_Tables_number   1
_chemical_formula_structural   Tb15Y5(Cd3Fe)2
_chemical_formula_sum   'Tb15 Y5 Cd6 Fe2'
_cell_volume   782.92667011
_cell_formula_units_Z   1
loop_
 _symmetry_equiv_pos_site_id
 _symmetry_equiv_pos_as_xyz
  1  'x, y, z'
loop_
 _atom_site_type_symbol
 _atom_site_label
 _atom_site_symmetry_multiplicity
 _atom_site_fract_x
 _atom_site_fract_y
 _atom_site_fract_z
 _atom_site_occupancy
  Tb  Tb0  1  0.541597  0.458403  0.250000  1
  Tb  Tb1  1  0.541597  0.083194  0.250000  1
  Tb  Tb2  1  0.916806  0.458403  0.250000  1
  Tb  Tb3  1  0.212302  0.787698  0.435667  1
  Tb  Tb4  1  0.212302  0.424605  0.435667  1
  Tb  Tb5  1  0.575395  0.787698  0.435667  1
  Tb  Tb6  1  0.787743  0.212257  0.564282  1
  Tb  Tb7  1  0.787743  0.575485  0.564282  1
  Tb  Tb8  1  0.424515  0.212257  0.564282  1
  Tb  Tb9  1  0.787743  0.212257  0.935718  1
  Tb  Tb10  1  0.787743  0.575485  0.935718  1
  Tb  Tb11  1  0.424515  0.212257  0.935718  1
  Tb  Tb12  1  0.212302  0.787698  0.064333  1
  Tb  Tb13  1  0.212302  0.424605  0.064333  1
  Tb  Tb14  1  0.575395  0.787698  0.064333  1
  Y  Y15  1  0.000000  0.000000  0.500074  1
  Y  Y16  1  0.000000  0.000000  0.999926  1
  Y  Y17  1  0.458407  0.541593  0.750000  1
  Y  Y18  1  0.458407  0.916814  0.750000  1
  Y  Y19  1  0.083186  0.541593  0.750000  1
  Cd  Cd20  1  0.885347  0.114653  0.250000  1
  Cd  Cd21  1  0.885347  0.770695  0.250000  1
  Cd  Cd22  1  0.229305  0.114653  0.250000  1
  Cd  Cd23  1  0.114711  0.885289  0.750000  1
  Cd  Cd24  1  0.114711  0.229421  0.750000  1
  Cd  Cd25  1  0.770579  0.885289  0.750000  1
  Fe  Fe26  1  0.333333  0.666667  0.250000  1
  Fe  Fe27  1  0.666667  0.333333  0.750000  1
