# generated using pymatgen
data_TbDyU6(ReB6)4
_symmetry_space_group_name_H-M   'P 1'
_cell_length_a   3.64035100
_cell_length_b   9.30280505
_cell_length_c   11.40098322
_cell_angle_alpha   89.98246700
_cell_angle_beta   90.00000000
_cell_angle_gamma   90.00000000
_symmetry_Int_Tables_number   1
_chemical_formula_structural   TbDyU6(ReB6)4
_chemical_formula_sum   'Tb1 Dy1 U6 Re4 B24'
_cell_volume   386.09970201
_cell_formula_units_Z   1
loop_
 _symmetry_equiv_pos_site_id
 _symmetry_equiv_pos_as_xyz
  1  'x, y, z'
loop_
 _atom_site_type_symbol
 _atom_site_label
 _atom_site_symmetry_multiplicity
 _atom_site_fract_x
 _atom_site_fract_y
 _atom_site_fract_z
 _atom_site_occupancy
  Tb  Tb0  1  0.000000  0.663468  0.592113  1
  Dy  Dy1  1  0.000000  0.336493  0.407887  1
  U  U2  1  0.000000  0.836404  0.092721  1
  U  U3  1  0.000000  0.163592  0.907274  1
  U  U4  1  0.000000  0.956546  0.396238  1
  U  U5  1  0.000000  0.043593  0.603749  1
  U  U6  1  0.000000  0.457208  0.103544  1
  U  U7  1  0.000000  0.542746  0.896491  1
  Re  Re8  1  0.000000  0.647631  0.316371  1
  Re  Re9  1  0.000000  0.352217  0.683597  1
  Re  Re10  1  0.000000  0.143586  0.177795  1
  Re  Re11  1  0.000000  0.856515  0.822271  1
  B  B12  1  0.500000  0.552153  0.430587  1
  B  B13  1  0.500000  0.447588  0.569312  1
  B  B14  1  0.500000  0.049923  0.067413  1
  B  B15  1  0.500000  0.950103  0.932583  1
  B  B16  1  0.500000  0.743058  0.423012  1
  B  B17  1  0.500000  0.256967  0.576854  1
  B  B18  1  0.500000  0.243079  0.076260  1
  B  B19  1  0.500000  0.756924  0.923747  1
  B  B20  1  0.500000  0.804009  0.273426  1
  B  B21  1  0.500000  0.195979  0.726577  1
  B  B22  1  0.500000  0.302348  0.225123  1
  B  B23  1  0.500000  0.697709  0.774971  1
  B  B24  1  0.500000  0.645352  0.187786  1
  B  B25  1  0.500000  0.354608  0.812228  1
  B  B26  1  0.500000  0.144520  0.311408  1
  B  B27  1  0.500000  0.855606  0.688660  1
  B  B28  1  0.500000  0.987184  0.218993  1
  B  B29  1  0.500000  0.012847  0.781013  1
  B  B30  1  0.500000  0.488583  0.280610  1
  B  B31  1  0.500000  0.511229  0.719464  1
  B  B32  1  0.500000  0.643390  0.039366  1
  B  B33  1  0.500000  0.356586  0.960635  1
  B  B34  1  0.500000  0.140102  0.460951  1
  B  B35  1  0.500000  0.860155  0.538969  1
