# generated using pymatgen
data_Ca3Y(Ni5C3)2
_symmetry_space_group_name_H-M   'P 1'
_cell_length_a   8.22327083
_cell_length_b   8.22327125
_cell_length_c   3.87871600
_cell_angle_alpha   90.00000000
_cell_angle_beta   90.00000000
_cell_angle_gamma   90.06811445
_symmetry_Int_Tables_number   1
_chemical_formula_structural   Ca3Y(Ni5C3)2
_chemical_formula_sum   'Ca3 Y1 Ni10 C6'
_cell_volume   262.28707173
_cell_formula_units_Z   1
loop_
 _symmetry_equiv_pos_site_id
 _symmetry_equiv_pos_as_xyz
  1  'x, y, z'
loop_
 _atom_site_type_symbol
 _atom_site_label
 _atom_site_symmetry_multiplicity
 _atom_site_fract_x
 _atom_site_fract_y
 _atom_site_fract_z
 _atom_site_occupancy
  Ca  Ca0  1  0.345152  0.155143  0.000000  1
  Ca  Ca1  1  0.655143  0.845152  0.000000  1
  Ca  Ca2  1  0.156946  0.656946  0.000000  1
  Y  Y3  1  0.845130  0.345130  0.000000  1
  Ni  Ni4  1  0.920413  0.786014  0.500000  1
  Ni  Ni5  1  0.710900  0.574015  0.500000  1
  Ni  Ni6  1  0.422560  0.713819  0.500000  1
  Ni  Ni7  1  0.286014  0.420413  0.500000  1
  Ni  Ni8  1  0.580739  0.289173  0.500000  1
  Ni  Ni9  1  0.789173  0.080739  0.500000  1
  Ni  Ni10  1  0.074015  0.210900  0.500000  1
  Ni  Ni11  1  0.213819  0.922560  0.500000  1
  Ni  Ni12  1  0.506021  0.496879  0.000000  1
  Ni  Ni13  1  0.996879  0.006021  0.000000  1
  C  C14  1  0.443887  0.943887  0.500000  1
  C  C15  1  0.056694  0.440500  0.500000  1
  C  C16  1  0.940500  0.556694  0.500000  1
  C  C17  1  0.496205  0.500555  0.500000  1
  C  C18  1  0.559256  0.059256  0.500000  1
  C  C19  1  0.000555  0.996205  0.500000  1
