# generated using pymatgen
data_Pr2Ga6CuNi
_symmetry_space_group_name_H-M   'P 1'
_cell_length_a   4.26679800
_cell_length_b   4.26679800
_cell_length_c   10.34363600
_cell_angle_alpha   90.00000000
_cell_angle_beta   90.00000000
_cell_angle_gamma   90.00000000
_symmetry_Int_Tables_number   1
_chemical_formula_structural   Pr2Ga6CuNi
_chemical_formula_sum   'Pr2 Ga6 Cu1 Ni1'
_cell_volume   188.31173932
_cell_formula_units_Z   1
loop_
 _symmetry_equiv_pos_site_id
 _symmetry_equiv_pos_as_xyz
  1  'x, y, z'
loop_
 _atom_site_type_symbol
 _atom_site_label
 _atom_site_symmetry_multiplicity
 _atom_site_fract_x
 _atom_site_fract_y
 _atom_site_fract_z
 _atom_site_occupancy
  Pr  Pr0  1  0.000000  0.000000  0.993222  1
  Pr  Pr1  1  0.500000  0.500000  0.485163  1
  Ga  Ga2  1  0.000000  0.500000  0.237337  1
  Ga  Ga3  1  0.500000  0.000000  0.742744  1
  Ga  Ga4  1  0.500000  0.000000  0.237337  1
  Ga  Ga5  1  0.000000  0.500000  0.742744  1
  Ga  Ga6  1  0.000000  0.000000  0.396366  1
  Ga  Ga7  1  0.500000  0.500000  0.905884  1
  Cu  Cu8  1  0.000000  0.000000  0.627099  1
  Ni  Ni9  1  0.500000  0.500000  0.132105  1
