# generated using pymatgen
data_TbNdEr4(Co3P2)6
_symmetry_space_group_name_H-M   'P 1'
_cell_length_a   3.70426900
_cell_length_b   10.52965300
_cell_length_c   12.19081500
_cell_angle_alpha   90.00000000
_cell_angle_beta   90.00000000
_cell_angle_gamma   90.00000000
_symmetry_Int_Tables_number   1
_chemical_formula_structural   TbNdEr4(Co3P2)6
_chemical_formula_sum   'Tb1 Nd1 Er4 Co18 P12'
_cell_volume   475.49868183
_cell_formula_units_Z   1
loop_
 _symmetry_equiv_pos_site_id
 _symmetry_equiv_pos_as_xyz
  1  'x, y, z'
loop_
 _atom_site_type_symbol
 _atom_site_label
 _atom_site_symmetry_multiplicity
 _atom_site_fract_x
 _atom_site_fract_y
 _atom_site_fract_z
 _atom_site_occupancy
  Tb  Tb0  1  0.500000  0.000000  0.478114  1
  Nd  Nd1  1  0.000000  0.500000  0.522409  1
  Er  Er2  1  0.500000  0.817991  0.205422  1
  Er  Er3  1  0.500000  0.182009  0.205422  1
  Er  Er4  1  0.000000  0.682809  0.795125  1
  Er  Er5  1  0.000000  0.317191  0.795125  1
  Co  Co6  1  0.500000  0.500000  0.156737  1
  Co  Co7  1  0.000000  0.000000  0.841724  1
  Co  Co8  1  0.500000  0.500000  0.706551  1
  Co  Co9  1  0.000000  0.000000  0.295227  1
  Co  Co10  1  0.000000  0.500000  0.986677  1
  Co  Co11  1  0.500000  0.000000  0.013914  1
  Co  Co12  1  0.500000  0.332946  0.994774  1
  Co  Co13  1  0.500000  0.667054  0.994774  1
  Co  Co14  1  0.000000  0.166515  0.005208  1
  Co  Co15  1  0.000000  0.833485  0.005208  1
  Co  Co16  1  0.500000  0.294497  0.429419  1
  Co  Co17  1  0.500000  0.705503  0.429419  1
  Co  Co18  1  0.000000  0.200937  0.570380  1
  Co  Co19  1  0.000000  0.799063  0.570380  1
  Co  Co20  1  0.500000  0.879688  0.711441  1
  Co  Co21  1  0.500000  0.120312  0.711441  1
  Co  Co22  1  0.000000  0.621557  0.288032  1
  Co  Co23  1  0.000000  0.378443  0.288032  1
  P  P24  1  0.500000  0.500000  0.883585  1
  P  P25  1  0.000000  0.000000  0.117306  1
  P  P26  1  0.500000  0.500000  0.339709  1
  P  P27  1  0.000000  0.000000  0.657014  1
  P  P28  1  0.500000  0.307176  0.617898  1
  P  P29  1  0.500000  0.692824  0.617898  1
  P  P30  1  0.000000  0.189207  0.383109  1
  P  P31  1  0.000000  0.810793  0.383109  1
  P  P32  1  0.500000  0.847075  0.893379  1
  P  P33  1  0.500000  0.152925  0.893379  1
  P  P34  1  0.000000  0.653849  0.106329  1
  P  P35  1  0.000000  0.346151  0.106329  1
