# generated using pymatgen
data_Cs2Tc15S19
_symmetry_space_group_name_H-M   'P 1'
_cell_length_a   19.30581166
_cell_length_b   19.30581161
_cell_length_c   19.30581300
_cell_angle_alpha   27.88622602
_cell_angle_beta   27.88622628
_cell_angle_gamma   27.88622632
_symmetry_Int_Tables_number   1
_chemical_formula_structural   Cs2Tc15S19
_chemical_formula_sum   'Cs4 Tc30 S38'
_cell_volume   1390.08800338
_cell_formula_units_Z   2
loop_
 _symmetry_equiv_pos_site_id
 _symmetry_equiv_pos_as_xyz
  1  'x, y, z'
loop_
 _atom_site_type_symbol
 _atom_site_label
 _atom_site_symmetry_multiplicity
 _atom_site_fract_x
 _atom_site_fract_y
 _atom_site_fract_z
 _atom_site_occupancy
  Cs  Cs0  1  0.386456  0.386456  0.386456  1
  Cs  Cs1  1  0.113544  0.113544  0.113544  1
  Cs  Cs2  1  0.886456  0.886456  0.886456  1
  Cs  Cs3  1  0.613544  0.613544  0.613544  1
  Tc  Tc4  1  0.783927  0.958591  0.628552  1
  Tc  Tc5  1  0.997988  0.133824  0.809580  1
  Tc  Tc6  1  0.002012  0.866176  0.190420  1
  Tc  Tc7  1  0.283927  0.128552  0.458591  1
  Tc  Tc8  1  0.958591  0.628552  0.783927  1
  Tc  Tc9  1  0.216073  0.041409  0.371448  1
  Tc  Tc10  1  0.411369  0.088631  0.250000  1
  Tc  Tc11  1  0.366176  0.502012  0.690420  1
  Tc  Tc12  1  0.250000  0.411369  0.088631  1
  Tc  Tc13  1  0.541409  0.716073  0.871448  1
  Tc  Tc14  1  0.911369  0.750000  0.588631  1
  Tc  Tc15  1  0.190420  0.002012  0.866176  1
  Tc  Tc16  1  0.716073  0.871448  0.541409  1
  Tc  Tc17  1  0.133824  0.809580  0.997988  1
  Tc  Tc18  1  0.458591  0.283927  0.128552  1
  Tc  Tc19  1  0.088631  0.250000  0.411369  1
  Tc  Tc20  1  0.866176  0.190420  0.002012  1
  Tc  Tc21  1  0.128552  0.458591  0.283927  1
  Tc  Tc22  1  0.628552  0.783927  0.958591  1
  Tc  Tc23  1  0.497988  0.309580  0.633824  1
  Tc  Tc24  1  0.588631  0.911369  0.750000  1
  Tc  Tc25  1  0.371448  0.216073  0.041409  1
  Tc  Tc26  1  0.809580  0.997988  0.133824  1
  Tc  Tc27  1  0.309580  0.633824  0.497988  1
  Tc  Tc28  1  0.690420  0.366176  0.502012  1
  Tc  Tc29  1  0.750000  0.588631  0.911369  1
  Tc  Tc30  1  0.633824  0.497988  0.309580  1
  Tc  Tc31  1  0.502012  0.690420  0.366176  1
  Tc  Tc32  1  0.871448  0.541409  0.716073  1
  Tc  Tc33  1  0.041409  0.371448  0.216073  1
  S  S34  1  0.250000  0.950604  0.549396  1
  S  S35  1  0.425115  0.019569  0.696428  1
  S  S36  1  0.519569  0.925115  0.196428  1
  S  S37  1  0.805253  0.200955  0.442648  1
  S  S38  1  0.942648  0.700955  0.305253  1
  S  S39  1  0.696428  0.425115  0.019569  1
  S  S40  1  0.321882  0.321882  0.321882  1
  S  S41  1  0.700955  0.305253  0.942648  1
  S  S42  1  0.049396  0.450604  0.750000  1
  S  S43  1  0.925115  0.196428  0.519569  1
  S  S44  1  0.750000  0.049396  0.450604  1
  S  S45  1  0.803572  0.480431  0.074885  1
  S  S46  1  0.821882  0.821882  0.821882  1
  S  S47  1  0.447810  0.447810  0.447810  1
  S  S48  1  0.947810  0.947810  0.947810  1
  S  S49  1  0.299045  0.694747  0.057352  1
  S  S50  1  0.480431  0.074885  0.803572  1
  S  S51  1  0.019569  0.696428  0.425115  1
  S  S52  1  0.799045  0.557352  0.194747  1
  S  S53  1  0.557352  0.194747  0.799045  1
  S  S54  1  0.552190  0.552190  0.552190  1
  S  S55  1  0.052190  0.052190  0.052190  1
  S  S56  1  0.950604  0.549396  0.250000  1
  S  S57  1  0.200955  0.442648  0.805253  1
  S  S58  1  0.057352  0.299045  0.694747  1
  S  S59  1  0.574885  0.980431  0.303572  1
  S  S60  1  0.980431  0.303572  0.574885  1
  S  S61  1  0.194747  0.799045  0.557352  1
  S  S62  1  0.549396  0.250000  0.950604  1
  S  S63  1  0.303572  0.574885  0.980431  1
  S  S64  1  0.678118  0.678118  0.678118  1
  S  S65  1  0.694747  0.057352  0.299045  1
  S  S66  1  0.074885  0.803572  0.480431  1
  S  S67  1  0.178118  0.178118  0.178118  1
  S  S68  1  0.196428  0.519569  0.925115  1
  S  S69  1  0.305253  0.942648  0.700955  1
  S  S70  1  0.450604  0.750000  0.049396  1
  S  S71  1  0.442648  0.805253  0.200955  1
