# generated using pymatgen
data_Tb5Dy11Cd4Os3Rh
_symmetry_space_group_name_H-M   'P 1'
_cell_length_a   9.72113710
_cell_length_b   9.60937953
_cell_length_c   9.70879152
_cell_angle_alpha   59.56129488
_cell_angle_beta   59.95793302
_cell_angle_gamma   59.61453914
_symmetry_Int_Tables_number   1
_chemical_formula_structural   Tb5Dy11Cd4Os3Rh
_chemical_formula_sum   'Tb5 Dy11 Cd4 Os3 Rh1'
_cell_volume   637.07792942
_cell_formula_units_Z   1
loop_
 _symmetry_equiv_pos_site_id
 _symmetry_equiv_pos_as_xyz
  1  'x, y, z'
loop_
 _atom_site_type_symbol
 _atom_site_label
 _atom_site_symmetry_multiplicity
 _atom_site_fract_x
 _atom_site_fract_y
 _atom_site_fract_z
 _atom_site_occupancy
  Tb  Tb0  1  0.558950  0.563002  0.938828  1
  Tb  Tb1  1  0.155517  0.533517  0.155449  1
  Tb  Tb2  1  0.689331  0.313013  0.308324  1
  Tb  Tb3  1  0.939388  0.562498  0.558726  1
  Tb  Tb4  1  0.939220  0.563002  0.938828  1
  Dy  Dy5  1  0.690658  0.688487  0.310793  1
  Dy  Dy6  1  0.560091  0.944993  0.934826  1
  Dy  Dy7  1  0.151756  0.152239  0.151681  1
  Dy  Dy8  1  0.310062  0.688487  0.310793  1
  Dy  Dy9  1  0.544324  0.152239  0.151681  1
  Dy  Dy10  1  0.307202  0.313281  0.689955  1
  Dy  Dy11  1  0.310405  0.688035  0.691154  1
  Dy  Dy12  1  0.152051  0.152443  0.543456  1
  Dy  Dy13  1  0.689561  0.313281  0.689955  1
  Dy  Dy14  1  0.935741  0.944604  0.559835  1
  Dy  Dy15  1  0.559821  0.944604  0.559835  1
  Cd  Cd16  1  0.919668  0.919960  0.920195  1
  Cd  Cd17  1  0.240177  0.919960  0.920195  1
  Cd  Cd18  1  0.919708  0.919906  0.240677  1
  Cd  Cd19  1  0.918958  0.242753  0.919331  1
  Os  Os20  1  0.363610  0.352582  0.920197  1
  Os  Os21  1  0.363641  0.353455  0.363037  1
  Os  Os22  1  0.919866  0.353455  0.363037  1
  Rh  Rh23  1  0.360294  0.920202  0.359211  1
