# generated using pymatgen
data_Y2Th(InPt)3
_symmetry_space_group_name_H-M   'P 1'
_cell_length_a   7.69387700
_cell_length_b   7.67475821
_cell_length_c   3.99722600
_cell_angle_alpha   90.00000000
_cell_angle_beta   90.00000000
_cell_angle_gamma   120.08244435
_symmetry_Int_Tables_number   1
_chemical_formula_structural   Y2Th(InPt)3
_chemical_formula_sum   'Y2 Th1 In3 Pt3'
_cell_volume   204.23862627
_cell_formula_units_Z   1
loop_
 _symmetry_equiv_pos_site_id
 _symmetry_equiv_pos_as_xyz
  1  'x, y, z'
loop_
 _atom_site_type_symbol
 _atom_site_label
 _atom_site_symmetry_multiplicity
 _atom_site_fract_x
 _atom_site_fract_y
 _atom_site_fract_z
 _atom_site_occupancy
  Y  Y0  1  0.997496  0.404086  0.500000  1
  Y  Y1  1  0.593411  0.595914  0.500000  1
  Th  Th2  1  0.408916  0.000000  0.500000  1
  In  In3  1  0.754588  0.000000  0.000000  1
  In  In4  1  0.255258  0.267941  0.000000  1
  In  In5  1  0.987317  0.732059  0.000000  1
  Pt  Pt6  1  0.009482  0.000000  0.500000  1
  Pt  Pt7  1  0.657733  0.321934  0.000000  1
  Pt  Pt8  1  0.335798  0.678066  0.000000  1
