# generated using pymatgen
data_Tm6CrCo17As12
_symmetry_space_group_name_H-M   'P 1'
_cell_length_a   3.78185200
_cell_length_b   10.89326200
_cell_length_c   12.65489500
_cell_angle_alpha   90.00000000
_cell_angle_beta   90.00000000
_cell_angle_gamma   90.00000000
_symmetry_Int_Tables_number   1
_chemical_formula_structural   Tm6CrCo17As12
_chemical_formula_sum   'Tm6 Cr1 Co17 As12'
_cell_volume   521.33997209
_cell_formula_units_Z   1
loop_
 _symmetry_equiv_pos_site_id
 _symmetry_equiv_pos_as_xyz
  1  'x, y, z'
loop_
 _atom_site_type_symbol
 _atom_site_label
 _atom_site_symmetry_multiplicity
 _atom_site_fract_x
 _atom_site_fract_y
 _atom_site_fract_z
 _atom_site_occupancy
  Tm  Tm0  1  0.000000  0.500000  0.525895  1
  Tm  Tm1  1  0.500000  0.000000  0.476156  1
  Tm  Tm2  1  0.500000  0.819932  0.207539  1
  Tm  Tm3  1  0.500000  0.180068  0.207539  1
  Tm  Tm4  1  0.000000  0.681137  0.794328  1
  Tm  Tm5  1  0.000000  0.318863  0.794328  1
  Cr  Cr6  1  0.500000  0.500000  0.155618  1
  Co  Co7  1  0.000000  0.000000  0.842801  1
  Co  Co8  1  0.500000  0.500000  0.702851  1
  Co  Co9  1  0.000000  0.000000  0.297675  1
  Co  Co10  1  0.000000  0.500000  0.988268  1
  Co  Co11  1  0.500000  0.000000  0.013696  1
  Co  Co12  1  0.500000  0.331674  0.994706  1
  Co  Co13  1  0.500000  0.668326  0.994706  1
  Co  Co14  1  0.000000  0.166156  0.003579  1
  Co  Co15  1  0.000000  0.833844  0.003579  1
  Co  Co16  1  0.500000  0.297904  0.430682  1
  Co  Co17  1  0.500000  0.702096  0.430682  1
  Co  Co18  1  0.000000  0.202100  0.568735  1
  Co  Co19  1  0.000000  0.797900  0.568735  1
  Co  Co20  1  0.500000  0.878895  0.705663  1
  Co  Co21  1  0.500000  0.121105  0.705663  1
  Co  Co22  1  0.000000  0.620492  0.292422  1
  Co  Co23  1  0.000000  0.379508  0.292422  1
  As  As24  1  0.500000  0.500000  0.880731  1
  As  As25  1  0.000000  0.000000  0.119628  1
  As  As26  1  0.500000  0.500000  0.352987  1
  As  As27  1  0.000000  0.000000  0.651899  1
  As  As28  1  0.500000  0.314240  0.616488  1
  As  As29  1  0.500000  0.685760  0.616488  1
  As  As30  1  0.000000  0.185707  0.383910  1
  As  As31  1  0.000000  0.814293  0.383910  1
  As  As32  1  0.500000  0.847273  0.888534  1
  As  As33  1  0.500000  0.152727  0.888534  1
  As  As34  1  0.000000  0.657529  0.109312  1
  As  As35  1  0.000000  0.342471  0.109312  1
