# generated using pymatgen
data_La7Er(GeI6)2
_symmetry_space_group_name_H-M   'P 1'
_cell_length_a   4.37579600
_cell_length_b   14.58186566
_cell_length_c   15.40234200
_cell_angle_alpha   89.73525806
_cell_angle_beta   90.00000000
_cell_angle_gamma   90.00000000
_symmetry_Int_Tables_number   1
_chemical_formula_structural   La7Er(GeI6)2
_chemical_formula_sum   'La7 Er1 Ge2 I12'
_cell_volume   982.77089471
_cell_formula_units_Z   1
loop_
 _symmetry_equiv_pos_site_id
 _symmetry_equiv_pos_as_xyz
  1  'x, y, z'
loop_
 _atom_site_type_symbol
 _atom_site_label
 _atom_site_symmetry_multiplicity
 _atom_site_fract_x
 _atom_site_fract_y
 _atom_site_fract_z
 _atom_site_occupancy
  La  La0  1  0.500000  0.119806  0.341260  1
  La  La1  1  0.500000  0.882567  0.656303  1
  La  La2  1  0.500000  0.614588  0.156750  1
  La  La3  1  0.500000  0.380646  0.845918  1
  La  La4  1  0.000000  0.115912  0.577343  1
  La  La5  1  0.000000  0.884708  0.421271  1
  La  La6  1  0.000000  0.611955  0.924285  1
  Er  Er7  1  0.000000  0.390178  0.073745  1
  Ge  Ge8  1  0.500000  0.000877  0.498537  1
  Ge  Ge9  1  0.500000  0.494996  0.003035  1
  I  I10  1  0.500000  0.257289  0.158962  1
  I  I11  1  0.500000  0.755485  0.837707  1
  I  I12  1  0.500000  0.740194  0.337017  1
  I  I13  1  0.500000  0.257573  0.664615  1
  I  I14  1  0.000000  0.263087  0.415334  1
  I  I15  1  0.000000  0.737952  0.584118  1
  I  I16  1  0.000000  0.760058  0.084334  1
  I  I17  1  0.000000  0.241127  0.927039  1
  I  I18  1  0.000000  0.999733  0.236036  1
  I  I19  1  0.000000  0.002443  0.762440  1
  I  I20  1  0.000000  0.487689  0.254527  1
  I  I21  1  0.000000  0.501136  0.739425  1
