# generated using pymatgen
data_CaGe(AsRh2)3
_symmetry_space_group_name_H-M   'P 1'
_cell_length_a   7.29493301
_cell_length_b   7.29772850
_cell_length_c   3.80410900
_cell_angle_alpha   90.00000000
_cell_angle_beta   90.00000000
_cell_angle_gamma   119.99210535
_symmetry_Int_Tables_number   1
_chemical_formula_structural   CaGe(AsRh2)3
_chemical_formula_sum   'Ca1 Ge1 As3 Rh6'
_cell_volume   175.39900999
_cell_formula_units_Z   1
loop_
 _symmetry_equiv_pos_site_id
 _symmetry_equiv_pos_as_xyz
  1  'x, y, z'
loop_
 _atom_site_type_symbol
 _atom_site_label
 _atom_site_symmetry_multiplicity
 _atom_site_fract_x
 _atom_site_fract_y
 _atom_site_fract_z
 _atom_site_occupancy
  Ca  Ca0  1  0.999999  0.000038  0.000000  1
  Ge  Ge1  1  0.333320  0.666641  0.000000  1
  As  As2  1  0.810105  0.189837  0.500000  1
  As  As3  1  0.379731  0.189838  0.500000  1
  As  As4  1  0.810142  0.620287  0.500000  1
  Rh  Rh5  1  0.199585  0.800451  0.500000  1
  Rh  Rh6  1  0.199563  0.399119  0.500000  1
  Rh  Rh7  1  0.536255  0.072495  0.000000  1
  Rh  Rh8  1  0.927493  0.463751  0.000000  1
  Rh  Rh9  1  0.536267  0.463757  0.000000  1
  Rh  Rh10  1  0.600872  0.800454  0.500000  1
