# generated using pymatgen
data_Pr3NdAgPt3
_symmetry_space_group_name_H-M   'P 1'
_cell_length_a   4.70332100
_cell_length_b   5.83156121
_cell_length_c   7.42610400
_cell_angle_alpha   90.20042366
_cell_angle_beta   90.00000000
_cell_angle_gamma   90.00000000
_symmetry_Int_Tables_number   1
_chemical_formula_structural   Pr3NdAgPt3
_chemical_formula_sum   'Pr3 Nd1 Ag1 Pt3'
_cell_volume   203.67973844
_cell_formula_units_Z   1
loop_
 _symmetry_equiv_pos_site_id
 _symmetry_equiv_pos_as_xyz
  1  'x, y, z'
loop_
 _atom_site_type_symbol
 _atom_site_label
 _atom_site_symmetry_multiplicity
 _atom_site_fract_x
 _atom_site_fract_y
 _atom_site_fract_z
 _atom_site_occupancy
  Pr  Pr0  1  0.250000  0.358092  0.690512  1
  Pr  Pr1  1  0.750000  0.630137  0.305031  1
  Pr  Pr2  1  0.750000  0.862185  0.830417  1
  Nd  Nd3  1  0.250000  0.145807  0.177754  1
  Ag  Ag4  1  0.250000  0.857860  0.537331  1
  Pt  Pt5  1  0.250000  0.660668  0.043505  1
  Pt  Pt6  1  0.750000  0.140948  0.459667  1
  Pt  Pt7  1  0.750000  0.344302  0.955782  1
