# generated using pymatgen
data_Tm5(SiHg)2
_symmetry_space_group_name_H-M   'P 1'
_cell_length_a   8.66404766
_cell_length_b   8.66404769
_cell_length_c   7.45444900
_cell_angle_alpha   90.00000000
_cell_angle_beta   90.00000000
_cell_angle_gamma   129.11882995
_symmetry_Int_Tables_number   1
_chemical_formula_structural   Tm5(SiHg)2
_chemical_formula_sum   'Tm10 Si4 Hg4'
_cell_volume   434.13907459
_cell_formula_units_Z   2
loop_
 _symmetry_equiv_pos_site_id
 _symmetry_equiv_pos_as_xyz
  1  'x, y, z'
loop_
 _atom_site_type_symbol
 _atom_site_label
 _atom_site_symmetry_multiplicity
 _atom_site_fract_x
 _atom_site_fract_y
 _atom_site_fract_z
 _atom_site_occupancy
  Tm  Tm0  1  0.553952  0.808422  0.174726  1
  Tm  Tm1  1  0.308422  0.053952  0.325274  1
  Tm  Tm2  1  0.191578  0.446048  0.825274  1
  Tm  Tm3  1  0.946048  0.691578  0.674726  1
  Tm  Tm4  1  0.691578  0.946048  0.674726  1
  Tm  Tm5  1  0.446048  0.191578  0.825274  1
  Tm  Tm6  1  0.808422  0.553952  0.174726  1
  Tm  Tm7  1  0.053952  0.308422  0.325274  1
  Tm  Tm8  1  0.500000  0.500000  0.500000  1
  Tm  Tm9  1  0.000000  0.000000  0.000000  1
  Si  Si10  1  0.621037  0.621037  0.875241  1
  Si  Si11  1  0.121037  0.121037  0.624759  1
  Si  Si12  1  0.878963  0.878963  0.375241  1
  Si  Si13  1  0.378963  0.378963  0.124759  1
  Hg  Hg14  1  0.281684  0.718316  0.500000  1
  Hg  Hg15  1  0.218316  0.781684  0.000000  1
  Hg  Hg16  1  0.718316  0.281684  0.500000  1
  Hg  Hg17  1  0.781684  0.218316  0.000000  1
