# generated using pymatgen
data_Er11In9(CoNi)2
_symmetry_space_group_name_H-M   'P 1'
_cell_length_a   3.63020700
_cell_length_b   12.79227686
_cell_length_c   12.79924179
_cell_angle_alpha   110.87784127
_cell_angle_beta   90.00000000
_cell_angle_gamma   90.00000000
_symmetry_Int_Tables_number   1
_chemical_formula_structural   Er11In9(CoNi)2
_chemical_formula_sum   'Er11 In9 Co2 Ni2'
_cell_volume   555.35351764
_cell_formula_units_Z   1
loop_
 _symmetry_equiv_pos_site_id
 _symmetry_equiv_pos_as_xyz
  1  'x, y, z'
loop_
 _atom_site_type_symbol
 _atom_site_label
 _atom_site_symmetry_multiplicity
 _atom_site_fract_x
 _atom_site_fract_y
 _atom_site_fract_z
 _atom_site_occupancy
  Er  Er0  1  0.000000  0.918014  0.580619  1
  Er  Er1  1  0.000000  0.081986  0.419381  1
  Er  Er2  1  0.000000  0.580848  0.919369  1
  Er  Er3  1  0.000000  0.419152  0.080631  1
  Er  Er4  1  0.000000  0.158916  0.839351  1
  Er  Er5  1  0.000000  0.841084  0.160649  1
  Er  Er6  1  0.000000  0.370866  0.620491  1
  Er  Er7  1  0.000000  0.629134  0.379509  1
  Er  Er8  1  0.000000  0.687467  0.684327  1
  Er  Er9  1  0.000000  0.312533  0.315673  1
  Er  Er10  1  0.000000  0.000000  0.000000  1
  In  In11  1  0.500000  0.159307  0.631724  1
  In  In12  1  0.500000  0.840693  0.368276  1
  In  In13  1  0.500000  0.631719  0.157594  1
  In  In14  1  0.500000  0.368281  0.842406  1
  In  In15  1  0.500000  0.921572  0.779359  1
  In  In16  1  0.500000  0.078428  0.220641  1
  In  In17  1  0.500000  0.780999  0.924263  1
  In  In18  1  0.500000  0.219001  0.075737  1
  In  In19  1  0.500000  0.500000  0.500000  1
  Co  Co20  1  0.500000  0.754440  0.549628  1
  Co  Co21  1  0.500000  0.245560  0.450372  1
  Ni  Ni22  1  0.500000  0.549749  0.751735  1
  Ni  Ni23  1  0.500000  0.450251  0.248265  1
