# generated using pymatgen
data_Dy9Er2Tm9Sn16
_symmetry_space_group_name_H-M   'P 1'
_cell_length_a   7.98347606
_cell_length_b   8.11440791
_cell_length_c   15.34215750
_cell_angle_alpha   90.02419443
_cell_angle_beta   89.99182977
_cell_angle_gamma   90.02678348
_symmetry_Int_Tables_number   1
_chemical_formula_structural   Dy9Er2Tm9Sn16
_chemical_formula_sum   'Dy9 Er2 Tm9 Sn16'
_cell_volume   993.88287807
_cell_formula_units_Z   1
loop_
 _symmetry_equiv_pos_site_id
 _symmetry_equiv_pos_as_xyz
  1  'x, y, z'
loop_
 _atom_site_type_symbol
 _atom_site_label
 _atom_site_symmetry_multiplicity
 _atom_site_fract_x
 _atom_site_fract_y
 _atom_site_fract_z
 _atom_site_occupancy
  Dy  Dy0  1  0.867574  0.663391  0.878233  1
  Dy  Dy1  1  0.521209  0.320313  0.903519  1
  Dy  Dy2  1  0.021466  0.179244  0.597163  1
  Dy  Dy3  1  0.478620  0.679272  0.402617  1
  Dy  Dy4  1  0.978661  0.821037  0.097274  1
  Dy  Dy5  1  0.479467  0.679206  0.096825  1
  Dy  Dy6  1  0.979094  0.821171  0.402835  1
  Dy  Dy7  1  0.520587  0.320917  0.596890  1
  Dy  Dy8  1  0.021031  0.179104  0.903057  1
  Er  Er9  1  0.132287  0.336735  0.377149  1
  Er  Er10  1  0.368097  0.836886  0.622438  1
  Tm  Tm11  1  0.366533  0.837232  0.877107  1
  Tm  Tm12  1  0.866563  0.662745  0.622798  1
  Tm  Tm13  1  0.633339  0.162647  0.377052  1
  Tm  Tm14  1  0.133189  0.337572  0.122543  1
  Tm  Tm15  1  0.632470  0.162620  0.123081  1
  Tm  Tm16  1  0.198176  0.503652  0.750385  1
  Tm  Tm17  1  0.698268  0.996462  0.749829  1
  Tm  Tm18  1  0.801535  0.496133  0.250136  1
  Tm  Tm19  1  0.301717  0.003965  0.249366  1
  Sn  Sn20  1  0.294254  0.037824  0.041410  1
  Sn  Sn21  1  0.792210  0.462798  0.458532  1
  Sn  Sn22  1  0.707865  0.962868  0.541426  1
  Sn  Sn23  1  0.208130  0.537186  0.958595  1
  Sn  Sn24  1  0.704034  0.964027  0.958604  1
  Sn  Sn25  1  0.204519  0.536921  0.542312  1
  Sn  Sn26  1  0.295223  0.037039  0.457498  1
  Sn  Sn27  1  0.794143  0.461134  0.042732  1
  Sn  Sn28  1  0.564089  0.619177  0.750181  1
  Sn  Sn29  1  0.064554  0.880639  0.749914  1
  Sn  Sn30  1  0.436184  0.379956  0.249575  1
  Sn  Sn31  1  0.935315  0.119614  0.249335  1
  Sn  Sn32  1  0.330566  0.148493  0.750313  1
  Sn  Sn33  1  0.830508  0.351719  0.749791  1
  Sn  Sn34  1  0.669182  0.851807  0.249839  1
  Sn  Sn35  1  0.169341  0.648496  0.249643  1
