# generated using pymatgen
data_Yb2Zn5Cd4Cu13
_symmetry_space_group_name_H-M   'P 1'
_cell_length_a   5.13589600
_cell_length_b   5.13586072
_cell_length_c   16.11623100
_cell_angle_alpha   90.00000000
_cell_angle_beta   90.00000000
_cell_angle_gamma   120.00053219
_symmetry_Int_Tables_number   1
_chemical_formula_structural   Yb2Zn5Cd4Cu13
_chemical_formula_sum   'Yb2 Zn5 Cd4 Cu13'
_cell_volume   368.14698274
_cell_formula_units_Z   1
loop_
 _symmetry_equiv_pos_site_id
 _symmetry_equiv_pos_as_xyz
  1  'x, y, z'
loop_
 _atom_site_type_symbol
 _atom_site_label
 _atom_site_symmetry_multiplicity
 _atom_site_fract_x
 _atom_site_fract_y
 _atom_site_fract_z
 _atom_site_occupancy
  Yb  Yb0  1  0.666654  0.333332  0.250000  1
  Yb  Yb1  1  0.333338  0.666669  0.750000  1
  Zn  Zn2  1  0.333319  0.666662  0.250000  1
  Zn  Zn3  1  0.666669  0.333337  0.750000  1
  Zn  Zn4  1  0.000003  0.000002  0.750000  1
  Zn  Zn5  1  0.999999  0.000000  0.000282  1
  Zn  Zn6  1  0.999999  0.000000  0.499718  1
  Cd  Cd7  1  0.666662  0.333333  0.461476  1
  Cd  Cd8  1  0.333340  0.666668  0.961878  1
  Cd  Cd9  1  0.666662  0.333333  0.038524  1
  Cd  Cd10  1  0.333340  0.666668  0.538122  1
  Cu  Cu11  1  0.167617  0.832378  0.375132  1
  Cu  Cu12  1  0.167613  0.335237  0.375132  1
  Cu  Cu13  1  0.000003  0.999999  0.250000  1
  Cu  Cu14  1  0.167613  0.335237  0.124868  1
  Cu  Cu15  1  0.831771  0.168240  0.623991  1
  Cu  Cu16  1  0.336476  0.168238  0.623999  1
  Cu  Cu17  1  0.664757  0.832379  0.124871  1
  Cu  Cu18  1  0.167617  0.832378  0.124868  1
  Cu  Cu19  1  0.831770  0.663527  0.876006  1
  Cu  Cu20  1  0.831771  0.168240  0.876009  1
  Cu  Cu21  1  0.831770  0.663527  0.623994  1
  Cu  Cu22  1  0.336476  0.168238  0.876001  1
  Cu  Cu23  1  0.664757  0.832379  0.375129  1
