# generated using pymatgen
data_DyYI18
_symmetry_space_group_name_H-M   'P 1'
_cell_length_a   10.44148021
_cell_length_b   10.44148145
_cell_length_c   10.44148173
_cell_angle_alpha   88.25089480
_cell_angle_beta   88.25088598
_cell_angle_gamma   88.25089992
_symmetry_Int_Tables_number   1
_chemical_formula_structural   DyYI18
_chemical_formula_sum   'Dy1 Y1 I18'
_cell_volume   1136.81800452
_cell_formula_units_Z   1
loop_
 _symmetry_equiv_pos_site_id
 _symmetry_equiv_pos_as_xyz
  1  'x, y, z'
loop_
 _atom_site_type_symbol
 _atom_site_label
 _atom_site_symmetry_multiplicity
 _atom_site_fract_x
 _atom_site_fract_y
 _atom_site_fract_z
 _atom_site_occupancy
  Dy  Dy0  1  0.500000  0.500000  0.500000  1
  Y  Y1  1  0.000000  0.000000  0.000000  1
  I  I2  1  0.710016  0.996687  0.039026  1
  I  I3  1  0.748380  0.125835  0.608335  1
  I  I4  1  0.039026  0.710016  0.996687  1
  I  I5  1  0.251620  0.874165  0.391665  1
  I  I6  1  0.125835  0.608335  0.748380  1
  I  I7  1  0.003313  0.960974  0.289984  1
  I  I8  1  0.608335  0.748380  0.125835  1
  I  I9  1  0.960974  0.289984  0.003313  1
  I  I10  1  0.874165  0.391665  0.251620  1
  I  I11  1  0.391665  0.251620  0.874165  1
  I  I12  1  0.996687  0.039026  0.710016  1
  I  I13  1  0.289984  0.003313  0.960974  1
  I  I14  1  0.791051  0.519630  0.488174  1
  I  I15  1  0.511826  0.208949  0.480370  1
  I  I16  1  0.480370  0.511826  0.208949  1
  I  I17  1  0.488174  0.791051  0.519630  1
  I  I18  1  0.519630  0.488174  0.791051  1
  I  I19  1  0.208949  0.480370  0.511826  1
