# generated using pymatgen
data_PrMnCuO5
_symmetry_space_group_name_H-M   'P 1'
_cell_length_a   5.69014600
_cell_length_b   7.91016800
_cell_length_c   8.62855500
_cell_angle_alpha   90.00000000
_cell_angle_beta   90.00000000
_cell_angle_gamma   90.00000000
_symmetry_Int_Tables_number   1
_chemical_formula_structural   PrMnCuO5
_chemical_formula_sum   'Pr4 Mn4 Cu4 O20'
_cell_volume   388.37135378
_cell_formula_units_Z   4
loop_
 _symmetry_equiv_pos_site_id
 _symmetry_equiv_pos_as_xyz
  1  'x, y, z'
loop_
 _atom_site_type_symbol
 _atom_site_label
 _atom_site_symmetry_multiplicity
 _atom_site_fract_x
 _atom_site_fract_y
 _atom_site_fract_z
 _atom_site_occupancy
  Pr  Pr0  1  0.000000  0.346547  0.674783  1
  Pr  Pr1  1  0.000000  0.653453  0.325217  1
  Pr  Pr2  1  0.000000  0.846547  0.825217  1
  Pr  Pr3  1  0.000000  0.153453  0.174783  1
  Mn  Mn4  1  0.262089  0.500000  0.000000  1
  Mn  Mn5  1  0.737911  0.000000  0.500000  1
  Mn  Mn6  1  0.737911  0.500000  0.000000  1
  Mn  Mn7  1  0.262089  0.000000  0.500000  1
  Cu  Cu8  1  0.500000  0.065918  0.848535  1
  Cu  Cu9  1  0.500000  0.934082  0.151465  1
  Cu  Cu10  1  0.500000  0.565918  0.651465  1
  Cu  Cu11  1  0.500000  0.434082  0.348535  1
  O  O12  1  0.248773  0.911100  0.287793  1
  O  O13  1  0.248773  0.088900  0.712207  1
  O  O14  1  0.751227  0.411100  0.212207  1
  O  O15  1  0.751227  0.588900  0.787793  1
  O  O16  1  0.751227  0.088900  0.712207  1
  O  O17  1  0.751227  0.911100  0.287793  1
  O  O18  1  0.248773  0.588900  0.787793  1
  O  O19  1  0.248773  0.411100  0.212207  1
  O  O20  1  0.500000  0.351566  0.941244  1
  O  O21  1  0.500000  0.648434  0.058756  1
  O  O22  1  0.500000  0.851566  0.558756  1
  O  O23  1  0.500000  0.148434  0.441244  1
  O  O24  1  0.280235  0.000000  0.000000  1
  O  O25  1  0.719765  0.500000  0.500000  1
  O  O26  1  0.719765  0.000000  0.000000  1
  O  O27  1  0.280235  0.500000  0.500000  1
  O  O28  1  0.000000  0.155685  0.452058  1
  O  O29  1  0.000000  0.844315  0.547942  1
  O  O30  1  0.000000  0.655685  0.047942  1
  O  O31  1  0.000000  0.344315  0.952058  1
