# generated using pymatgen
data_Tb2PrY(Ir2O7)2
_symmetry_space_group_name_H-M   'P 1'
_cell_length_a   7.33495838
_cell_length_b   7.27983850
_cell_length_c   7.28768100
_cell_angle_alpha   59.96435258
_cell_angle_beta   60.21298244
_cell_angle_gamma   60.17282324
_symmetry_Int_Tables_number   1
_chemical_formula_structural   Tb2PrY(Ir2O7)2
_chemical_formula_sum   'Tb2 Pr1 Y1 Ir4 O14'
_cell_volume   275.89001513
_cell_formula_units_Z   1
loop_
 _symmetry_equiv_pos_site_id
 _symmetry_equiv_pos_as_xyz
  1  'x, y, z'
loop_
 _atom_site_type_symbol
 _atom_site_label
 _atom_site_symmetry_multiplicity
 _atom_site_fract_x
 _atom_site_fract_y
 _atom_site_fract_z
 _atom_site_occupancy
  Tb  Tb0  1  0.125000  0.125000  0.625000  1
  Tb  Tb1  1  0.125000  0.125000  0.125000  1
  Pr  Pr2  1  0.625000  0.125000  0.125000  1
  Y  Y3  1  0.125000  0.625000  0.125000  1
  Ir  Ir4  1  0.125000  0.625000  0.625000  1
  Ir  Ir5  1  0.625000  0.125000  0.625000  1
  Ir  Ir6  1  0.625000  0.625000  0.125000  1
  Ir  Ir7  1  0.625000  0.625000  0.625000  1
  O  O8  1  0.718919  0.701613  0.289733  1
  O  O9  1  0.289105  0.289882  0.710507  1
  O  O10  1  0.718809  0.289566  0.701938  1
  O  O11  1  0.289118  0.710282  0.290052  1
  O  O12  1  0.289118  0.710282  0.710549  1
  O  O13  1  0.718809  0.289566  0.289686  1
  O  O14  1  0.531081  0.548387  0.960267  1
  O  O15  1  0.960895  0.960118  0.539493  1
  O  O16  1  0.531191  0.960434  0.548062  1
  O  O17  1  0.960882  0.539718  0.959948  1
  O  O18  1  0.960882  0.539718  0.539451  1
  O  O19  1  0.531191  0.960434  0.960314  1
  O  O20  1  0.239462  0.254617  0.252960  1
  O  O21  1  0.010538  0.995383  0.997040  1
