# generated using pymatgen
data_Nd2YLu(NiAs)4
_symmetry_space_group_name_H-M   'P 1'
_cell_length_a   4.06940400
_cell_length_b   4.06940516
_cell_length_c   15.84592200
_cell_angle_alpha   90.00000000
_cell_angle_beta   90.00000000
_cell_angle_gamma   120.00000686
_symmetry_Int_Tables_number   1
_chemical_formula_structural   Nd2YLu(NiAs)4
_chemical_formula_sum   'Nd2 Y1 Lu1 Ni4 As4'
_cell_volume   227.25311986
_cell_formula_units_Z   1
loop_
 _symmetry_equiv_pos_site_id
 _symmetry_equiv_pos_as_xyz
  1  'x, y, z'
loop_
 _atom_site_type_symbol
 _atom_site_label
 _atom_site_symmetry_multiplicity
 _atom_site_fract_x
 _atom_site_fract_y
 _atom_site_fract_z
 _atom_site_occupancy
  Nd  Nd0  1  0.000000  0.000000  0.005217  1
  Nd  Nd1  1  0.000000  0.000000  0.494783  1
  Y  Y2  1  0.000000  0.000000  0.750000  1
  Lu  Lu3  1  0.000000  0.000000  0.250000  1
  Ni  Ni4  1  0.333333  0.666667  0.148097  1
  Ni  Ni5  1  0.666667  0.333333  0.869571  1
  Ni  Ni6  1  0.666667  0.333333  0.630429  1
  Ni  Ni7  1  0.333333  0.666667  0.351903  1
  As  As8  1  0.333333  0.666667  0.623960  1
  As  As9  1  0.666667  0.333333  0.371960  1
  As  As10  1  0.666667  0.333333  0.128040  1
  As  As11  1  0.333333  0.666667  0.876040  1
