# generated using pymatgen
data_Er3TmGa12Tc
_symmetry_space_group_name_H-M   'P 1'
_cell_length_a   7.45603399
_cell_length_b   7.45603450
_cell_length_c   7.45871500
_cell_angle_alpha   109.47850881
_cell_angle_beta   109.47851020
_cell_angle_gamma   109.46392869
_symmetry_Int_Tables_number   1
_chemical_formula_structural   Er3TmGa12Tc
_chemical_formula_sum   'Er3 Tm1 Ga12 Tc1'
_cell_volume   319.16763608
_cell_formula_units_Z   1
loop_
 _symmetry_equiv_pos_site_id
 _symmetry_equiv_pos_as_xyz
  1  'x, y, z'
loop_
 _atom_site_type_symbol
 _atom_site_label
 _atom_site_symmetry_multiplicity
 _atom_site_fract_x
 _atom_site_fract_y
 _atom_site_fract_z
 _atom_site_occupancy
  Er  Er0  1  0.000000  0.500000  0.000000  1
  Er  Er1  1  0.500000  0.000000  0.000000  1
  Er  Er2  1  0.500000  0.500000  0.500000  1
  Tm  Tm3  1  0.000000  0.000000  0.500000  1
  Ga  Ga4  1  0.750035  0.249965  0.500000  1
  Ga  Ga5  1  0.750035  0.500069  0.250035  1
  Ga  Ga6  1  0.499931  0.249965  0.749965  1
  Ga  Ga7  1  0.249965  0.499931  0.749965  1
  Ga  Ga8  1  0.249965  0.750035  0.500000  1
  Ga  Ga9  1  0.500069  0.750035  0.250035  1
  Ga  Ga10  1  0.709169  0.709169  0.000054  1
  Ga  Ga11  1  0.290831  0.000000  0.290885  1
  Ga  Ga12  1  0.000000  0.290831  0.290885  1
  Ga  Ga13  1  0.290831  0.290831  0.999946  1
  Ga  Ga14  1  0.709169  0.000000  0.709115  1
  Ga  Ga15  1  0.000000  0.709169  0.709115  1
  Tc  Tc16  1  0.000000  0.000000  0.000000  1
