# generated using pymatgen
data_Hf4CoNiP2
_symmetry_space_group_name_H-M   'P 1'
_cell_length_a   3.61363700
_cell_length_b   5.18097484
_cell_length_c   7.38944601
_cell_angle_alpha   70.45632432
_cell_angle_beta   90.00000000
_cell_angle_gamma   90.00000000
_symmetry_Int_Tables_number   1
_chemical_formula_structural   Hf4CoNiP2
_chemical_formula_sum   'Hf4 Co1 Ni1 P2'
_cell_volume   130.37582341
_cell_formula_units_Z   1
loop_
 _symmetry_equiv_pos_site_id
 _symmetry_equiv_pos_as_xyz
  1  'x, y, z'
loop_
 _atom_site_type_symbol
 _atom_site_label
 _atom_site_symmetry_multiplicity
 _atom_site_fract_x
 _atom_site_fract_y
 _atom_site_fract_z
 _atom_site_occupancy
  Hf  Hf0  1  0.750000  0.773887  0.436602  1
  Hf  Hf1  1  0.250000  0.223551  0.573231  1
  Hf  Hf2  1  0.750000  0.291645  0.920043  1
  Hf  Hf3  1  0.250000  0.711917  0.074198  1
  Co  Co4  1  0.250000  0.642912  0.706479  1
  Ni  Ni5  1  0.750000  0.355059  0.289583  1
  P  P6  1  0.750000  0.862362  0.790305  1
  P  P7  1  0.250000  0.138667  0.209559  1
