# generated using pymatgen
data_Tm16ZnAg3Rh4
_symmetry_space_group_name_H-M   'P 1'
_cell_length_a   9.40143483
_cell_length_b   9.40143641
_cell_length_c   9.36603222
_cell_angle_alpha   59.87488352
_cell_angle_beta   59.87488170
_cell_angle_gamma   59.99999838
_symmetry_Int_Tables_number   1
_chemical_formula_structural   Tm16ZnAg3Rh4
_chemical_formula_sum   'Tm16 Zn1 Ag3 Rh4'
_cell_volume   584.25856464
_cell_formula_units_Z   1
loop_
 _symmetry_equiv_pos_site_id
 _symmetry_equiv_pos_as_xyz
  1  'x, y, z'
loop_
 _atom_site_type_symbol
 _atom_site_label
 _atom_site_symmetry_multiplicity
 _atom_site_fract_x
 _atom_site_fract_y
 _atom_site_fract_z
 _atom_site_occupancy
  Tm  Tm0  1  0.063713  0.063713  0.436732  1
  Tm  Tm1  1  0.435843  0.063713  0.436732  1
  Tm  Tm2  1  0.065890  0.435030  0.064049  1
  Tm  Tm3  1  0.063451  0.644750  0.647050  1
  Tm  Tm4  1  0.435030  0.435030  0.064049  1
  Tm  Tm5  1  0.644750  0.063451  0.647050  1
  Tm  Tm6  1  0.188238  0.811808  0.188147  1
  Tm  Tm7  1  0.188741  0.188741  0.812112  1
  Tm  Tm8  1  0.811808  0.811808  0.188147  1
  Tm  Tm9  1  0.435030  0.065890  0.064049  1
  Tm  Tm10  1  0.811808  0.188238  0.188147  1
  Tm  Tm11  1  0.063713  0.435843  0.436732  1
  Tm  Tm12  1  0.810405  0.188741  0.812112  1
  Tm  Tm13  1  0.188741  0.810405  0.812112  1
  Tm  Tm14  1  0.646979  0.646979  0.059066  1
  Tm  Tm15  1  0.644750  0.644750  0.647050  1
  Zn  Zn16  1  0.419078  0.419078  0.742766  1
  Ag  Ag17  1  0.417714  0.417714  0.418553  1
  Ag  Ag18  1  0.746017  0.417714  0.418553  1
  Ag  Ag19  1  0.417714  0.746017  0.418553  1
  Rh  Rh20  1  0.855813  0.855813  0.432562  1
  Rh  Rh21  1  0.856966  0.856966  0.855226  1
  Rh  Rh22  1  0.430843  0.856966  0.855226  1
  Rh  Rh23  1  0.856966  0.430843  0.855226  1
