# generated using pymatgen
data_Ho7Th5Fe4
_symmetry_space_group_name_H-M   'P 1'
_cell_length_a   6.94583085
_cell_length_b   9.54786207
_cell_length_c   6.25580532
_cell_angle_alpha   90.18098743
_cell_angle_beta   89.37126449
_cell_angle_gamma   90.00302756
_symmetry_Int_Tables_number   1
_chemical_formula_structural   Ho7Th5Fe4
_chemical_formula_sum   'Ho7 Th5 Fe4'
_cell_volume   414.84441561
_cell_formula_units_Z   1
loop_
 _symmetry_equiv_pos_site_id
 _symmetry_equiv_pos_as_xyz
  1  'x, y, z'
loop_
 _atom_site_type_symbol
 _atom_site_label
 _atom_site_symmetry_multiplicity
 _atom_site_fract_x
 _atom_site_fract_y
 _atom_site_fract_z
 _atom_site_occupancy
  Ho  Ho0  1  0.331230  0.934133  0.171514  1
  Ho  Ho1  1  0.831233  0.565907  0.325272  1
  Ho  Ho2  1  0.828916  0.928572  0.327141  1
  Ho  Ho3  1  0.168476  0.071032  0.673235  1
  Ho  Ho4  1  0.167440  0.430781  0.675939  1
  Ho  Ho5  1  0.670797  0.070398  0.826910  1
  Ho  Ho6  1  0.668610  0.430995  0.825280  1
  Th  Th7  1  0.058780  0.248042  0.157867  1
  Th  Th8  1  0.333128  0.571783  0.176615  1
  Th  Th9  1  0.558329  0.248246  0.346615  1
  Th  Th10  1  0.441588  0.753466  0.661656  1
  Th  Th11  1  0.943892  0.752092  0.841059  1
  Fe  Fe12  1  0.627634  0.747460  0.021136  1
  Fe  Fe13  1  0.134197  0.744932  0.470610  1
  Fe  Fe14  1  0.867415  0.249023  0.515524  1
  Fe  Fe15  1  0.368333  0.253138  0.983620  1
