# generated using pymatgen
data_Tm10Al2Bi3Sb
_symmetry_space_group_name_H-M   'P 1'
_cell_length_a   8.76378900
_cell_length_b   8.86035386
_cell_length_c   6.39874800
_cell_angle_alpha   90.00000000
_cell_angle_beta   90.00000000
_cell_angle_gamma   119.88628483
_symmetry_Int_Tables_number   1
_chemical_formula_structural   Tm10Al2Bi3Sb
_chemical_formula_sum   'Tm10 Al2 Bi3 Sb1'
_cell_volume   430.78951383
_cell_formula_units_Z   1
loop_
 _symmetry_equiv_pos_site_id
 _symmetry_equiv_pos_as_xyz
  1  'x, y, z'
loop_
 _atom_site_type_symbol
 _atom_site_label
 _atom_site_symmetry_multiplicity
 _atom_site_fract_x
 _atom_site_fract_y
 _atom_site_fract_z
 _atom_site_occupancy
  Tm  Tm0  1  0.342307  0.687630  0.998929  1
  Tm  Tm1  1  0.657936  0.310474  0.501473  1
  Tm  Tm2  1  0.657936  0.310474  0.998527  1
  Tm  Tm3  1  0.342307  0.687630  0.501071  1
  Tm  Tm4  1  0.243219  0.000454  0.250000  1
  Tm  Tm5  1  0.759204  0.002942  0.750000  1
  Tm  Tm6  1  0.984634  0.229668  0.250000  1
  Tm  Tm7  1  0.757978  0.774443  0.250000  1
  Tm  Tm8  1  0.239479  0.227610  0.750000  1
  Tm  Tm9  1  0.015697  0.768611  0.750000  1
  Al  Al10  1  0.598091  0.998802  0.250000  1
  Al  Al11  1  0.400657  0.000779  0.750000  1
  Bi  Bi12  1  0.991640  0.604974  0.250000  1
  Bi  Bi13  1  0.389081  0.395906  0.250000  1
  Bi  Bi14  1  0.612392  0.604984  0.750000  1
  Sb  Sb15  1  0.007444  0.394620  0.750000  1
