# generated using pymatgen
data_Pr8Be2ZnSi12Pt
_symmetry_space_group_name_H-M   'P 1'
_cell_length_a   8.11819800
_cell_length_b   8.11820222
_cell_length_c   8.69331800
_cell_angle_alpha   89.99999294
_cell_angle_beta   90.00001412
_cell_angle_gamma   119.99999094
_symmetry_Int_Tables_number   1
_chemical_formula_structural   Pr8Be2ZnSi12Pt
_chemical_formula_sum   'Pr8 Be2 Zn1 Si12 Pt1'
_cell_volume   496.17598713
_cell_formula_units_Z   1
loop_
 _symmetry_equiv_pos_site_id
 _symmetry_equiv_pos_as_xyz
  1  'x, y, z'
loop_
 _atom_site_type_symbol
 _atom_site_label
 _atom_site_symmetry_multiplicity
 _atom_site_fract_x
 _atom_site_fract_y
 _atom_site_fract_z
 _atom_site_occupancy
  Pr  Pr0  1  0.499965  0.500034  0.754818  1
  Pr  Pr1  1  0.500023  0.499978  0.245183  1
  Pr  Pr2  1  0.000064  0.500032  0.754819  1
  Pr  Pr3  1  0.999951  0.499977  0.245181  1
  Pr  Pr4  1  0.499966  0.999936  0.754820  1
  Pr  Pr5  1  0.500024  0.000048  0.245183  1
  Pr  Pr6  1  0.999999  0.000001  0.752605  1
  Pr  Pr7  1  0.999998  0.999999  0.247415  1
  Be  Be8  1  0.666666  0.333333  0.999403  1
  Be  Be9  1  0.333333  0.666667  0.000591  1
  Zn  Zn10  1  0.333347  0.666662  0.499833  1
  Si  Si11  1  0.827535  0.172464  0.000097  1
  Si  Si12  1  0.172166  0.827834  0.999946  1
  Si  Si13  1  0.344927  0.172464  0.000097  1
  Si  Si14  1  0.163776  0.836224  0.499925  1
  Si  Si15  1  0.655668  0.827834  0.999946  1
  Si  Si16  1  0.832570  0.167429  0.500090  1
  Si  Si17  1  0.827536  0.655073  0.000097  1
  Si  Si18  1  0.672449  0.836225  0.499925  1
  Si  Si19  1  0.172166  0.344332  0.999946  1
  Si  Si20  1  0.334859  0.167430  0.500090  1
  Si  Si21  1  0.163775  0.327552  0.499925  1
  Si  Si22  1  0.832569  0.665140  0.500090  1
  Pt  Pt23  1  0.666668  0.333330  0.499977  1
