# generated using pymatgen
data_Yb(PPt4)2
_symmetry_space_group_name_H-M   'P 1'
_cell_length_a   6.31438502
_cell_length_b   6.31438461
_cell_length_c   9.34914389
_cell_angle_alpha   55.39348355
_cell_angle_beta   55.39348635
_cell_angle_gamma   37.28551387
_symmetry_Int_Tables_number   1
_chemical_formula_structural   Yb(PPt4)2
_chemical_formula_sum   'Yb1 P2 Pt8'
_cell_volume   180.75625204
_cell_formula_units_Z   1
loop_
 _symmetry_equiv_pos_site_id
 _symmetry_equiv_pos_as_xyz
  1  'x, y, z'
loop_
 _atom_site_type_symbol
 _atom_site_label
 _atom_site_symmetry_multiplicity
 _atom_site_fract_x
 _atom_site_fract_y
 _atom_site_fract_z
 _atom_site_occupancy
  Yb  Yb0  1  0.500000  0.500000  0.500000  1
  P  P1  1  0.059336  0.059336  0.705208  1
  P  P2  1  0.940664  0.940664  0.294792  1
  Pt  Pt3  1  0.229641  0.229641  0.410819  1
  Pt  Pt4  1  0.823744  0.823744  0.843098  1
  Pt  Pt5  1  0.176256  0.176256  0.156902  1
  Pt  Pt6  1  0.166025  0.166025  0.848236  1
  Pt  Pt7  1  0.474343  0.474343  0.870342  1
  Pt  Pt8  1  0.525657  0.525657  0.129658  1
  Pt  Pt9  1  0.770359  0.770359  0.589181  1
  Pt  Pt10  1  0.833975  0.833975  0.151764  1
