# generated using pymatgen
data_Li3Yb2PaPt3
_symmetry_space_group_name_H-M   'P 1'
_cell_length_a   7.12387612
_cell_length_b   7.12387686
_cell_length_c   4.07436700
_cell_angle_alpha   90.00000000
_cell_angle_beta   90.00000000
_cell_angle_gamma   119.23346497
_symmetry_Int_Tables_number   1
_chemical_formula_structural   Li3Yb2PaPt3
_chemical_formula_sum   'Li3 Yb2 Pa1 Pt3'
_cell_volume   180.43738425
_cell_formula_units_Z   1
loop_
 _symmetry_equiv_pos_site_id
 _symmetry_equiv_pos_as_xyz
  1  'x, y, z'
loop_
 _atom_site_type_symbol
 _atom_site_label
 _atom_site_symmetry_multiplicity
 _atom_site_fract_x
 _atom_site_fract_y
 _atom_site_fract_z
 _atom_site_occupancy
  Li  Li0  1  0.991813  0.235175  0.500000  1
  Li  Li1  1  0.777651  0.777651  0.500000  1
  Li  Li2  1  0.235175  0.991813  0.500000  1
  Yb  Yb3  1  0.586256  0.995840  0.000000  1
  Yb  Yb4  1  0.995840  0.586256  0.000000  1
  Pa  Pa5  1  0.409339  0.409339  0.000000  1
  Pt  Pt6  1  0.640900  0.335563  0.500000  1
  Pt  Pt7  1  0.027464  0.027464  0.000000  1
  Pt  Pt8  1  0.335563  0.640900  0.500000  1
