# generated using pymatgen
data_YHo11Co4SnOs
_symmetry_space_group_name_H-M   'P 1'
_cell_length_a   8.26914863
_cell_length_b   8.26908804
_cell_length_c   8.26207375
_cell_angle_alpha   111.55365165
_cell_angle_beta   110.51195987
_cell_angle_gamma   106.42972398
_symmetry_Int_Tables_number   1
_chemical_formula_structural   YHo11Co4SnOs
_chemical_formula_sum   'Y1 Ho11 Co4 Sn1 Os1'
_cell_volume   433.73731281
_cell_formula_units_Z   1
loop_
 _symmetry_equiv_pos_site_id
 _symmetry_equiv_pos_as_xyz
  1  'x, y, z'
loop_
 _atom_site_type_symbol
 _atom_site_label
 _atom_site_symmetry_multiplicity
 _atom_site_fract_x
 _atom_site_fract_y
 _atom_site_fract_z
 _atom_site_occupancy
  Y  Y0  1  0.816040  0.716046  0.532012  1
  Ho  Ho1  1  0.182613  0.283087  0.465659  1
  Ho  Ho2  1  0.182417  0.716426  0.898806  1
  Ho  Ho3  1  0.817824  0.283277  0.101057  1
  Ho  Ho4  1  0.686244  0.379292  0.693305  1
  Ho  Ho5  1  0.312973  0.620283  0.306458  1
  Ho  Ho6  1  0.686161  0.993430  0.306413  1
  Ho  Ho7  1  0.314011  0.007007  0.693263  1
  Ho  Ho8  1  0.588536  0.783255  0.805958  1
  Ho  Ho9  1  0.410093  0.216023  0.193425  1
  Ho  Ho10  1  0.977450  0.783355  0.193445  1
  Ho  Ho11  1  0.022748  0.217446  0.805989  1
  Co  Co12  1  0.622053  0.000450  0.622501  1
  Co  Co13  1  0.377792  0.000177  0.377965  1
  Co  Co14  1  0.113040  0.610749  0.500898  1
  Co  Co15  1  0.890007  0.387747  0.500892  1
  Sn  Sn16  1  0.500161  0.500361  0.000525  1
  Os  Os17  1  0.999836  0.001588  0.001428  1
