# generated using pymatgen
data_Lu10Ni4BiRh
_symmetry_space_group_name_H-M   'P 1'
_cell_length_a   8.55489994
_cell_length_b   8.55489954
_cell_length_c   8.55489854
_cell_angle_alpha   129.87811417
_cell_angle_beta   129.87811912
_cell_angle_gamma   73.60169476
_symmetry_Int_Tables_number   1
_chemical_formula_structural   Lu10Ni4BiRh
_chemical_formula_sum   'Lu10 Ni4 Bi1 Rh1'
_cell_volume   359.80047871
_cell_formula_units_Z   1
loop_
 _symmetry_equiv_pos_site_id
 _symmetry_equiv_pos_as_xyz
  1  'x, y, z'
loop_
 _atom_site_type_symbol
 _atom_site_label
 _atom_site_symmetry_multiplicity
 _atom_site_fract_x
 _atom_site_fract_y
 _atom_site_fract_z
 _atom_site_occupancy
  Lu  Lu0  1  0.984198  0.984198  0.000000  1
  Lu  Lu1  1  0.515802  0.515802  0.000000  1
  Lu  Lu2  1  0.821024  0.282744  0.826129  1
  Lu  Lu3  1  0.217256  0.678976  0.173871  1
  Lu  Lu4  1  0.456616  0.994895  0.173871  1
  Lu  Lu5  1  0.282744  0.456616  0.461721  1
  Lu  Lu6  1  0.043384  0.217256  0.538279  1
  Lu  Lu7  1  0.505105  0.043384  0.826129  1
  Lu  Lu8  1  0.678976  0.505105  0.461721  1
  Lu  Lu9  1  0.994895  0.821024  0.538279  1
  Ni  Ni10  1  0.131469  0.631469  0.762939  1
  Ni  Ni11  1  0.868531  0.368531  0.237061  1
  Ni  Ni12  1  0.631469  0.868531  0.500000  1
  Ni  Ni13  1  0.368531  0.131469  0.500000  1
  Bi  Bi14  1  0.750000  0.750000  0.000000  1
  Rh  Rh15  1  0.250000  0.250000  0.000000  1
