# generated using pymatgen
data_Hf15Sc3(Mo4P)2
_symmetry_space_group_name_H-M   'P 1'
_cell_length_a   8.68032600
_cell_length_b   8.68032665
_cell_length_c   8.61238100
_cell_angle_alpha   90.00000000
_cell_angle_beta   90.00000000
_cell_angle_gamma   120.00000515
_symmetry_Int_Tables_number   1
_chemical_formula_structural   Hf15Sc3(Mo4P)2
_chemical_formula_sum   'Hf15 Sc3 Mo8 P2'
_cell_volume   561.98658346
_cell_formula_units_Z   1
loop_
 _symmetry_equiv_pos_site_id
 _symmetry_equiv_pos_as_xyz
  1  'x, y, z'
loop_
 _atom_site_type_symbol
 _atom_site_label
 _atom_site_symmetry_multiplicity
 _atom_site_fract_x
 _atom_site_fract_y
 _atom_site_fract_z
 _atom_site_occupancy
  Hf  Hf0  1  0.197638  0.802362  0.453861  1
  Hf  Hf1  1  0.197638  0.395276  0.453861  1
  Hf  Hf2  1  0.604724  0.802362  0.453861  1
  Hf  Hf3  1  0.802767  0.197233  0.549116  1
  Hf  Hf4  1  0.802767  0.605534  0.549116  1
  Hf  Hf5  1  0.394466  0.197233  0.549116  1
  Hf  Hf6  1  0.802767  0.197233  0.950884  1
  Hf  Hf7  1  0.802767  0.605534  0.950884  1
  Hf  Hf8  1  0.394466  0.197233  0.950884  1
  Hf  Hf9  1  0.197638  0.802362  0.046139  1
  Hf  Hf10  1  0.197638  0.395276  0.046139  1
  Hf  Hf11  1  0.604724  0.802362  0.046139  1
  Hf  Hf12  1  0.459147  0.540853  0.750000  1
  Hf  Hf13  1  0.459147  0.918295  0.750000  1
  Hf  Hf14  1  0.081705  0.540853  0.750000  1
  Sc  Sc15  1  0.539058  0.460942  0.250000  1
  Sc  Sc16  1  0.539058  0.078117  0.250000  1
  Sc  Sc17  1  0.921883  0.460942  0.250000  1
  Mo  Mo18  1  0.889427  0.110573  0.250000  1
  Mo  Mo19  1  0.889427  0.778854  0.250000  1
  Mo  Mo20  1  0.221146  0.110573  0.250000  1
  Mo  Mo21  1  0.110079  0.889921  0.750000  1
  Mo  Mo22  1  0.110079  0.220158  0.750000  1
  Mo  Mo23  1  0.779842  0.889921  0.750000  1
  Mo  Mo24  1  0.000000  0.000000  0.496329  1
  Mo  Mo25  1  0.000000  0.000000  0.003671  1
  P  P26  1  0.333333  0.666667  0.250000  1
  P  P27  1  0.666667  0.333333  0.750000  1
