# generated using pymatgen
data_LaPrNd4(RuO7)2
_symmetry_space_group_name_H-M   'P 1'
_cell_length_a   6.65658464
_cell_length_b   6.65658546
_cell_length_c   7.64094902
_cell_angle_alpha   90.00463461
_cell_angle_beta   90.00463070
_cell_angle_gamma   111.31456302
_symmetry_Int_Tables_number   1
_chemical_formula_structural   LaPrNd4(RuO7)2
_chemical_formula_sum   'La1 Pr1 Nd4 Ru2 O14'
_cell_volume   315.41273254
_cell_formula_units_Z   1
loop_
 _symmetry_equiv_pos_site_id
 _symmetry_equiv_pos_as_xyz
  1  'x, y, z'
loop_
 _atom_site_type_symbol
 _atom_site_label
 _atom_site_symmetry_multiplicity
 _atom_site_fract_x
 _atom_site_fract_y
 _atom_site_fract_z
 _atom_site_occupancy
  La  La0  1  0.000000  0.000000  0.500000  1
  Pr  Pr1  1  0.000000  0.000000  0.000000  1
  Nd  Nd2  1  0.472598  0.914039  0.750232  1
  Nd  Nd3  1  0.527402  0.085961  0.249768  1
  Nd  Nd4  1  0.914039  0.472598  0.750232  1
  Nd  Nd5  1  0.085961  0.527402  0.249768  1
  Ru  Ru6  1  0.500000  0.500000  0.500000  1
  Ru  Ru7  1  0.500000  0.500000  0.000000  1
  O  O8  1  0.582416  0.582416  0.749900  1
  O  O9  1  0.417584  0.417584  0.250100  1
  O  O10  1  0.840001  0.106055  0.750846  1
  O  O11  1  0.159999  0.893945  0.249154  1
  O  O12  1  0.106055  0.840001  0.750846  1
  O  O13  1  0.893945  0.159999  0.249154  1
  O  O14  1  0.440696  0.189549  0.961123  1
  O  O15  1  0.557120  0.810006  0.460819  1
  O  O16  1  0.189549  0.440696  0.961123  1
  O  O17  1  0.810006  0.557120  0.460819  1
  O  O18  1  0.442880  0.189994  0.539181  1
  O  O19  1  0.559304  0.810451  0.038877  1
  O  O20  1  0.810451  0.559304  0.038877  1
  O  O21  1  0.189994  0.442880  0.539181  1
