# generated using pymatgen
data_U6CuNi3S14
_symmetry_space_group_name_H-M   'P 1'
_cell_length_a   9.57697500
_cell_length_b   9.57697433
_cell_length_c   5.61202000
_cell_angle_alpha   90.00000000
_cell_angle_beta   90.00000000
_cell_angle_gamma   119.99999473
_symmetry_Int_Tables_number   1
_chemical_formula_structural   U6CuNi3S14
_chemical_formula_sum   'U6 Cu1 Ni3 S14'
_cell_volume   445.76559093
_cell_formula_units_Z   1
loop_
 _symmetry_equiv_pos_site_id
 _symmetry_equiv_pos_as_xyz
  1  'x, y, z'
loop_
 _atom_site_type_symbol
 _atom_site_label
 _atom_site_symmetry_multiplicity
 _atom_site_fract_x
 _atom_site_fract_y
 _atom_site_fract_z
 _atom_site_occupancy
  U  U0  1  0.229454  0.848424  0.031075  1
  U  U1  1  0.151576  0.381030  0.031075  1
  U  U2  1  0.849022  0.621719  0.529736  1
  U  U3  1  0.618970  0.770546  0.031075  1
  U  U4  1  0.772697  0.150978  0.529736  1
  U  U5  1  0.378281  0.227303  0.529736  1
  Cu  Cu6  1  0.000000  0.000000  0.997958  1
  Ni  Ni7  1  0.666667  0.333333  0.159124  1
  Ni  Ni8  1  0.333333  0.666667  0.658636  1
  Ni  Ni9  1  0.000000  0.000000  0.500765  1
  S  S10  1  0.666667  0.333333  0.761467  1
  S  S11  1  0.568008  0.485389  0.275276  1
  S  S12  1  0.151745  0.894651  0.515397  1
  S  S13  1  0.514611  0.082619  0.275276  1
  S  S14  1  0.431525  0.514428  0.774460  1
  S  S15  1  0.485572  0.917097  0.774460  1
  S  S16  1  0.844267  0.108424  0.015958  1
  S  S17  1  0.082903  0.568475  0.774460  1
  S  S18  1  0.742906  0.848255  0.515397  1
  S  S19  1  0.333333  0.666667  0.262746  1
  S  S20  1  0.917381  0.431992  0.275276  1
  S  S21  1  0.264157  0.155733  0.015958  1
  S  S22  1  0.105349  0.257094  0.515397  1
  S  S23  1  0.891576  0.735843  0.015958  1
