# generated using pymatgen
data_Y2Fe10Ni2P7
_symmetry_space_group_name_H-M   'P 1'
_cell_length_a   9.02083071
_cell_length_b   9.02636937
_cell_length_c   3.63422500
_cell_angle_alpha   90.00000000
_cell_angle_beta   90.00000000
_cell_angle_gamma   120.21961051
_symmetry_Int_Tables_number   1
_chemical_formula_structural   Y2Fe10Ni2P7
_chemical_formula_sum   'Y2 Fe10 Ni2 P7'
_cell_volume   255.70354522
_cell_formula_units_Z   1
loop_
 _symmetry_equiv_pos_site_id
 _symmetry_equiv_pos_as_xyz
  1  'x, y, z'
loop_
 _atom_site_type_symbol
 _atom_site_label
 _atom_site_symmetry_multiplicity
 _atom_site_fract_x
 _atom_site_fract_y
 _atom_site_fract_z
 _atom_site_occupancy
  Y  Y0  1  0.000256  0.999737  0.000000  1
  Y  Y1  1  0.331556  0.665241  0.500000  1
  Fe  Fe2  1  0.095260  0.393099  0.000000  1
  Fe  Fe3  1  0.787134  0.181125  0.000000  1
  Fe  Fe4  1  0.394929  0.215741  0.000000  1
  Fe  Fe5  1  0.821034  0.606480  0.000000  1
  Fe  Fe6  1  0.714685  0.947349  0.500000  1
  Fe  Fe7  1  0.231744  0.284640  0.500000  1
  Fe  Fe8  1  0.054772  0.767923  0.500000  1
  Fe  Fe9  1  0.544006  0.112656  0.500000  1
  Fe  Fe10  1  0.568107  0.457768  0.500000  1
  Fe  Fe11  1  0.884822  0.430404  0.500000  1
  Ni  Ni12  1  0.298178  0.902309  0.000000  1
  Ni  Ni13  1  0.605477  0.701937  0.000000  1
  P  P14  1  0.560147  0.927683  0.000000  1
  P  P15  1  0.363603  0.438742  0.000000  1
  P  P16  1  0.070602  0.626878  0.000000  1
  P  P17  1  0.954862  0.221223  0.500000  1
  P  P18  1  0.265114  0.049526  0.500000  1
  P  P19  1  0.786237  0.735739  0.500000  1
  P  P20  1  0.667477  0.333799  0.000000  1
