# generated using pymatgen
data_Ho2Os3Ru
_symmetry_space_group_name_H-M   'P 1'
_cell_length_a   5.27945605
_cell_length_b   5.27945517
_cell_length_c   8.96684800
_cell_angle_alpha   90.00000000
_cell_angle_beta   90.00000000
_cell_angle_gamma   119.97334488
_symmetry_Int_Tables_number   1
_chemical_formula_structural   Ho2Os3Ru
_chemical_formula_sum   'Ho4 Os6 Ru2'
_cell_volume   216.50369461
_cell_formula_units_Z   2
loop_
 _symmetry_equiv_pos_site_id
 _symmetry_equiv_pos_as_xyz
  1  'x, y, z'
loop_
 _atom_site_type_symbol
 _atom_site_label
 _atom_site_symmetry_multiplicity
 _atom_site_fract_x
 _atom_site_fract_y
 _atom_site_fract_z
 _atom_site_occupancy
  Ho  Ho0  1  0.666718  0.333282  0.565914  1
  Ho  Ho1  1  0.333282  0.666718  0.434086  1
  Ho  Ho2  1  0.333282  0.666718  0.065914  1
  Ho  Ho3  1  0.666718  0.333282  0.934086  1
  Os  Os4  1  0.170772  0.341401  0.750000  1
  Os  Os5  1  0.170663  0.829337  0.750000  1
  Os  Os6  1  0.658599  0.829228  0.750000  1
  Os  Os7  1  0.829228  0.658599  0.250000  1
  Os  Os8  1  0.829337  0.170663  0.250000  1
  Os  Os9  1  0.341401  0.170772  0.250000  1
  Ru  Ru10  1  0.000000  0.000000  0.500000  1
  Ru  Ru11  1  0.000000  0.000000  0.000000  1
