# generated using pymatgen
data_LiY3(P3Ir4)2
_symmetry_space_group_name_H-M   'P 1'
_cell_length_a   3.95950200
_cell_length_b   11.33236900
_cell_length_c   12.76362700
_cell_angle_alpha   90.00000000
_cell_angle_beta   90.00000000
_cell_angle_gamma   90.00000000
_symmetry_Int_Tables_number   1
_chemical_formula_structural   LiY3(P3Ir4)2
_chemical_formula_sum   'Li2 Y6 P12 Ir16'
_cell_volume   572.71080675
_cell_formula_units_Z   2
loop_
 _symmetry_equiv_pos_site_id
 _symmetry_equiv_pos_as_xyz
  1  'x, y, z'
loop_
 _atom_site_type_symbol
 _atom_site_label
 _atom_site_symmetry_multiplicity
 _atom_site_fract_x
 _atom_site_fract_y
 _atom_site_fract_z
 _atom_site_occupancy
  Li  Li0  1  0.500000  0.500000  0.154921  1
  Li  Li1  1  0.000000  0.000000  0.845079  1
  Y  Y2  1  0.000000  0.500000  0.515673  1
  Y  Y3  1  0.500000  0.000000  0.484327  1
  Y  Y4  1  0.500000  0.817035  0.202925  1
  Y  Y5  1  0.500000  0.182965  0.202925  1
  Y  Y6  1  0.000000  0.682965  0.797075  1
  Y  Y7  1  0.000000  0.317035  0.797075  1
  P  P8  1  0.500000  0.500000  0.879616  1
  P  P9  1  0.000000  0.000000  0.120384  1
  P  P10  1  0.500000  0.500000  0.343398  1
  P  P11  1  0.000000  0.000000  0.656602  1
  P  P12  1  0.500000  0.313617  0.618793  1
  P  P13  1  0.500000  0.686383  0.618793  1
  P  P14  1  0.000000  0.186383  0.381207  1
  P  P15  1  0.000000  0.813617  0.381207  1
  P  P16  1  0.500000  0.843787  0.892868  1
  P  P17  1  0.500000  0.156213  0.892868  1
  P  P18  1  0.000000  0.656213  0.107132  1
  P  P19  1  0.000000  0.343787  0.107132  1
  Ir  Ir20  1  0.500000  0.500000  0.699373  1
  Ir  Ir21  1  0.000000  0.000000  0.300627  1
  Ir  Ir22  1  0.000000  0.500000  0.981193  1
  Ir  Ir23  1  0.500000  0.000000  0.018807  1
  Ir  Ir24  1  0.500000  0.333029  0.994622  1
  Ir  Ir25  1  0.500000  0.666971  0.994622  1
  Ir  Ir26  1  0.000000  0.166971  0.005378  1
  Ir  Ir27  1  0.000000  0.833029  0.005378  1
  Ir  Ir28  1  0.500000  0.287964  0.428985  1
  Ir  Ir29  1  0.500000  0.712036  0.428985  1
  Ir  Ir30  1  0.000000  0.212036  0.571015  1
  Ir  Ir31  1  0.000000  0.787964  0.571015  1
  Ir  Ir32  1  0.500000  0.874309  0.711281  1
  Ir  Ir33  1  0.500000  0.125691  0.711281  1
  Ir  Ir34  1  0.000000  0.625691  0.288719  1
  Ir  Ir35  1  0.000000  0.374309  0.288719  1
