# generated using pymatgen
data_Li4Nd3Dy(SiO4)4
_symmetry_space_group_name_H-M   'P 1'
_cell_length_a   6.35905725
_cell_length_b   5.53935199
_cell_length_c   11.15920225
_cell_angle_alpha   66.70523246
_cell_angle_beta   90.14327880
_cell_angle_gamma   90.27285203
_symmetry_Int_Tables_number   1
_chemical_formula_structural   Li4Nd3Dy(SiO4)4
_chemical_formula_sum   'Li4 Nd3 Dy1 Si4 O16'
_cell_volume   361.03616663
_cell_formula_units_Z   1
loop_
 _symmetry_equiv_pos_site_id
 _symmetry_equiv_pos_as_xyz
  1  'x, y, z'
loop_
 _atom_site_type_symbol
 _atom_site_label
 _atom_site_symmetry_multiplicity
 _atom_site_fract_x
 _atom_site_fract_y
 _atom_site_fract_z
 _atom_site_occupancy
  Li  Li0  1  0.134369  0.923773  0.426789  1
  Li  Li1  1  0.633322  0.072832  0.072770  1
  Li  Li2  1  0.867643  0.080369  0.568860  1
  Li  Li3  1  0.367295  0.922892  0.927831  1
  Nd  Nd4  1  0.118169  0.441014  0.850569  1
  Nd  Nd5  1  0.884077  0.555550  0.154205  1
  Nd  Nd6  1  0.616921  0.558726  0.649755  1
  Dy  Dy7  1  0.384233  0.444423  0.349810  1
  Si  Si8  1  0.645927  0.908872  0.357650  1
  Si  Si9  1  0.346574  0.095404  0.638023  1
  Si  Si10  1  0.158744  0.088955  0.146020  1
  Si  Si11  1  0.847377  0.908081  0.858436  1
  O  O12  1  0.857581  0.227850  0.777128  1
  O  O13  1  0.632009  0.229778  0.279330  1
  O  O14  1  0.164926  0.184854  0.523355  1
  O  O15  1  0.838405  0.767826  0.752442  1
  O  O16  1  0.150668  0.767816  0.228105  1
  O  O17  1  0.566298  0.218586  0.553489  1
  O  O18  1  0.655033  0.763972  0.253143  1
  O  O19  1  0.428791  0.772984  0.441856  1
  O  O20  1  0.067155  0.784223  0.942694  1
  O  O21  1  0.662510  0.823073  0.970498  1
  O  O22  1  0.171323  0.237161  0.249204  1
  O  O23  1  0.935367  0.208186  0.064406  1
  O  O24  1  0.339632  0.174453  0.031071  1
  O  O25  1  0.337025  0.234154  0.744938  1
  O  O26  1  0.353921  0.775505  0.719844  1
  O  O27  1  0.834705  0.828690  0.467781  1
