# generated using pymatgen
data_Tm4Al6RuRh
_symmetry_space_group_name_H-M   'P 1'
_cell_length_a   5.47210000
_cell_length_b   5.47210084
_cell_length_c   8.69548200
_cell_angle_alpha   90.00000000
_cell_angle_beta   90.00000000
_cell_angle_gamma   120.00000704
_symmetry_Int_Tables_number   1
_chemical_formula_structural   Tm4Al6RuRh
_chemical_formula_sum   'Tm4 Al6 Ru1 Rh1'
_cell_volume   225.49264366
_cell_formula_units_Z   1
loop_
 _symmetry_equiv_pos_site_id
 _symmetry_equiv_pos_as_xyz
  1  'x, y, z'
loop_
 _atom_site_type_symbol
 _atom_site_label
 _atom_site_symmetry_multiplicity
 _atom_site_fract_x
 _atom_site_fract_y
 _atom_site_fract_z
 _atom_site_occupancy
  Tm  Tm0  1  0.333333  0.666667  0.057380  1
  Tm  Tm1  1  0.666667  0.333333  0.553772  1
  Tm  Tm2  1  0.333333  0.666667  0.446228  1
  Tm  Tm3  1  0.666667  0.333333  0.942620  1
  Al  Al4  1  0.836322  0.672643  0.250037  1
  Al  Al5  1  0.163678  0.836322  0.749963  1
  Al  Al6  1  0.672643  0.836322  0.749963  1
  Al  Al7  1  0.327357  0.163678  0.250037  1
  Al  Al8  1  0.836322  0.163678  0.250037  1
  Al  Al9  1  0.163678  0.327357  0.749963  1
  Ru  Ru10  1  0.000000  0.000000  0.000000  1
  Rh  Rh11  1  0.000000  0.000000  0.500000  1
