# generated using pymatgen
data_Sm2Ho5Sn23Ru6
_symmetry_space_group_name_H-M   'P 1'
_cell_length_a   9.86604476
_cell_length_b   9.86604325
_cell_length_c   10.08699001
_cell_angle_alpha   89.95570241
_cell_angle_beta   90.04429691
_cell_angle_gamma   119.75787080
_symmetry_Int_Tables_number   1
_chemical_formula_structural   Sm2Ho5Sn23Ru6
_chemical_formula_sum   'Sm2 Ho5 Sn23 Ru6'
_cell_volume   852.37871905
_cell_formula_units_Z   1
loop_
 _symmetry_equiv_pos_site_id
 _symmetry_equiv_pos_as_xyz
  1  'x, y, z'
loop_
 _atom_site_type_symbol
 _atom_site_label
 _atom_site_symmetry_multiplicity
 _atom_site_fract_x
 _atom_site_fract_y
 _atom_site_fract_z
 _atom_site_occupancy
  Sm  Sm0  1  0.999694  0.000306  0.000409  1
  Sm  Sm1  1  0.516686  0.483314  0.696172  1
  Ho  Ho2  1  0.514667  0.029421  0.697746  1
  Ho  Ho3  1  0.970579  0.485333  0.697746  1
  Ho  Ho4  1  0.029271  0.514710  0.302179  1
  Ho  Ho5  1  0.485290  0.970729  0.302179  1
  Ho  Ho6  1  0.485119  0.514881  0.302532  1
  Sn  Sn7  1  0.666484  0.333516  0.177362  1
  Sn  Sn8  1  0.668654  0.331346  0.872799  1
  Sn  Sn9  1  0.333159  0.666841  0.129346  1
  Sn  Sn10  1  0.348794  0.349082  0.000097  1
  Sn  Sn11  1  0.000274  0.650774  0.999751  1
  Sn  Sn12  1  0.650696  0.000600  0.000531  1
  Sn  Sn13  1  0.650918  0.651206  0.000097  1
  Sn  Sn14  1  0.333269  0.666731  0.823193  1
  Sn  Sn15  1  0.439660  0.219222  0.462015  1
  Sn  Sn16  1  0.220102  0.779898  0.537169  1
  Sn  Sn17  1  0.218791  0.439719  0.536395  1
  Sn  Sn18  1  0.560281  0.781209  0.536395  1
  Sn  Sn19  1  0.118775  0.881225  0.274304  1
  Sn  Sn20  1  0.780778  0.560340  0.462015  1
  Sn  Sn21  1  0.779679  0.220321  0.462768  1
  Sn  Sn22  1  0.349226  0.999726  0.999751  1
  Sn  Sn23  1  0.118941  0.237587  0.274570  1
  Sn  Sn24  1  0.762413  0.881059  0.274570  1
  Sn  Sn25  1  0.235768  0.117597  0.725630  1
  Sn  Sn26  1  0.882403  0.764232  0.725630  1
  Sn  Sn27  1  0.880995  0.119005  0.725575  1
  Sn  Sn28  1  0.999853  0.000147  0.499756  1
  Sn  Sn29  1  0.999400  0.349304  0.000531  1
  Ru  Ru30  1  0.170460  0.829540  0.797170  1
  Ru  Ru31  1  0.168417  0.340209  0.797649  1
  Ru  Ru32  1  0.659791  0.831583  0.797649  1
  Ru  Ru33  1  0.340790  0.169877  0.202562  1
  Ru  Ru34  1  0.830123  0.659210  0.202562  1
  Ru  Ru35  1  0.829803  0.170197  0.203196  1
