# generated using pymatgen
data_Ca3DyTh6(Si3C)2
_symmetry_space_group_name_H-M   'P 1'
_cell_length_a   8.80843200
_cell_length_b   8.80843210
_cell_length_c   6.40364700
_cell_angle_alpha   90.00000000
_cell_angle_beta   90.00000000
_cell_angle_gamma   119.99999961
_symmetry_Int_Tables_number   1
_chemical_formula_structural   Ca3DyTh6(Si3C)2
_chemical_formula_sum   'Ca3 Dy1 Th6 Si6 C2'
_cell_volume   430.28403643
_cell_formula_units_Z   1
loop_
 _symmetry_equiv_pos_site_id
 _symmetry_equiv_pos_as_xyz
  1  'x, y, z'
loop_
 _atom_site_type_symbol
 _atom_site_label
 _atom_site_symmetry_multiplicity
 _atom_site_fract_x
 _atom_site_fract_y
 _atom_site_fract_z
 _atom_site_occupancy
  Ca  Ca0  1  0.666667  0.333333  0.000000  1
  Ca  Ca1  1  0.333333  0.666667  0.000000  1
  Ca  Ca2  1  0.333333  0.666667  0.500000  1
  Dy  Dy3  1  0.666667  0.333333  0.500000  1
  Th  Th4  1  0.765162  0.766911  0.750442  1
  Th  Th5  1  0.233089  0.998252  0.750442  1
  Th  Th6  1  0.001748  0.234838  0.750442  1
  Th  Th7  1  0.233089  0.234838  0.249558  1
  Th  Th8  1  0.765162  0.998252  0.249558  1
  Th  Th9  1  0.001748  0.766911  0.249558  1
  Si  Si10  1  0.401040  0.394782  0.742357  1
  Si  Si11  1  0.605218  0.006257  0.742357  1
  Si  Si12  1  0.993743  0.598960  0.742357  1
  Si  Si13  1  0.605218  0.598960  0.257643  1
  Si  Si14  1  0.401040  0.006257  0.257643  1
  Si  Si15  1  0.993743  0.394782  0.257643  1
  C  C16  1  0.000000  0.000000  0.000000  1
  C  C17  1  0.000000  0.000000  0.500000  1
