# generated using pymatgen
data_Yb8Zn(Si4Ni)3
_symmetry_space_group_name_H-M   'P 1'
_cell_length_a   8.12017400
_cell_length_b   8.12017303
_cell_length_c   8.16790400
_cell_angle_alpha   90.00000000
_cell_angle_beta   90.00000000
_cell_angle_gamma   119.99998766
_symmetry_Int_Tables_number   1
_chemical_formula_structural   Yb8Zn(Si4Ni)3
_chemical_formula_sum   'Yb8 Zn1 Si12 Ni3'
_cell_volume   466.41437749
_cell_formula_units_Z   1
loop_
 _symmetry_equiv_pos_site_id
 _symmetry_equiv_pos_as_xyz
  1  'x, y, z'
loop_
 _atom_site_type_symbol
 _atom_site_label
 _atom_site_symmetry_multiplicity
 _atom_site_fract_x
 _atom_site_fract_y
 _atom_site_fract_z
 _atom_site_occupancy
  Yb  Yb0  1  0.503426  0.006851  0.243491  1
  Yb  Yb1  1  0.503425  0.006848  0.756505  1
  Yb  Yb2  1  0.993149  0.496574  0.243491  1
  Yb  Yb3  1  0.993153  0.496576  0.756505  1
  Yb  Yb4  1  0.503425  0.496575  0.243491  1
  Yb  Yb5  1  0.503424  0.496576  0.756506  1
  Yb  Yb6  1  0.000000  0.000000  0.245763  1
  Yb  Yb7  1  0.000000  0.000000  0.754208  1
  Zn  Zn8  1  0.333334  0.666666  0.499958  1
  Si  Si9  1  0.170360  0.340721  0.999996  1
  Si  Si10  1  0.830955  0.661908  0.000022  1
  Si  Si11  1  0.659273  0.829636  0.999996  1
  Si  Si12  1  0.827575  0.655150  0.500004  1
  Si  Si13  1  0.338093  0.169046  0.000022  1
  Si  Si14  1  0.161897  0.323792  0.499943  1
  Si  Si15  1  0.170358  0.829641  0.999996  1
  Si  Si16  1  0.344856  0.172429  0.500005  1
  Si  Si17  1  0.830960  0.169041  0.000022  1
  Si  Si18  1  0.676209  0.838102  0.499943  1
  Si  Si19  1  0.827571  0.172430  0.500005  1
  Si  Si20  1  0.161895  0.838103  0.499943  1
  Ni  Ni21  1  0.333315  0.666663  0.000028  1
  Ni  Ni22  1  0.666681  0.333320  0.000015  1
  Ni  Ni23  1  0.666667  0.333352  0.500145  1
