# generated using pymatgen
data_Y3LuSb10
_symmetry_space_group_name_H-M   'P 1'
_cell_length_a   4.21054600
_cell_length_b   13.20841116
_cell_length_c   14.63399509
_cell_angle_alpha   78.34669947
_cell_angle_beta   90.00000000
_cell_angle_gamma   90.00000000
_symmetry_Int_Tables_number   1
_chemical_formula_structural   Y3LuSb10
_chemical_formula_sum   'Y6 Lu2 Sb20'
_cell_volume   797.08856124
_cell_formula_units_Z   2
loop_
 _symmetry_equiv_pos_site_id
 _symmetry_equiv_pos_as_xyz
  1  'x, y, z'
loop_
 _atom_site_type_symbol
 _atom_site_label
 _atom_site_symmetry_multiplicity
 _atom_site_fract_x
 _atom_site_fract_y
 _atom_site_fract_z
 _atom_site_occupancy
  Y  Y0  1  0.750000  0.338502  0.143777  1
  Y  Y1  1  0.250000  0.952867  0.358486  1
  Y  Y2  1  0.250000  0.661498  0.856223  1
  Y  Y3  1  0.250000  0.668695  0.575418  1
  Y  Y4  1  0.750000  0.047133  0.641514  1
  Y  Y5  1  0.750000  0.331305  0.424582  1
  Lu  Lu6  1  0.250000  0.394975  0.770320  1
  Lu  Lu7  1  0.750000  0.605025  0.229680  1
  Sb  Sb8  1  0.750000  0.848276  0.829179  1
  Sb  Sb9  1  0.250000  0.860476  0.678056  1
  Sb  Sb10  1  0.250000  0.143275  0.482077  1
  Sb  Sb11  1  0.750000  0.279674  0.934860  1
  Sb  Sb12  1  0.250000  0.145331  0.779924  1
  Sb  Sb13  1  0.750000  0.571331  0.445962  1
  Sb  Sb14  1  0.750000  0.139524  0.321944  1
  Sb  Sb15  1  0.250000  0.714483  0.345602  1
  Sb  Sb16  1  0.750000  0.285517  0.654398  1
  Sb  Sb17  1  0.750000  0.854669  0.220076  1
  Sb  Sb18  1  0.250000  0.420505  0.973739  1
  Sb  Sb19  1  0.250000  0.428669  0.554038  1
  Sb  Sb20  1  0.750000  0.572711  0.734700  1
  Sb  Sb21  1  0.250000  0.427289  0.265300  1
  Sb  Sb22  1  0.750000  0.856725  0.517923  1
  Sb  Sb23  1  0.750000  0.028480  0.910967  1
  Sb  Sb24  1  0.250000  0.720326  0.065140  1
  Sb  Sb25  1  0.250000  0.971520  0.089033  1
  Sb  Sb26  1  0.250000  0.151724  0.170821  1
  Sb  Sb27  1  0.750000  0.579495  0.026261  1
