# generated using pymatgen
data_Nd4Pd3PtF28
_symmetry_space_group_name_H-M   'P 1'
_cell_length_a   5.65969603
_cell_length_b   9.13195422
_cell_length_c   12.23834227
_cell_angle_alpha   62.06353680
_cell_angle_beta   89.99828245
_cell_angle_gamma   90.02752478
_symmetry_Int_Tables_number   1
_chemical_formula_structural   Nd4Pd3PtF28
_chemical_formula_sum   'Nd4 Pd3 Pt1 F28'
_cell_volume   558.81752205
_cell_formula_units_Z   1
loop_
 _symmetry_equiv_pos_site_id
 _symmetry_equiv_pos_as_xyz
  1  'x, y, z'
loop_
 _atom_site_type_symbol
 _atom_site_label
 _atom_site_symmetry_multiplicity
 _atom_site_fract_x
 _atom_site_fract_y
 _atom_site_fract_z
 _atom_site_occupancy
  Nd  Nd0  1  0.260804  0.811069  0.263498  1
  Nd  Nd1  1  0.738701  0.187923  0.736113  1
  Nd  Nd2  1  0.761475  0.189629  0.235455  1
  Nd  Nd3  1  0.238440  0.810925  0.765460  1
  Pd  Pd4  1  0.757861  0.726505  0.042843  1
  Pd  Pd5  1  0.241834  0.273310  0.957208  1
  Pd  Pd6  1  0.258535  0.273455  0.457108  1
  Pt  Pt7  1  0.742165  0.726679  0.542789  1
  F  F8  1  0.931085  0.705800  0.415832  1
  F  F9  1  0.070562  0.293746  0.582666  1
  F  F10  1  0.429540  0.293794  0.082694  1
  F  F11  1  0.570562  0.706043  0.917270  1
  F  F12  1  0.470237  0.727007  0.129918  1
  F  F13  1  0.529196  0.273080  0.869641  1
  F  F14  1  0.971636  0.274054  0.369055  1
  F  F15  1  0.032304  0.727446  0.630892  1
  F  F16  1  0.941352  0.741098  0.172279  1
  F  F17  1  0.057686  0.258651  0.827799  1
  F  F18  1  0.442132  0.259011  0.327472  1
  F  F19  1  0.557214  0.741912  0.673232  1
  F  F20  1  0.768643  0.485604  0.138292  1
  F  F21  1  0.230768  0.514313  0.861900  1
  F  F22  1  0.270628  0.514518  0.361063  1
  F  F23  1  0.732271  0.483657  0.638773  1
  F  F24  1  0.949322  0.281626  0.038634  1
  F  F25  1  0.050752  0.718065  0.961856  1
  F  F26  1  0.446758  0.718414  0.460660  1
  F  F27  1  0.550807  0.281259  0.539002  1
  F  F28  1  0.741843  0.970320  0.451497  1
  F  F29  1  0.257664  0.032361  0.547992  1
  F  F30  1  0.242079  0.032243  0.047395  1
  F  F31  1  0.758049  0.967524  0.952502  1
  F  F32  1  0.593597  0.967052  0.231040  1
  F  F33  1  0.405127  0.033175  0.770022  1
  F  F34  1  0.093248  0.032638  0.269347  1
  F  F35  1  0.905123  0.966098  0.730799  1
