# generated using pymatgen
data_YAl7Ag5
_symmetry_space_group_name_H-M   'P 1'
_cell_length_a   7.05330383
_cell_length_b   7.05330376
_cell_length_c   7.05330459
_cell_angle_alpha   133.69272830
_cell_angle_beta   100.19915579
_cell_angle_gamma   97.59322578
_symmetry_Int_Tables_number   1
_chemical_formula_structural   YAl7Ag5
_chemical_formula_sum   'Y1 Al7 Ag5'
_cell_volume   233.19838959
_cell_formula_units_Z   1
loop_
 _symmetry_equiv_pos_site_id
 _symmetry_equiv_pos_as_xyz
  1  'x, y, z'
loop_
 _atom_site_type_symbol
 _atom_site_label
 _atom_site_symmetry_multiplicity
 _atom_site_fract_x
 _atom_site_fract_y
 _atom_site_fract_z
 _atom_site_occupancy
  Y  Y0  1  0.998734  0.000000  0.998734  1
  Al  Al1  1  0.644142  0.000000  0.644142  1
  Al  Al2  1  0.350690  0.000000  0.350690  1
  Al  Al3  1  0.348323  0.352565  0.995758  1
  Al  Al4  1  0.643194  0.647435  0.995758  1
  Al  Al5  1  0.777380  0.500000  0.277380  1
  Al  Al6  1  0.793693  0.288384  0.505308  1
  Al  Al7  1  0.216923  0.711616  0.505308  1
  Ag  Ag8  1  0.511873  0.507442  0.501817  1
  Ag  Ag9  1  0.511873  0.010057  0.004432  1
  Ag  Ag10  1  0.994374  0.989943  0.501817  1
  Ag  Ag11  1  0.994374  0.492558  0.004432  1
  Ag  Ag12  1  0.214424  0.500000  0.714424  1
