# generated using pymatgen
data_Ho10Lu2Co4SnRu
_symmetry_space_group_name_H-M   'P 1'
_cell_length_a   8.25614557
_cell_length_b   8.25265381
_cell_length_c   8.25265356
_cell_angle_alpha   111.14968688
_cell_angle_beta   110.92768081
_cell_angle_gamma   106.36375975
_symmetry_Int_Tables_number   1
_chemical_formula_structural   Ho10Lu2Co4SnRu
_chemical_formula_sum   'Ho10 Lu2 Co4 Sn1 Ru1'
_cell_volume   431.99628167
_cell_formula_units_Z   1
loop_
 _symmetry_equiv_pos_site_id
 _symmetry_equiv_pos_as_xyz
  1  'x, y, z'
loop_
 _atom_site_type_symbol
 _atom_site_label
 _atom_site_symmetry_multiplicity
 _atom_site_fract_x
 _atom_site_fract_y
 _atom_site_fract_z
 _atom_site_occupancy
  Ho  Ho0  1  0.022664  0.215629  0.807036  1
  Ho  Ho1  1  0.977336  0.784371  0.192964  1
  Ho  Ho2  1  0.185721  0.285900  0.469963  1
  Ho  Ho3  1  0.814279  0.714100  0.530037  1
  Ho  Ho4  1  0.185721  0.715758  0.899821  1
  Ho  Ho5  1  0.814279  0.284242  0.100179  1
  Ho  Ho6  1  0.314671  0.620426  0.309276  1
  Ho  Ho7  1  0.685329  0.379574  0.690724  1
  Ho  Ho8  1  0.314671  0.005395  0.694244  1
  Ho  Ho9  1  0.685329  0.994605  0.305756  1
  Lu  Lu10  1  0.408972  0.215605  0.193367  1
  Lu  Lu11  1  0.591028  0.784395  0.806633  1
  Co  Co12  1  0.377423  0.001344  0.376079  1
  Co  Co13  1  0.622577  0.998656  0.623921  1
  Co  Co14  1  0.113223  0.611516  0.501708  1
  Co  Co15  1  0.886777  0.388484  0.498292  1
  Sn  Sn16  1  0.500000  0.500000  0.000000  1
  Ru  Ru17  1  0.000000  0.000000  0.000000  1
