# generated using pymatgen
data_ZnMo3RhN
_symmetry_space_group_name_H-M   'P 1'
_cell_length_a   6.82648150
_cell_length_b   6.82977780
_cell_length_c   6.84380197
_cell_angle_alpha   90.16578766
_cell_angle_beta   89.48880007
_cell_angle_gamma   90.05055025
_symmetry_Int_Tables_number   1
_chemical_formula_structural   ZnMo3RhN
_chemical_formula_sum   'Zn4 Mo12 Rh4 N4'
_cell_volume   319.06683402
_cell_formula_units_Z   4
loop_
 _symmetry_equiv_pos_site_id
 _symmetry_equiv_pos_as_xyz
  1  'x, y, z'
loop_
 _atom_site_type_symbol
 _atom_site_label
 _atom_site_symmetry_multiplicity
 _atom_site_fract_x
 _atom_site_fract_y
 _atom_site_fract_z
 _atom_site_occupancy
  Zn  Zn0  1  0.182939  0.180873  0.180267  1
  Zn  Zn1  1  0.315289  0.823670  0.683003  1
  Zn  Zn2  1  0.428911  0.066104  0.932099  1
  Zn  Zn3  1  0.817735  0.683641  0.316365  1
  Mo  Mo4  1  0.624362  0.695356  0.956794  1
  Mo  Mo5  1  0.459885  0.877180  0.300081  1
  Mo  Mo6  1  0.709516  0.957317  0.621977  1
  Mo  Mo7  1  0.542679  0.369323  0.204800  1
  Mo  Mo8  1  0.376714  0.209113  0.544368  1
  Mo  Mo9  1  0.197188  0.540990  0.374936  1
  Mo  Mo10  1  0.878012  0.299264  0.460993  1
  Mo  Mo11  1  0.036167  0.126389  0.798939  1
  Mo  Mo12  1  0.301405  0.461311  0.870186  1
  Mo  Mo13  1  0.127718  0.792964  0.042709  1
  Mo  Mo14  1  0.798288  0.045906  0.122170  1
  Mo  Mo15  1  0.949293  0.621472  0.704813  1
  Rh  Rh16  1  0.679671  0.312117  0.814567  1
  Rh  Rh17  1  0.562484  0.573116  0.561259  1
  Rh  Rh18  1  0.068061  0.931140  0.429787  1
  Rh  Rh19  1  0.938177  0.437749  0.067081  1
  N  N20  1  0.375505  0.622058  0.130291  1
  N  N21  1  0.874514  0.871052  0.876132  1
  N  N22  1  0.125180  0.375128  0.629592  1
  N  N23  1  0.630308  0.126766  0.376790  1
