# generated using pymatgen
data_PrY2Co7(P3Rh)2
_symmetry_space_group_name_H-M   'P 1'
_cell_length_a   3.76100700
_cell_length_b   10.72077000
_cell_length_c   12.44786100
_cell_angle_alpha   90.00000000
_cell_angle_beta   90.00000000
_cell_angle_gamma   90.00000000
_symmetry_Int_Tables_number   1
_chemical_formula_structural   PrY2Co7(P3Rh)2
_chemical_formula_sum   'Pr2 Y4 Co14 P12 Rh4'
_cell_volume   501.90884676
_cell_formula_units_Z   2
loop_
 _symmetry_equiv_pos_site_id
 _symmetry_equiv_pos_as_xyz
  1  'x, y, z'
loop_
 _atom_site_type_symbol
 _atom_site_label
 _atom_site_symmetry_multiplicity
 _atom_site_fract_x
 _atom_site_fract_y
 _atom_site_fract_z
 _atom_site_occupancy
  Pr  Pr0  1  0.000000  0.500000  0.521885  1
  Pr  Pr1  1  0.500000  0.000000  0.478115  1
  Y  Y2  1  0.500000  0.813745  0.204991  1
  Y  Y3  1  0.500000  0.186255  0.204991  1
  Y  Y4  1  0.000000  0.686255  0.795009  1
  Y  Y5  1  0.000000  0.313745  0.795009  1
  Co  Co6  1  0.000000  0.500000  0.988983  1
  Co  Co7  1  0.500000  0.000000  0.011017  1
  Co  Co8  1  0.500000  0.331910  0.994017  1
  Co  Co9  1  0.500000  0.668090  0.994017  1
  Co  Co10  1  0.000000  0.168090  0.005983  1
  Co  Co11  1  0.000000  0.831910  0.005983  1
  Co  Co12  1  0.500000  0.299425  0.427927  1
  Co  Co13  1  0.500000  0.700575  0.427927  1
  Co  Co14  1  0.000000  0.200575  0.572073  1
  Co  Co15  1  0.000000  0.799425  0.572073  1
  Co  Co16  1  0.500000  0.881016  0.712979  1
  Co  Co17  1  0.500000  0.118984  0.712979  1
  Co  Co18  1  0.000000  0.618984  0.287021  1
  Co  Co19  1  0.000000  0.381016  0.287021  1
  P  P20  1  0.500000  0.500000  0.892226  1
  P  P21  1  0.000000  0.000000  0.107774  1
  P  P22  1  0.500000  0.500000  0.344727  1
  P  P23  1  0.000000  0.000000  0.655273  1
  P  P24  1  0.500000  0.298888  0.614693  1
  P  P25  1  0.500000  0.701112  0.614693  1
  P  P26  1  0.000000  0.201112  0.385307  1
  P  P27  1  0.000000  0.798888  0.385307  1
  P  P28  1  0.500000  0.844388  0.895481  1
  P  P29  1  0.500000  0.155612  0.895481  1
  P  P30  1  0.000000  0.655612  0.104519  1
  P  P31  1  0.000000  0.344388  0.104519  1
  Rh  Rh32  1  0.500000  0.500000  0.157703  1
  Rh  Rh33  1  0.000000  0.000000  0.842297  1
  Rh  Rh34  1  0.500000  0.500000  0.708087  1
  Rh  Rh35  1  0.000000  0.000000  0.291913  1
