# generated using pymatgen
data_Lu3MgAl2Ge2Ir
_symmetry_space_group_name_H-M   'P 1'
_cell_length_a   7.01581300
_cell_length_b   6.92227513
_cell_length_c   4.20358800
_cell_angle_alpha   90.00000000
_cell_angle_beta   90.00000000
_cell_angle_gamma   120.44800391
_symmetry_Int_Tables_number   1
_chemical_formula_structural   Lu3MgAl2Ge2Ir
_chemical_formula_sum   'Lu3 Mg1 Al2 Ge2 Ir1'
_cell_volume   175.99458642
_cell_formula_units_Z   1
loop_
 _symmetry_equiv_pos_site_id
 _symmetry_equiv_pos_as_xyz
  1  'x, y, z'
loop_
 _atom_site_type_symbol
 _atom_site_label
 _atom_site_symmetry_multiplicity
 _atom_site_fract_x
 _atom_site_fract_y
 _atom_site_fract_z
 _atom_site_occupancy
  Lu  Lu0  1  0.412403  0.000000  0.000000  1
  Lu  Lu1  1  0.000380  0.414065  0.000000  1
  Lu  Lu2  1  0.586314  0.585934  0.000000  1
  Mg  Mg3  1  0.763743  0.000000  0.500001  1
  Al  Al4  1  0.230772  0.231581  0.500001  1
  Al  Al5  1  0.999190  0.768418  0.500001  1
  Ge  Ge6  1  0.664276  0.338438  0.500001  1
  Ge  Ge7  1  0.325838  0.661563  0.500001  1
  Ir  Ir8  1  0.017084  0.000000  0.000000  1
