# generated using pymatgen
data_HoScFe10Co2P7
_symmetry_space_group_name_H-M   'P 1'
_cell_length_a   8.91462944
_cell_length_b   8.91521860
_cell_length_c   3.59896200
_cell_angle_alpha   90.00000000
_cell_angle_beta   90.00000000
_cell_angle_gamma   120.09855804
_symmetry_Int_Tables_number   1
_chemical_formula_structural   HoScFe10Co2P7
_chemical_formula_sum   'Ho1 Sc1 Fe10 Co2 P7'
_cell_volume   247.46342172
_cell_formula_units_Z   1
loop_
 _symmetry_equiv_pos_site_id
 _symmetry_equiv_pos_as_xyz
  1  'x, y, z'
loop_
 _atom_site_type_symbol
 _atom_site_label
 _atom_site_symmetry_multiplicity
 _atom_site_fract_x
 _atom_site_fract_y
 _atom_site_fract_z
 _atom_site_occupancy
  Ho  Ho0  1  0.333143  0.666358  0.500000  1
  Sc  Sc1  1  0.000715  0.999458  0.000000  1
  Fe  Fe2  1  0.094367  0.389333  0.000000  1
  Fe  Fe3  1  0.787587  0.179834  0.000000  1
  Fe  Fe4  1  0.392467  0.213170  0.000000  1
  Fe  Fe5  1  0.821843  0.609239  0.000000  1
  Fe  Fe6  1  0.719490  0.948425  0.500000  1
  Fe  Fe7  1  0.229790  0.280986  0.500000  1
  Fe  Fe8  1  0.053032  0.771040  0.500000  1
  Fe  Fe9  1  0.543105  0.110567  0.500000  1
  Fe  Fe10  1  0.567874  0.458573  0.500000  1
  Fe  Fe11  1  0.884218  0.430669  0.500000  1
  Co  Co12  1  0.295598  0.903551  0.000000  1
  Co  Co13  1  0.608020  0.704654  0.000000  1
  P  P14  1  0.555967  0.925373  0.000000  1
  P  P15  1  0.368487  0.443593  0.000000  1
  P  P16  1  0.074257  0.628716  0.000000  1
  P  P17  1  0.955892  0.215600  0.500000  1
  P  P18  1  0.260565  0.045977  0.500000  1
  P  P19  1  0.786722  0.740831  0.500000  1
  P  P20  1  0.666861  0.334051  0.000000  1
