# generated using pymatgen
data_NdTm3Ir2(RhO7)2
_symmetry_space_group_name_H-M   'P 1'
_cell_length_a   7.27123425
_cell_length_b   7.18899408
_cell_length_c   7.19254928
_cell_angle_alpha   59.96267318
_cell_angle_beta   60.32750963
_cell_angle_gamma   60.41161638
_symmetry_Int_Tables_number   1
_chemical_formula_structural   NdTm3Ir2(RhO7)2
_chemical_formula_sum   'Nd1 Tm3 Ir2 Rh2 O14'
_cell_volume   267.25332919
_cell_formula_units_Z   1
loop_
 _symmetry_equiv_pos_site_id
 _symmetry_equiv_pos_as_xyz
  1  'x, y, z'
loop_
 _atom_site_type_symbol
 _atom_site_label
 _atom_site_symmetry_multiplicity
 _atom_site_fract_x
 _atom_site_fract_y
 _atom_site_fract_z
 _atom_site_occupancy
  Nd  Nd0  1  0.625000  0.125000  0.125000  1
  Tm  Tm1  1  0.125000  0.625000  0.125000  1
  Tm  Tm2  1  0.125000  0.125000  0.625000  1
  Tm  Tm3  1  0.125000  0.125000  0.125000  1
  Ir  Ir4  1  0.125000  0.625000  0.625000  1
  Ir  Ir5  1  0.625000  0.125000  0.625000  1
  Rh  Rh6  1  0.625000  0.625000  0.125000  1
  Rh  Rh7  1  0.625000  0.625000  0.625000  1
  O  O8  1  0.727627  0.705607  0.283232  1
  O  O9  1  0.289844  0.290832  0.709669  1
  O  O10  1  0.725871  0.285251  0.698210  1
  O  O11  1  0.284599  0.716316  0.290009  1
  O  O12  1  0.284461  0.716393  0.709135  1
  O  O13  1  0.725765  0.285463  0.290652  1
  O  O14  1  0.522373  0.544393  0.966768  1
  O  O15  1  0.960156  0.959168  0.540331  1
  O  O16  1  0.524129  0.964749  0.551790  1
  O  O17  1  0.965401  0.533684  0.959991  1
  O  O18  1  0.965539  0.533607  0.540865  1
  O  O19  1  0.524235  0.964537  0.959348  1
  O  O20  1  0.236530  0.252964  0.255233  1
  O  O21  1  0.013470  0.997036  0.994767  1
