# generated using pymatgen
data_Li4Nd2YSn4
_symmetry_space_group_name_H-M   'P 1'
_cell_length_a   8.78400218
_cell_length_b   8.78400024
_cell_length_c   8.78400173
_cell_angle_alpha   148.86623492
_cell_angle_beta   132.81588351
_cell_angle_gamma   57.61489730
_symmetry_Int_Tables_number   1
_chemical_formula_structural   Li4Nd2YSn4
_chemical_formula_sum   'Li4 Nd2 Y1 Sn4'
_cell_volume   255.14435360
_cell_formula_units_Z   1
loop_
 _symmetry_equiv_pos_site_id
 _symmetry_equiv_pos_as_xyz
  1  'x, y, z'
loop_
 _atom_site_type_symbol
 _atom_site_label
 _atom_site_symmetry_multiplicity
 _atom_site_fract_x
 _atom_site_fract_y
 _atom_site_fract_z
 _atom_site_occupancy
  Li  Li0  1  0.862569  0.671887  0.190682  1
  Li  Li1  1  0.481206  0.671887  0.809318  1
  Li  Li2  1  0.518794  0.328113  0.190682  1
  Li  Li3  1  0.137431  0.328113  0.809318  1
  Nd  Nd4  1  0.130009  0.130009  0.000000  1
  Nd  Nd5  1  0.869991  0.869991  0.000000  1
  Y  Y6  1  0.500000  0.000000  0.500000  1
  Sn  Sn7  1  0.795957  0.500000  0.295957  1
  Sn  Sn8  1  0.204043  0.500000  0.704043  1
  Sn  Sn9  1  0.710586  0.210586  0.500000  1
  Sn  Sn10  1  0.289414  0.789414  0.500000  1
