# generated using pymatgen
data_BaMg(In4Ir)2
_symmetry_space_group_name_H-M   'P 1'
_cell_length_a   9.02533592
_cell_length_b   9.02533507
_cell_length_c   4.27436300
_cell_angle_alpha   90.00000000
_cell_angle_beta   90.00000000
_cell_angle_gamma   120.16106632
_symmetry_Int_Tables_number   1
_chemical_formula_structural   BaMg(In4Ir)2
_chemical_formula_sum   'Ba1 Mg1 In8 Ir2'
_cell_volume   301.03818536
_cell_formula_units_Z   1
loop_
 _symmetry_equiv_pos_site_id
 _symmetry_equiv_pos_as_xyz
  1  'x, y, z'
loop_
 _atom_site_type_symbol
 _atom_site_label
 _atom_site_symmetry_multiplicity
 _atom_site_fract_x
 _atom_site_fract_y
 _atom_site_fract_z
 _atom_site_occupancy
  Ba  Ba0  1  0.000000  0.000000  0.000000  1
  Mg  Mg1  1  0.500000  0.500000  0.000000  1
  In  In2  1  0.581450  0.784067  0.500000  1
  In  In3  1  0.206071  0.793929  0.500000  1
  In  In4  1  0.215933  0.418550  0.500000  1
  In  In5  1  0.784067  0.581450  0.500000  1
  In  In6  1  0.793929  0.206071  0.500000  1
  In  In7  1  0.418550  0.215933  0.500000  1
  In  In8  1  0.000000  0.500000  0.000000  1
  In  In9  1  0.500000  0.000000  0.000000  1
  Ir  Ir10  1  0.333753  0.666247  0.000000  1
  Ir  Ir11  1  0.666247  0.333753  0.000000  1
