# generated using pymatgen
data_Li3Pr3Si2Sn
_symmetry_space_group_name_H-M   'P 1'
_cell_length_a   7.40535000
_cell_length_b   7.40534981
_cell_length_c   4.45583900
_cell_angle_alpha   90.00000000
_cell_angle_beta   90.00000000
_cell_angle_gamma   120.00000087
_symmetry_Int_Tables_number   1
_chemical_formula_structural   Li3Pr3Si2Sn
_chemical_formula_sum   'Li3 Pr3 Si2 Sn1'
_cell_volume   211.61735693
_cell_formula_units_Z   1
loop_
 _symmetry_equiv_pos_site_id
 _symmetry_equiv_pos_as_xyz
  1  'x, y, z'
loop_
 _atom_site_type_symbol
 _atom_site_label
 _atom_site_symmetry_multiplicity
 _atom_site_fract_x
 _atom_site_fract_y
 _atom_site_fract_z
 _atom_site_occupancy
  Li  Li0  1  0.754958  0.754958  0.500000  1
  Li  Li1  1  0.245042  0.000000  0.500000  1
  Li  Li2  1  0.000000  0.245042  0.500000  1
  Pr  Pr3  1  0.000000  0.564766  0.000000  1
  Pr  Pr4  1  0.435234  0.435234  0.000000  1
  Pr  Pr5  1  0.564766  0.000000  0.000000  1
  Si  Si6  1  0.333333  0.666667  0.500000  1
  Si  Si7  1  0.666667  0.333333  0.500000  1
  Sn  Sn8  1  0.000000  0.000000  0.000000  1
