# generated using pymatgen
data_K2Rb2InSb7Au8
_symmetry_space_group_name_H-M   'P 1'
_cell_length_a   4.84420900
_cell_length_b   9.03653486
_cell_length_c   12.56390112
_cell_angle_alpha   89.67900826
_cell_angle_beta   90.00000000
_cell_angle_gamma   90.00000000
_symmetry_Int_Tables_number   1
_chemical_formula_structural   K2Rb2InSb7Au8
_chemical_formula_sum   'K2 Rb2 In1 Sb7 Au8'
_cell_volume   549.97442569
_cell_formula_units_Z   1
loop_
 _symmetry_equiv_pos_site_id
 _symmetry_equiv_pos_as_xyz
  1  'x, y, z'
loop_
 _atom_site_type_symbol
 _atom_site_label
 _atom_site_symmetry_multiplicity
 _atom_site_fract_x
 _atom_site_fract_y
 _atom_site_fract_z
 _atom_site_occupancy
  K  K0  1  0.750000  0.742625  0.333848  1
  K  K1  1  0.250000  0.762197  0.835822  1
  Rb  Rb2  1  0.250000  0.255767  0.663625  1
  Rb  Rb3  1  0.750000  0.240426  0.166177  1
  In  In4  1  0.250000  0.391298  0.952143  1
  Sb  Sb5  1  0.250000  0.402652  0.346553  1
  Sb  Sb6  1  0.250000  0.903231  0.157701  1
  Sb  Sb7  1  0.750000  0.607198  0.043727  1
  Sb  Sb8  1  0.750000  0.601845  0.653117  1
  Sb  Sb9  1  0.750000  0.097621  0.849055  1
  Sb  Sb10  1  0.250000  0.890377  0.548405  1
  Sb  Sb11  1  0.750000  0.108980  0.455610  1
  Au  Au12  1  0.250000  0.075774  0.965117  1
  Au  Au13  1  0.750000  0.436932  0.839500  1
  Au  Au14  1  0.750000  0.929244  0.660095  1
  Au  Au15  1  0.250000  0.566932  0.155629  1
  Au  Au16  1  0.250000  0.067236  0.346946  1
  Au  Au17  1  0.750000  0.910885  0.033789  1
  Au  Au18  1  0.250000  0.586962  0.529670  1
  Au  Au19  1  0.750000  0.421819  0.463472  1
