# generated using pymatgen
data_CuIrPd3Pb3O14
_symmetry_space_group_name_H-M   'P 1'
_cell_length_a   7.17004514
_cell_length_b   7.33587733
_cell_length_c   7.33587800
_cell_angle_alpha   60.00000600
_cell_angle_beta   59.23192719
_cell_angle_gamma   59.23191400
_symmetry_Int_Tables_number   1
_chemical_formula_structural   CuIrPd3Pb3O14
_chemical_formula_sum   'Cu1 Ir1 Pd3 Pb3 O14'
_cell_volume   269.63131703
_cell_formula_units_Z   1
loop_
 _symmetry_equiv_pos_site_id
 _symmetry_equiv_pos_as_xyz
  1  'x, y, z'
loop_
 _atom_site_type_symbol
 _atom_site_label
 _atom_site_symmetry_multiplicity
 _atom_site_fract_x
 _atom_site_fract_y
 _atom_site_fract_z
 _atom_site_occupancy
  Cu  Cu0  1  0.625000  0.125000  0.125000  1
  Ir  Ir1  1  0.125000  0.625000  0.625000  1
  Pd  Pd2  1  0.625000  0.125000  0.625000  1
  Pd  Pd3  1  0.625000  0.625000  0.125000  1
  Pd  Pd4  1  0.625000  0.625000  0.625000  1
  Pb  Pb5  1  0.125000  0.625000  0.125000  1
  Pb  Pb6  1  0.125000  0.125000  0.625000  1
  Pb  Pb7  1  0.125000  0.125000  0.125000  1
  O  O8  1  0.707062  0.710504  0.291217  1
  O  O9  1  0.284463  0.295577  0.709981  1
  O  O10  1  0.707062  0.291217  0.710504  1
  O  O11  1  0.284463  0.709981  0.295577  1
  O  O12  1  0.284463  0.709981  0.709981  1
  O  O13  1  0.707062  0.291217  0.291217  1
  O  O14  1  0.542938  0.539496  0.958783  1
  O  O15  1  0.965537  0.954423  0.540019  1
  O  O16  1  0.542938  0.958783  0.539496  1
  O  O17  1  0.965537  0.540019  0.954423  1
  O  O18  1  0.965537  0.540019  0.540019  1
  O  O19  1  0.542938  0.958783  0.958783  1
  O  O20  1  0.285928  0.238024  0.238024  1
  O  O21  1  0.964072  0.011976  0.011976  1
