# generated using pymatgen
data_Nd8Ho12Si15Br
_symmetry_space_group_name_H-M   'P 1'
_cell_length_a   7.59170618
_cell_length_b   7.75301661
_cell_length_c   14.77628900
_cell_angle_alpha   89.84035087
_cell_angle_beta   86.99409154
_cell_angle_gamma   90.24583164
_symmetry_Int_Tables_number   1
_chemical_formula_structural   Nd8Ho12Si15Br
_chemical_formula_sum   'Nd8 Ho12 Si15 Br1'
_cell_volume   868.50348893
_cell_formula_units_Z   1
loop_
 _symmetry_equiv_pos_site_id
 _symmetry_equiv_pos_as_xyz
  1  'x, y, z'
loop_
 _atom_site_type_symbol
 _atom_site_label
 _atom_site_symmetry_multiplicity
 _atom_site_fract_x
 _atom_site_fract_y
 _atom_site_fract_z
 _atom_site_occupancy
  Nd  Nd0  1  0.005437  0.829229  0.102803  1
  Nd  Nd1  1  0.477369  0.680624  0.399213  1
  Nd  Nd2  1  0.490844  0.311545  0.898916  1
  Nd  Nd3  1  0.022132  0.178821  0.600514  1
  Nd  Nd4  1  0.002907  0.172378  0.900593  1
  Nd  Nd5  1  0.521876  0.317978  0.599550  1
  Nd  Nd6  1  0.492080  0.688409  0.102594  1
  Nd  Nd7  1  0.977569  0.818165  0.399897  1
  Ho  Ho8  1  0.667516  0.994146  0.247125  1
  Ho  Ho9  1  0.166724  0.506679  0.245404  1
  Ho  Ho10  1  0.834830  0.492361  0.743979  1
  Ho  Ho11  1  0.330588  0.007213  0.751588  1
  Ho  Ho12  1  0.642071  0.843439  0.876482  1
  Ho  Ho13  1  0.174655  0.676692  0.623834  1
  Ho  Ho14  1  0.853769  0.327615  0.124082  1
  Ho  Ho15  1  0.324791  0.177021  0.377786  1
  Ho  Ho16  1  0.352629  0.168518  0.121120  1
  Ho  Ho17  1  0.826038  0.322456  0.377171  1
  Ho  Ho18  1  0.160801  0.668571  0.880101  1
  Ho  Ho19  1  0.675104  0.821799  0.623413  1
  Si  Si20  1  0.784045  0.622669  0.250588  1
  Si  Si21  1  0.284966  0.877630  0.252030  1
  Si  Si22  1  0.714042  0.126109  0.749532  1
  Si  Si23  1  0.212852  0.375410  0.750097  1
  Si  Si24  1  0.043054  0.115746  0.251909  1
  Si  Si25  1  0.543402  0.386079  0.250878  1
  Si  Si26  1  0.460269  0.611733  0.751736  1
  Si  Si27  1  0.956902  0.880355  0.751901  1
  Si  Si28  1  0.356976  0.968285  0.541323  1
  Si  Si29  1  0.697929  0.038288  0.041528  1
  Si  Si30  1  0.145143  0.468755  0.459770  1
  Si  Si31  1  0.197554  0.463992  0.043733  1
  Si  Si32  1  0.644818  0.029410  0.459030  1
  Si  Si33  1  0.306883  0.963940  0.956046  1
  Si  Si34  1  0.857010  0.528922  0.541095  1
  Br  Br35  1  0.794420  0.539017  0.952637  1
