# generated using pymatgen
data_Zr10Ga3SnBi4
_symmetry_space_group_name_H-M   'P 1'
_cell_length_a   8.77003701
_cell_length_b   8.75743718
_cell_length_c   5.94193100
_cell_angle_alpha   90.00000000
_cell_angle_beta   90.00000000
_cell_angle_gamma   119.85782431
_symmetry_Int_Tables_number   1
_chemical_formula_structural   Zr10Ga3SnBi4
_chemical_formula_sum   'Zr10 Ga3 Sn1 Bi4'
_cell_volume   395.78297318
_cell_formula_units_Z   1
loop_
 _symmetry_equiv_pos_site_id
 _symmetry_equiv_pos_as_xyz
  1  'x, y, z'
loop_
 _atom_site_type_symbol
 _atom_site_label
 _atom_site_symmetry_multiplicity
 _atom_site_fract_x
 _atom_site_fract_y
 _atom_site_fract_z
 _atom_site_occupancy
  Zr  Zr0  1  0.671469  0.332480  0.006040  1
  Zr  Zr1  1  0.327334  0.663762  0.006057  1
  Zr  Zr2  1  0.327334  0.663762  0.493943  1
  Zr  Zr3  1  0.671469  0.332480  0.493960  1
  Zr  Zr4  1  0.740834  0.740533  0.750000  1
  Zr  Zr5  1  0.257046  0.997812  0.750000  1
  Zr  Zr6  1  0.998101  0.257527  0.750000  1
  Zr  Zr7  1  0.261212  0.271286  0.250000  1
  Zr  Zr8  1  0.739548  0.018256  0.250000  1
  Zr  Zr9  1  0.007135  0.725840  0.250000  1
  Ga  Ga10  1  0.999094  0.997683  0.013580  1
  Ga  Ga11  1  0.999094  0.997683  0.486420  1
  Ga  Ga12  1  0.001827  0.387488  0.250000  1
  Sn  Sn13  1  0.385907  0.002775  0.250000  1
  Bi  Bi14  1  0.391145  0.390278  0.750000  1
  Bi  Bi15  1  0.604735  0.998037  0.750000  1
  Bi  Bi16  1  0.999167  0.603393  0.750000  1
  Bi  Bi17  1  0.617551  0.618926  0.250000  1
