# generated using pymatgen
data_Tb2Er4CrCo17P12
_symmetry_space_group_name_H-M   'P 1'
_cell_length_a   3.67938700
_cell_length_b   10.49543500
_cell_length_c   12.16404900
_cell_angle_alpha   90.00000000
_cell_angle_beta   90.00000000
_cell_angle_gamma   90.00000000
_symmetry_Int_Tables_number   1
_chemical_formula_structural   Tb2Er4CrCo17P12
_chemical_formula_sum   'Tb2 Er4 Cr1 Co17 P12'
_cell_volume   469.73624721
_cell_formula_units_Z   1
loop_
 _symmetry_equiv_pos_site_id
 _symmetry_equiv_pos_as_xyz
  1  'x, y, z'
loop_
 _atom_site_type_symbol
 _atom_site_label
 _atom_site_symmetry_multiplicity
 _atom_site_fract_x
 _atom_site_fract_y
 _atom_site_fract_z
 _atom_site_occupancy
  Tb  Tb0  1  0.750000  0.250000  0.476582  1
  Tb  Tb1  1  0.250000  0.750000  0.522848  1
  Er  Er2  1  0.250000  0.932207  0.793839  1
  Er  Er3  1  0.250000  0.567793  0.793839  1
  Er  Er4  1  0.750000  0.067896  0.204185  1
  Er  Er5  1  0.750000  0.432104  0.204185  1
  Cr  Cr6  1  0.250000  0.250000  0.844544  1
  Co  Co7  1  0.750000  0.750000  0.160200  1
  Co  Co8  1  0.250000  0.250000  0.295907  1
  Co  Co9  1  0.750000  0.750000  0.704523  1
  Co  Co10  1  0.750000  0.250000  0.012232  1
  Co  Co11  1  0.250000  0.750000  0.985355  1
  Co  Co12  1  0.250000  0.417562  0.006794  1
  Co  Co13  1  0.250000  0.082438  0.006794  1
  Co  Co14  1  0.750000  0.583350  0.994179  1
  Co  Co15  1  0.750000  0.916650  0.994179  1
  Co  Co16  1  0.250000  0.453551  0.569682  1
  Co  Co17  1  0.250000  0.046449  0.569682  1
  Co  Co18  1  0.750000  0.546576  0.430514  1
  Co  Co19  1  0.750000  0.953424  0.430514  1
  Co  Co20  1  0.250000  0.871207  0.290694  1
  Co  Co21  1  0.250000  0.628793  0.290694  1
  Co  Co22  1  0.750000  0.129183  0.709643  1
  Co  Co23  1  0.750000  0.370817  0.709643  1
  P  P24  1  0.250000  0.250000  0.117637  1
  P  P25  1  0.750000  0.750000  0.882631  1
  P  P26  1  0.250000  0.250000  0.654522  1
  P  P27  1  0.750000  0.750000  0.343616  1
  P  P28  1  0.250000  0.439385  0.382807  1
  P  P29  1  0.250000  0.060615  0.382807  1
  P  P30  1  0.750000  0.560760  0.616510  1
  P  P31  1  0.750000  0.939240  0.616510  1
  P  P32  1  0.250000  0.901297  0.108050  1
  P  P33  1  0.250000  0.598703  0.108050  1
  P  P34  1  0.750000  0.095572  0.892807  1
  P  P35  1  0.750000  0.404428  0.892807  1
