# generated using pymatgen
data_Al20FeNi2Rh5
_symmetry_space_group_name_H-M   'P 1'
_cell_length_a   7.85877900
_cell_length_b   7.86803346
_cell_length_c   7.75423900
_cell_angle_alpha   90.00000000
_cell_angle_beta   90.00000000
_cell_angle_gamma   119.96110313
_symmetry_Int_Tables_number   1
_chemical_formula_structural   Al20FeNi2Rh5
_chemical_formula_sum   'Al20 Fe1 Ni2 Rh5'
_cell_volume   415.39491595
_cell_formula_units_Z   1
loop_
 _symmetry_equiv_pos_site_id
 _symmetry_equiv_pos_as_xyz
  1  'x, y, z'
loop_
 _atom_site_type_symbol
 _atom_site_label
 _atom_site_symmetry_multiplicity
 _atom_site_fract_x
 _atom_site_fract_y
 _atom_site_fract_z
 _atom_site_occupancy
  Al  Al0  1  0.002140  0.004281  0.004563  1
  Al  Al1  1  0.002140  0.004281  0.495437  1
  Al  Al2  1  0.472699  0.945397  0.250000  1
  Al  Al3  1  0.527525  0.472018  0.750000  1
  Al  Al4  1  0.944493  0.472018  0.750000  1
  Al  Al5  1  0.062484  0.523994  0.250000  1
  Al  Al6  1  0.461510  0.523994  0.250000  1
  Al  Al7  1  0.528925  0.057850  0.750000  1
  Al  Al8  1  0.196478  0.392954  0.949830  1
  Al  Al9  1  0.809777  0.198348  0.435944  1
  Al  Al10  1  0.388570  0.198348  0.435944  1
  Al  Al11  1  0.607020  0.804195  0.939605  1
  Al  Al12  1  0.197177  0.804195  0.939605  1
  Al  Al13  1  0.803011  0.606022  0.060905  1
  Al  Al14  1  0.809777  0.198348  0.064056  1
  Al  Al15  1  0.803011  0.606022  0.439095  1
  Al  Al16  1  0.388570  0.198348  0.064056  1
  Al  Al17  1  0.607020  0.804195  0.560395  1
  Al  Al18  1  0.196478  0.392954  0.550170  1
  Al  Al19  1  0.197177  0.804195  0.560395  1
  Fe  Fe20  1  0.128573  0.257147  0.250000  1
  Ni  Ni21  1  0.331039  0.662080  0.750000  1
  Ni  Ni22  1  0.665797  0.331593  0.250000  1
  Rh  Rh23  1  0.869710  0.129432  0.750000  1
  Rh  Rh24  1  0.259723  0.129432  0.750000  1
  Rh  Rh25  1  0.739474  0.868043  0.250000  1
  Rh  Rh26  1  0.128568  0.868043  0.250000  1
  Rh  Rh27  1  0.871137  0.742273  0.750000  1
