# generated using pymatgen
data_TbHo3Pt4F28
_symmetry_space_group_name_H-M   'P 1'
_cell_length_a   5.54364425
_cell_length_b   8.87120485
_cell_length_c   11.97944072
_cell_angle_alpha   62.48611839
_cell_angle_beta   89.96581228
_cell_angle_gamma   89.98568749
_symmetry_Int_Tables_number   1
_chemical_formula_structural   TbHo3Pt4F28
_chemical_formula_sum   'Tb1 Ho3 Pt4 F28'
_cell_volume   522.50272374
_cell_formula_units_Z   1
loop_
 _symmetry_equiv_pos_site_id
 _symmetry_equiv_pos_as_xyz
  1  'x, y, z'
loop_
 _atom_site_type_symbol
 _atom_site_label
 _atom_site_symmetry_multiplicity
 _atom_site_fract_x
 _atom_site_fract_y
 _atom_site_fract_z
 _atom_site_occupancy
  Tb  Tb0  1  0.760871  0.814184  0.764543  1
  Ho  Ho1  1  0.261039  0.186942  0.735532  1
  Ho  Ho2  1  0.238912  0.185590  0.235763  1
  Ho  Ho3  1  0.738994  0.814473  0.264291  1
  Pt  Pt4  1  0.758995  0.271526  0.957254  1
  Pt  Pt5  1  0.258792  0.727506  0.542369  1
  Pt  Pt6  1  0.241272  0.727406  0.043844  1
  Pt  Pt7  1  0.740850  0.272836  0.456527  1
  F  F8  1  0.435700  0.702632  0.916155  1
  F  F9  1  0.936496  0.297133  0.584118  1
  F  F10  1  0.563040  0.296667  0.084529  1
  F  F11  1  0.062839  0.703020  0.414898  1
  F  F12  1  0.439728  0.277863  0.542851  1
  F  F13  1  0.940378  0.721663  0.958314  1
  F  F14  1  0.560759  0.722576  0.456591  1
  F  F15  1  0.060136  0.277211  0.043307  1
  F  F16  1  0.775020  0.520616  0.858570  1
  F  F17  1  0.274776  0.478012  0.641530  1
  F  F18  1  0.225371  0.477644  0.142103  1
  F  F19  1  0.725152  0.522506  0.358077  1
  F  F20  1  0.754172  0.022200  0.051002  1
  F  F21  1  0.254067  0.976847  0.449133  1
  F  F22  1  0.245625  0.976712  0.949788  1
  F  F23  1  0.745848  0.023748  0.549732  1
  F  F24  1  0.965797  0.724512  0.635699  1
  F  F25  1  0.465898  0.274705  0.863654  1
  F  F26  1  0.034238  0.274851  0.363228  1
  F  F27  1  0.534792  0.725320  0.136828  1
  F  F28  1  0.050871  0.746194  0.176080  1
  F  F29  1  0.550601  0.253959  0.324244  1
  F  F30  1  0.949101  0.253584  0.824542  1
  F  F31  1  0.446888  0.745479  0.675168  1
  F  F32  1  0.416190  0.970444  0.232708  1
  F  F33  1  0.916344  0.029653  0.267302  1
  F  F34  1  0.583228  0.032192  0.767468  1
  F  F35  1  0.087222  0.971594  0.732261  1
