# generated using pymatgen
data_Ta8GeB4Mo2P
_symmetry_space_group_name_H-M   'P 1'
_cell_length_a   7.25706557
_cell_length_b   7.25706646
_cell_length_c   7.25706634
_cell_angle_alpha   129.70420719
_cell_angle_beta   129.70420956
_cell_angle_gamma   73.88007750
_symmetry_Int_Tables_number   1
_chemical_formula_structural   Ta8GeB4Mo2P
_chemical_formula_sum   'Ta8 Ge1 B4 Mo2 P1'
_cell_volume   220.65941316
_cell_formula_units_Z   1
loop_
 _symmetry_equiv_pos_site_id
 _symmetry_equiv_pos_as_xyz
  1  'x, y, z'
loop_
 _atom_site_type_symbol
 _atom_site_label
 _atom_site_symmetry_multiplicity
 _atom_site_fract_x
 _atom_site_fract_y
 _atom_site_fract_z
 _atom_site_occupancy
  Ta  Ta0  1  0.523917  0.691050  0.492899  1
  Ta  Ta1  1  0.198150  0.031018  0.507101  1
  Ta  Ta2  1  0.031018  0.523917  0.832868  1
  Ta  Ta3  1  0.691050  0.198150  0.167132  1
  Ta  Ta4  1  0.468982  0.301850  0.492899  1
  Ta  Ta5  1  0.808950  0.976083  0.507101  1
  Ta  Ta6  1  0.976083  0.468982  0.167132  1
  Ta  Ta7  1  0.301850  0.808950  0.832868  1
  Ge  Ge8  1  0.750000  0.750000  0.000000  1
  B  B9  1  0.879345  0.620655  0.500000  1
  B  B10  1  0.120655  0.379345  0.500000  1
  B  B11  1  0.379345  0.879345  0.258690  1
  B  B12  1  0.620655  0.120655  0.741310  1
  Mo  Mo13  1  0.500932  0.500932  0.000000  1
  Mo  Mo14  1  0.999068  0.999068  0.000000  1
  P  P15  1  0.250000  0.250000  0.000000  1
