# generated using pymatgen
data_KAcO2
_symmetry_space_group_name_H-M   'P 1'
_cell_length_a   6.75223527
_cell_length_b   6.75223582
_cell_length_c   6.75223602
_cell_angle_alpha   33.33684670
_cell_angle_beta   33.33683921
_cell_angle_gamma   33.33684580
_symmetry_Int_Tables_number   1
_chemical_formula_structural   KAcO2
_chemical_formula_sum   'K1 Ac1 O2'
_cell_volume   82.78644372
_cell_formula_units_Z   1
loop_
 _symmetry_equiv_pos_site_id
 _symmetry_equiv_pos_as_xyz
  1  'x, y, z'
loop_
 _atom_site_type_symbol
 _atom_site_label
 _atom_site_symmetry_multiplicity
 _atom_site_fract_x
 _atom_site_fract_y
 _atom_site_fract_z
 _atom_site_occupancy
  K  K0  1  0.000000  0.000000  0.000000  1
  Ac  Ac1  1  0.500000  0.500000  0.500000  1
  O  O2  1  0.231229  0.231229  0.231229  1
  O  O3  1  0.768771  0.768771  0.768771  1
