# generated using pymatgen
data_RbLi(GdS2)2
_symmetry_space_group_name_H-M   'P 1'
_cell_length_a   4.09531000
_cell_length_b   7.19842243
_cell_length_c   14.05035600
_cell_angle_alpha   90.00000000
_cell_angle_beta   90.00000000
_cell_angle_gamma   73.47349555
_symmetry_Int_Tables_number   1
_chemical_formula_structural   RbLi(GdS2)2
_chemical_formula_sum   'Rb2 Li2 Gd4 S8'
_cell_volume   397.08990248
_cell_formula_units_Z   2
loop_
 _symmetry_equiv_pos_site_id
 _symmetry_equiv_pos_as_xyz
  1  'x, y, z'
loop_
 _atom_site_type_symbol
 _atom_site_label
 _atom_site_symmetry_multiplicity
 _atom_site_fract_x
 _atom_site_fract_y
 _atom_site_fract_z
 _atom_site_occupancy
  Rb  Rb0  1  0.891372  0.217256  0.250000  1
  Rb  Rb1  1  0.108628  0.782743  0.750000  1
  Li  Li2  1  0.165986  0.668028  0.250000  1
  Li  Li3  1  0.834013  0.331972  0.750000  1
  Gd  Gd4  1  0.633412  0.733175  0.059671  1
  Gd  Gd5  1  0.633412  0.733175  0.440329  1
  Gd  Gd6  1  0.366587  0.266825  0.559671  1
  Gd  Gd7  1  0.366587  0.266825  0.940329  1
  S  S8  1  0.000000  0.000000  0.000000  1
  S  S9  1  0.257769  0.484461  0.106085  1
  S  S10  1  0.579226  0.841547  0.250000  1
  S  S11  1  0.257769  0.484461  0.393915  1
  S  S12  1  0.000000  0.000000  0.500000  1
  S  S13  1  0.742231  0.515539  0.606086  1
  S  S14  1  0.420774  0.158452  0.750000  1
  S  S15  1  0.742231  0.515539  0.893915  1
