# generated using pymatgen
data_MnTe14
_symmetry_space_group_name_H-M   'P 1'
_cell_length_a   4.24406362
_cell_length_b   4.24406373
_cell_length_c   30.48316714
_cell_angle_alpha   91.22832008
_cell_angle_beta   91.22832067
_cell_angle_gamma   60.10153752
_symmetry_Int_Tables_number   1
_chemical_formula_structural   MnTe14
_chemical_formula_sum   'Mn1 Te14'
_cell_volume   475.84413563
_cell_formula_units_Z   1
loop_
 _symmetry_equiv_pos_site_id
 _symmetry_equiv_pos_as_xyz
  1  'x, y, z'
loop_
 _atom_site_type_symbol
 _atom_site_label
 _atom_site_symmetry_multiplicity
 _atom_site_fract_x
 _atom_site_fract_y
 _atom_site_fract_z
 _atom_site_occupancy
  Mn  Mn0  1  0.000000  0.000000  0.800000  1
  Te  Te1  1  0.662383  0.662383  0.055311  1
  Te  Te2  1  0.671419  0.671419  0.260131  1
  Te  Te3  1  0.679852  0.679852  0.464150  1
  Te  Te4  1  0.686479  0.686479  0.667495  1
  Te  Te5  1  0.671533  0.671533  0.844507  1
  Te  Te6  1  0.320148  0.320148  0.135850  1
  Te  Te7  1  0.328581  0.328581  0.339869  1
  Te  Te8  1  0.337617  0.337617  0.544689  1
  Te  Te9  1  0.328467  0.328467  0.755493  1
  Te  Te10  1  0.313521  0.313521  0.932505  1
  Te  Te11  1  0.988383  0.988383  0.993551  1
  Te  Te12  1  0.996398  0.996398  0.198084  1
  Te  Te13  1  0.003602  0.003602  0.401916  1
  Te  Te14  1  0.011617  0.011617  0.606449  1
