# generated using pymatgen
data_Ac2Ni2Au
_symmetry_space_group_name_H-M   'P 1'
_cell_length_a   4.14563800
_cell_length_b   4.14563952
_cell_length_c   17.47399800
_cell_angle_alpha   90.00000000
_cell_angle_beta   90.00000000
_cell_angle_gamma   120.00000383
_symmetry_Int_Tables_number   1
_chemical_formula_structural   Ac2Ni2Au
_chemical_formula_sum   'Ac4 Ni4 Au2'
_cell_volume   260.07931269
_cell_formula_units_Z   2
loop_
 _symmetry_equiv_pos_site_id
 _symmetry_equiv_pos_as_xyz
  1  'x, y, z'
loop_
 _atom_site_type_symbol
 _atom_site_label
 _atom_site_symmetry_multiplicity
 _atom_site_fract_x
 _atom_site_fract_y
 _atom_site_fract_z
 _atom_site_occupancy
  Ac  Ac0  1  0.000000  0.000000  0.617934  1
  Ac  Ac1  1  0.000000  0.000000  0.382268  1
  Ac  Ac2  1  0.000000  0.000000  0.117934  1
  Ac  Ac3  1  0.000000  0.000000  0.882268  1
  Ni  Ni4  1  0.666667  0.333333  0.501093  1
  Ni  Ni5  1  0.333333  0.666667  0.001093  1
  Ni  Ni6  1  0.666667  0.333333  0.998994  1
  Ni  Ni7  1  0.333333  0.666667  0.498994  1
  Au  Au8  1  0.666667  0.333333  0.249710  1
  Au  Au9  1  0.333333  0.666667  0.749710  1
