# generated using pymatgen
data_Cs6TbHoBi4
_symmetry_space_group_name_H-M   'P 1'
_cell_length_a   10.69599065
_cell_length_b   10.69599242
_cell_length_c   10.69599300
_cell_angle_alpha   127.20397094
_cell_angle_beta   70.77098142
_cell_angle_gamma   136.44312313
_symmetry_Int_Tables_number   1
_chemical_formula_structural   Cs6TbHoBi4
_chemical_formula_sum   'Cs6 Tb1 Ho1 Bi4'
_cell_volume   658.25776981
_cell_formula_units_Z   1
loop_
 _symmetry_equiv_pos_site_id
 _symmetry_equiv_pos_as_xyz
  1  'x, y, z'
loop_
 _atom_site_type_symbol
 _atom_site_label
 _atom_site_symmetry_multiplicity
 _atom_site_fract_x
 _atom_site_fract_y
 _atom_site_fract_z
 _atom_site_occupancy
  Cs  Cs0  1  0.250000  0.250000  0.000000  1
  Cs  Cs1  1  0.750000  0.750000  0.000000  1
  Cs  Cs2  1  0.315405  0.803219  0.118332  1
  Cs  Cs3  1  0.184595  0.302927  0.487814  1
  Cs  Cs4  1  0.815114  0.696782  0.512187  1
  Cs  Cs5  1  0.684886  0.197072  0.881667  1
  Tb  Tb6  1  0.250000  0.749999  0.499999  1
  Ho  Ho7  1  0.750000  0.250000  0.500000  1
  Bi  Bi8  1  0.903876  0.310596  0.217404  1
  Bi  Bi9  1  0.596124  0.813529  0.406721  1
  Bi  Bi10  1  0.406809  0.189404  0.593279  1
  Bi  Bi11  1  0.093191  0.686471  0.782595  1
