# generated using pymatgen
data_Hf11Zr5(Ir2O)4
_symmetry_space_group_name_H-M   'P 1'
_cell_length_a   8.78459767
_cell_length_b   8.78459757
_cell_length_c   8.78079200
_cell_angle_alpha   60.01432943
_cell_angle_beta   60.01432979
_cell_angle_gamma   59.88342925
_symmetry_Int_Tables_number   1
_chemical_formula_structural   Hf11Zr5(Ir2O)4
_chemical_formula_sum   'Hf11 Zr5 Ir8 O4'
_cell_volume   478.81994990
_cell_formula_units_Z   1
loop_
 _symmetry_equiv_pos_site_id
 _symmetry_equiv_pos_as_xyz
  1  'x, y, z'
loop_
 _atom_site_type_symbol
 _atom_site_label
 _atom_site_symmetry_multiplicity
 _atom_site_fract_x
 _atom_site_fract_y
 _atom_site_fract_z
 _atom_site_occupancy
  Hf  Hf0  1  0.111962  0.627574  0.630232  1
  Hf  Hf1  1  0.627574  0.111962  0.630232  1
  Hf  Hf2  1  0.631112  0.631112  0.107896  1
  Hf  Hf3  1  0.631112  0.631112  0.629880  1
  Hf  Hf4  1  0.813516  0.813516  0.186484  1
  Hf  Hf5  1  0.183657  0.183657  0.816343  1
  Hf  Hf6  1  0.811626  0.187424  0.813271  1
  Hf  Hf7  1  0.187424  0.811626  0.187679  1
  Hf  Hf8  1  0.187424  0.811626  0.813271  1
  Hf  Hf9  1  0.811626  0.187424  0.187679  1
  Hf  Hf10  1  0.436789  0.436789  0.063211  1
  Zr  Zr11  1  0.062755  0.062755  0.437245  1
  Zr  Zr12  1  0.434327  0.064945  0.435002  1
  Zr  Zr13  1  0.064945  0.434327  0.065726  1
  Zr  Zr14  1  0.064945  0.434327  0.435002  1
  Zr  Zr15  1  0.434327  0.064945  0.065726  1
  Ir  Ir16  1  0.757742  0.415594  0.413332  1
  Ir  Ir17  1  0.415594  0.757742  0.413332  1
  Ir  Ir18  1  0.414839  0.414839  0.764160  1
  Ir  Ir19  1  0.414839  0.414839  0.406161  1
  Ir  Ir20  1  0.452720  0.849232  0.849024  1
  Ir  Ir21  1  0.849232  0.452720  0.849024  1
  Ir  Ir22  1  0.849885  0.849885  0.452586  1
  Ir  Ir23  1  0.849885  0.849885  0.847645  1
  O  O24  1  0.629204  0.127140  0.121828  1
  O  O25  1  0.127140  0.629204  0.121828  1
  O  O26  1  0.121897  0.121897  0.633162  1
  O  O27  1  0.121897  0.121897  0.123043  1
