# generated using pymatgen
data_DyY2TmCdNi
_symmetry_space_group_name_H-M   'P 1'
_cell_length_a   9.54410446
_cell_length_b   9.54410487
_cell_length_c   9.55101300
_cell_angle_alpha   59.97605711
_cell_angle_beta   59.97605569
_cell_angle_gamma   60.04788783
_symmetry_Int_Tables_number   1
_chemical_formula_structural   DyY2TmCdNi
_chemical_formula_sum   'Dy4 Y8 Tm4 Cd4 Ni4'
_cell_volume   615.18306600
_cell_formula_units_Z   4
loop_
 _symmetry_equiv_pos_site_id
 _symmetry_equiv_pos_as_xyz
  1  'x, y, z'
loop_
 _atom_site_type_symbol
 _atom_site_label
 _atom_site_symmetry_multiplicity
 _atom_site_fract_x
 _atom_site_fract_y
 _atom_site_fract_z
 _atom_site_occupancy
  Dy  Dy0  1  0.599120  0.599120  0.598109  1
  Dy  Dy1  1  0.599120  0.599120  0.203653  1
  Dy  Dy2  1  0.598109  0.203653  0.599120  1
  Dy  Dy3  1  0.203653  0.598109  0.599120  1
  Y  Y4  1  0.437491  0.437491  0.062509  1
  Y  Y5  1  0.062509  0.062509  0.437491  1
  Y  Y6  1  0.187042  0.812958  0.812958  1
  Y  Y7  1  0.812958  0.187042  0.187042  1
  Y  Y8  1  0.812958  0.187042  0.812958  1
  Y  Y9  1  0.187042  0.812958  0.187042  1
  Y  Y10  1  0.812859  0.812859  0.187141  1
  Y  Y11  1  0.187141  0.187141  0.812859  1
  Tm  Tm12  1  0.061907  0.438093  0.438093  1
  Tm  Tm13  1  0.438093  0.061907  0.061907  1
  Tm  Tm14  1  0.438093  0.061907  0.438093  1
  Tm  Tm15  1  0.061907  0.438093  0.061907  1
  Cd  Cd16  1  0.830836  0.830836  0.831143  1
  Cd  Cd17  1  0.830836  0.830836  0.507182  1
  Cd  Cd18  1  0.831143  0.507182  0.830836  1
  Cd  Cd19  1  0.507182  0.831143  0.830836  1
  Ni  Ni20  1  0.391490  0.391490  0.394092  1
  Ni  Ni21  1  0.391490  0.391490  0.822930  1
  Ni  Ni22  1  0.394092  0.822930  0.391490  1
  Ni  Ni23  1  0.822930  0.394092  0.391490  1
