# generated using pymatgen
data_Dy8Ta11Si16Tc
_symmetry_space_group_name_H-M   'P 1'
_cell_length_a   7.01074286
_cell_length_b   7.02082384
_cell_length_c   12.99619521
_cell_angle_alpha   90.15431025
_cell_angle_beta   90.02988623
_cell_angle_gamma   90.09445067
_symmetry_Int_Tables_number   1
_chemical_formula_structural   Dy8Ta11Si16Tc
_chemical_formula_sum   'Dy8 Ta11 Si16 Tc1'
_cell_volume   639.68492382
_cell_formula_units_Z   1
loop_
 _symmetry_equiv_pos_site_id
 _symmetry_equiv_pos_as_xyz
  1  'x, y, z'
loop_
 _atom_site_type_symbol
 _atom_site_label
 _atom_site_symmetry_multiplicity
 _atom_site_fract_x
 _atom_site_fract_y
 _atom_site_fract_z
 _atom_site_occupancy
  Dy  Dy0  1  0.998397  0.658817  0.033109  1
  Dy  Dy1  1  0.002601  0.341701  0.530567  1
  Dy  Dy2  1  0.659846  0.997406  0.968030  1
  Dy  Dy3  1  0.159362  0.501619  0.781234  1
  Dy  Dy4  1  0.840990  0.497893  0.282199  1
  Dy  Dy5  1  0.502302  0.159066  0.220183  1
  Dy  Dy6  1  0.497038  0.840049  0.716962  1
  Dy  Dy7  1  0.340577  0.000285  0.467590  1
  Ta  Ta8  1  0.845209  0.992883  0.374339  1
  Ta  Ta9  1  0.010566  0.156959  0.127088  1
  Ta  Ta10  1  0.994165  0.844012  0.624563  1
  Ta  Ta11  1  0.505779  0.346126  0.623796  1
  Ta  Ta12  1  0.154090  0.006710  0.873679  1
  Ta  Ta13  1  0.673171  0.671076  0.500242  1
  Ta  Ta14  1  0.829493  0.170699  0.750415  1
  Ta  Ta15  1  0.171742  0.831209  0.249540  1
  Ta  Ta16  1  0.328807  0.328591  0.000859  1
  Ta  Ta17  1  0.493791  0.654335  0.123672  1
  Ta  Ta18  1  0.654439  0.492398  0.875348  1
  Si  Si19  1  0.047409  0.705587  0.434648  1
  Si  Si20  1  0.956417  0.294863  0.936525  1
  Si  Si21  1  0.706881  0.046012  0.563453  1
  Si  Si22  1  0.208112  0.458829  0.189162  1
  Si  Si23  1  0.793765  0.544242  0.686344  1
  Si  Si24  1  0.455307  0.205059  0.813715  1
  Si  Si25  1  0.540872  0.786634  0.313704  1
  Si  Si26  1  0.294701  0.955659  0.063503  1
  Si  Si27  1  0.795919  0.868766  0.183534  1
  Si  Si28  1  0.298522  0.632028  0.564981  1
  Si  Si29  1  0.703019  0.365942  0.068122  1
  Si  Si30  1  0.626774  0.301421  0.432396  1
  Si  Si31  1  0.366151  0.702664  0.932556  1
  Si  Si32  1  0.133221  0.206819  0.318858  1
  Si  Si33  1  0.202426  0.133532  0.681760  1
  Si  Si34  1  0.867130  0.794747  0.817279  1
  Tc  Tc35  1  0.341008  0.505362  0.376046  1
