# generated using pymatgen
data_Ta4Tc
_symmetry_space_group_name_H-M   'P 1'
_cell_length_a   3.22057550
_cell_length_b   5.44770429
_cell_length_c   5.44770437
_cell_angle_alpha   95.01251913
_cell_angle_beta   72.80707882
_cell_angle_gamma   107.19292202
_symmetry_Int_Tables_number   1
_chemical_formula_structural   Ta4Tc
_chemical_formula_sum   'Ta4 Tc1'
_cell_volume   87.22754167
_cell_formula_units_Z   1
loop_
 _symmetry_equiv_pos_site_id
 _symmetry_equiv_pos_as_xyz
  1  'x, y, z'
loop_
 _atom_site_type_symbol
 _atom_site_label
 _atom_site_symmetry_multiplicity
 _atom_site_fract_x
 _atom_site_fract_y
 _atom_site_fract_z
 _atom_site_occupancy
  Ta  Ta0  1  0.594142  0.386044  0.197760  1
  Ta  Ta1  1  0.208099  0.802241  0.386042  1
  Ta  Ta2  1  0.791902  0.197760  0.613959  1
  Ta  Ta3  1  0.405859  0.613957  0.802241  1
  Tc  Tc4  1  0.000000  0.000000  0.000000  1
