# generated using pymatgen
data_NdDy2Be2(PPd5)4
_symmetry_space_group_name_H-M   'P 1'
_cell_length_a   8.68625548
_cell_length_b   8.60673221
_cell_length_c   8.60672635
_cell_angle_alpha   60.61012113
_cell_angle_beta   59.69500820
_cell_angle_gamma   59.69499063
_symmetry_Int_Tables_number   1
_chemical_formula_structural   NdDy2Be2(PPd5)4
_chemical_formula_sum   'Nd1 Dy2 Be2 P4 Pd20'
_cell_volume   454.90421040
_cell_formula_units_Z   1
loop_
 _symmetry_equiv_pos_site_id
 _symmetry_equiv_pos_as_xyz
  1  'x, y, z'
loop_
 _atom_site_type_symbol
 _atom_site_label
 _atom_site_symmetry_multiplicity
 _atom_site_fract_x
 _atom_site_fract_y
 _atom_site_fract_z
 _atom_site_occupancy
  Nd  Nd0  1  0.249976  0.250009  0.250009  1
  Dy  Dy1  1  0.749999  0.749998  0.749998  1
  Dy  Dy2  1  0.000006  0.999994  0.999994  1
  Be  Be3  1  0.732975  0.266981  0.266981  1
  Be  Be4  1  0.267031  0.733013  0.733013  1
  P  P5  1  0.265806  0.734203  0.265778  1
  P  P6  1  0.734202  0.265792  0.734217  1
  P  P7  1  0.265806  0.265778  0.734203  1
  P  P8  1  0.734202  0.734217  0.265792  1
  Pd  Pd9  1  0.390000  0.384300  0.384301  1
  Pd  Pd10  1  0.613405  0.618078  0.618078  1
  Pd  Pd11  1  0.384276  0.390015  0.841424  1
  Pd  Pd12  1  0.384276  0.841424  0.390015  1
  Pd  Pd13  1  0.618086  0.613408  0.150446  1
  Pd  Pd14  1  0.618086  0.150446  0.613408  1
  Pd  Pd15  1  0.841418  0.384298  0.384298  1
  Pd  Pd16  1  0.150402  0.618082  0.618082  1
  Pd  Pd17  1  0.345160  0.998969  0.998970  1
  Pd  Pd18  1  0.656923  0.998937  0.998937  1
  Pd  Pd19  1  0.998960  0.345171  0.656928  1
  Pd  Pd20  1  0.998960  0.656928  0.345170  1
  Pd  Pd21  1  0.996258  0.343769  0.002393  1
  Pd  Pd22  1  0.657583  0.002376  0.343785  1
  Pd  Pd23  1  0.002416  0.657556  0.996264  1
  Pd  Pd24  1  0.343765  0.996283  0.657536  1
  Pd  Pd25  1  0.996258  0.002393  0.343769  1
  Pd  Pd26  1  0.002416  0.996264  0.657556  1
  Pd  Pd27  1  0.657582  0.343785  0.002376  1
  Pd  Pd28  1  0.343765  0.657536  0.996283  1
