# generated using pymatgen
data_Tb4TmIrPt2
_symmetry_space_group_name_H-M   'P 1'
_cell_length_a   11.09371200
_cell_length_b   11.09371200
_cell_length_c   6.36032800
_cell_angle_alpha   90.00000000
_cell_angle_beta   90.00000000
_cell_angle_gamma   90.00000000
_symmetry_Int_Tables_number   1
_chemical_formula_structural   Tb4TmIrPt2
_chemical_formula_sum   'Tb16 Tm4 Ir4 Pt8'
_cell_volume   782.76840328
_cell_formula_units_Z   4
loop_
 _symmetry_equiv_pos_site_id
 _symmetry_equiv_pos_as_xyz
  1  'x, y, z'
loop_
 _atom_site_type_symbol
 _atom_site_label
 _atom_site_symmetry_multiplicity
 _atom_site_fract_x
 _atom_site_fract_y
 _atom_site_fract_z
 _atom_site_occupancy
  Tb  Tb0  1  0.293588  0.087179  0.374615  1
  Tb  Tb1  1  0.293588  0.912821  0.874615  1
  Tb  Tb2  1  0.706412  0.087179  0.874615  1
  Tb  Tb3  1  0.706412  0.912821  0.374615  1
  Tb  Tb4  1  0.587179  0.793588  0.874615  1
  Tb  Tb5  1  0.587179  0.206412  0.374615  1
  Tb  Tb6  1  0.412821  0.793588  0.374615  1
  Tb  Tb7  1  0.412821  0.206412  0.874615  1
  Tb  Tb8  1  0.206412  0.412821  0.625385  1
  Tb  Tb9  1  0.206412  0.587179  0.125385  1
  Tb  Tb10  1  0.793588  0.412821  0.125385  1
  Tb  Tb11  1  0.793588  0.587179  0.625385  1
  Tb  Tb12  1  0.912821  0.706412  0.125385  1
  Tb  Tb13  1  0.912821  0.293588  0.625385  1
  Tb  Tb14  1  0.087179  0.706412  0.625385  1
  Tb  Tb15  1  0.087179  0.293588  0.125385  1
  Tm  Tm16  1  0.000000  0.000000  0.500000  1
  Tm  Tm17  1  0.000000  0.000000  0.000000  1
  Tm  Tm18  1  0.500000  0.500000  0.000000  1
  Tm  Tm19  1  0.500000  0.500000  0.500000  1
  Ir  Ir20  1  0.500000  0.000000  0.119400  1
  Ir  Ir21  1  0.500000  0.000000  0.619400  1
  Ir  Ir22  1  0.000000  0.500000  0.880600  1
  Ir  Ir23  1  0.000000  0.500000  0.380600  1
  Pt  Pt24  1  0.848757  0.151243  0.250000  1
  Pt  Pt25  1  0.848757  0.848757  0.750000  1
  Pt  Pt26  1  0.151243  0.151243  0.750000  1
  Pt  Pt27  1  0.151243  0.848757  0.250000  1
  Pt  Pt28  1  0.651243  0.348757  0.750000  1
  Pt  Pt29  1  0.651243  0.651243  0.250000  1
  Pt  Pt30  1  0.348757  0.348757  0.250000  1
  Pt  Pt31  1  0.348757  0.651243  0.750000  1
