# generated using pymatgen
data_ZrTa6Cl18
_symmetry_space_group_name_H-M   'P 1'
_cell_length_a   10.07566301
_cell_length_b   10.07566322
_cell_length_c   10.07566312
_cell_angle_alpha   56.00441619
_cell_angle_beta   56.00441277
_cell_angle_gamma   56.00442077
_symmetry_Int_Tables_number   1
_chemical_formula_structural   ZrTa6Cl18
_chemical_formula_sum   'Zr1 Ta6 Cl18'
_cell_volume   656.32942867
_cell_formula_units_Z   1
loop_
 _symmetry_equiv_pos_site_id
 _symmetry_equiv_pos_as_xyz
  1  'x, y, z'
loop_
 _atom_site_type_symbol
 _atom_site_label
 _atom_site_symmetry_multiplicity
 _atom_site_fract_x
 _atom_site_fract_y
 _atom_site_fract_z
 _atom_site_occupancy
  Zr  Zr0  1  0.000000  0.000000  0.000000  1
  Ta  Ta1  1  0.409373  0.305014  0.647106  1
  Ta  Ta2  1  0.352894  0.590627  0.694986  1
  Ta  Ta3  1  0.694986  0.352894  0.590627  1
  Ta  Ta4  1  0.305014  0.647106  0.409373  1
  Ta  Ta5  1  0.647106  0.409373  0.305014  1
  Ta  Ta6  1  0.590627  0.694986  0.352894  1
  Cl  Cl7  1  0.568196  0.158103  0.442582  1
  Cl  Cl8  1  0.221189  0.370278  0.912442  1
  Cl  Cl9  1  0.912442  0.221189  0.370278  1
  Cl  Cl10  1  0.370278  0.912442  0.221189  1
  Cl  Cl11  1  0.778811  0.629722  0.087558  1
  Cl  Cl12  1  0.087558  0.778811  0.629722  1
  Cl  Cl13  1  0.717176  0.962456  0.150880  1
  Cl  Cl14  1  0.962456  0.150880  0.717176  1
  Cl  Cl15  1  0.150880  0.717176  0.962456  1
  Cl  Cl16  1  0.282824  0.037544  0.849120  1
  Cl  Cl17  1  0.037544  0.849120  0.282824  1
  Cl  Cl18  1  0.849120  0.282824  0.037544  1
  Cl  Cl19  1  0.557418  0.431804  0.841897  1
  Cl  Cl20  1  0.158103  0.442582  0.568196  1
  Cl  Cl21  1  0.442582  0.568196  0.158103  1
  Cl  Cl22  1  0.431804  0.841897  0.557418  1
  Cl  Cl23  1  0.841897  0.557418  0.431804  1
  Cl  Cl24  1  0.629722  0.087558  0.778811  1
