# generated using pymatgen
data_Ho3Mg3Hg2Pb
_symmetry_space_group_name_H-M   'P 1'
_cell_length_a   7.67148300
_cell_length_b   7.67148311
_cell_length_c   4.40315300
_cell_angle_alpha   90.00000000
_cell_angle_beta   90.00000000
_cell_angle_gamma   120.00000384
_symmetry_Int_Tables_number   1
_chemical_formula_structural   Ho3Mg3Hg2Pb
_chemical_formula_sum   'Ho3 Mg3 Hg2 Pb1'
_cell_volume   224.41560434
_cell_formula_units_Z   1
loop_
 _symmetry_equiv_pos_site_id
 _symmetry_equiv_pos_as_xyz
  1  'x, y, z'
loop_
 _atom_site_type_symbol
 _atom_site_label
 _atom_site_symmetry_multiplicity
 _atom_site_fract_x
 _atom_site_fract_y
 _atom_site_fract_z
 _atom_site_occupancy
  Ho  Ho0  1  0.410094  0.987595  0.000000  1
  Ho  Ho1  1  0.012405  0.422498  0.000000  1
  Ho  Ho2  1  0.577501  0.589907  0.000000  1
  Mg  Mg3  1  0.750275  0.992310  0.500000  1
  Mg  Mg4  1  0.242035  0.249725  0.500000  1
  Mg  Mg5  1  0.007690  0.757966  0.500000  1
  Hg  Hg6  1  0.000000  0.000000  0.000000  1
  Hg  Hg7  1  0.333333  0.666667  0.500000  1
  Pb  Pb8  1  0.666667  0.333333  0.500000  1
