# generated using pymatgen
data_La20In4Si7Tc
_symmetry_space_group_name_H-M   'P 1'
_cell_length_a   8.08118201
_cell_length_b   8.08118158
_cell_length_c   14.82057900
_cell_angle_alpha   89.69699219
_cell_angle_beta   90.30300780
_cell_angle_gamma   89.64381412
_symmetry_Int_Tables_number   1
_chemical_formula_structural   La20In4Si7Tc
_chemical_formula_sum   'La20 In4 Si7 Tc1'
_cell_volume   967.81936881
_cell_formula_units_Z   1
loop_
 _symmetry_equiv_pos_site_id
 _symmetry_equiv_pos_as_xyz
  1  'x, y, z'
loop_
 _atom_site_type_symbol
 _atom_site_label
 _atom_site_symmetry_multiplicity
 _atom_site_fract_x
 _atom_site_fract_y
 _atom_site_fract_z
 _atom_site_occupancy
  La  La0  1  0.817689  0.830749  0.610741  1
  La  La1  1  0.174168  0.841845  0.116674  1
  La  La2  1  0.165327  0.828087  0.384620  1
  La  La3  1  0.001112  0.498080  0.728175  1
  La  La4  1  0.841845  0.174168  0.383326  1
  La  La5  1  0.679305  0.669289  0.390707  1
  La  La6  1  0.666778  0.318027  0.610165  1
  La  La7  1  0.329445  0.683240  0.610422  1
  La  La8  1  0.008841  0.494826  0.228764  1
  La  La9  1  0.669289  0.679305  0.109293  1
  La  La10  1  0.683240  0.329445  0.889578  1
  La  La11  1  0.830749  0.817689  0.889259  1
  La  La12  1  0.310677  0.327946  0.384280  1
  La  La13  1  0.181809  0.171210  0.613533  1
  La  La14  1  0.828087  0.165327  0.115380  1
  La  La15  1  0.318027  0.666778  0.889835  1
  La  La16  1  0.327946  0.310677  0.115720  1
  La  La17  1  0.494826  0.008841  0.271236  1
  La  La18  1  0.171210  0.181809  0.886467  1
  La  La19  1  0.498080  0.001112  0.771825  1
  In  In20  1  0.998006  0.499980  0.502967  1
  In  In21  1  0.500358  0.000744  0.497278  1
  In  In22  1  0.499980  0.998006  0.997033  1
  In  In23  1  0.000744  0.500358  0.002722  1
  Si  Si24  1  0.617263  0.388497  0.250962  1
  Si  Si25  1  0.113783  0.884368  0.750200  1
  Si  Si26  1  0.386151  0.386151  0.750000  1
  Si  Si27  1  0.388497  0.617263  0.249038  1
  Si  Si28  1  0.879040  0.879040  0.250000  1
  Si  Si29  1  0.613569  0.613569  0.750000  1
  Si  Si30  1  0.884368  0.113783  0.749800  1
  Tc  Tc31  1  0.119792  0.119792  0.250000  1
