# generated using pymatgen
data_HfZr15(NiOs)4
_symmetry_space_group_name_H-M   'P 1'
_cell_length_a   8.73953310
_cell_length_b   8.71946624
_cell_length_c   8.71946592
_cell_angle_alpha   60.08811336
_cell_angle_beta   59.92384714
_cell_angle_gamma   59.92384254
_symmetry_Int_Tables_number   1
_chemical_formula_structural   HfZr15(NiOs)4
_chemical_formula_sum   'Hf1 Zr15 Ni4 Os4'
_cell_volume   469.61271770
_cell_formula_units_Z   1
loop_
 _symmetry_equiv_pos_site_id
 _symmetry_equiv_pos_as_xyz
  1  'x, y, z'
loop_
 _atom_site_type_symbol
 _atom_site_label
 _atom_site_symmetry_multiplicity
 _atom_site_fract_x
 _atom_site_fract_y
 _atom_site_fract_z
 _atom_site_occupancy
  Hf  Hf0  1  0.455855  0.044145  0.044145  1
  Zr  Zr1  1  0.185171  0.605209  0.605209  1
  Zr  Zr2  1  0.604219  0.187034  0.604526  1
  Zr  Zr3  1  0.604219  0.604526  0.187034  1
  Zr  Zr4  1  0.604409  0.605209  0.605209  1
  Zr  Zr5  1  0.814838  0.815506  0.184792  1
  Zr  Zr6  1  0.184864  0.184792  0.815506  1
  Zr  Zr7  1  0.814838  0.184792  0.815506  1
  Zr  Zr8  1  0.184864  0.815506  0.184792  1
  Zr  Zr9  1  0.184576  0.815424  0.815424  1
  Zr  Zr10  1  0.815001  0.184999  0.184999  1
  Zr  Zr11  1  0.452039  0.450464  0.048518  1
  Zr  Zr12  1  0.048978  0.048518  0.450464  1
  Zr  Zr13  1  0.452039  0.048518  0.450464  1
  Zr  Zr14  1  0.048978  0.450464  0.048518  1
  Zr  Zr15  1  0.047234  0.452766  0.452766  1
  Ni  Ni16  1  0.825147  0.391849  0.391849  1
  Ni  Ni17  1  0.392193  0.826200  0.389413  1
  Ni  Ni18  1  0.392193  0.389413  0.826200  1
  Ni  Ni19  1  0.391154  0.391849  0.391849  1
  Os  Os20  1  0.503035  0.833219  0.833219  1
  Os  Os21  1  0.831813  0.503817  0.832558  1
  Os  Os22  1  0.831813  0.832558  0.503817  1
  Os  Os23  1  0.830528  0.833219  0.833219  1
