# generated using pymatgen
data_Ho6AlSiOs
_symmetry_space_group_name_H-M   'P 1'
_cell_length_a   8.40804925
_cell_length_b   8.40804986
_cell_length_c   8.40805000
_cell_angle_alpha   112.96024635
_cell_angle_beta   110.89394825
_cell_angle_gamma   104.67099279
_symmetry_Int_Tables_number   1
_chemical_formula_structural   Ho6AlSiOs
_chemical_formula_sum   'Ho12 Al2 Si2 Os2'
_cell_volume   455.03250532
_cell_formula_units_Z   2
loop_
 _symmetry_equiv_pos_site_id
 _symmetry_equiv_pos_as_xyz
  1  'x, y, z'
loop_
 _atom_site_type_symbol
 _atom_site_label
 _atom_site_symmetry_multiplicity
 _atom_site_fract_x
 _atom_site_fract_y
 _atom_site_fract_z
 _atom_site_occupancy
  Ho  Ho0  1  0.434851  0.241082  0.193771  1
  Ho  Ho1  1  0.565149  0.758918  0.806229  1
  Ho  Ho2  1  0.047310  0.241082  0.806231  1
  Ho  Ho3  1  0.952690  0.758918  0.193769  1
  Ho  Ho4  1  0.183631  0.272506  0.456132  1
  Ho  Ho5  1  0.816369  0.727494  0.543868  1
  Ho  Ho6  1  0.183627  0.727494  0.911127  1
  Ho  Ho7  1  0.816373  0.272506  0.088873  1
  Ho  Ho8  1  0.333605  0.643198  0.309593  1
  Ho  Ho9  1  0.666395  0.356802  0.690407  1
  Ho  Ho10  1  0.333636  0.024015  0.690380  1
  Ho  Ho11  1  0.666364  0.975985  0.309620  1
  Al  Al12  1  0.500000  0.500000  0.000000  1
  Al  Al13  1  0.000000  0.000000  0.000000  1
  Si  Si14  1  0.114454  0.614447  0.499993  1
  Si  Si15  1  0.885546  0.385553  0.500007  1
  Os  Os16  1  0.329797  0.000000  0.329797  1
  Os  Os17  1  0.670203  0.000000  0.670203  1
