# generated using pymatgen
data_Hf8V11Si16Rh
_symmetry_space_group_name_H-M   'P 1'
_cell_length_a   6.44986350
_cell_length_b   6.60724402
_cell_length_c   12.53763000
_cell_angle_alpha   90.00000000
_cell_angle_beta   90.00000000
_cell_angle_gamma   89.64255471
_symmetry_Int_Tables_number   1
_chemical_formula_structural   Hf8V11Si16Rh
_chemical_formula_sum   'Hf8 V11 Si16 Rh1'
_cell_volume   534.29101141
_cell_formula_units_Z   1
loop_
 _symmetry_equiv_pos_site_id
 _symmetry_equiv_pos_as_xyz
  1  'x, y, z'
loop_
 _atom_site_type_symbol
 _atom_site_label
 _atom_site_symmetry_multiplicity
 _atom_site_fract_x
 _atom_site_fract_y
 _atom_site_fract_z
 _atom_site_occupancy
  Hf  Hf0  1  0.994199  0.170916  0.095315  1
  Hf  Hf1  1  0.002350  0.833457  0.908557  1
  Hf  Hf2  1  0.509326  0.672654  0.908746  1
  Hf  Hf3  1  0.002350  0.833457  0.591443  1
  Hf  Hf4  1  0.494590  0.330493  0.093910  1
  Hf  Hf5  1  0.994199  0.170916  0.404685  1
  Hf  Hf6  1  0.494590  0.330493  0.406090  1
  Hf  Hf7  1  0.509326  0.672654  0.591254  1
  V  V8  1  0.834054  0.506493  0.250000  1
  V  V9  1  0.336562  0.995079  0.250000  1
  V  V10  1  0.666672  0.999844  0.750000  1
  V  V11  1  0.336948  0.162467  0.624502  1
  V  V12  1  0.664618  0.830430  0.375495  1
  V  V13  1  0.162073  0.666831  0.377574  1
  V  V14  1  0.664618  0.830430  0.124505  1
  V  V15  1  0.832314  0.326933  0.623745  1
  V  V16  1  0.336948  0.162467  0.875498  1
  V  V17  1  0.832314  0.326933  0.876255  1
  V  V18  1  0.162073  0.666831  0.122426  1
  Si  Si19  1  0.037398  0.127874  0.750000  1
  Si  Si20  1  0.964567  0.873110  0.250000  1
  Si  Si21  1  0.460985  0.627110  0.250000  1
  Si  Si22  1  0.535323  0.371911  0.750000  1
  Si  Si23  1  0.303089  0.868865  0.750000  1
  Si  Si24  1  0.697352  0.133623  0.250000  1
  Si  Si25  1  0.198485  0.367577  0.250000  1
  Si  Si26  1  0.802633  0.630000  0.750000  1
  Si  Si27  1  0.168530  0.454849  0.541264  1
  Si  Si28  1  0.832177  0.541460  0.460133  1
  Si  Si29  1  0.331332  0.957864  0.458033  1
  Si  Si30  1  0.832177  0.541460  0.039867  1
  Si  Si31  1  0.666199  0.042976  0.539499  1
  Si  Si32  1  0.168530  0.454849  0.958736  1
  Si  Si33  1  0.666199  0.042976  0.960501  1
  Si  Si34  1  0.331332  0.957864  0.041967  1
  Rh  Rh35  1  0.173569  0.515854  0.750000  1
