# generated using pymatgen
data_Y4Lu2TaMoO14
_symmetry_space_group_name_H-M   'P 1'
_cell_length_a   6.50363909
_cell_length_b   6.36931672
_cell_length_c   7.46189433
_cell_angle_alpha   90.27575563
_cell_angle_beta   89.66726713
_cell_angle_gamma   108.78442335
_symmetry_Int_Tables_number   1
_chemical_formula_structural   Y4Lu2TaMoO14
_chemical_formula_sum   'Y4 Lu2 Ta1 Mo1 O14'
_cell_volume   292.62958182
_cell_formula_units_Z   1
loop_
 _symmetry_equiv_pos_site_id
 _symmetry_equiv_pos_as_xyz
  1  'x, y, z'
loop_
 _atom_site_type_symbol
 _atom_site_label
 _atom_site_symmetry_multiplicity
 _atom_site_fract_x
 _atom_site_fract_y
 _atom_site_fract_z
 _atom_site_occupancy
  Y  Y0  1  0.532008  0.000941  0.756587  1
  Y  Y1  1  0.470279  0.998582  0.253266  1
  Y  Y2  1  0.468045  0.480430  0.003844  1
  Y  Y3  1  0.534005  0.522238  0.503970  1
  Lu  Lu4  1  0.999908  0.538222  0.247917  1
  Lu  Lu5  1  0.999092  0.461927  0.738433  1
  Ta  Ta6  1  0.002591  0.003874  0.501288  1
  Mo  Mo7  1  0.999807  0.997807  0.000981  1
  O  O8  1  0.931834  0.076870  0.749764  1
  O  O9  1  0.068118  0.924428  0.251652  1
  O  O10  1  0.348186  0.629802  0.256545  1
  O  O11  1  0.651421  0.371090  0.758177  1
  O  O12  1  0.356199  0.619679  0.745054  1
  O  O13  1  0.642490  0.380129  0.245220  1
  O  O14  1  0.334400  0.092454  0.979658  1
  O  O15  1  0.671174  0.911063  0.475316  1
  O  O16  1  0.318837  0.084940  0.535991  1
  O  O17  1  0.674449  0.906485  0.029526  1
  O  O18  1  0.026779  0.307098  0.452291  1
  O  O19  1  0.976398  0.699993  0.951874  1
  O  O20  1  0.928866  0.672739  0.530299  1
  O  O21  1  0.065115  0.319209  0.032347  1
