# generated using pymatgen
data_CoSe23
_symmetry_space_group_name_H-M   'P 1'
_cell_length_a   5.96811026
_cell_length_b   9.84349145
_cell_length_c   15.83245300
_cell_angle_alpha   89.63402248
_cell_angle_beta   90.46347019
_cell_angle_gamma   87.71809577
_symmetry_Int_Tables_number   1
_chemical_formula_structural   CoSe23
_chemical_formula_sum   'Co1 Se23'
_cell_volume   929.32086823
_cell_formula_units_Z   1
loop_
 _symmetry_equiv_pos_site_id
 _symmetry_equiv_pos_as_xyz
  1  'x, y, z'
loop_
 _atom_site_type_symbol
 _atom_site_label
 _atom_site_symmetry_multiplicity
 _atom_site_fract_x
 _atom_site_fract_y
 _atom_site_fract_z
 _atom_site_occupancy
  Co  Co0  1  0.502563  0.294991  0.420418  1
  Se  Se1  1  0.548525  0.824976  0.374171  1
  Se  Se2  1  0.002211  0.327094  0.126697  1
  Se  Se3  1  0.858740  0.258721  0.473886  1
  Se  Se4  1  0.303676  0.781449  0.486491  1
  Se  Se5  1  0.202555  0.265296  0.003877  1
  Se  Se6  1  0.777787  0.731645  0.999284  1
  Se  Se7  1  0.142731  0.292660  0.368144  1
  Se  Se8  1  0.779818  0.625239  0.368717  1
  Se  Se9  1  0.788917  0.139062  0.165088  1
  Se  Se10  1  0.225561  0.854673  0.145559  1
  Se  Se11  1  0.703888  0.613212  0.639553  1
  Se  Se12  1  0.232834  0.370665  0.621966  1
  Se  Se13  1  0.217346  0.859195  0.852863  1
  Se  Se14  1  0.771663  0.137789  0.849036  1
  Se  Se15  1  0.995907  0.669743  0.119550  1
  Se  Se16  1  0.505433  0.821374  0.612278  1
  Se  Se17  1  0.447798  0.195838  0.554333  1
  Se  Se18  1  0.995841  0.670760  0.880642  1
  Se  Se19  1  0.981210  0.328560  0.884665  1
  Se  Se20  1  0.504314  0.469750  0.327201  1
  Se  Se21  1  0.033090  0.992876  0.245237  1
  Se  Se22  1  0.474489  0.471743  0.719799  1
  Se  Se23  1  0.003104  0.002689  0.760545  1
