# generated using pymatgen
data_NaLi6Ca(FeN3)2
_symmetry_space_group_name_H-M   'P 1'
_cell_length_a   7.08687897
_cell_length_b   7.08688040
_cell_length_c   7.08688007
_cell_angle_alpha   47.61652030
_cell_angle_beta   47.61651378
_cell_angle_gamma   47.61652657
_symmetry_Int_Tables_number   1
_chemical_formula_structural   NaLi6Ca(FeN3)2
_chemical_formula_sum   'Na1 Li6 Ca1 Fe2 N6'
_cell_volume   177.75802864
_cell_formula_units_Z   1
loop_
 _symmetry_equiv_pos_site_id
 _symmetry_equiv_pos_as_xyz
  1  'x, y, z'
loop_
 _atom_site_type_symbol
 _atom_site_label
 _atom_site_symmetry_multiplicity
 _atom_site_fract_x
 _atom_site_fract_y
 _atom_site_fract_z
 _atom_site_occupancy
  Na  Na0  1  0.337989  0.337989  0.337989  1
  Li  Li1  1  0.473602  0.906779  0.236605  1
  Li  Li2  1  0.906779  0.236605  0.473602  1
  Li  Li3  1  0.747237  0.519774  0.116426  1
  Li  Li4  1  0.519774  0.116426  0.747237  1
  Li  Li5  1  0.116426  0.747237  0.519774  1
  Li  Li6  1  0.236605  0.473602  0.906779  1
  Ca  Ca7  1  0.663138  0.663138  0.663138  1
  Fe  Fe8  1  0.931022  0.931022  0.931022  1
  Fe  Fe9  1  0.069524  0.069524  0.069524  1
  N  N10  1  0.215557  0.888195  0.626671  1
  N  N11  1  0.626671  0.215557  0.888195  1
  N  N12  1  0.796593  0.084741  0.386147  1
  N  N13  1  0.084741  0.386147  0.796593  1
  N  N14  1  0.386147  0.796593  0.084741  1
  N  N15  1  0.888195  0.626671  0.215557  1
