# generated using pymatgen
data_Th10Bi3Pb4Au
_symmetry_space_group_name_H-M   'P 1'
_cell_length_a   9.72811957
_cell_length_b   9.73267094
_cell_length_c   6.70805658
_cell_angle_alpha   89.95230401
_cell_angle_beta   90.02385329
_cell_angle_gamma   120.01548677
_symmetry_Int_Tables_number   1
_chemical_formula_structural   Th10Bi3Pb4Au
_chemical_formula_sum   'Th10 Bi3 Pb4 Au1'
_cell_volume   549.94637445
_cell_formula_units_Z   1
loop_
 _symmetry_equiv_pos_site_id
 _symmetry_equiv_pos_as_xyz
  1  'x, y, z'
loop_
 _atom_site_type_symbol
 _atom_site_label
 _atom_site_symmetry_multiplicity
 _atom_site_fract_x
 _atom_site_fract_y
 _atom_site_fract_z
 _atom_site_occupancy
  Th  Th0  1  0.667949  0.334024  0.501332  1
  Th  Th1  1  0.332051  0.666076  0.501332  1
  Th  Th2  1  0.331953  0.666853  0.998286  1
  Th  Th3  1  0.668047  0.334899  0.998286  1
  Th  Th4  1  0.724591  0.723201  0.263539  1
  Th  Th5  1  0.275409  0.998610  0.263539  1
  Th  Th6  1  0.000000  0.275517  0.263270  1
  Th  Th7  1  0.276526  0.276484  0.736217  1
  Th  Th8  1  0.723474  0.999958  0.736217  1
  Th  Th9  1  0.000000  0.723764  0.737545  1
  Bi  Bi10  1  0.000000  0.000010  0.000009  1
  Bi  Bi11  1  0.381343  0.380820  0.246187  1
  Bi  Bi12  1  0.618657  0.999477  0.246187  1
  Pb  Pb13  1  0.000000  0.619916  0.246509  1
  Pb  Pb14  1  0.620574  0.620330  0.753351  1
  Pb  Pb15  1  0.379426  0.999756  0.753351  1
  Pb  Pb16  1  0.000000  0.380054  0.753321  1
  Au  Au17  1  0.000000  0.000253  0.501522  1
