# generated using pymatgen
data_Ba3LuScSe6
_symmetry_space_group_name_H-M   'P 1'
_cell_length_a   8.73446542
_cell_length_b   8.73446471
_cell_length_c   8.73446594
_cell_angle_alpha   93.14276258
_cell_angle_beta   93.14276069
_cell_angle_gamma   93.14276110
_symmetry_Int_Tables_number   1
_chemical_formula_structural   Ba3LuScSe6
_chemical_formula_sum   'Ba6 Lu2 Sc2 Se12'
_cell_volume   663.23868484
_cell_formula_units_Z   2
loop_
 _symmetry_equiv_pos_site_id
 _symmetry_equiv_pos_as_xyz
  1  'x, y, z'
loop_
 _atom_site_type_symbol
 _atom_site_label
 _atom_site_symmetry_multiplicity
 _atom_site_fract_x
 _atom_site_fract_y
 _atom_site_fract_z
 _atom_site_occupancy
  Ba  Ba0  1  0.366340  0.750000  0.133660  1
  Ba  Ba1  1  0.133660  0.366340  0.750000  1
  Ba  Ba2  1  0.750000  0.133660  0.366340  1
  Ba  Ba3  1  0.633660  0.250000  0.866340  1
  Ba  Ba4  1  0.866340  0.633660  0.250000  1
  Ba  Ba5  1  0.250000  0.866340  0.633660  1
  Lu  Lu6  1  0.250000  0.250000  0.250000  1
  Lu  Lu7  1  0.750000  0.750000  0.750000  1
  Sc  Sc8  1  0.500000  0.500000  0.500000  1
  Sc  Sc9  1  0.000000  0.000000  0.000000  1
  Se  Se10  1  0.535074  0.410063  0.199868  1
  Se  Se11  1  0.199868  0.535074  0.410063  1
  Se  Se12  1  0.410063  0.199868  0.535074  1
  Se  Se13  1  0.964926  0.300132  0.089937  1
  Se  Se14  1  0.089937  0.964926  0.300132  1
  Se  Se15  1  0.300132  0.089937  0.964926  1
  Se  Se16  1  0.464926  0.589937  0.800132  1
  Se  Se17  1  0.800132  0.464926  0.589937  1
  Se  Se18  1  0.589937  0.800132  0.464926  1
  Se  Se19  1  0.035074  0.699868  0.910063  1
  Se  Se20  1  0.699868  0.910063  0.035074  1
  Se  Se21  1  0.910063  0.035074  0.699868  1
