# generated using pymatgen
data_Pr5Nd3Sc11Si16Ag
_symmetry_space_group_name_H-M   'P 1'
_cell_length_a   7.19587627
_cell_length_b   7.55415331
_cell_length_c   14.26409531
_cell_angle_alpha   90.02205852
_cell_angle_beta   90.00960816
_cell_angle_gamma   90.16714506
_symmetry_Int_Tables_number   1
_chemical_formula_structural   Pr5Nd3Sc11Si16Ag
_chemical_formula_sum   'Pr5 Nd3 Sc11 Si16 Ag1'
_cell_volume   775.37505940
_cell_formula_units_Z   1
loop_
 _symmetry_equiv_pos_site_id
 _symmetry_equiv_pos_as_xyz
  1  'x, y, z'
loop_
 _atom_site_type_symbol
 _atom_site_label
 _atom_site_symmetry_multiplicity
 _atom_site_fract_x
 _atom_site_fract_y
 _atom_site_fract_z
 _atom_site_occupancy
  Pr  Pr0  1  0.490581  0.681664  0.600884  1
  Pr  Pr1  1  0.980059  0.827314  0.601513  1
  Pr  Pr2  1  0.980336  0.827446  0.898306  1
  Pr  Pr3  1  0.511434  0.329583  0.097612  1
  Pr  Pr4  1  0.012510  0.173298  0.097534  1
  Nd  Nd5  1  0.012217  0.173871  0.402045  1
  Nd  Nd6  1  0.511540  0.329086  0.401902  1
  Nd  Nd7  1  0.490660  0.682170  0.898353  1
  Sc  Sc8  1  0.335033  0.172689  0.625278  1
  Sc  Sc9  1  0.671839  0.822015  0.374177  1
  Sc  Sc10  1  0.171462  0.677071  0.375808  1
  Sc  Sc11  1  0.827118  0.315423  0.874757  1
  Sc  Sc12  1  0.827228  0.315204  0.625487  1
  Sc  Sc13  1  0.840798  0.501605  0.250258  1
  Sc  Sc14  1  0.340199  0.998483  0.250229  1
  Sc  Sc15  1  0.335164  0.172578  0.874736  1
  Sc  Sc16  1  0.171761  0.676936  0.124514  1
  Sc  Sc17  1  0.671683  0.821843  0.126118  1
  Sc  Sc18  1  0.158300  0.494877  0.750094  1
  Si  Si19  1  0.278823  0.883304  0.750123  1
  Si  Si20  1  0.466978  0.623061  0.250379  1
  Si  Si21  1  0.042948  0.123956  0.750061  1
  Si  Si22  1  0.531110  0.385747  0.750235  1
  Si  Si23  1  0.152935  0.464055  0.540384  1
  Si  Si24  1  0.967278  0.874848  0.250385  1
  Si  Si25  1  0.710804  0.117545  0.250620  1
  Si  Si26  1  0.849983  0.536755  0.037682  1
  Si  Si27  1  0.349291  0.962398  0.038953  1
  Si  Si28  1  0.153896  0.465531  0.959051  1
  Si  Si29  1  0.653680  0.042122  0.530984  1
  Si  Si30  1  0.348532  0.964689  0.460307  1
  Si  Si31  1  0.849429  0.535333  0.461780  1
  Si  Si32  1  0.790791  0.595811  0.750307  1
  Si  Si33  1  0.210580  0.384555  0.250730  1
  Si  Si34  1  0.653178  0.040045  0.968176  1
  Ag  Ag35  1  0.649846  0.007090  0.750237  1
