# generated using pymatgen
data_EuThZn21Pt
_symmetry_space_group_name_H-M   'P 1'
_cell_length_a   8.30273486
_cell_length_b   8.28946237
_cell_length_c   8.30273400
_cell_angle_alpha   100.00913799
_cell_angle_beta   99.89596693
_cell_angle_gamma   130.96978314
_symmetry_Int_Tables_number   1
_chemical_formula_structural   EuThZn21Pt
_chemical_formula_sum   'Eu1 Th1 Zn21 Pt1'
_cell_volume   392.25561388
_cell_formula_units_Z   1
loop_
 _symmetry_equiv_pos_site_id
 _symmetry_equiv_pos_as_xyz
  1  'x, y, z'
loop_
 _atom_site_type_symbol
 _atom_site_label
 _atom_site_symmetry_multiplicity
 _atom_site_fract_x
 _atom_site_fract_y
 _atom_site_fract_z
 _atom_site_occupancy
  Eu  Eu0  1  0.750180  0.253506  0.503364  1
  Th  Th1  1  0.497853  0.493925  0.995996  1
  Zn  Zn2  1  0.845268  0.429744  0.171777  1
  Zn  Zn3  1  0.126467  0.875988  0.749524  1
  Zn  Zn4  1  0.325278  0.152608  0.583904  1
  Zn  Zn5  1  0.257972  0.429750  0.584481  1
  Zn  Zn6  1  0.328346  0.742504  0.171061  1
  Zn  Zn7  1  0.992453  0.319417  0.915210  1
  Zn  Zn8  1  0.261736  0.676153  0.830357  1
  Zn  Zn9  1  0.245960  0.740945  0.494990  1
  Zn  Zn10  1  0.989766  0.074645  0.672017  1
  Zn  Zn11  1  0.003193  0.007740  0.004543  1
  Zn  Zn12  1  0.680680  0.007648  0.086295  1
  Zn  Zn13  1  0.622824  0.873930  0.749153  1
  Zn  Zn14  1  0.404211  0.319419  0.326967  1
  Zn  Zn15  1  0.921352  0.007653  0.326971  1
  Zn  Zn16  1  0.845799  0.676154  0.414425  1
  Zn  Zn17  1  0.571446  0.742510  0.414165  1
  Zn  Zn18  1  0.681734  0.598372  0.674145  1
  Zn  Zn19  1  0.402632  0.074645  0.084874  1
  Zn  Zn20  1  0.924226  0.598367  0.916636  1
  Zn  Zn21  1  0.568708  0.152605  0.827333  1
  Zn  Zn22  1  0.124782  0.873930  0.251110  1
  Pt  Pt23  1  0.127135  0.377843  0.250704  1
