# generated using pymatgen
data_Tb4Al18RePdPt4
_symmetry_space_group_name_H-M   'P 1'
_cell_length_a   7.62753283
_cell_length_b   7.62753262
_cell_length_c   9.50083903
_cell_angle_alpha   89.79084075
_cell_angle_beta   89.79083773
_cell_angle_gamma   119.38616266
_symmetry_Int_Tables_number   1
_chemical_formula_structural   Tb4Al18RePdPt4
_chemical_formula_sum   'Tb4 Al18 Re1 Pd1 Pt4'
_cell_volume   481.61786721
_cell_formula_units_Z   1
loop_
 _symmetry_equiv_pos_site_id
 _symmetry_equiv_pos_as_xyz
  1  'x, y, z'
loop_
 _atom_site_type_symbol
 _atom_site_label
 _atom_site_symmetry_multiplicity
 _atom_site_fract_x
 _atom_site_fract_y
 _atom_site_fract_z
 _atom_site_occupancy
  Tb  Tb0  1  0.995475  0.673293  0.248235  1
  Tb  Tb1  1  0.004525  0.326707  0.751765  1
  Tb  Tb2  1  0.673293  0.995475  0.248235  1
  Tb  Tb3  1  0.326707  0.004525  0.751765  1
  Al  Al4  1  0.131048  0.131048  0.247284  1
  Al  Al5  1  0.868952  0.868952  0.752716  1
  Al  Al6  1  0.000045  0.330353  0.073953  1
  Al  Al7  1  0.999955  0.669647  0.926047  1
  Al  Al8  1  0.998242  0.663124  0.578104  1
  Al  Al9  1  0.336876  0.001758  0.421896  1
  Al  Al10  1  0.001758  0.336876  0.421896  1
  Al  Al11  1  0.663124  0.998242  0.578104  1
  Al  Al12  1  0.669647  0.999955  0.926047  1
  Al  Al13  1  0.330353  0.000045  0.073953  1
  Al  Al14  1  0.333784  0.333784  0.556466  1
  Al  Al15  1  0.666216  0.666216  0.443534  1
  Al  Al16  1  0.670553  0.670553  0.052564  1
  Al  Al17  1  0.329447  0.329447  0.947436  1
  Al  Al18  1  0.341601  0.548092  0.249331  1
  Al  Al19  1  0.658399  0.451908  0.750669  1
  Al  Al20  1  0.548092  0.341601  0.249331  1
  Al  Al21  1  0.451908  0.658399  0.750669  1
  Re  Re22  1  0.000000  0.000000  0.000000  1
  Pd  Pd23  1  0.000000  0.000000  0.500000  1
  Pt  Pt24  1  0.671798  0.328202  0.000000  1
  Pt  Pt25  1  0.328202  0.671798  0.000000  1
  Pt  Pt26  1  0.327800  0.672200  0.500000  1
  Pt  Pt27  1  0.672200  0.327800  0.500000  1
