# generated using pymatgen
data_ErBi5(PtO6)3
_symmetry_space_group_name_H-M   'P 1'
_cell_length_a   9.25343635
_cell_length_b   9.25097777
_cell_length_c   5.16032906
_cell_angle_alpha   89.99998377
_cell_angle_beta   90.19492571
_cell_angle_gamma   119.99116964
_symmetry_Int_Tables_number   1
_chemical_formula_structural   ErBi5(PtO6)3
_chemical_formula_sum   'Er1 Bi5 Pt3 O18'
_cell_volume   382.59033438
_cell_formula_units_Z   1
loop_
 _symmetry_equiv_pos_site_id
 _symmetry_equiv_pos_as_xyz
  1  'x, y, z'
loop_
 _atom_site_type_symbol
 _atom_site_label
 _atom_site_symmetry_multiplicity
 _atom_site_fract_x
 _atom_site_fract_y
 _atom_site_fract_z
 _atom_site_occupancy
  Er  Er0  1  0.000003  0.373330  0.499994  1
  Bi  Bi1  1  0.291555  0.294683  0.000667  1
  Bi  Bi2  1  0.999992  0.702506  0.000000  1
  Bi  Bi3  1  0.626140  0.627433  0.498359  1
  Bi  Bi4  1  0.373857  0.001289  0.501632  1
  Bi  Bi5  1  0.708452  0.003134  0.999329  1
  Pt  Pt6  1  0.000000  0.001017  0.500004  1
  Pt  Pt7  1  0.331713  0.665208  0.999767  1
  Pt  Pt8  1  0.668286  0.333494  0.000232  1
  O  O9  1  0.089074  0.209912  0.713934  1
  O  O10  1  0.219007  0.455508  0.217492  1
  O  O11  1  0.125010  0.583590  0.780795  1
  O  O12  1  0.406432  0.535512  0.785573  1
  O  O13  1  0.232442  0.775445  0.213905  1
  O  O14  1  0.117593  0.913022  0.719347  1
  O  O15  1  0.542541  0.767699  0.213034  1
  O  O16  1  0.204450  0.088167  0.279517  1
  O  O17  1  0.462847  0.869806  0.784292  1
  O  O18  1  0.795552  0.883708  0.720503  1
  O  O19  1  0.457460  0.225148  0.786952  1
  O  O20  1  0.593556  0.129072  0.214412  1
  O  O21  1  0.537155  0.406960  0.215709  1
  O  O22  1  0.781011  0.236516  0.782503  1
  O  O23  1  0.910921  0.120832  0.286078  1
  O  O24  1  0.767549  0.543007  0.786094  1
  O  O25  1  0.874990  0.458576  0.219206  1
  O  O26  1  0.882414  0.795425  0.280670  1
