# generated using pymatgen
data_TbHoFe8Co4P7
_symmetry_space_group_name_H-M   'P 1'
_cell_length_a   8.96914318
_cell_length_b   8.96524319
_cell_length_c   3.61226800
_cell_angle_alpha   90.00000000
_cell_angle_beta   90.00000000
_cell_angle_gamma   119.91918779
_symmetry_Int_Tables_number   1
_chemical_formula_structural   TbHoFe8Co4P7
_chemical_formula_sum   'Tb1 Ho1 Fe8 Co4 P7'
_cell_volume   251.75418872
_cell_formula_units_Z   1
loop_
 _symmetry_equiv_pos_site_id
 _symmetry_equiv_pos_as_xyz
  1  'x, y, z'
loop_
 _atom_site_type_symbol
 _atom_site_label
 _atom_site_symmetry_multiplicity
 _atom_site_fract_x
 _atom_site_fract_y
 _atom_site_fract_z
 _atom_site_occupancy
  Tb  Tb0  1  0.000685  0.999489  0.000000  1
  Ho  Ho1  1  0.332647  0.666762  0.500000  1
  Fe  Fe2  1  0.098304  0.392838  0.000000  1
  Fe  Fe3  1  0.785796  0.178616  0.000000  1
  Fe  Fe4  1  0.393732  0.214980  0.000000  1
  Fe  Fe5  1  0.819313  0.605615  0.000000  1
  Fe  Fe6  1  0.052827  0.768146  0.500000  1
  Fe  Fe7  1  0.539613  0.104619  0.500000  1
  Fe  Fe8  1  0.565047  0.461068  0.500000  1
  Fe  Fe9  1  0.889014  0.432309  0.500000  1
  Co  Co10  1  0.296336  0.902553  0.000000  1
  Co  Co11  1  0.607200  0.706244  0.000000  1
  Co  Co12  1  0.717371  0.947579  0.500000  1
  Co  Co13  1  0.232075  0.283182  0.500000  1
  P  P14  1  0.555189  0.926425  0.000000  1
  P  P15  1  0.370008  0.445457  0.000000  1
  P  P16  1  0.073715  0.628944  0.000000  1
  P  P17  1  0.956572  0.224180  0.500000  1
  P  P18  1  0.265764  0.044435  0.500000  1
  P  P19  1  0.782246  0.733760  0.500000  1
  P  P20  1  0.666548  0.332797  0.000000  1
