# generated using pymatgen
data_ErAl7Cu5
_symmetry_space_group_name_H-M   'P 1'
_cell_length_a   5.13920156
_cell_length_b   6.64844491
_cell_length_c   6.64844603
_cell_angle_alpha   98.15900935
_cell_angle_beta   112.73668679
_cell_angle_gamma   67.26332130
_symmetry_Int_Tables_number   1
_chemical_formula_structural   ErAl7Cu5
_chemical_formula_sum   'Er1 Al7 Cu5'
_cell_volume   193.22128095
_cell_formula_units_Z   1
loop_
 _symmetry_equiv_pos_site_id
 _symmetry_equiv_pos_as_xyz
  1  'x, y, z'
loop_
 _atom_site_type_symbol
 _atom_site_label
 _atom_site_symmetry_multiplicity
 _atom_site_fract_x
 _atom_site_fract_y
 _atom_site_fract_z
 _atom_site_occupancy
  Er  Er0  1  0.998785  0.001215  0.998785  1
  Al  Al1  1  0.649442  0.350558  0.649442  1
  Al  Al2  1  0.343633  0.656367  0.343633  1
  Al  Al3  1  0.992821  0.354397  0.340039  1
  Al  Al4  1  0.992821  0.659961  0.645603  1
  Al  Al5  1  0.272956  0.227044  0.772956  1
  Al  Al6  1  0.507542  0.784827  0.799912  1
  Al  Al7  1  0.507542  0.200088  0.215173  1
  Cu  Cu8  1  0.499996  0.000863  0.504774  1
  Cu  Cu9  1  0.003914  0.000863  0.504774  1
  Cu  Cu10  1  0.499996  0.495226  0.999137  1
  Cu  Cu11  1  0.003914  0.495226  0.999137  1
  Cu  Cu12  1  0.726635  0.773365  0.226635  1
