# generated using pymatgen
data_NdCu3NiPt
_symmetry_space_group_name_H-M   'P 1'
_cell_length_a   5.22647936
_cell_length_b   5.22648010
_cell_length_c   4.11444600
_cell_angle_alpha   90.00000000
_cell_angle_beta   90.00000000
_cell_angle_gamma   123.60982036
_symmetry_Int_Tables_number   1
_chemical_formula_structural   NdCu3NiPt
_chemical_formula_sum   'Nd1 Cu3 Ni1 Pt1'
_cell_volume   93.60183868
_cell_formula_units_Z   1
loop_
 _symmetry_equiv_pos_site_id
 _symmetry_equiv_pos_as_xyz
  1  'x, y, z'
loop_
 _atom_site_type_symbol
 _atom_site_label
 _atom_site_symmetry_multiplicity
 _atom_site_fract_x
 _atom_site_fract_y
 _atom_site_fract_z
 _atom_site_occupancy
  Nd  Nd0  1  0.502638  0.497362  0.000000  1
  Cu  Cu1  1  0.180309  0.819691  0.000000  1
  Cu  Cu2  1  0.998057  0.500259  0.500000  1
  Cu  Cu3  1  0.499741  0.001943  0.500000  1
  Ni  Ni4  1  0.821590  0.178410  0.000000  1
  Pt  Pt5  1  0.997663  0.002337  0.500000  1
