# generated using pymatgen
data_Gd5In3O
_symmetry_space_group_name_H-M   'P 1'
_cell_length_a   9.21698380
_cell_length_b   9.21698452
_cell_length_c   9.21698400
_cell_angle_alpha   126.87066141
_cell_angle_beta   126.87066474
_cell_angle_gamma   78.46179149
_symmetry_Int_Tables_number   1
_chemical_formula_structural   Gd5In3O
_chemical_formula_sum   'Gd10 In6 O2'
_cell_volume   485.20402006
_cell_formula_units_Z   2
loop_
 _symmetry_equiv_pos_site_id
 _symmetry_equiv_pos_as_xyz
  1  'x, y, z'
loop_
 _atom_site_type_symbol
 _atom_site_label
 _atom_site_symmetry_multiplicity
 _atom_site_fract_x
 _atom_site_fract_y
 _atom_site_fract_z
 _atom_site_occupancy
  Gd  Gd0  1  0.500011  0.310398  0.500000  1
  Gd  Gd1  1  0.810398  0.000011  0.500000  1
  Gd  Gd2  1  0.000011  0.500011  0.189614  1
  Gd  Gd3  1  0.310398  0.810398  0.810386  1
  Gd  Gd4  1  0.502059  0.692552  0.500000  1
  Gd  Gd5  1  0.192552  0.002059  0.500000  1
  Gd  Gd6  1  0.002059  0.502059  0.809507  1
  Gd  Gd7  1  0.692552  0.192552  0.190493  1
  Gd  Gd8  1  0.500857  0.500857  0.000000  1
  Gd  Gd9  1  0.000857  0.000857  0.000000  1
  In  In10  1  0.134354  0.367585  0.500000  1
  In  In11  1  0.867585  0.634354  0.500000  1
  In  In12  1  0.634354  0.134354  0.766767  1
  In  In13  1  0.367585  0.867585  0.233233  1
  In  In14  1  0.752248  0.752248  0.000000  1
  In  In15  1  0.252248  0.252248  0.000000  1
  O  O16  1  0.751357  0.251357  0.500000  1
  O  O17  1  0.251357  0.751357  0.500000  1
