# generated using pymatgen
data_Pr4Nd2Al24NiRu6Pt
_symmetry_space_group_name_H-M   'P 1'
_cell_length_a   8.92263833
_cell_length_b   8.90754398
_cell_length_c   9.68988900
_cell_angle_alpha   90.03887668
_cell_angle_beta   90.01553335
_cell_angle_gamma   119.63670155
_symmetry_Int_Tables_number   1
_chemical_formula_structural   Pr4Nd2Al24NiRu6Pt
_chemical_formula_sum   'Pr4 Nd2 Al24 Ni1 Ru6 Pt1'
_cell_volume   669.38929324
_cell_formula_units_Z   1
loop_
 _symmetry_equiv_pos_site_id
 _symmetry_equiv_pos_as_xyz
  1  'x, y, z'
loop_
 _atom_site_type_symbol
 _atom_site_label
 _atom_site_symmetry_multiplicity
 _atom_site_fract_x
 _atom_site_fract_y
 _atom_site_fract_z
 _atom_site_occupancy
  Pr  Pr0  1  0.190368  0.384305  0.250918  1
  Pr  Pr1  1  0.809632  0.615695  0.749082  1
  Pr  Pr2  1  0.619550  0.810533  0.249779  1
  Pr  Pr3  1  0.380450  0.189467  0.750221  1
  Nd  Nd4  1  0.190057  0.808235  0.250200  1
  Nd  Nd5  1  0.809943  0.191765  0.749800  1
  Al  Al6  1  0.331288  0.671674  0.016054  1
  Al  Al7  1  0.668712  0.328326  0.983946  1
  Al  Al8  1  0.666700  0.331961  0.515877  1
  Al  Al9  1  0.333300  0.668039  0.484123  1
  Al  Al10  1  0.163087  0.327499  0.574694  1
  Al  Al11  1  0.836913  0.672501  0.425306  1
  Al  Al12  1  0.672640  0.837418  0.573857  1
  Al  Al13  1  0.841654  0.674740  0.075918  1
  Al  Al14  1  0.327360  0.162582  0.426143  1
  Al  Al15  1  0.158346  0.325260  0.924082  1
  Al  Al16  1  0.164042  0.837113  0.574845  1
  Al  Al17  1  0.325101  0.159562  0.076338  1
  Al  Al18  1  0.835958  0.162887  0.425155  1
  Al  Al19  1  0.674899  0.840438  0.923662  1
  Al  Al20  1  0.838477  0.165209  0.076144  1
  Al  Al21  1  0.161523  0.834791  0.923856  1
  Al  Al22  1  0.561100  0.123576  0.247416  1
  Al  Al23  1  0.438900  0.876424  0.752584  1
  Al  Al24  1  0.875402  0.439057  0.248692  1
  Al  Al25  1  0.124598  0.560943  0.751308  1
  Al  Al26  1  0.564063  0.436131  0.252675  1
  Al  Al27  1  0.435937  0.563869  0.747325  1
  Al  Al28  1  0.998780  0.000473  0.250431  1
  Al  Al29  1  0.001220  0.999527  0.749569  1
  Ni  Ni30  1  0.500000  0.000000  0.000000  1
  Ru  Ru31  1  0.000000  0.500000  0.000000  1
  Ru  Ru32  1  0.500000  0.000000  0.500000  1
  Ru  Ru33  1  0.000000  0.500000  0.500000  1
  Ru  Ru34  1  0.500000  0.500000  0.500000  1
  Ru  Ru35  1  0.000000  0.000000  0.000000  1
  Ru  Ru36  1  0.000000  0.000000  0.500000  1
  Pt  Pt37  1  0.500000  0.500000  0.000000  1
