# generated using pymatgen
data_La2Ti2Sb2O3
_symmetry_space_group_name_H-M   'P 1'
_cell_length_a   10.88679857
_cell_length_b   4.11151558
_cell_length_c   4.11151600
_cell_angle_alpha   90.00000000
_cell_angle_beta   100.88452736
_cell_angle_gamma   100.88452720
_symmetry_Int_Tables_number   1
_chemical_formula_structural   La2Ti2Sb2O3
_chemical_formula_sum   'La2 Ti2 Sb2 O3'
_cell_volume   177.35303482
_cell_formula_units_Z   1
loop_
 _symmetry_equiv_pos_site_id
 _symmetry_equiv_pos_as_xyz
  1  'x, y, z'
loop_
 _atom_site_type_symbol
 _atom_site_label
 _atom_site_symmetry_multiplicity
 _atom_site_fract_x
 _atom_site_fract_y
 _atom_site_fract_z
 _atom_site_occupancy
  La  La0  1  0.615619  0.307810  0.307810  1
  La  La1  1  0.384381  0.692190  0.692190  1
  Ti  Ti2  1  0.000000  0.499999  0.000000  1
  Ti  Ti3  1  0.000000  0.000000  0.499999  1
  Sb  Sb4  1  0.192788  0.096394  0.096394  1
  Sb  Sb5  1  0.807212  0.903606  0.903606  1
  O  O6  1  0.500000  0.750000  0.250000  1
  O  O7  1  0.500000  0.250000  0.750000  1
  O  O8  1  0.000000  0.499999  0.499999  1
