# generated using pymatgen
data_NaNdFeWO6
_symmetry_space_group_name_H-M   'P 1'
_cell_length_a   5.56000315
_cell_length_b   5.60571000
_cell_length_c   7.99699400
_cell_angle_alpha   90.00000000
_cell_angle_beta   90.25749166
_cell_angle_gamma   90.00000000
_symmetry_Int_Tables_number   1
_chemical_formula_structural   NaNdFeWO6
_chemical_formula_sum   'Na2 Nd2 Fe2 W2 O12'
_cell_volume   249.24591462
_cell_formula_units_Z   2
loop_
 _symmetry_equiv_pos_site_id
 _symmetry_equiv_pos_as_xyz
  1  'x, y, z'
loop_
 _atom_site_type_symbol
 _atom_site_label
 _atom_site_symmetry_multiplicity
 _atom_site_fract_x
 _atom_site_fract_y
 _atom_site_fract_z
 _atom_site_occupancy
  Na  Na0  1  0.752157  0.716033  0.001307  1
  Na  Na1  1  0.247730  0.215706  0.998654  1
  Nd  Nd2  1  0.740009  0.795841  0.497940  1
  Nd  Nd3  1  0.259959  0.295670  0.502077  1
  Fe  Fe4  1  0.750401  0.251083  0.241593  1
  Fe  Fe5  1  0.249417  0.750812  0.758432  1
  W  W6  1  0.242172  0.744523  0.237366  1
  W  W7  1  0.757787  0.244437  0.762634  1
  O  O8  1  0.333146  0.776606  0.015504  1
  O  O9  1  0.073396  0.447669  0.214603  1
  O  O10  1  0.955256  0.929958  0.220357  1
  O  O11  1  0.525546  0.538837  0.307275  1
  O  O12  1  0.446712  0.015915  0.311060  1
  O  O13  1  0.157234  0.717808  0.490279  1
  O  O14  1  0.842813  0.218242  0.509716  1
  O  O15  1  0.553270  0.516201  0.689169  1
  O  O16  1  0.474847  0.038842  0.692474  1
  O  O17  1  0.044736  0.429414  0.779903  1
  O  O18  1  0.926779  0.947311  0.785167  1
  O  O19  1  0.666632  0.275892  0.984493  1
