# generated using pymatgen
data_Pr6Zn23N
_symmetry_space_group_name_H-M   'P 1'
_cell_length_a   9.15274689
_cell_length_b   9.15274607
_cell_length_c   9.15274600
_cell_angle_alpha   59.99999303
_cell_angle_beta   59.99999599
_cell_angle_gamma   59.99999019
_symmetry_Int_Tables_number   1
_chemical_formula_structural   Pr6Zn23N
_chemical_formula_sum   'Pr6 Zn23 N1'
_cell_volume   542.17465327
_cell_formula_units_Z   1
loop_
 _symmetry_equiv_pos_site_id
 _symmetry_equiv_pos_as_xyz
  1  'x, y, z'
loop_
 _atom_site_type_symbol
 _atom_site_label
 _atom_site_symmetry_multiplicity
 _atom_site_fract_x
 _atom_site_fract_y
 _atom_site_fract_z
 _atom_site_occupancy
  Pr  Pr0  1  0.700337  0.299663  0.299663  1
  Pr  Pr1  1  0.299663  0.700337  0.700337  1
  Pr  Pr2  1  0.299663  0.700337  0.299663  1
  Pr  Pr3  1  0.700337  0.299663  0.700337  1
  Pr  Pr4  1  0.299663  0.299663  0.700337  1
  Pr  Pr5  1  0.700337  0.700337  0.299663  1
  Zn  Zn6  1  0.123595  0.123595  0.123595  1
  Zn  Zn7  1  0.876405  0.876405  0.876405  1
  Zn  Zn8  1  0.123595  0.123595  0.629219  1
  Zn  Zn9  1  0.123595  0.629219  0.123595  1
  Zn  Zn10  1  0.876405  0.876405  0.370781  1
  Zn  Zn11  1  0.876405  0.370781  0.876405  1
  Zn  Zn12  1  0.629219  0.123595  0.123595  1
  Zn  Zn13  1  0.370781  0.876405  0.876405  1
  Zn  Zn14  1  0.500000  0.000000  0.000000  1
  Zn  Zn15  1  0.000000  0.500000  0.500000  1
  Zn  Zn16  1  0.000000  0.500000  0.000000  1
  Zn  Zn17  1  0.500000  0.000000  0.500000  1
  Zn  Zn18  1  0.000000  0.000000  0.500000  1
  Zn  Zn19  1  0.500000  0.500000  0.000000  1
  Zn  Zn20  1  0.325661  0.325661  0.325661  1
  Zn  Zn21  1  0.674339  0.674339  0.674339  1
  Zn  Zn22  1  0.325661  0.325661  0.023018  1
  Zn  Zn23  1  0.325661  0.023018  0.325661  1
  Zn  Zn24  1  0.674339  0.674339  0.976982  1
  Zn  Zn25  1  0.674339  0.976982  0.674339  1
  Zn  Zn26  1  0.023018  0.325661  0.325661  1
  Zn  Zn27  1  0.976982  0.674339  0.674339  1
  Zn  Zn28  1  0.000000  0.000000  0.000000  1
  N  N29  1  0.500000  0.500000  0.500000  1
