# generated using pymatgen
data_Pr9Nd(Si2Pb)2
_symmetry_space_group_name_H-M   'P 1'
_cell_length_a   7.99988501
_cell_length_b   7.99988683
_cell_length_c   9.30736625
_cell_angle_alpha   115.45239983
_cell_angle_beta   115.45239655
_cell_angle_gamma   89.99999633
_symmetry_Int_Tables_number   1
_chemical_formula_structural   Pr9Nd(Si2Pb)2
_chemical_formula_sum   'Pr9 Nd1 Si4 Pb2'
_cell_volume   473.01522129
_cell_formula_units_Z   1
loop_
 _symmetry_equiv_pos_site_id
 _symmetry_equiv_pos_as_xyz
  1  'x, y, z'
loop_
 _atom_site_type_symbol
 _atom_site_label
 _atom_site_symmetry_multiplicity
 _atom_site_fract_x
 _atom_site_fract_y
 _atom_site_fract_z
 _atom_site_occupancy
  Pr  Pr0  1  0.500000  0.500000  0.000000  1
  Pr  Pr1  1  0.963598  0.812569  0.275865  1
  Pr  Pr2  1  0.312268  0.463296  0.275865  1
  Pr  Pr3  1  0.812569  0.312268  0.275865  1
  Pr  Pr4  1  0.463296  0.963598  0.275865  1
  Pr  Pr5  1  0.036402  0.187431  0.724135  1
  Pr  Pr6  1  0.687732  0.536704  0.724135  1
  Pr  Pr7  1  0.187431  0.687732  0.724135  1
  Pr  Pr8  1  0.536704  0.036402  0.724135  1
  Nd  Nd9  1  0.000000  0.000000  0.000000  1
  Si  Si10  1  0.618072  0.883127  0.000000  1
  Si  Si11  1  0.381928  0.116873  0.000000  1
  Si  Si12  1  0.883127  0.381928  0.000000  1
  Si  Si13  1  0.116873  0.618072  0.000000  1
  Pb  Pb14  1  0.750268  0.750268  0.500536  1
  Pb  Pb15  1  0.249732  0.249732  0.499464  1
