# generated using pymatgen
data_Y2Ni3B4Ir
_symmetry_space_group_name_H-M   'P 1'
_cell_length_a   5.01042377
_cell_length_b   5.04640556
_cell_length_c   7.06584914
_cell_angle_alpha   59.65782323
_cell_angle_beta   58.70192121
_cell_angle_gamma   63.73292864
_symmetry_Int_Tables_number   1
_chemical_formula_structural   Y2Ni3B4Ir
_chemical_formula_sum   'Y2 Ni3 B4 Ir1'
_cell_volume   127.75712016
_cell_formula_units_Z   1
loop_
 _symmetry_equiv_pos_site_id
 _symmetry_equiv_pos_as_xyz
  1  'x, y, z'
loop_
 _atom_site_type_symbol
 _atom_site_label
 _atom_site_symmetry_multiplicity
 _atom_site_fract_x
 _atom_site_fract_y
 _atom_site_fract_z
 _atom_site_occupancy
  Y  Y0  1  0.114796  0.883726  0.255382  1
  Y  Y1  1  0.878435  0.117534  0.753603  1
  Ni  Ni2  1  0.734733  0.523453  0.302550  1
  Ni  Ni3  1  0.534036  0.730190  0.790002  1
  Ni  Ni4  1  0.283048  0.467884  0.698058  1
  B  B5  1  0.155179  0.508229  0.010819  1
  B  B6  1  0.498599  0.835680  0.482143  1
  B  B7  1  0.844296  0.496388  0.971513  1
  B  B8  1  0.504317  0.154110  0.531517  1
  Ir  Ir9  1  0.452561  0.282806  0.204412  1
