# generated using pymatgen
data_TbY3Lu4(B6Ir)4
_symmetry_space_group_name_H-M   'P 1'
_cell_length_a   3.61582200
_cell_length_b   9.11848401
_cell_length_c   11.49244200
_cell_angle_alpha   90.00468943
_cell_angle_beta   90.00000000
_cell_angle_gamma   90.00000000
_symmetry_Int_Tables_number   1
_chemical_formula_structural   TbY3Lu4(B6Ir)4
_chemical_formula_sum   'Tb1 Y3 Lu4 B24 Ir4'
_cell_volume   378.91517913
_cell_formula_units_Z   1
loop_
 _symmetry_equiv_pos_site_id
 _symmetry_equiv_pos_as_xyz
  1  'x, y, z'
loop_
 _atom_site_type_symbol
 _atom_site_label
 _atom_site_symmetry_multiplicity
 _atom_site_fract_x
 _atom_site_fract_y
 _atom_site_fract_z
 _atom_site_occupancy
  Tb  Tb0  1  0.000000  0.321182  0.413445  1
  Y  Y1  1  0.000000  0.679093  0.586364  1
  Y  Y2  1  0.000000  0.820925  0.086326  1
  Y  Y3  1  0.000000  0.179034  0.913663  1
  Lu  Lu4  1  0.000000  0.944073  0.374458  1
  Lu  Lu5  1  0.000000  0.055910  0.625634  1
  Lu  Lu6  1  0.000000  0.444071  0.125508  1
  Lu  Lu7  1  0.000000  0.555944  0.874471  1
  B  B8  1  0.500000  0.554117  0.433493  1
  B  B9  1  0.500000  0.445963  0.566545  1
  B  B10  1  0.500000  0.054054  0.066383  1
  B  B11  1  0.500000  0.945950  0.933597  1
  B  B12  1  0.500000  0.751223  0.419947  1
  B  B13  1  0.500000  0.248735  0.580166  1
  B  B14  1  0.500000  0.251192  0.080028  1
  B  B15  1  0.500000  0.748786  0.919942  1
  B  B16  1  0.500000  0.793604  0.265287  1
  B  B17  1  0.500000  0.206385  0.734765  1
  B  B18  1  0.500000  0.293527  0.234567  1
  B  B19  1  0.500000  0.706392  0.765349  1
  B  B20  1  0.500000  0.630687  0.183334  1
  B  B21  1  0.500000  0.369349  0.816643  1
  B  B22  1  0.500000  0.130595  0.316613  1
  B  B23  1  0.500000  0.869323  0.683415  1
  B  B24  1  0.500000  0.981510  0.213921  1
  B  B25  1  0.500000  0.018441  0.786151  1
  B  B26  1  0.500000  0.481665  0.286015  1
  B  B27  1  0.500000  0.518502  0.713941  1
  B  B28  1  0.500000  0.605488  0.028676  1
  B  B29  1  0.500000  0.394542  0.971293  1
  B  B30  1  0.500000  0.105179  0.471397  1
  B  B31  1  0.500000  0.894553  0.528696  1
  Ir  Ir32  1  0.000000  0.639071  0.319690  1
  Ir  Ir33  1  0.000000  0.361055  0.680277  1
  Ir  Ir34  1  0.000000  0.138816  0.180207  1
  Ir  Ir35  1  0.000000  0.861062  0.819798  1
