# generated using pymatgen
data_Hf4MnBiPb
_symmetry_space_group_name_H-M   'P 1'
_cell_length_a   8.22462704
_cell_length_b   8.22462681
_cell_length_c   8.22462860
_cell_angle_alpha   96.21924936
_cell_angle_beta   96.24090165
_cell_angle_gamma   141.53218190
_symmetry_Int_Tables_number   1
_chemical_formula_structural   Hf4MnBiPb
_chemical_formula_sum   'Hf8 Mn2 Bi2 Pb2'
_cell_volume   326.77357493
_cell_formula_units_Z   2
loop_
 _symmetry_equiv_pos_site_id
 _symmetry_equiv_pos_as_xyz
  1  'x, y, z'
loop_
 _atom_site_type_symbol
 _atom_site_label
 _atom_site_symmetry_multiplicity
 _atom_site_fract_x
 _atom_site_fract_y
 _atom_site_fract_z
 _atom_site_occupancy
  Hf  Hf0  1  0.690978  0.579261  0.270236  1
  Hf  Hf1  1  0.308548  0.421131  0.729676  1
  Hf  Hf2  1  0.578564  0.307915  0.886478  1
  Hf  Hf3  1  0.079730  0.190604  0.270331  1
  Hf  Hf4  1  0.809025  0.079261  0.888282  1
  Hf  Hf5  1  0.420273  0.690604  0.110874  1
  Hf  Hf6  1  0.921437  0.807915  0.729351  1
  Hf  Hf7  1  0.191455  0.921131  0.112583  1
  Mn  Mn8  1  0.249997  0.250516  0.000519  1
  Mn  Mn9  1  0.749997  0.750516  0.000519  1
  Bi  Bi10  1  0.863586  0.363406  0.226994  1
  Bi  Bi11  1  0.636411  0.863406  0.499820  1
  Pb  Pb12  1  0.137017  0.637168  0.774186  1
  Pb  Pb13  1  0.362983  0.137168  0.500151  1
