# generated using pymatgen
data_MgZnInCu3
_symmetry_space_group_name_H-M   'P 1'
_cell_length_a   4.99821563
_cell_length_b   4.99821504
_cell_length_c   4.99821596
_cell_angle_alpha   60.91955591
_cell_angle_beta   60.91955836
_cell_angle_gamma   60.91955716
_symmetry_Int_Tables_number   1
_chemical_formula_structural   MgZnInCu3
_chemical_formula_sum   'Mg1 Zn1 In1 Cu3'
_cell_volume   90.12355973
_cell_formula_units_Z   1
loop_
 _symmetry_equiv_pos_site_id
 _symmetry_equiv_pos_as_xyz
  1  'x, y, z'
loop_
 _atom_site_type_symbol
 _atom_site_label
 _atom_site_symmetry_multiplicity
 _atom_site_fract_x
 _atom_site_fract_y
 _atom_site_fract_z
 _atom_site_occupancy
  Mg  Mg0  1  0.999119  0.999119  0.999119  1
  Zn  Zn1  1  0.374409  0.374409  0.374409  1
  In  In2  1  0.751048  0.751048  0.751048  1
  Cu  Cu3  1  0.875625  0.374900  0.374900  1
  Cu  Cu4  1  0.374900  0.875625  0.374900  1
  Cu  Cu5  1  0.374900  0.374900  0.875625  1
