# generated using pymatgen
data_Ta6Be6N
_symmetry_space_group_name_H-M   'P 1'
_cell_length_a   7.70657102
_cell_length_b   7.70657123
_cell_length_c   7.70657200
_cell_angle_alpha   59.99999671
_cell_angle_beta   59.99999581
_cell_angle_gamma   60.00000058
_symmetry_Int_Tables_number   1
_chemical_formula_structural   Ta6Be6N
_chemical_formula_sum   'Ta12 Be12 N2'
_cell_volume   323.64477640
_cell_formula_units_Z   2
loop_
 _symmetry_equiv_pos_site_id
 _symmetry_equiv_pos_as_xyz
  1  'x, y, z'
loop_
 _atom_site_type_symbol
 _atom_site_label
 _atom_site_symmetry_multiplicity
 _atom_site_fract_x
 _atom_site_fract_y
 _atom_site_fract_z
 _atom_site_occupancy
  Ta  Ta0  1  0.051160  0.051160  0.448840  1
  Ta  Ta1  1  0.448840  0.051160  0.448840  1
  Ta  Ta2  1  0.051160  0.448840  0.448840  1
  Ta  Ta3  1  0.448840  0.448840  0.051160  1
  Ta  Ta4  1  0.051160  0.448840  0.051160  1
  Ta  Ta5  1  0.448840  0.051160  0.051160  1
  Ta  Ta6  1  0.198840  0.198840  0.801160  1
  Ta  Ta7  1  0.801160  0.198840  0.801160  1
  Ta  Ta8  1  0.198840  0.801160  0.801160  1
  Ta  Ta9  1  0.801160  0.801160  0.198840  1
  Ta  Ta10  1  0.198840  0.801160  0.198840  1
  Ta  Ta11  1  0.801160  0.198840  0.198840  1
  Be  Be12  1  0.424130  0.424130  0.727613  1
  Be  Be13  1  0.424130  0.727613  0.424130  1
  Be  Be14  1  0.727613  0.424130  0.424130  1
  Be  Be15  1  0.424130  0.424130  0.424130  1
  Be  Be16  1  0.825870  0.825870  0.522387  1
  Be  Be17  1  0.825870  0.522387  0.825870  1
  Be  Be18  1  0.522387  0.825870  0.825870  1
  Be  Be19  1  0.825870  0.825870  0.825870  1
  Be  Be20  1  0.625000  0.625000  0.125000  1
  Be  Be21  1  0.625000  0.125000  0.625000  1
  Be  Be22  1  0.125000  0.625000  0.625000  1
  Be  Be23  1  0.625000  0.625000  0.625000  1
  N  N24  1  0.250000  0.250000  0.250000  1
  N  N25  1  0.000000  0.000000  0.000000  1
