# generated using pymatgen
data_GdDyB6Os
_symmetry_space_group_name_H-M   'P 1'
_cell_length_a   3.66724000
_cell_length_b   9.18677100
_cell_length_c   11.57560100
_cell_angle_alpha   90.00000000
_cell_angle_beta   90.00000000
_cell_angle_gamma   90.00000000
_symmetry_Int_Tables_number   1
_chemical_formula_structural   GdDyB6Os
_chemical_formula_sum   'Gd4 Dy4 B24 Os4'
_cell_volume   389.98308675
_cell_formula_units_Z   4
loop_
 _symmetry_equiv_pos_site_id
 _symmetry_equiv_pos_as_xyz
  1  'x, y, z'
loop_
 _atom_site_type_symbol
 _atom_site_label
 _atom_site_symmetry_multiplicity
 _atom_site_fract_x
 _atom_site_fract_y
 _atom_site_fract_z
 _atom_site_occupancy
  Gd  Gd0  1  0.000000  0.323341  0.413746  1
  Gd  Gd1  1  0.000000  0.676659  0.586254  1
  Gd  Gd2  1  0.000000  0.823341  0.086254  1
  Gd  Gd3  1  0.000000  0.176659  0.913746  1
  Dy  Dy4  1  0.000000  0.944184  0.373138  1
  Dy  Dy5  1  0.000000  0.055816  0.626862  1
  Dy  Dy6  1  0.000000  0.444184  0.126862  1
  Dy  Dy7  1  0.000000  0.555816  0.873138  1
  B  B8  1  0.500000  0.554389  0.432274  1
  B  B9  1  0.500000  0.445611  0.567726  1
  B  B10  1  0.500000  0.054389  0.067726  1
  B  B11  1  0.500000  0.945611  0.932274  1
  B  B12  1  0.500000  0.747591  0.419555  1
  B  B13  1  0.500000  0.252409  0.580445  1
  B  B14  1  0.500000  0.247591  0.080445  1
  B  B15  1  0.500000  0.752409  0.919555  1
  B  B16  1  0.500000  0.790782  0.267093  1
  B  B17  1  0.500000  0.209218  0.732907  1
  B  B18  1  0.500000  0.290782  0.232907  1
  B  B19  1  0.500000  0.709218  0.767093  1
  B  B20  1  0.500000  0.632259  0.185888  1
  B  B21  1  0.500000  0.367741  0.814112  1
  B  B22  1  0.500000  0.132259  0.314112  1
  B  B23  1  0.500000  0.867741  0.685888  1
  B  B24  1  0.500000  0.984507  0.213211  1
  B  B25  1  0.500000  0.015493  0.786789  1
  B  B26  1  0.500000  0.484507  0.286789  1
  B  B27  1  0.500000  0.515493  0.713211  1
  B  B28  1  0.500000  0.608691  0.030181  1
  B  B29  1  0.500000  0.391309  0.969819  1
  B  B30  1  0.500000  0.108690  0.469819  1
  B  B31  1  0.500000  0.891309  0.530181  1
  Os  Os32  1  0.000000  0.638097  0.321127  1
  Os  Os33  1  0.000000  0.361903  0.678873  1
  Os  Os34  1  0.000000  0.138097  0.178873  1
  Os  Os35  1  0.000000  0.861903  0.821127  1
