# generated using pymatgen
data_LuSb5O13
_symmetry_space_group_name_H-M   'P 1'
_cell_length_a   7.39575600
_cell_length_b   7.32337551
_cell_length_c   10.29815837
_cell_angle_alpha   88.84638580
_cell_angle_beta   90.00000000
_cell_angle_gamma   90.00000000
_symmetry_Int_Tables_number   1
_chemical_formula_structural   LuSb5O13
_chemical_formula_sum   'Lu2 Sb10 O26'
_cell_volume   557.65475339
_cell_formula_units_Z   2
loop_
 _symmetry_equiv_pos_site_id
 _symmetry_equiv_pos_as_xyz
  1  'x, y, z'
loop_
 _atom_site_type_symbol
 _atom_site_label
 _atom_site_symmetry_multiplicity
 _atom_site_fract_x
 _atom_site_fract_y
 _atom_site_fract_z
 _atom_site_occupancy
  Lu  Lu0  1  0.500000  0.500000  0.000000  1
  Lu  Lu1  1  0.000000  0.500000  0.000000  1
  Sb  Sb2  1  0.250000  0.726316  0.734878  1
  Sb  Sb3  1  0.750000  0.273684  0.265122  1
  Sb  Sb4  1  0.500000  0.000000  0.000000  1
  Sb  Sb5  1  0.750000  0.756166  0.749807  1
  Sb  Sb6  1  0.250000  0.747174  0.251082  1
  Sb  Sb7  1  0.500000  0.500000  0.500000  1
  Sb  Sb8  1  0.000000  0.500000  0.500000  1
  Sb  Sb9  1  0.750000  0.252826  0.748918  1
  Sb  Sb10  1  0.250000  0.243834  0.250193  1
  Sb  Sb11  1  0.000000  0.000000  0.000000  1
  O  O12  1  0.448197  0.690975  0.372082  1
  O  O13  1  0.750000  0.458671  0.121378  1
  O  O14  1  0.250000  0.493824  0.158214  1
  O  O15  1  0.454576  0.309204  0.365435  1
  O  O16  1  0.556270  0.218453  0.886206  1
  O  O17  1  0.943730  0.218453  0.886206  1
  O  O18  1  0.449672  0.210350  0.119815  1
  O  O19  1  0.750000  0.000246  0.072855  1
  O  O20  1  0.250000  0.999754  0.927145  1
  O  O21  1  0.750000  0.003615  0.686368  1
  O  O22  1  0.550328  0.789650  0.880185  1
  O  O23  1  0.949672  0.789650  0.880185  1
  O  O24  1  0.443730  0.781547  0.113794  1
  O  O25  1  0.051803  0.690975  0.372082  1
  O  O26  1  0.545424  0.690796  0.634565  1
  O  O27  1  0.954576  0.690796  0.634565  1
  O  O28  1  0.250000  0.517712  0.581803  1
  O  O29  1  0.750000  0.506176  0.841786  1
  O  O30  1  0.750000  0.482288  0.418197  1
  O  O31  1  0.045424  0.309204  0.365435  1
  O  O32  1  0.551803  0.309025  0.627918  1
  O  O33  1  0.948197  0.309025  0.627918  1
  O  O34  1  0.050328  0.210350  0.119815  1
  O  O35  1  0.250000  0.996385  0.313632  1
  O  O36  1  0.056270  0.781547  0.113794  1
  O  O37  1  0.250000  0.541329  0.878622  1
