# generated using pymatgen
data_Tm2Lu10Co8Se
_symmetry_space_group_name_H-M   'P 1'
_cell_length_a   11.22898413
_cell_length_b   11.23261510
_cell_length_c   3.98114669
_cell_angle_alpha   89.93303028
_cell_angle_beta   90.03103204
_cell_angle_gamma   120.03049009
_symmetry_Int_Tables_number   1
_chemical_formula_structural   Tm2Lu10Co8Se
_chemical_formula_sum   'Tm2 Lu10 Co8 Se1'
_cell_volume   434.73674119
_cell_formula_units_Z   1
loop_
 _symmetry_equiv_pos_site_id
 _symmetry_equiv_pos_as_xyz
  1  'x, y, z'
loop_
 _atom_site_type_symbol
 _atom_site_label
 _atom_site_symmetry_multiplicity
 _atom_site_fract_x
 _atom_site_fract_y
 _atom_site_fract_z
 _atom_site_occupancy
  Tm  Tm0  1  0.740044  0.975663  0.745817  1
  Tm  Tm1  1  0.235593  0.259898  0.745618  1
  Lu  Lu2  1  0.518325  0.381193  0.249805  1
  Lu  Lu3  1  0.863357  0.482401  0.249564  1
  Lu  Lu4  1  0.618616  0.137061  0.249940  1
  Lu  Lu5  1  0.482138  0.618750  0.751015  1
  Lu  Lu6  1  0.136655  0.518360  0.750823  1
  Lu  Lu7  1  0.381026  0.863238  0.750764  1
  Lu  Lu8  1  0.975653  0.237982  0.256069  1
  Lu  Lu9  1  0.261392  0.023502  0.255431  1
  Lu  Lu10  1  0.763160  0.737952  0.255775  1
  Lu  Lu11  1  0.024227  0.763403  0.744774  1
  Co  Co12  1  0.333037  0.666655  0.249730  1
  Co  Co13  1  0.666779  0.333540  0.750693  1
  Co  Co14  1  0.157542  0.720347  0.250416  1
  Co  Co15  1  0.561662  0.841831  0.251656  1
  Co  Co16  1  0.280202  0.438357  0.251455  1
  Co  Co17  1  0.842470  0.280144  0.750013  1
  Co  Co18  1  0.437499  0.157457  0.750014  1
  Co  Co19  1  0.720481  0.562718  0.749955  1
  Se  Se20  1  0.000142  0.999549  0.490672  1
