# generated using pymatgen
data_Nd4B2CI5
_symmetry_space_group_name_H-M   'P 1'
_cell_length_a   4.29191002
_cell_length_b   12.18546317
_cell_length_c   15.19867791
_cell_angle_alpha   92.18691572
_cell_angle_beta   98.11691827
_cell_angle_gamma   100.14312968
_symmetry_Int_Tables_number   1
_chemical_formula_structural   Nd4B2CI5
_chemical_formula_sum   'Nd8 B4 C2 I10'
_cell_volume   772.99087990
_cell_formula_units_Z   2
loop_
 _symmetry_equiv_pos_site_id
 _symmetry_equiv_pos_as_xyz
  1  'x, y, z'
loop_
 _atom_site_type_symbol
 _atom_site_label
 _atom_site_symmetry_multiplicity
 _atom_site_fract_x
 _atom_site_fract_y
 _atom_site_fract_z
 _atom_site_occupancy
  Nd  Nd0  1  0.972924  0.845704  0.100144  1
  Nd  Nd1  1  0.636826  0.143009  0.130643  1
  Nd  Nd2  1  0.550049  0.703752  0.396346  1
  Nd  Nd3  1  0.913368  0.418246  0.408491  1
  Nd  Nd4  1  0.086632  0.581754  0.591509  1
  Nd  Nd5  1  0.449951  0.296247  0.603654  1
  Nd  Nd6  1  0.363174  0.856990  0.869357  1
  Nd  Nd7  1  0.027076  0.154295  0.899856  1
  B  B8  1  0.317215  0.000000  0.000000  1
  B  B9  1  0.682784  0.000000  0.000000  1
  B  B10  1  0.052184  0.053740  0.050628  1
  B  B11  1  0.947816  0.946260  0.949372  1
  C  C12  1  0.512258  0.547384  0.477132  1
  C  C13  1  0.487742  0.452616  0.522868  1
  I  I14  1  0.339563  0.668761  0.010365  1
  I  I15  1  0.928994  0.604528  0.253461  1
  I  I16  1  0.592615  0.928879  0.256351  1
  I  I17  1  0.280806  0.296166  0.265447  1
  I  I18  1  0.824073  0.168013  0.480136  1
  I  I19  1  0.175926  0.831987  0.519864  1
  I  I20  1  0.719194  0.703834  0.734553  1
  I  I21  1  0.407385  0.071121  0.743649  1
  I  I22  1  0.071006  0.395472  0.746539  1
  I  I23  1  0.660436  0.331239  0.989635  1
