# generated using pymatgen
data_Y4Ga3Ge3Ir7
_symmetry_space_group_name_H-M   'P 1'
_cell_length_a   7.30744238
_cell_length_b   7.30744425
_cell_length_c   7.29180500
_cell_angle_alpha   109.42785869
_cell_angle_beta   109.42786385
_cell_angle_gamma   109.51454525
_symmetry_Int_Tables_number   1
_chemical_formula_structural   Y4Ga3Ge3Ir7
_chemical_formula_sum   'Y4 Ga3 Ge3 Ir7'
_cell_volume   299.89980394
_cell_formula_units_Z   1
loop_
 _symmetry_equiv_pos_site_id
 _symmetry_equiv_pos_as_xyz
  1  'x, y, z'
loop_
 _atom_site_type_symbol
 _atom_site_label
 _atom_site_symmetry_multiplicity
 _atom_site_fract_x
 _atom_site_fract_y
 _atom_site_fract_z
 _atom_site_occupancy
  Y  Y0  1  0.000000  0.000000  0.517351  1
  Y  Y1  1  0.000000  0.494293  0.000704  1
  Y  Y2  1  0.494293  0.000000  0.000704  1
  Y  Y3  1  0.505707  0.505707  0.506411  1
  Ga  Ga4  1  0.693979  0.693979  0.007299  1
  Ga  Ga5  1  0.306021  0.000000  0.313320  1
  Ga  Ga6  1  0.000000  0.306021  0.313320  1
  Ge  Ge7  1  0.328773  0.328773  0.007283  1
  Ge  Ge8  1  0.671227  0.000000  0.678510  1
  Ge  Ge9  1  0.000000  0.671227  0.678510  1
  Ir  Ir10  1  0.746040  0.246238  0.497227  1
  Ir  Ir11  1  0.753762  0.499802  0.250989  1
  Ir  Ir12  1  0.500198  0.253960  0.751188  1
  Ir  Ir13  1  0.253960  0.500198  0.751188  1
  Ir  Ir14  1  0.246238  0.746040  0.497227  1
  Ir  Ir15  1  0.499802  0.753762  0.250989  1
  Ir  Ir16  1  0.000000  0.000000  0.977779  1
