# generated using pymatgen
data_Ho2ErPa(InPd2)2
_symmetry_space_group_name_H-M   'P 1'
_cell_length_a   7.76891606
_cell_length_b   7.76891546
_cell_length_c   3.66117400
_cell_angle_alpha   90.00000000
_cell_angle_beta   90.00000000
_cell_angle_gamma   91.47573683
_symmetry_Int_Tables_number   1
_chemical_formula_structural   Ho2ErPa(InPd2)2
_chemical_formula_sum   'Ho2 Er1 Pa1 In2 Pd4'
_cell_volume   220.90071600
_cell_formula_units_Z   1
loop_
 _symmetry_equiv_pos_site_id
 _symmetry_equiv_pos_as_xyz
  1  'x, y, z'
loop_
 _atom_site_type_symbol
 _atom_site_label
 _atom_site_symmetry_multiplicity
 _atom_site_fract_x
 _atom_site_fract_y
 _atom_site_fract_z
 _atom_site_occupancy
  Ho  Ho0  1  0.825790  0.669099  0.500000  1
  Ho  Ho1  1  0.169099  0.325790  0.500000  1
  Er  Er2  1  0.675216  0.175216  0.500000  1
  Pa  Pa3  1  0.331153  0.831153  0.500000  1
  In  In4  1  0.995331  0.000292  0.000000  1
  In  In5  1  0.500292  0.495331  0.000000  1
  Pd  Pd6  1  0.368426  0.120375  0.000000  1
  Pd  Pd7  1  0.876196  0.376196  0.000000  1
  Pd  Pd8  1  0.138122  0.638122  0.000000  1
  Pd  Pd9  1  0.620375  0.868426  0.000000  1
