# generated using pymatgen
data_K2Cd(HgSe2)2
_symmetry_space_group_name_H-M   'P 1'
_cell_length_a   6.97068500
_cell_length_b   11.16959300
_cell_length_c   14.39508800
_cell_angle_alpha   90.00000000
_cell_angle_beta   90.00000000
_cell_angle_gamma   90.00000000
_symmetry_Int_Tables_number   1
_chemical_formula_structural   K2Cd(HgSe2)2
_chemical_formula_sum   'K8 Cd4 Hg8 Se16'
_cell_volume   1120.79744017
_cell_formula_units_Z   4
loop_
 _symmetry_equiv_pos_site_id
 _symmetry_equiv_pos_as_xyz
  1  'x, y, z'
loop_
 _atom_site_type_symbol
 _atom_site_label
 _atom_site_symmetry_multiplicity
 _atom_site_fract_x
 _atom_site_fract_y
 _atom_site_fract_z
 _atom_site_occupancy
  K  K0  1  0.728740  0.881107  0.501596  1
  K  K1  1  0.271260  0.118893  0.498404  1
  K  K2  1  0.771260  0.618893  0.001596  1
  K  K3  1  0.728740  0.118893  0.998404  1
  K  K4  1  0.228740  0.381107  0.998404  1
  K  K5  1  0.271260  0.881107  0.001596  1
  K  K6  1  0.771260  0.381107  0.498404  1
  K  K7  1  0.228740  0.618893  0.501596  1
  Cd  Cd8  1  0.588673  0.500000  0.750000  1
  Cd  Cd9  1  0.411327  0.500000  0.250000  1
  Cd  Cd10  1  0.911327  0.000000  0.250000  1
  Cd  Cd11  1  0.088673  0.000000  0.750000  1
  Hg  Hg12  1  0.588320  0.838394  0.758480  1
  Hg  Hg13  1  0.411680  0.161606  0.241520  1
  Hg  Hg14  1  0.911680  0.661606  0.258480  1
  Hg  Hg15  1  0.588320  0.161606  0.741520  1
  Hg  Hg16  1  0.088320  0.338394  0.741520  1
  Hg  Hg17  1  0.411680  0.838394  0.258480  1
  Hg  Hg18  1  0.911680  0.338394  0.241520  1
  Hg  Hg19  1  0.088320  0.661606  0.758480  1
  Se  Se20  1  0.823614  0.633622  0.639642  1
  Se  Se21  1  0.176386  0.366378  0.360358  1
  Se  Se22  1  0.676386  0.866378  0.139642  1
  Se  Se23  1  0.823614  0.366378  0.860358  1
  Se  Se24  1  0.323614  0.133622  0.860358  1
  Se  Se25  1  0.176386  0.633622  0.139642  1
  Se  Se26  1  0.676386  0.133622  0.360358  1
  Se  Se27  1  0.323614  0.866378  0.639642  1
  Se  Se28  1  0.867685  0.872716  0.869321  1
  Se  Se29  1  0.132315  0.127284  0.130679  1
  Se  Se30  1  0.632315  0.627284  0.369321  1
  Se  Se31  1  0.867685  0.127284  0.630679  1
  Se  Se32  1  0.367685  0.372716  0.630679  1
  Se  Se33  1  0.132315  0.872716  0.369321  1
  Se  Se34  1  0.632315  0.372716  0.130679  1
  Se  Se35  1  0.367685  0.627284  0.869321  1
