# generated using pymatgen
data_AcCuPH
_symmetry_space_group_name_H-M   'P 1'
_cell_length_a   4.06747400
_cell_length_b   4.06747400
_cell_length_c   8.38415700
_cell_angle_alpha   90.00000000
_cell_angle_beta   90.00000000
_cell_angle_gamma   90.00000000
_symmetry_Int_Tables_number   1
_chemical_formula_structural   AcCuPH
_chemical_formula_sum   'Ac2 Cu2 P2 H2'
_cell_volume   138.71038377
_cell_formula_units_Z   2
loop_
 _symmetry_equiv_pos_site_id
 _symmetry_equiv_pos_as_xyz
  1  'x, y, z'
loop_
 _atom_site_type_symbol
 _atom_site_label
 _atom_site_symmetry_multiplicity
 _atom_site_fract_x
 _atom_site_fract_y
 _atom_site_fract_z
 _atom_site_occupancy
  Ac  Ac0  1  0.500000  0.000000  0.188414  1
  Ac  Ac1  1  0.000000  0.500000  0.811586  1
  Cu  Cu2  1  0.000000  0.000000  0.500000  1
  Cu  Cu3  1  0.500000  0.500000  0.500000  1
  P  P4  1  0.000000  0.500000  0.336383  1
  P  P5  1  0.500000  0.000000  0.663617  1
  H  H6  1  0.500000  0.500000  0.000000  1
  H  H7  1  0.000000  0.000000  0.000000  1
