# generated using pymatgen
data_YCo2(PIr)3
_symmetry_space_group_name_H-M   'P 1'
_cell_length_a   3.87806300
_cell_length_b   10.59701700
_cell_length_c   12.22429000
_cell_angle_alpha   90.00000000
_cell_angle_beta   90.00000000
_cell_angle_gamma   90.00000000
_symmetry_Int_Tables_number   1
_chemical_formula_structural   YCo2(PIr)3
_chemical_formula_sum   'Y4 Co8 P12 Ir12'
_cell_volume   502.36819376
_cell_formula_units_Z   4
loop_
 _symmetry_equiv_pos_site_id
 _symmetry_equiv_pos_as_xyz
  1  'x, y, z'
loop_
 _atom_site_type_symbol
 _atom_site_label
 _atom_site_symmetry_multiplicity
 _atom_site_fract_x
 _atom_site_fract_y
 _atom_site_fract_z
 _atom_site_occupancy
  Y  Y0  1  0.250000  0.915649  0.210783  1
  Y  Y1  1  0.750000  0.084351  0.789217  1
  Y  Y2  1  0.750000  0.415649  0.289217  1
  Y  Y3  1  0.250000  0.584351  0.710783  1
  Co  Co4  1  0.250000  0.616678  0.197005  1
  Co  Co5  1  0.750000  0.383322  0.802995  1
  Co  Co6  1  0.750000  0.116678  0.302995  1
  Co  Co7  1  0.250000  0.883322  0.697005  1
  Co  Co8  1  0.250000  0.036146  0.433790  1
  Co  Co9  1  0.750000  0.963854  0.566210  1
  Co  Co10  1  0.750000  0.536146  0.066210  1
  Co  Co11  1  0.250000  0.463854  0.933790  1
  P  P12  1  0.250000  0.067377  0.610752  1
  P  P13  1  0.750000  0.932623  0.389248  1
  P  P14  1  0.750000  0.567377  0.889248  1
  P  P15  1  0.250000  0.432623  0.110752  1
  P  P16  1  0.250000  0.225378  0.370380  1
  P  P17  1  0.750000  0.774622  0.629620  1
  P  P18  1  0.750000  0.725378  0.129620  1
  P  P19  1  0.250000  0.274622  0.870380  1
  P  P20  1  0.250000  0.901846  0.877063  1
  P  P21  1  0.750000  0.098154  0.122937  1
  P  P22  1  0.750000  0.401846  0.622937  1
  P  P23  1  0.250000  0.598154  0.377063  1
  Ir  Ir24  1  0.250000  0.776600  0.490628  1
  Ir  Ir25  1  0.750000  0.223400  0.509372  1
  Ir  Ir26  1  0.750000  0.276600  0.009372  1
  Ir  Ir27  1  0.250000  0.723400  0.990628  1
  Ir  Ir28  1  0.250000  0.089706  0.976817  1
  Ir  Ir29  1  0.750000  0.910294  0.023183  1
  Ir  Ir30  1  0.750000  0.589706  0.523183  1
  Ir  Ir31  1  0.250000  0.410294  0.476817  1
  Ir  Ir32  1  0.250000  0.272370  0.678362  1
  Ir  Ir33  1  0.750000  0.727630  0.321638  1
  Ir  Ir34  1  0.750000  0.772370  0.821638  1
  Ir  Ir35  1  0.250000  0.227630  0.178362  1
