# generated using pymatgen
data_TbHoFe3Co9P7
_symmetry_space_group_name_H-M   'P 1'
_cell_length_a   3.61725000
_cell_length_b   8.99954066
_cell_length_c   9.00040802
_cell_angle_alpha   120.00384280
_cell_angle_beta   90.00000000
_cell_angle_gamma   90.00000000
_symmetry_Int_Tables_number   1
_chemical_formula_structural   TbHoFe3Co9P7
_chemical_formula_sum   'Tb1 Ho1 Fe3 Co9 P7'
_cell_volume   253.73178821
_cell_formula_units_Z   1
loop_
 _symmetry_equiv_pos_site_id
 _symmetry_equiv_pos_as_xyz
  1  'x, y, z'
loop_
 _atom_site_type_symbol
 _atom_site_label
 _atom_site_symmetry_multiplicity
 _atom_site_fract_x
 _atom_site_fract_y
 _atom_site_fract_z
 _atom_site_occupancy
  Tb  Tb0  1  0.000000  0.666582  0.333347  1
  Ho  Ho1  1  0.500000  0.333470  0.666675  1
  Fe  Fe2  1  0.500000  0.123131  0.906085  1
  Fe  Fe3  1  0.500000  0.093926  0.217092  1
  Fe  Fe4  1  0.500000  0.782955  0.876829  1
  Co  Co5  1  0.000000  0.371070  0.939694  1
  Co  Co6  1  0.000000  0.060343  0.431430  1
  Co  Co7  1  0.000000  0.568576  0.628850  1
  Co  Co8  1  0.000000  0.882687  0.725931  1
  Co  Co9  1  0.000000  0.274017  0.156726  1
  Co  Co10  1  0.000000  0.843319  0.117360  1
  Co  Co11  1  0.500000  0.951031  0.566625  1
  Co  Co12  1  0.500000  0.433358  0.384390  1
  Co  Co13  1  0.500000  0.615584  0.048990  1
  P  P14  1  0.000000  0.113076  0.703543  1
  P  P15  1  0.000000  0.296542  0.409512  1
  P  P16  1  0.000000  0.590469  0.886976  1
  P  P17  1  0.500000  0.709913  0.598627  1
  P  P18  1  0.500000  0.401324  0.111298  1
  P  P19  1  0.500000  0.888684  0.290056  1
  P  P20  1  0.000000  0.999944  0.999962  1
