# generated using pymatgen
data_SrTm(Al5Ru)4
_symmetry_space_group_name_H-M   'P 1'
_cell_length_a   6.88976025
_cell_length_b   6.88975937
_cell_length_c   9.17482100
_cell_angle_alpha   90.00000000
_cell_angle_beta   90.00000000
_cell_angle_gamma   96.79787392
_symmetry_Int_Tables_number   1
_chemical_formula_structural   SrTm(Al5Ru)4
_chemical_formula_sum   'Sr1 Tm1 Al20 Ru4'
_cell_volume   432.45592113
_cell_formula_units_Z   1
loop_
 _symmetry_equiv_pos_site_id
 _symmetry_equiv_pos_as_xyz
  1  'x, y, z'
loop_
 _atom_site_type_symbol
 _atom_site_label
 _atom_site_symmetry_multiplicity
 _atom_site_fract_x
 _atom_site_fract_y
 _atom_site_fract_z
 _atom_site_occupancy
  Sr  Sr0  1  0.876891  0.123109  0.750000  1
  Tm  Tm1  1  0.126957  0.873043  0.250000  1
  Al  Al2  1  0.622737  0.377263  0.539893  1
  Al  Al3  1  0.376281  0.623719  0.447222  1
  Al  Al4  1  0.376281  0.623719  0.052778  1
  Al  Al5  1  0.622737  0.377263  0.960107  1
  Al  Al6  1  0.226021  0.226701  0.496759  1
  Al  Al7  1  0.773299  0.773979  0.496759  1
  Al  Al8  1  0.773299  0.773979  0.003241  1
  Al  Al9  1  0.226021  0.226701  0.003241  1
  Al  Al10  1  0.846126  0.153874  0.100996  1
  Al  Al11  1  0.161235  0.838765  0.901694  1
  Al  Al12  1  0.161235  0.838765  0.598306  1
  Al  Al13  1  0.846126  0.153874  0.399004  1
  Al  Al14  1  0.859549  0.591330  0.750000  1
  Al  Al15  1  0.139894  0.416515  0.250000  1
  Al  Al16  1  0.408670  0.140451  0.750000  1
  Al  Al17  1  0.583485  0.860106  0.250000  1
  Al  Al18  1  0.221415  0.479614  0.750000  1
  Al  Al19  1  0.780371  0.522226  0.250000  1
  Al  Al20  1  0.520386  0.778585  0.750000  1
  Al  Al21  1  0.477774  0.219629  0.250000  1
  Ru  Ru22  1  0.999788  0.503183  0.497451  1
  Ru  Ru23  1  0.999788  0.503183  0.002549  1
  Ru  Ru24  1  0.496817  0.000212  0.002549  1
  Ru  Ru25  1  0.496817  0.000212  0.497451  1
