# generated using pymatgen
data_Er3Pa(InPd2)2
_symmetry_space_group_name_H-M   'P 1'
_cell_length_a   7.72954188
_cell_length_b   7.72954188
_cell_length_c   3.67231300
_cell_angle_alpha   90.00000000
_cell_angle_beta   90.00000000
_cell_angle_gamma   91.46176903
_symmetry_Int_Tables_number   1
_chemical_formula_structural   Er3Pa(InPd2)2
_chemical_formula_sum   'Er3 Pa1 In2 Pd4'
_cell_volume   219.33394187
_cell_formula_units_Z   1
loop_
 _symmetry_equiv_pos_site_id
 _symmetry_equiv_pos_as_xyz
  1  'x, y, z'
loop_
 _atom_site_type_symbol
 _atom_site_label
 _atom_site_symmetry_multiplicity
 _atom_site_fract_x
 _atom_site_fract_y
 _atom_site_fract_z
 _atom_site_occupancy
  Er  Er0  1  0.825577  0.671257  0.500000  1
  Er  Er1  1  0.171257  0.325577  0.500000  1
  Er  Er2  1  0.674477  0.174477  0.500000  1
  Pa  Pa3  1  0.329299  0.829299  0.500000  1
  In  In4  1  0.997425  0.000535  0.000000  1
  In  In5  1  0.500535  0.497425  0.000000  1
  Pd  Pd6  1  0.370423  0.123738  0.000000  1
  Pd  Pd7  1  0.873466  0.373466  0.000000  1
  Pd  Pd8  1  0.133803  0.633803  0.000000  1
  Pd  Pd9  1  0.623738  0.870423  0.000000  1
