# generated using pymatgen
data_RbHo(NbCl3)6
_symmetry_space_group_name_H-M   'P 1'
_cell_length_a   10.22531785
_cell_length_b   10.22531753
_cell_length_c   10.22531767
_cell_angle_alpha   55.30889836
_cell_angle_beta   55.30889895
_cell_angle_gamma   55.30889895
_symmetry_Int_Tables_number   1
_chemical_formula_structural   RbHo(NbCl3)6
_chemical_formula_sum   'Rb1 Ho1 Nb6 Cl18'
_cell_volume   673.58029465
_cell_formula_units_Z   1
loop_
 _symmetry_equiv_pos_site_id
 _symmetry_equiv_pos_as_xyz
  1  'x, y, z'
loop_
 _atom_site_type_symbol
 _atom_site_label
 _atom_site_symmetry_multiplicity
 _atom_site_fract_x
 _atom_site_fract_y
 _atom_site_fract_z
 _atom_site_occupancy
  Rb  Rb0  1  0.221970  0.221970  0.221970  1
  Ho  Ho1  1  0.498378  0.498378  0.498378  1
  Nb  Nb2  1  0.800108  0.149602  0.912174  1
  Nb  Nb3  1  0.912174  0.800108  0.149602  1
  Nb  Nb4  1  0.149602  0.912174  0.800108  1
  Nb  Nb5  1  0.201293  0.850734  0.086594  1
  Nb  Nb6  1  0.086594  0.201293  0.850734  1
  Nb  Nb7  1  0.850734  0.086594  0.201293  1
  Cl  Cl8  1  0.863133  0.413759  0.725935  1
  Cl  Cl9  1  0.725935  0.863133  0.413759  1
  Cl  Cl10  1  0.413759  0.725935  0.863133  1
  Cl  Cl11  1  0.136253  0.586072  0.275862  1
  Cl  Cl12  1  0.275862  0.136253  0.586072  1
  Cl  Cl13  1  0.586072  0.275862  0.136253  1
  Cl  Cl14  1  0.532477  0.343374  0.802050  1
  Cl  Cl15  1  0.802050  0.532477  0.343374  1
  Cl  Cl16  1  0.343374  0.802050  0.532477  1
  Cl  Cl17  1  0.464511  0.658382  0.199757  1
  Cl  Cl18  1  0.199757  0.464511  0.658382  1
  Cl  Cl19  1  0.658382  0.199757  0.464511  1
  Cl  Cl20  1  0.661572  0.939088  0.071789  1
  Cl  Cl21  1  0.071789  0.661572  0.939088  1
  Cl  Cl22  1  0.939088  0.071789  0.661572  1
  Cl  Cl23  1  0.340374  0.060643  0.925256  1
  Cl  Cl24  1  0.925256  0.340374  0.060643  1
  Cl  Cl25  1  0.060643  0.925256  0.340374  1
