# generated using pymatgen
data_Ac4Al14NiHg
_symmetry_space_group_name_H-M   'P 1'
_cell_length_a   6.33624793
_cell_length_b   6.34113069
_cell_length_c   11.92976563
_cell_angle_alpha   74.58732613
_cell_angle_beta   74.59948732
_cell_angle_gamma   89.99999998
_symmetry_Int_Tables_number   1
_chemical_formula_structural   Ac4Al14NiHg
_chemical_formula_sum   'Ac4 Al14 Ni1 Hg1'
_cell_volume   444.20906563
_cell_formula_units_Z   1
loop_
 _symmetry_equiv_pos_site_id
 _symmetry_equiv_pos_as_xyz
  1  'x, y, z'
loop_
 _atom_site_type_symbol
 _atom_site_label
 _atom_site_symmetry_multiplicity
 _atom_site_fract_x
 _atom_site_fract_y
 _atom_site_fract_z
 _atom_site_occupancy
  Ac  Ac0  1  0.002659  0.002659  0.994683  1
  Ac  Ac1  1  0.501312  0.501312  0.997375  1
  Ac  Ac2  1  0.750108  0.250108  0.499785  1
  Ac  Ac3  1  0.244530  0.744530  0.510942  1
  Al  Al4  1  0.188623  0.188623  0.622755  1
  Al  Al5  1  0.808513  0.808513  0.382974  1
  Al  Al6  1  0.624043  0.113646  0.243716  1
  Al  Al7  1  0.132240  0.642637  0.243716  1
  Al  Al8  1  0.624043  0.642637  0.243716  1
  Al  Al9  1  0.132240  0.113646  0.243716  1
  Al  Al10  1  0.850353  0.350855  0.758420  1
  Al  Al11  1  0.391227  0.890723  0.758420  1
  Al  Al12  1  0.850353  0.890723  0.758420  1
  Al  Al13  1  0.391227  0.350855  0.758420  1
  Al  Al14  1  0.689885  0.689885  0.620231  1
  Al  Al15  1  0.063831  0.563831  0.872337  1
  Al  Al16  1  0.454496  0.954496  0.091008  1
  Al  Al17  1  0.942594  0.442594  0.114811  1
  Ni  Ni18  1  0.562943  0.062943  0.874115  1
  Hg  Hg19  1  0.309612  0.309612  0.380777  1
