# generated using pymatgen
data_Ta3BeRe3Ge2
_symmetry_space_group_name_H-M   'P 1'
_cell_length_a   6.77283500
_cell_length_b   6.77283547
_cell_length_c   3.34473000
_cell_angle_alpha   90.00000000
_cell_angle_beta   90.00000000
_cell_angle_gamma   119.99999281
_symmetry_Int_Tables_number   1
_chemical_formula_structural   Ta3BeRe3Ge2
_chemical_formula_sum   'Ta3 Be1 Re3 Ge2'
_cell_volume   132.87177904
_cell_formula_units_Z   1
loop_
 _symmetry_equiv_pos_site_id
 _symmetry_equiv_pos_as_xyz
  1  'x, y, z'
loop_
 _atom_site_type_symbol
 _atom_site_label
 _atom_site_symmetry_multiplicity
 _atom_site_fract_x
 _atom_site_fract_y
 _atom_site_fract_z
 _atom_site_occupancy
  Ta  Ta0  1  0.000000  0.389787  0.500000  1
  Ta  Ta1  1  0.610213  0.610213  0.500000  1
  Ta  Ta2  1  0.389787  0.000000  0.500000  1
  Be  Be3  1  0.000000  0.000000  0.500000  1
  Re  Re4  1  0.000000  0.755212  0.000000  1
  Re  Re5  1  0.244788  0.244788  0.000000  1
  Re  Re6  1  0.755212  0.000000  0.000000  1
  Ge  Ge7  1  0.333333  0.666667  0.000000  1
  Ge  Ge8  1  0.666667  0.333333  0.000000  1
