# generated using pymatgen
data_Ti10Sn6GeAs
_symmetry_space_group_name_H-M   'P 1'
_cell_length_a   8.25948400
_cell_length_b   8.25948366
_cell_length_c   5.60734100
_cell_angle_alpha   90.00000000
_cell_angle_beta   90.00000000
_cell_angle_gamma   120.00000936
_symmetry_Int_Tables_number   1
_chemical_formula_structural   Ti10Sn6GeAs
_chemical_formula_sum   'Ti10 Sn6 Ge1 As1'
_cell_volume   331.27859315
_cell_formula_units_Z   1
loop_
 _symmetry_equiv_pos_site_id
 _symmetry_equiv_pos_as_xyz
  1  'x, y, z'
loop_
 _atom_site_type_symbol
 _atom_site_label
 _atom_site_symmetry_multiplicity
 _atom_site_fract_x
 _atom_site_fract_y
 _atom_site_fract_z
 _atom_site_occupancy
  Ti  Ti0  1  0.263036  0.000000  0.747404  1
  Ti  Ti1  1  0.736964  0.000000  0.252596  1
  Ti  Ti2  1  0.000000  0.263036  0.747404  1
  Ti  Ti3  1  0.000000  0.736964  0.252596  1
  Ti  Ti4  1  0.736964  0.736964  0.747404  1
  Ti  Ti5  1  0.263036  0.263036  0.252596  1
  Ti  Ti6  1  0.333333  0.666667  0.500000  1
  Ti  Ti7  1  0.666667  0.333333  0.500000  1
  Ti  Ti8  1  0.666667  0.333333  0.000000  1
  Ti  Ti9  1  0.333333  0.666667  0.000000  1
  Sn  Sn10  1  0.605828  0.000000  0.752303  1
  Sn  Sn11  1  0.394172  0.000000  0.247697  1
  Sn  Sn12  1  0.000000  0.605828  0.752303  1
  Sn  Sn13  1  0.000000  0.394172  0.247697  1
  Sn  Sn14  1  0.394172  0.394172  0.752303  1
  Sn  Sn15  1  0.605828  0.605828  0.247697  1
  Ge  Ge16  1  0.000000  0.000000  0.000000  1
  As  As17  1  0.000000  0.000000  0.500000  1
