# generated using pymatgen
data_AcPm(NiP)2
_symmetry_space_group_name_H-M   'P 1'
_cell_length_a   5.78514328
_cell_length_b   5.78514257
_cell_length_c   5.78514300
_cell_angle_alpha   138.90583591
_cell_angle_beta   104.71012602
_cell_angle_gamma   89.56687418
_symmetry_Int_Tables_number   1
_chemical_formula_structural   AcPm(NiP)2
_chemical_formula_sum   'Ac1 Pm1 Ni2 P2'
_cell_volume   117.83554928
_cell_formula_units_Z   1
loop_
 _symmetry_equiv_pos_site_id
 _symmetry_equiv_pos_as_xyz
  1  'x, y, z'
loop_
 _atom_site_type_symbol
 _atom_site_label
 _atom_site_symmetry_multiplicity
 _atom_site_fract_x
 _atom_site_fract_y
 _atom_site_fract_z
 _atom_site_occupancy
  Ac  Ac0  1  0.495123  0.500000  0.995123  1
  Pm  Pm1  1  0.998493  0.000000  0.998493  1
  Ni  Ni2  1  0.919928  0.252569  0.667359  1
  Ni  Ni3  1  0.414789  0.747430  0.667358  1
  P  P4  1  0.596014  0.260182  0.335833  1
  P  P5  1  0.075651  0.739817  0.335833  1
