# generated using pymatgen
data_Ho8Si16TcW11
_symmetry_space_group_name_H-M   'P 1'
_cell_length_a   6.86434552
_cell_length_b   6.86434518
_cell_length_c   12.74029604
_cell_angle_alpha   90.01955591
_cell_angle_beta   89.98044711
_cell_angle_gamma   89.75653232
_symmetry_Int_Tables_number   1
_chemical_formula_structural   Ho8Si16TcW11
_chemical_formula_sum   'Ho8 Si16 Tc1 W11'
_cell_volume   600.30753928
_cell_formula_units_Z   1
loop_
 _symmetry_equiv_pos_site_id
 _symmetry_equiv_pos_as_xyz
  1  'x, y, z'
loop_
 _atom_site_type_symbol
 _atom_site_label
 _atom_site_symmetry_multiplicity
 _atom_site_fract_x
 _atom_site_fract_y
 _atom_site_fract_z
 _atom_site_occupancy
  Ho  Ho0  1  0.338277  0.997301  0.468793  1
  Ho  Ho1  1  0.501916  0.837136  0.718649  1
  Ho  Ho2  1  0.498541  0.162354  0.219916  1
  Ho  Ho3  1  0.837136  0.501916  0.281351  1
  Ho  Ho4  1  0.162354  0.498541  0.780084  1
  Ho  Ho5  1  0.662646  0.002128  0.969104  1
  Ho  Ho6  1  0.997301  0.338277  0.531207  1
  Ho  Ho7  1  0.002128  0.662646  0.030896  1
  Si  Si8  1  0.202711  0.126252  0.683359  1
  Si  Si9  1  0.374178  0.701700  0.933378  1
  Si  Si10  1  0.623908  0.302660  0.435100  1
  Si  Si11  1  0.701700  0.374178  0.066622  1
  Si  Si12  1  0.302660  0.623908  0.564900  1
  Si  Si13  1  0.796526  0.873280  0.184040  1
  Si  Si14  1  0.126252  0.202711  0.316641  1
  Si  Si15  1  0.873280  0.796526  0.815960  1
  Si  Si16  1  0.288573  0.964586  0.063866  1
  Si  Si17  1  0.538636  0.787755  0.316618  1
  Si  Si18  1  0.462814  0.209530  0.814618  1
  Si  Si19  1  0.787755  0.538636  0.683382  1
  Si  Si20  1  0.209530  0.462814  0.185382  1
  Si  Si21  1  0.714235  0.032692  0.561974  1
  Si  Si22  1  0.964586  0.288573  0.936134  1
  Si  Si23  1  0.032692  0.714235  0.438026  1
  Tc  Tc24  1  0.668018  0.668018  0.500000  1
  W  W25  1  0.333220  0.333220  0.000000  1
  W  W26  1  0.166965  0.833398  0.250409  1
  W  W27  1  0.833398  0.166965  0.749591  1
  W  W28  1  0.162906  0.998144  0.873221  1
  W  W29  1  0.499857  0.665116  0.125180  1
  W  W30  1  0.499186  0.330958  0.625372  1
  W  W31  1  0.665116  0.499857  0.874820  1
  W  W32  1  0.330958  0.499186  0.374628  1
  W  W33  1  0.835920  0.005974  0.372049  1
  W  W34  1  0.998144  0.162906  0.126779  1
  W  W35  1  0.005974  0.835920  0.627951  1
