# generated using pymatgen
data_CeHf(NiAs)2
_symmetry_space_group_name_H-M   'P 1'
_cell_length_a   4.00605200
_cell_length_b   4.00605267
_cell_length_c   15.07821300
_cell_angle_alpha   90.00000000
_cell_angle_beta   90.00000000
_cell_angle_gamma   120.00001096
_symmetry_Int_Tables_number   1
_chemical_formula_structural   CeHf(NiAs)2
_chemical_formula_sum   'Ce2 Hf2 Ni4 As4'
_cell_volume   209.56256005
_cell_formula_units_Z   2
loop_
 _symmetry_equiv_pos_site_id
 _symmetry_equiv_pos_as_xyz
  1  'x, y, z'
loop_
 _atom_site_type_symbol
 _atom_site_label
 _atom_site_symmetry_multiplicity
 _atom_site_fract_x
 _atom_site_fract_y
 _atom_site_fract_z
 _atom_site_occupancy
  Ce  Ce0  1  0.000000  0.000000  0.000000  1
  Ce  Ce1  1  0.000000  0.000000  0.500000  1
  Hf  Hf2  1  0.000000  0.000000  0.250000  1
  Hf  Hf3  1  0.000000  0.000000  0.750000  1
  Ni  Ni4  1  0.333333  0.666667  0.162038  1
  Ni  Ni5  1  0.666667  0.333333  0.837962  1
  Ni  Ni6  1  0.666667  0.333333  0.662038  1
  Ni  Ni7  1  0.333333  0.666667  0.337962  1
  As  As8  1  0.333333  0.666667  0.623540  1
  As  As9  1  0.666667  0.333333  0.376460  1
  As  As10  1  0.666667  0.333333  0.123540  1
  As  As11  1  0.333333  0.666667  0.876460  1
