# generated using pymatgen
data_Yb5Th(PaH12)2
_symmetry_space_group_name_H-M   'P 1'
_cell_length_a   6.69487600
_cell_length_b   6.77541300
_cell_length_c   6.69487600
_cell_angle_alpha   90.00000000
_cell_angle_beta   90.00000000
_cell_angle_gamma   90.00000000
_symmetry_Int_Tables_number   1
_chemical_formula_structural   Yb5Th(PaH12)2
_chemical_formula_sum   'Yb5 Th1 Pa2 H24'
_cell_volume   303.68325676
_cell_formula_units_Z   1
loop_
 _symmetry_equiv_pos_site_id
 _symmetry_equiv_pos_as_xyz
  1  'x, y, z'
loop_
 _atom_site_type_symbol
 _atom_site_label
 _atom_site_symmetry_multiplicity
 _atom_site_fract_x
 _atom_site_fract_y
 _atom_site_fract_z
 _atom_site_occupancy
  Yb  Yb0  1  0.246344  0.996053  0.500000  1
  Yb  Yb1  1  0.753656  0.996053  0.500000  1
  Yb  Yb2  1  0.000000  0.503947  0.253656  1
  Yb  Yb3  1  0.000000  0.503947  0.746344  1
  Yb  Yb4  1  0.500000  0.750000  0.000000  1
  Th  Th5  1  0.500000  0.250000  0.000000  1
  Pa  Pa6  1  0.000000  0.997302  0.000000  1
  Pa  Pa7  1  0.500000  0.502698  0.500000  1
  H  H8  1  0.000000  0.149837  0.285132  1
  H  H9  1  0.500000  0.213436  0.654477  1
  H  H10  1  0.500000  0.786246  0.348993  1
  H  H11  1  0.788362  0.651115  0.500000  1
  H  H12  1  0.211638  0.651115  0.500000  1
  H  H13  1  0.349749  0.493464  0.798779  1
  H  H14  1  0.650251  0.493464  0.798779  1
  H  H15  1  0.298779  0.006536  0.150251  1
  H  H16  1  0.154477  0.286564  0.000000  1
  H  H17  1  0.848993  0.713754  0.000000  1
  H  H18  1  0.298779  0.006536  0.849749  1
  H  H19  1  0.845523  0.286564  0.000000  1
  H  H20  1  0.701221  0.006536  0.150251  1
  H  H21  1  0.701221  0.006536  0.849749  1
  H  H22  1  0.151007  0.713754  0.000000  1
  H  H23  1  0.000000  0.848885  0.711638  1
  H  H24  1  0.000000  0.149837  0.714868  1
  H  H25  1  0.000000  0.848885  0.288362  1
  H  H26  1  0.650251  0.493464  0.201221  1
  H  H27  1  0.349749  0.493464  0.201221  1
  H  H28  1  0.785132  0.350163  0.500000  1
  H  H29  1  0.214868  0.350163  0.500000  1
  H  H30  1  0.500000  0.786246  0.651007  1
  H  H31  1  0.500000  0.213436  0.345523  1
