# generated using pymatgen
data_HfTcN
_symmetry_space_group_name_H-M   'P 1'
_cell_length_a   3.12916300
_cell_length_b   3.12916300
_cell_length_c   7.83979400
_cell_angle_alpha   90.00000000
_cell_angle_beta   90.00000000
_cell_angle_gamma   90.00000000
_symmetry_Int_Tables_number   1
_chemical_formula_structural   HfTcN
_chemical_formula_sum   'Hf2 Tc2 N2'
_cell_volume   76.76460579
_cell_formula_units_Z   2
loop_
 _symmetry_equiv_pos_site_id
 _symmetry_equiv_pos_as_xyz
  1  'x, y, z'
loop_
 _atom_site_type_symbol
 _atom_site_label
 _atom_site_symmetry_multiplicity
 _atom_site_fract_x
 _atom_site_fract_y
 _atom_site_fract_z
 _atom_site_occupancy
  Hf  Hf0  1  0.000000  0.500000  0.659357  1
  Hf  Hf1  1  0.500000  0.000000  0.340643  1
  Tc  Tc2  1  0.500000  0.000000  0.906606  1
  Tc  Tc3  1  0.000000  0.500000  0.093394  1
  N  N4  1  0.000000  0.500000  0.369211  1
  N  N5  1  0.500000  0.000000  0.630789  1
