# generated using pymatgen
data_CeDy2Co2Sn3Rh
_symmetry_space_group_name_H-M   'P 1'
_cell_length_a   7.50993974
_cell_length_b   7.41207389
_cell_length_c   3.84353200
_cell_angle_alpha   90.00000000
_cell_angle_beta   90.00000000
_cell_angle_gamma   120.59505320
_symmetry_Int_Tables_number   1
_chemical_formula_structural   CeDy2Co2Sn3Rh
_chemical_formula_sum   'Ce1 Dy2 Co2 Sn3 Rh1'
_cell_volume   184.16278544
_cell_formula_units_Z   1
loop_
 _symmetry_equiv_pos_site_id
 _symmetry_equiv_pos_as_xyz
  1  'x, y, z'
loop_
 _atom_site_type_symbol
 _atom_site_label
 _atom_site_symmetry_multiplicity
 _atom_site_fract_x
 _atom_site_fract_y
 _atom_site_fract_z
 _atom_site_occupancy
  Ce  Ce0  1  0.418392  0.008292  0.000000  1
  Dy  Dy1  1  0.998399  0.406327  0.000000  1
  Dy  Dy2  1  0.593844  0.592226  0.000000  1
  Co  Co3  1  0.645832  0.309243  0.500000  1
  Co  Co4  1  0.006716  0.001106  0.000000  1
  Sn  Sn5  1  0.255162  0.257526  0.500000  1
  Sn  Sn6  1  0.989630  0.738820  0.500000  1
  Sn  Sn7  1  0.756465  0.003906  0.500000  1
  Rh  Rh8  1  0.335560  0.682556  0.500000  1
