# generated using pymatgen
data_Sr4Al14CuPd
_symmetry_space_group_name_H-M   'P 1'
_cell_length_a   6.35246031
_cell_length_b   6.34759220
_cell_length_c   11.76882300
_cell_angle_alpha   74.35487409
_cell_angle_beta   74.34258324
_cell_angle_gamma   89.99999958
_symmetry_Int_Tables_number   1
_chemical_formula_structural   Sr4Al14CuPd
_chemical_formula_sum   'Sr4 Al14 Cu1 Pd1'
_cell_volume   438.65563913
_cell_formula_units_Z   1
loop_
 _symmetry_equiv_pos_site_id
 _symmetry_equiv_pos_as_xyz
  1  'x, y, z'
loop_
 _atom_site_type_symbol
 _atom_site_label
 _atom_site_symmetry_multiplicity
 _atom_site_fract_x
 _atom_site_fract_y
 _atom_site_fract_z
 _atom_site_occupancy
  Sr  Sr0  1  0.998212  0.998212  0.003577  1
  Sr  Sr1  1  0.500586  0.500586  0.998826  1
  Sr  Sr2  1  0.752203  0.252203  0.495597  1
  Sr  Sr3  1  0.247194  0.747194  0.505612  1
  Al  Al4  1  0.199523  0.199523  0.600955  1
  Al  Al5  1  0.810743  0.810743  0.378517  1
  Al  Al6  1  0.608362  0.125600  0.251915  1
  Al  Al7  1  0.139721  0.622483  0.251915  1
  Al  Al8  1  0.608362  0.622483  0.251915  1
  Al  Al9  1  0.139721  0.125600  0.251915  1
  Al  Al10  1  0.868261  0.352797  0.753673  1
  Al  Al11  1  0.378066  0.893528  0.753673  1
  Al  Al12  1  0.868261  0.893528  0.753673  1
  Al  Al13  1  0.378066  0.352797  0.753673  1
  Al  Al14  1  0.689814  0.689814  0.620372  1
  Al  Al15  1  0.060918  0.560918  0.878162  1
  Al  Al16  1  0.449740  0.949740  0.100519  1
  Al  Al17  1  0.940636  0.440636  0.118727  1
  Cu  Cu18  1  0.562263  0.062263  0.875473  1
  Pd  Pd19  1  0.314177  0.314177  0.371646  1
