# generated using pymatgen
data_Hf9ZnMo4
_symmetry_space_group_name_H-M   'P 1'
_cell_length_a   8.71104400
_cell_length_b   8.71116490
_cell_length_c   8.59332800
_cell_angle_alpha   90.00000000
_cell_angle_beta   90.00000000
_cell_angle_gamma   119.99954090
_symmetry_Int_Tables_number   1
_chemical_formula_structural   Hf9ZnMo4
_chemical_formula_sum   'Hf18 Zn2 Mo8'
_cell_volume   564.72949623
_cell_formula_units_Z   2
loop_
 _symmetry_equiv_pos_site_id
 _symmetry_equiv_pos_as_xyz
  1  'x, y, z'
loop_
 _atom_site_type_symbol
 _atom_site_label
 _atom_site_symmetry_multiplicity
 _atom_site_fract_x
 _atom_site_fract_y
 _atom_site_fract_z
 _atom_site_occupancy
  Hf  Hf0  1  0.196577  0.393153  0.049242  1
  Hf  Hf1  1  0.196578  0.803424  0.049242  1
  Hf  Hf2  1  0.606846  0.803424  0.049242  1
  Hf  Hf3  1  0.540378  0.080755  0.250000  1
  Hf  Hf4  1  0.540376  0.459621  0.250000  1
  Hf  Hf5  1  0.919245  0.459621  0.250000  1
  Hf  Hf6  1  0.196578  0.803424  0.450757  1
  Hf  Hf7  1  0.606846  0.803424  0.450757  1
  Hf  Hf8  1  0.196577  0.393153  0.450758  1
  Hf  Hf9  1  0.803423  0.606847  0.549242  1
  Hf  Hf10  1  0.393155  0.196576  0.549243  1
  Hf  Hf11  1  0.803421  0.196576  0.549243  1
  Hf  Hf12  1  0.080756  0.540379  0.750000  1
  Hf  Hf13  1  0.459623  0.540379  0.750000  1
  Hf  Hf14  1  0.459623  0.919245  0.750000  1
  Hf  Hf15  1  0.393155  0.196576  0.950757  1
  Hf  Hf16  1  0.803421  0.196576  0.950757  1
  Hf  Hf17  1  0.803423  0.606847  0.950759  1
  Zn  Zn18  1  0.333329  0.666658  0.250000  1
  Zn  Zn19  1  0.666671  0.333342  0.750000  1
  Mo  Mo20  1  0.000000  0.000000  0.000000  1
  Mo  Mo21  1  0.222964  0.111483  0.250000  1
  Mo  Mo22  1  0.888518  0.111483  0.250000  1
  Mo  Mo23  1  0.888518  0.777037  0.250000  1
  Mo  Mo24  1  0.000000  0.000000  0.500000  1
  Mo  Mo25  1  0.111482  0.222964  0.750000  1
  Mo  Mo26  1  0.111482  0.888518  0.750000  1
  Mo  Mo27  1  0.777035  0.888518  0.750000  1
