# generated using pymatgen
data_Be8CoSi2Tc
_symmetry_space_group_name_H-M   'P 1'
_cell_length_a   4.17302100
_cell_length_b   4.17302281
_cell_length_c   6.85126100
_cell_angle_alpha   90.00000000
_cell_angle_beta   90.00000000
_cell_angle_gamma   119.99999356
_symmetry_Int_Tables_number   1
_chemical_formula_structural   Be8CoSi2Tc
_chemical_formula_sum   'Be8 Co1 Si2 Tc1'
_cell_volume   103.32430703
_cell_formula_units_Z   1
loop_
 _symmetry_equiv_pos_site_id
 _symmetry_equiv_pos_as_xyz
  1  'x, y, z'
loop_
 _atom_site_type_symbol
 _atom_site_label
 _atom_site_symmetry_multiplicity
 _atom_site_fract_x
 _atom_site_fract_y
 _atom_site_fract_z
 _atom_site_occupancy
  Be  Be0  1  0.000000  0.000000  0.998139  1
  Be  Be1  1  0.000000  0.000000  0.494418  1
  Be  Be2  1  0.832326  0.664652  0.254859  1
  Be  Be3  1  0.166628  0.833372  0.744669  1
  Be  Be4  1  0.666745  0.833372  0.744669  1
  Be  Be5  1  0.335348  0.167674  0.254859  1
  Be  Be6  1  0.832326  0.167674  0.254859  1
  Be  Be7  1  0.166628  0.333255  0.744669  1
  Co  Co8  1  0.333333  0.666667  0.440712  1
  Si  Si9  1  0.333333  0.666667  0.062269  1
  Si  Si10  1  0.666667  0.333333  0.562711  1
  Tc  Tc11  1  0.666667  0.333333  0.943167  1
