# generated using pymatgen
data_Yb3Eu3(BiN)2
_symmetry_space_group_name_H-M   'P 1'
_cell_length_a   7.10360800
_cell_length_b   7.10360801
_cell_length_c   11.87287700
_cell_angle_alpha   90.00000000
_cell_angle_beta   90.00000000
_cell_angle_gamma   119.99999995
_symmetry_Int_Tables_number   1
_chemical_formula_structural   Yb3Eu3(BiN)2
_chemical_formula_sum   'Yb6 Eu6 Bi4 N4'
_cell_volume   518.85329205
_cell_formula_units_Z   2
loop_
 _symmetry_equiv_pos_site_id
 _symmetry_equiv_pos_as_xyz
  1  'x, y, z'
loop_
 _atom_site_type_symbol
 _atom_site_label
 _atom_site_symmetry_multiplicity
 _atom_site_fract_x
 _atom_site_fract_y
 _atom_site_fract_z
 _atom_site_occupancy
  Yb  Yb0  1  0.500000  0.500000  0.000000  1
  Yb  Yb1  1  0.000000  0.500000  0.000000  1
  Yb  Yb2  1  0.500000  0.500000  0.500000  1
  Yb  Yb3  1  0.500000  0.000000  0.000000  1
  Yb  Yb4  1  0.000000  0.500000  0.500000  1
  Yb  Yb5  1  0.500000  0.000000  0.500000  1
  Eu  Eu6  1  0.822144  0.177856  0.750000  1
  Eu  Eu7  1  0.177856  0.822144  0.250000  1
  Eu  Eu8  1  0.355711  0.177856  0.750000  1
  Eu  Eu9  1  0.644289  0.822144  0.250000  1
  Eu  Eu10  1  0.822144  0.644289  0.750000  1
  Eu  Eu11  1  0.177856  0.355711  0.250000  1
  Bi  Bi12  1  0.000000  0.000000  0.000000  1
  Bi  Bi13  1  0.000000  0.000000  0.500000  1
  Bi  Bi14  1  0.666667  0.333333  0.250000  1
  Bi  Bi15  1  0.333333  0.666667  0.750000  1
  N  N16  1  0.666667  0.333333  0.885791  1
  N  N17  1  0.333333  0.666667  0.114209  1
  N  N18  1  0.333333  0.666667  0.385791  1
  N  N19  1  0.666667  0.333333  0.614209  1
