# generated using pymatgen
data_Cs2Nd2CdHgSe6
_symmetry_space_group_name_H-M   'P 1'
_cell_length_a   4.41347000
_cell_length_b   8.45419784
_cell_length_c   11.44243700
_cell_angle_alpha   90.00000000
_cell_angle_beta   90.00000000
_cell_angle_gamma   74.86926368
_symmetry_Int_Tables_number   1
_chemical_formula_structural   Cs2Nd2CdHgSe6
_chemical_formula_sum   'Cs2 Nd2 Cd1 Hg1 Se6'
_cell_volume   412.14321375
_cell_formula_units_Z   1
loop_
 _symmetry_equiv_pos_site_id
 _symmetry_equiv_pos_as_xyz
  1  'x, y, z'
loop_
 _atom_site_type_symbol
 _atom_site_label
 _atom_site_symmetry_multiplicity
 _atom_site_fract_x
 _atom_site_fract_y
 _atom_site_fract_z
 _atom_site_occupancy
  Cs  Cs0  1  0.256826  0.486349  0.250000  1
  Cs  Cs1  1  0.743273  0.513455  0.750000  1
  Nd  Nd2  1  0.001228  0.997544  0.997368  1
  Nd  Nd3  1  0.001228  0.997544  0.502632  1
  Cd  Cd4  1  0.540361  0.919277  0.250000  1
  Hg  Hg5  1  0.455511  0.088979  0.750000  1
  Se  Se6  1  0.620649  0.758703  0.050524  1
  Se  Se7  1  0.941205  0.117590  0.250000  1
  Se  Se8  1  0.620649  0.758703  0.449477  1
  Se  Se9  1  0.378576  0.242849  0.547587  1
  Se  Se10  1  0.061921  0.876159  0.750000  1
  Se  Se11  1  0.378576  0.242849  0.952412  1
