# generated using pymatgen
data_Y4Lu6(SnSb)3
_symmetry_space_group_name_H-M   'P 1'
_cell_length_a   6.35104500
_cell_length_b   8.88203384
_cell_length_c   8.86830700
_cell_angle_alpha   119.95069167
_cell_angle_beta   90.00059220
_cell_angle_gamma   90.00099996
_symmetry_Int_Tables_number   1
_chemical_formula_structural   Y4Lu6(SnSb)3
_chemical_formula_sum   'Y4 Lu6 Sn3 Sb3'
_cell_volume   433.45551657
_cell_formula_units_Z   1
loop_
 _symmetry_equiv_pos_site_id
 _symmetry_equiv_pos_as_xyz
  1  'x, y, z'
loop_
 _atom_site_type_symbol
 _atom_site_label
 _atom_site_symmetry_multiplicity
 _atom_site_fract_x
 _atom_site_fract_y
 _atom_site_fract_z
 _atom_site_occupancy
  Y  Y0  1  0.750002  0.000007  0.240688  1
  Y  Y1  1  0.249996  0.756387  0.999465  1
  Y  Y2  1  0.250004  0.243591  0.243061  1
  Y  Y3  1  0.250002  0.999996  0.757624  1
  Lu  Lu4  1  0.500273  0.333206  0.666636  1
  Lu  Lu5  1  0.500269  0.666798  0.333436  1
  Lu  Lu6  1  0.999733  0.666793  0.333433  1
  Lu  Lu7  1  0.999725  0.333205  0.666633  1
  Lu  Lu8  1  0.750005  0.241473  0.999976  1
  Lu  Lu9  1  0.750000  0.758549  0.758523  1
  Sn  Sn10  1  0.750000  0.605380  0.998698  1
  Sn  Sn11  1  0.750000  0.394630  0.393333  1
  Sn  Sn12  1  0.750002  0.000000  0.608459  1
  Sb  Sb13  1  0.249990  0.392376  0.999929  1
  Sb  Sb14  1  0.249999  0.607611  0.607543  1
  Sb  Sb15  1  0.250002  0.999997  0.392564  1
