# generated using pymatgen
data_TaNb15Co3Cu5N4
_symmetry_space_group_name_H-M   'P 1'
_cell_length_a   8.27893372
_cell_length_b   8.27175618
_cell_length_c   8.27175500
_cell_angle_alpha   60.00000071
_cell_angle_beta   60.02867551
_cell_angle_gamma   60.02867405
_symmetry_Int_Tables_number   1
_chemical_formula_structural   TaNb15Co3Cu5N4
_chemical_formula_sum   'Ta1 Nb15 Co3 Cu5 N4'
_cell_volume   400.72172914
_cell_formula_units_Z   1
loop_
 _symmetry_equiv_pos_site_id
 _symmetry_equiv_pos_as_xyz
  1  'x, y, z'
loop_
 _atom_site_type_symbol
 _atom_site_label
 _atom_site_symmetry_multiplicity
 _atom_site_fract_x
 _atom_site_fract_y
 _atom_site_fract_z
 _atom_site_occupancy
  Ta  Ta0  1  0.111126  0.629625  0.629625  1
  Nb  Nb1  1  0.634648  0.118954  0.623198  1
  Nb  Nb2  1  0.634648  0.623198  0.118954  1
  Nb  Nb3  1  0.634648  0.623198  0.623198  1
  Nb  Nb4  1  0.819517  0.817098  0.181693  1
  Nb  Nb5  1  0.179772  0.185216  0.817506  1
  Nb  Nb6  1  0.819517  0.181693  0.817098  1
  Nb  Nb7  1  0.179772  0.817506  0.185216  1
  Nb  Nb8  1  0.179772  0.817506  0.817506  1
  Nb  Nb9  1  0.819517  0.181693  0.181693  1
  Nb  Nb10  1  0.435981  0.434743  0.064638  1
  Nb  Nb11  1  0.067989  0.064699  0.433656  1
  Nb  Nb12  1  0.435981  0.064638  0.434743  1
  Nb  Nb13  1  0.067989  0.433656  0.064699  1
  Nb  Nb14  1  0.067989  0.433656  0.433656  1
  Nb  Nb15  1  0.435981  0.064638  0.064638  1
  Co  Co16  1  0.823918  0.516951  0.829565  1
  Co  Co17  1  0.823918  0.829565  0.516951  1
  Co  Co18  1  0.823918  0.829565  0.829565  1
  Cu  Cu19  1  0.752412  0.415863  0.415863  1
  Cu  Cu20  1  0.416044  0.745611  0.419172  1
  Cu  Cu21  1  0.416044  0.419172  0.745611  1
  Cu  Cu22  1  0.416044  0.419172  0.419172  1
  Cu  Cu23  1  0.497427  0.834191  0.834191  1
  N  N24  1  0.623834  0.125389  0.125389  1
  N  N25  1  0.127197  0.621714  0.125544  1
  N  N26  1  0.127197  0.125544  0.621714  1
  N  N27  1  0.127197  0.125544  0.125544  1
