# generated using pymatgen
data_Ho6Zn17PPd6
_symmetry_space_group_name_H-M   'P 1'
_cell_length_a   9.02854224
_cell_length_b   9.02862055
_cell_length_c   9.02860500
_cell_angle_alpha   59.99984082
_cell_angle_beta   60.00052115
_cell_angle_gamma   59.99938498
_symmetry_Int_Tables_number   1
_chemical_formula_structural   Ho6Zn17PPd6
_chemical_formula_sum   'Ho6 Zn17 P1 Pd6'
_cell_volume   520.40787538
_cell_formula_units_Z   1
loop_
 _symmetry_equiv_pos_site_id
 _symmetry_equiv_pos_as_xyz
  1  'x, y, z'
loop_
 _atom_site_type_symbol
 _atom_site_label
 _atom_site_symmetry_multiplicity
 _atom_site_fract_x
 _atom_site_fract_y
 _atom_site_fract_z
 _atom_site_occupancy
  Ho  Ho0  1  0.714542  0.285465  0.285437  1
  Ho  Ho1  1  0.714554  0.285438  0.714583  1
  Ho  Ho2  1  0.714545  0.714543  0.285448  1
  Ho  Ho3  1  0.285458  0.714535  0.714563  1
  Ho  Ho4  1  0.285446  0.714562  0.285417  1
  Ho  Ho5  1  0.285455  0.285457  0.714552  1
  Zn  Zn6  1  0.628791  0.123733  0.123738  1
  Zn  Zn7  1  0.123733  0.628794  0.123735  1
  Zn  Zn8  1  0.123736  0.123734  0.628798  1
  Zn  Zn9  1  0.123737  0.123739  0.123734  1
  Zn  Zn10  1  0.371209  0.876267  0.876262  1
  Zn  Zn11  1  0.876267  0.371206  0.876265  1
  Zn  Zn12  1  0.876264  0.876266  0.371202  1
  Zn  Zn13  1  0.876263  0.876261  0.876266  1
  Zn  Zn14  1  0.000000  0.000000  0.000000  1
  Zn  Zn15  1  0.009334  0.330220  0.330223  1
  Zn  Zn16  1  0.330222  0.009333  0.330221  1
  Zn  Zn17  1  0.330223  0.330220  0.009336  1
  Zn  Zn18  1  0.330223  0.330224  0.330220  1
  Zn  Zn19  1  0.990666  0.669780  0.669777  1
  Zn  Zn20  1  0.669778  0.990667  0.669779  1
  Zn  Zn21  1  0.669777  0.669780  0.990664  1
  Zn  Zn22  1  0.669777  0.669776  0.669780  1
  P  P23  1  0.500000  0.500000  0.500000  1
  Pd  Pd24  1  0.500000  0.000000  0.000000  1
  Pd  Pd25  1  0.500000  0.000000  0.500000  1
  Pd  Pd26  1  0.500000  0.500000  0.000000  1
  Pd  Pd27  1  0.000000  0.500000  0.500000  1
  Pd  Pd28  1  0.000000  0.500000  0.000000  1
  Pd  Pd29  1  0.000000  0.000000  0.500000  1
