# generated using pymatgen
data_CsSmDy9(C2Br9)2
_symmetry_space_group_name_H-M   'P 1'
_cell_length_a   10.73164603
_cell_length_b   10.81065865
_cell_length_c   10.91885173
_cell_angle_alpha   113.30803143
_cell_angle_beta   87.53651845
_cell_angle_gamma   118.91288012
_symmetry_Int_Tables_number   1
_chemical_formula_structural   CsSmDy9(C2Br9)2
_chemical_formula_sum   'Cs1 Sm1 Dy9 C4 Br18'
_cell_volume   1000.89325825
_cell_formula_units_Z   1
loop_
 _symmetry_equiv_pos_site_id
 _symmetry_equiv_pos_as_xyz
  1  'x, y, z'
loop_
 _atom_site_type_symbol
 _atom_site_label
 _atom_site_symmetry_multiplicity
 _atom_site_fract_x
 _atom_site_fract_y
 _atom_site_fract_z
 _atom_site_occupancy
  Cs  Cs0  1  0.499944  0.999767  0.500255  1
  Sm  Sm1  1  0.885011  0.059119  0.999197  1
  Dy  Dy2  1  0.662719  0.716424  0.702061  1
  Dy  Dy3  1  0.282118  0.364574  0.013164  1
  Dy  Dy4  1  0.094049  0.406872  0.301441  1
  Dy  Dy5  1  0.961559  0.037526  0.333507  1
  Dy  Dy6  1  0.906786  0.592131  0.698129  1
  Dy  Dy7  1  0.110675  0.942543  0.000944  1
  Dy  Dy8  1  0.039334  0.961954  0.666529  1
  Dy  Dy9  1  0.338745  0.283687  0.298304  1
  Dy  Dy10  1  0.718606  0.634875  0.986754  1
  C  C11  1  0.159226  0.229613  0.125822  1
  C  C12  1  0.842918  0.769080  0.874107  1
  C  C13  1  0.921362  0.848128  0.793865  1
  C  C14  1  0.080838  0.150617  0.206146  1
  Br  Br15  1  0.452107  0.530915  0.833747  1
  Br  Br16  1  0.382019  0.039483  0.159619  1
  Br  Br17  1  0.778036  0.857012  0.501449  1
  Br  Br18  1  0.838755  0.318527  0.159841  1
  Br  Br19  1  0.548689  0.469519  0.166441  1
  Br  Br20  1  0.222651  0.142912  0.498933  1
  Br  Br21  1  0.313138  0.099503  0.830446  1
  Br  Br22  1  0.685406  0.898315  0.171838  1
  Br  Br23  1  0.975262  0.762281  0.172208  1
  Br  Br24  1  0.932581  0.301587  0.500248  1
  Br  Br25  1  0.027827  0.239729  0.825380  1
  Br  Br26  1  0.068020  0.698311  0.499681  1
  Br  Br27  1  0.259922  0.622594  0.187404  1
  Br  Br28  1  0.739967  0.376495  0.812279  1
  Br  Br29  1  0.638430  0.433458  0.499523  1
  Br  Br30  1  0.161314  0.689942  0.846128  1
  Br  Br31  1  0.610639  0.956325  0.834289  1
  Br  Br32  1  0.361344  0.566180  0.500323  1
