# generated using pymatgen
data_CaTb5NdFeI12
_symmetry_space_group_name_H-M   'P 1'
_cell_length_a   9.85845970
_cell_length_b   9.81642658
_cell_length_c   9.80375229
_cell_angle_alpha   106.72381498
_cell_angle_beta   106.82229362
_cell_angle_gamma   107.14806220
_symmetry_Int_Tables_number   1
_chemical_formula_structural   CaTb5NdFeI12
_chemical_formula_sum   'Ca1 Tb5 Nd1 Fe1 I12'
_cell_volume   792.31137066
_cell_formula_units_Z   1
loop_
 _symmetry_equiv_pos_site_id
 _symmetry_equiv_pos_as_xyz
  1  'x, y, z'
loop_
 _atom_site_type_symbol
 _atom_site_label
 _atom_site_symmetry_multiplicity
 _atom_site_fract_x
 _atom_site_fract_y
 _atom_site_fract_z
 _atom_site_occupancy
  Ca  Ca0  1  0.500223  0.499267  0.501352  1
  Tb  Tb1  1  0.022506  0.092072  0.285937  1
  Tb  Tb2  1  0.301293  0.026032  0.097002  1
  Tb  Tb3  1  0.907481  0.716462  0.976393  1
  Tb  Tb4  1  0.976798  0.905811  0.713595  1
  Tb  Tb5  1  0.698170  0.975019  0.902474  1
  Nd  Nd6  1  0.094308  0.292563  0.023320  1
  Fe  Fe7  1  0.000584  0.001868  0.999601  1
  I  I8  1  0.463219  0.379184  0.154991  1
  I  I9  1  0.152078  0.455182  0.384881  1
  I  I10  1  0.374502  0.148198  0.453492  1
  I  I11  1  0.546177  0.622321  0.851228  1
  I  I12  1  0.849682  0.545292  0.624592  1
  I  I13  1  0.625309  0.849337  0.545777  1
  I  I14  1  0.768421  0.314901  0.924289  1
  I  I15  1  0.926930  0.775046  0.314628  1
  I  I16  1  0.316624  0.925957  0.773704  1
  I  I17  1  0.222896  0.686202  0.073168  1
  I  I18  1  0.070339  0.217583  0.674057  1
  I  I19  1  0.682461  0.071707  0.225520  1
