# generated using pymatgen
data_Sm2Tc3Ni7P6
_symmetry_space_group_name_H-M   'P 1'
_cell_length_a   3.76389300
_cell_length_b   10.69136500
_cell_length_c   12.04777700
_cell_angle_alpha   90.00000000
_cell_angle_beta   90.00000000
_cell_angle_gamma   90.00000000
_symmetry_Int_Tables_number   1
_chemical_formula_structural   Sm2Tc3Ni7P6
_chemical_formula_sum   'Sm4 Tc6 Ni14 P12'
_cell_volume   484.81644822
_cell_formula_units_Z   2
loop_
 _symmetry_equiv_pos_site_id
 _symmetry_equiv_pos_as_xyz
  1  'x, y, z'
loop_
 _atom_site_type_symbol
 _atom_site_label
 _atom_site_symmetry_multiplicity
 _atom_site_fract_x
 _atom_site_fract_y
 _atom_site_fract_z
 _atom_site_occupancy
  Sm  Sm0  1  0.250000  0.589699  0.706221  1
  Sm  Sm1  1  0.250000  0.910301  0.206221  1
  Sm  Sm2  1  0.750000  0.413922  0.291260  1
  Sm  Sm3  1  0.750000  0.086078  0.791260  1
  Tc  Tc4  1  0.250000  0.709215  0.986862  1
  Tc  Tc5  1  0.250000  0.790785  0.486862  1
  Tc  Tc6  1  0.750000  0.291907  0.013174  1
  Tc  Tc7  1  0.750000  0.208093  0.513174  1
  Tc  Tc8  1  0.250000  0.410455  0.493549  1
  Tc  Tc9  1  0.250000  0.089545  0.993549  1
  Ni  Ni10  1  0.750000  0.600982  0.508518  1
  Ni  Ni11  1  0.750000  0.899018  0.008518  1
  Ni  Ni12  1  0.250000  0.226413  0.182329  1
  Ni  Ni13  1  0.250000  0.273587  0.682329  1
  Ni  Ni14  1  0.750000  0.777963  0.820362  1
  Ni  Ni15  1  0.750000  0.722037  0.320362  1
  Ni  Ni16  1  0.250000  0.883891  0.701423  1
  Ni  Ni17  1  0.250000  0.616109  0.201423  1
  Ni  Ni18  1  0.750000  0.113267  0.297379  1
  Ni  Ni19  1  0.750000  0.386733  0.797379  1
  Ni  Ni20  1  0.250000  0.465150  0.930413  1
  Ni  Ni21  1  0.250000  0.034850  0.430413  1
  Ni  Ni22  1  0.750000  0.536264  0.066763  1
  Ni  Ni23  1  0.750000  0.963736  0.566763  1
  P  P24  1  0.250000  0.421840  0.111304  1
  P  P25  1  0.250000  0.078160  0.611304  1
  P  P26  1  0.750000  0.582208  0.888127  1
  P  P27  1  0.750000  0.917792  0.388127  1
  P  P28  1  0.250000  0.270361  0.873905  1
  P  P29  1  0.250000  0.229639  0.373905  1
  P  P30  1  0.750000  0.728569  0.127926  1
  P  P31  1  0.750000  0.771431  0.627926  1
  P  P32  1  0.250000  0.601394  0.389289  1
  P  P33  1  0.250000  0.898606  0.889289  1
  P  P34  1  0.750000  0.399133  0.611196  1
  P  P35  1  0.750000  0.100867  0.111196  1
