# generated using pymatgen
data_Dy17Y2Lu(Cd3Ru)2
_symmetry_space_group_name_H-M   'P 1'
_cell_length_a   9.58885300
_cell_length_b   9.58885217
_cell_length_c   9.84049300
_cell_angle_alpha   89.99931912
_cell_angle_beta   90.00067829
_cell_angle_gamma   120.00010840
_symmetry_Int_Tables_number   1
_chemical_formula_structural   Dy17Y2Lu(Cd3Ru)2
_chemical_formula_sum   'Dy17 Y2 Lu1 Cd6 Ru2'
_cell_volume   783.57450678
_cell_formula_units_Z   1
loop_
 _symmetry_equiv_pos_site_id
 _symmetry_equiv_pos_as_xyz
  1  'x, y, z'
loop_
 _atom_site_type_symbol
 _atom_site_label
 _atom_site_symmetry_multiplicity
 _atom_site_fract_x
 _atom_site_fract_y
 _atom_site_fract_z
 _atom_site_occupancy
  Dy  Dy0  1  0.999982  0.000018  0.999962  1
  Dy  Dy1  1  0.209123  0.790877  0.439902  1
  Dy  Dy2  1  0.209237  0.418321  0.440000  1
  Dy  Dy3  1  0.581679  0.790763  0.440000  1
  Dy  Dy4  1  0.790816  0.209184  0.559865  1
  Dy  Dy5  1  0.790710  0.581649  0.559938  1
  Dy  Dy6  1  0.418351  0.209290  0.559938  1
  Dy  Dy7  1  0.790004  0.209996  0.940161  1
  Dy  Dy8  1  0.789896  0.580010  0.940097  1
  Dy  Dy9  1  0.419990  0.210104  0.940097  1
  Dy  Dy10  1  0.209941  0.790059  0.060073  1
  Dy  Dy11  1  0.210054  0.419953  0.059970  1
  Dy  Dy12  1  0.580047  0.789946  0.059970  1
  Dy  Dy13  1  0.541182  0.458818  0.250169  1
  Dy  Dy14  1  0.541193  0.082372  0.250174  1
  Dy  Dy15  1  0.917628  0.458807  0.250174  1
  Dy  Dy16  1  0.458958  0.541042  0.749814  1
  Y  Y17  1  0.458881  0.917663  0.749823  1
  Y  Y18  1  0.082337  0.541119  0.749823  1
  Lu  Lu19  1  0.999995  0.000005  0.500058  1
  Cd  Cd20  1  0.885982  0.114018  0.251584  1
  Cd  Cd21  1  0.885992  0.771958  0.251577  1
  Cd  Cd22  1  0.228042  0.114008  0.251577  1
  Cd  Cd23  1  0.113983  0.886017  0.748415  1
  Cd  Cd24  1  0.114082  0.228048  0.748418  1
  Cd  Cd25  1  0.771952  0.885918  0.748418  1
  Ru  Ru26  1  0.333345  0.666655  0.250249  1
  Ru  Ru27  1  0.666619  0.333381  0.749755  1
