# generated using pymatgen
data_CsEr(SeO4)2
_symmetry_space_group_name_H-M   'P 1'
_cell_length_a   5.71659001
_cell_length_b   5.71640967
_cell_length_c   17.78881908
_cell_angle_alpha   89.99943679
_cell_angle_beta   89.99980687
_cell_angle_gamma   59.99867766
_symmetry_Int_Tables_number   1
_chemical_formula_structural   CsEr(SeO4)2
_chemical_formula_sum   'Cs2 Er2 Se4 O16'
_cell_volume   503.42218930
_cell_formula_units_Z   2
loop_
 _symmetry_equiv_pos_site_id
 _symmetry_equiv_pos_as_xyz
  1  'x, y, z'
loop_
 _atom_site_type_symbol
 _atom_site_label
 _atom_site_symmetry_multiplicity
 _atom_site_fract_x
 _atom_site_fract_y
 _atom_site_fract_z
 _atom_site_occupancy
  Cs  Cs0  1  0.000037  0.999948  0.250075  1
  Cs  Cs1  1  0.000018  0.999965  0.750098  1
  Er  Er2  1  0.999989  0.000021  0.500248  1
  Er  Er3  1  0.000022  0.000001  0.999739  1
  Se  Se4  1  0.333250  0.333405  0.390412  1
  Se  Se5  1  0.333328  0.333349  0.889915  1
  Se  Se6  1  0.666688  0.666608  0.109456  1
  Se  Se7  1  0.666733  0.666652  0.610188  1
  O  O8  1  0.333497  0.333336  0.298119  1
  O  O9  1  0.333336  0.333312  0.797617  1
  O  O10  1  0.666681  0.666646  0.201720  1
  O  O11  1  0.666510  0.666752  0.702501  1
  O  O12  1  0.649174  0.196794  0.423173  1
  O  O13  1  0.649300  0.196960  0.922641  1
  O  O14  1  0.196490  0.154050  0.423042  1
  O  O15  1  0.196915  0.153788  0.922645  1
  O  O16  1  0.846036  0.803288  0.076828  1
  O  O17  1  0.846464  0.802954  0.577438  1
  O  O18  1  0.153737  0.649486  0.423062  1
  O  O19  1  0.153733  0.649357  0.922619  1
  O  O20  1  0.350637  0.845940  0.076840  1
  O  O21  1  0.350845  0.846247  0.577332  1
  O  O22  1  0.803383  0.350529  0.076860  1
  O  O23  1  0.803194  0.350612  0.577432  1
