# generated using pymatgen
data_KTe19
_symmetry_space_group_name_H-M   'P 1'
_cell_length_a   8.01800484
_cell_length_b   9.02478963
_cell_length_c   10.16484400
_cell_angle_alpha   104.08862850
_cell_angle_beta   97.23290686
_cell_angle_gamma   106.97193268
_symmetry_Int_Tables_number   1
_chemical_formula_structural   KTe19
_chemical_formula_sum   'K1 Te19'
_cell_volume   666.78472118
_cell_formula_units_Z   1
loop_
 _symmetry_equiv_pos_site_id
 _symmetry_equiv_pos_as_xyz
  1  'x, y, z'
loop_
 _atom_site_type_symbol
 _atom_site_label
 _atom_site_symmetry_multiplicity
 _atom_site_fract_x
 _atom_site_fract_y
 _atom_site_fract_z
 _atom_site_occupancy
  K  K0  1  0.000000  0.500000  0.000000  1
  Te  Te1  1  0.785067  0.582281  0.619104  1
  Te  Te2  1  0.641141  0.203150  0.206320  1
  Te  Te3  1  0.358859  0.796850  0.793680  1
  Te  Te4  1  0.600184  0.684336  0.197720  1
  Te  Te5  1  0.214933  0.417719  0.380896  1
  Te  Te6  1  0.399816  0.315664  0.802280  1
  Te  Te7  1  0.000000  0.000000  0.000000  1
  Te  Te8  1  0.202937  0.916891  0.394699  1
  Te  Te9  1  0.797063  0.083109  0.605301  1
  Te  Te10  1  0.679685  0.636085  0.895547  1
  Te  Te11  1  0.513173  0.253091  0.502946  1
  Te  Te12  1  0.695479  0.125169  0.903737  1
  Te  Te13  1  0.304521  0.874831  0.096263  1
  Te  Te14  1  0.486827  0.746909  0.497054  1
  Te  Te15  1  0.097653  0.466303  0.692827  1
  Te  Te16  1  0.320315  0.363915  0.104453  1
  Te  Te17  1  0.913210  0.039613  0.298896  1
  Te  Te18  1  0.086790  0.960387  0.701104  1
  Te  Te19  1  0.902347  0.533697  0.307173  1
