# generated using pymatgen
data_TbY2In3Ir2Au
_symmetry_space_group_name_H-M   'P 1'
_cell_length_a   7.72090506
_cell_length_b   7.72119078
_cell_length_c   3.90246900
_cell_angle_alpha   90.00000000
_cell_angle_beta   90.00000000
_cell_angle_gamma   120.01351799
_symmetry_Int_Tables_number   1
_chemical_formula_structural   TbY2In3Ir2Au
_chemical_formula_sum   'Tb1 Y2 In3 Ir2 Au1'
_cell_volume   201.44821120
_cell_formula_units_Z   1
loop_
 _symmetry_equiv_pos_site_id
 _symmetry_equiv_pos_as_xyz
  1  'x, y, z'
loop_
 _atom_site_type_symbol
 _atom_site_label
 _atom_site_symmetry_multiplicity
 _atom_site_fract_x
 _atom_site_fract_y
 _atom_site_fract_z
 _atom_site_occupancy
  Tb  Tb0  1  0.977713  0.587568  0.500000  1
  Y  Y1  1  0.609882  0.022221  0.500000  1
  Y  Y2  1  0.412320  0.390114  0.500000  1
  In  In3  1  0.998784  0.256267  0.000000  1
  In  In4  1  0.257580  0.001250  0.000000  1
  In  In5  1  0.743597  0.742492  0.000000  1
  Ir  Ir6  1  0.999999  0.999953  0.500000  1
  Ir  Ir7  1  0.666822  0.333473  0.000000  1
  Au  Au8  1  0.333304  0.666662  0.000000  1
