# generated using pymatgen
data_Li3Y4LuPt4
_symmetry_space_group_name_H-M   'P 1'
_cell_length_a   4.06204800
_cell_length_b   7.17799778
_cell_length_c   8.75430933
_cell_angle_alpha   88.68369356
_cell_angle_beta   90.00000000
_cell_angle_gamma   90.00000000
_symmetry_Int_Tables_number   1
_chemical_formula_structural   Li3Y4LuPt4
_chemical_formula_sum   'Li3 Y4 Lu1 Pt4'
_cell_volume   255.18529155
_cell_formula_units_Z   1
loop_
 _symmetry_equiv_pos_site_id
 _symmetry_equiv_pos_as_xyz
  1  'x, y, z'
loop_
 _atom_site_type_symbol
 _atom_site_label
 _atom_site_symmetry_multiplicity
 _atom_site_fract_x
 _atom_site_fract_y
 _atom_site_fract_z
 _atom_site_occupancy
  Li  Li0  1  0.250000  0.372932  0.555072  1
  Li  Li1  1  0.250000  0.852610  0.928777  1
  Li  Li2  1  0.750000  0.623941  0.448244  1
  Y  Y3  1  0.250000  0.945253  0.337164  1
  Y  Y4  1  0.250000  0.478649  0.191409  1
  Y  Y5  1  0.750000  0.039965  0.671750  1
  Y  Y6  1  0.750000  0.553419  0.820393  1
  Lu  Lu7  1  0.750000  0.128587  0.055794  1
  Pt  Pt8  1  0.250000  0.261787  0.872249  1
  Pt  Pt9  1  0.250000  0.747356  0.626094  1
  Pt  Pt10  1  0.750000  0.754683  0.126730  1
  Pt  Pt11  1  0.750000  0.240819  0.366324  1
