# generated using pymatgen
data_Yb2ErRuO6
_symmetry_space_group_name_H-M   'P 1'
_cell_length_a   5.74977300
_cell_length_b   5.51546112
_cell_length_c   9.61385873
_cell_angle_alpha   55.64896484
_cell_angle_beta   90.00000000
_cell_angle_gamma   90.00000000
_symmetry_Int_Tables_number   1
_chemical_formula_structural   Yb2ErRuO6
_chemical_formula_sum   'Yb4 Er2 Ru2 O12'
_cell_volume   251.70848249
_cell_formula_units_Z   2
loop_
 _symmetry_equiv_pos_site_id
 _symmetry_equiv_pos_as_xyz
  1  'x, y, z'
loop_
 _atom_site_type_symbol
 _atom_site_label
 _atom_site_symmetry_multiplicity
 _atom_site_fract_x
 _atom_site_fract_y
 _atom_site_fract_z
 _atom_site_occupancy
  Yb  Yb0  1  0.560671  0.731556  0.749837  1
  Yb  Yb1  1  0.060671  0.268444  0.750163  1
  Yb  Yb2  1  0.939329  0.731556  0.249837  1
  Yb  Yb3  1  0.439329  0.268444  0.250163  1
  Er  Er4  1  0.000000  0.000000  0.500000  1
  Er  Er5  1  0.500000  0.000000  0.000000  1
  Ru  Ru6  1  0.000000  0.500000  0.000000  1
  Ru  Ru7  1  0.500000  0.500000  0.500000  1
  O  O8  1  0.544649  0.848197  0.266144  1
  O  O9  1  0.044649  0.151803  0.233856  1
  O  O10  1  0.455351  0.151803  0.733856  1
  O  O11  1  0.955351  0.848197  0.766144  1
  O  O12  1  0.787609  0.615777  0.563285  1
  O  O13  1  0.287609  0.384223  0.936715  1
  O  O14  1  0.212391  0.384223  0.436715  1
  O  O15  1  0.712391  0.615777  0.063285  1
  O  O16  1  0.185929  0.731342  0.057861  1
  O  O17  1  0.685929  0.268658  0.442139  1
  O  O18  1  0.814071  0.268658  0.942139  1
  O  O19  1  0.314071  0.731342  0.557861  1
