# generated using pymatgen
data_Ca3Yb3(AsO4)4
_symmetry_space_group_name_H-M   'P 1'
_cell_length_a   5.40122800
_cell_length_b   9.57224349
_cell_length_c   17.63554400
_cell_angle_alpha   60.55672257
_cell_angle_beta   90.00000000
_cell_angle_gamma   90.00000000
_symmetry_Int_Tables_number   1
_chemical_formula_structural   Ca3Yb3(AsO4)4
_chemical_formula_sum   'Ca6 Yb6 As8 O32'
_cell_volume   794.02624444
_cell_formula_units_Z   2
loop_
 _symmetry_equiv_pos_site_id
 _symmetry_equiv_pos_as_xyz
  1  'x, y, z'
loop_
 _atom_site_type_symbol
 _atom_site_label
 _atom_site_symmetry_multiplicity
 _atom_site_fract_x
 _atom_site_fract_y
 _atom_site_fract_z
 _atom_site_occupancy
  Ca  Ca0  1  0.916964  0.188320  0.746796  1
  Ca  Ca1  1  0.416964  0.811680  0.753204  1
  Ca  Ca2  1  0.083036  0.811680  0.253204  1
  Ca  Ca3  1  0.583036  0.188320  0.246796  1
  Ca  Ca4  1  0.000000  0.000000  0.000000  1
  Ca  Ca5  1  0.500000  0.000000  0.500000  1
  Yb  Yb6  1  0.025190  0.561379  0.129378  1
  Yb  Yb7  1  0.974810  0.438621  0.870622  1
  Yb  Yb8  1  0.525190  0.438621  0.370622  1
  Yb  Yb9  1  0.474810  0.561379  0.629378  1
  Yb  Yb10  1  0.500000  0.500000  0.000000  1
  Yb  Yb11  1  0.000000  0.500000  0.500000  1
  As  As12  1  0.502433  0.261683  0.861327  1
  As  As13  1  0.978162  0.760182  0.891651  1
  As  As14  1  0.478162  0.239818  0.608349  1
  As  As15  1  0.521838  0.760182  0.391651  1
  As  As16  1  0.497567  0.738317  0.138673  1
  As  As17  1  0.021838  0.239818  0.108349  1
  As  As18  1  0.997567  0.261683  0.361327  1
  As  As19  1  0.002433  0.738317  0.638673  1
  O  O20  1  0.142594  0.622120  0.739550  1
  O  O21  1  0.465598  0.230260  0.514246  1
  O  O22  1  0.087385  0.930755  0.803460  1
  O  O23  1  0.051380  0.629226  0.586118  1
  O  O24  1  0.912615  0.069245  0.196540  1
  O  O25  1  0.357406  0.622120  0.239550  1
  O  O26  1  0.587385  0.069245  0.696540  1
  O  O27  1  0.796558  0.691835  0.371235  1
  O  O28  1  0.826462  0.089157  0.402147  1
  O  O29  1  0.857406  0.377880  0.260450  1
  O  O30  1  0.448620  0.629226  0.086118  1
  O  O31  1  0.203442  0.308165  0.628765  1
  O  O32  1  0.181680  0.609409  0.906000  1
  O  O33  1  0.173538  0.910843  0.597853  1
  O  O34  1  0.813026  0.768125  0.144582  1
  O  O35  1  0.313026  0.231875  0.355418  1
  O  O36  1  0.681680  0.390591  0.594000  1
  O  O37  1  0.412615  0.930755  0.303460  1
  O  O38  1  0.326462  0.910843  0.097853  1
  O  O39  1  0.296558  0.308165  0.128765  1
  O  O40  1  0.686974  0.768125  0.644582  1
  O  O41  1  0.186974  0.231875  0.855418  1
  O  O42  1  0.534402  0.769740  0.485754  1
  O  O43  1  0.965598  0.769740  0.985754  1
  O  O44  1  0.818320  0.390591  0.094000  1
  O  O45  1  0.642594  0.377880  0.760450  1
  O  O46  1  0.948620  0.370774  0.413882  1
  O  O47  1  0.673538  0.089157  0.902147  1
  O  O48  1  0.034402  0.230260  0.014246  1
  O  O49  1  0.703442  0.691835  0.871235  1
  O  O50  1  0.318320  0.609409  0.406000  1
  O  O51  1  0.551380  0.370774  0.913882  1
