# generated using pymatgen
data_Tm16In6ReAg
_symmetry_space_group_name_H-M   'P 1'
_cell_length_a   10.37957800
_cell_length_b   10.37957867
_cell_length_c   6.89540900
_cell_angle_alpha   90.00000000
_cell_angle_beta   90.00000000
_cell_angle_gamma   119.99999787
_symmetry_Int_Tables_number   1
_chemical_formula_structural   Tm16In6ReAg
_chemical_formula_sum   'Tm16 In6 Re1 Ag1'
_cell_volume   643.35413123
_cell_formula_units_Z   1
loop_
 _symmetry_equiv_pos_site_id
 _symmetry_equiv_pos_as_xyz
  1  'x, y, z'
loop_
 _atom_site_type_symbol
 _atom_site_label
 _atom_site_symmetry_multiplicity
 _atom_site_fract_x
 _atom_site_fract_y
 _atom_site_fract_z
 _atom_site_occupancy
  Tm  Tm0  1  0.520046  0.040095  0.522168  1
  Tm  Tm1  1  0.959905  0.479954  0.522168  1
  Tm  Tm2  1  0.520046  0.479954  0.522168  1
  Tm  Tm3  1  0.467782  0.935564  0.016589  1
  Tm  Tm4  1  0.064436  0.532218  0.016589  1
  Tm  Tm5  1  0.467782  0.532218  0.016589  1
  Tm  Tm6  1  0.175188  0.350378  0.728414  1
  Tm  Tm7  1  0.649622  0.824812  0.728414  1
  Tm  Tm8  1  0.175188  0.824812  0.728414  1
  Tm  Tm9  1  0.826498  0.652997  0.224432  1
  Tm  Tm10  1  0.347003  0.173502  0.224432  1
  Tm  Tm11  1  0.826498  0.173502  0.224432  1
  Tm  Tm12  1  0.666667  0.333333  0.875907  1
  Tm  Tm13  1  0.333333  0.666667  0.380937  1
  Tm  Tm14  1  0.000000  0.000000  0.497717  1
  Tm  Tm15  1  0.000000  0.000000  0.002431  1
  In  In16  1  0.835708  0.671416  0.755425  1
  In  In17  1  0.328584  0.164292  0.755425  1
  In  In18  1  0.835708  0.164292  0.755425  1
  In  In19  1  0.162323  0.324646  0.260590  1
  In  In20  1  0.675354  0.837677  0.260590  1
  In  In21  1  0.162323  0.837677  0.260590  1
  Re  Re22  1  0.333333  0.666667  0.782783  1
  Ag  Ag23  1  0.666667  0.333333  0.295371  1
