# generated using pymatgen
data_Hf6Zn16Cu7B
_symmetry_space_group_name_H-M   'P 1'
_cell_length_a   8.60326881
_cell_length_b   8.60326842
_cell_length_c   8.60326800
_cell_angle_alpha   59.99999392
_cell_angle_beta   59.99999542
_cell_angle_gamma   59.99999988
_symmetry_Int_Tables_number   1
_chemical_formula_structural   Hf6Zn16Cu7B
_chemical_formula_sum   'Hf6 Zn16 Cu7 B1'
_cell_volume   450.27245903
_cell_formula_units_Z   1
loop_
 _symmetry_equiv_pos_site_id
 _symmetry_equiv_pos_as_xyz
  1  'x, y, z'
loop_
 _atom_site_type_symbol
 _atom_site_label
 _atom_site_symmetry_multiplicity
 _atom_site_fract_x
 _atom_site_fract_y
 _atom_site_fract_z
 _atom_site_occupancy
  Hf  Hf0  1  0.692922  0.307078  0.307078  1
  Hf  Hf1  1  0.307078  0.692922  0.692922  1
  Hf  Hf2  1  0.307078  0.692922  0.307078  1
  Hf  Hf3  1  0.692922  0.307078  0.692922  1
  Hf  Hf4  1  0.307078  0.307078  0.692922  1
  Hf  Hf5  1  0.692922  0.692922  0.307078  1
  Zn  Zn6  1  0.119218  0.119218  0.119218  1
  Zn  Zn7  1  0.880782  0.880782  0.880782  1
  Zn  Zn8  1  0.119218  0.119218  0.642345  1
  Zn  Zn9  1  0.119218  0.642345  0.119218  1
  Zn  Zn10  1  0.880782  0.880782  0.357655  1
  Zn  Zn11  1  0.880782  0.357655  0.880782  1
  Zn  Zn12  1  0.642345  0.119218  0.119218  1
  Zn  Zn13  1  0.357655  0.880782  0.880782  1
  Zn  Zn14  1  0.332211  0.332211  0.332211  1
  Zn  Zn15  1  0.667789  0.667789  0.667789  1
  Zn  Zn16  1  0.332211  0.332211  0.003369  1
  Zn  Zn17  1  0.332211  0.003369  0.332211  1
  Zn  Zn18  1  0.667789  0.667789  0.996631  1
  Zn  Zn19  1  0.667789  0.996631  0.667789  1
  Zn  Zn20  1  0.003369  0.332211  0.332211  1
  Zn  Zn21  1  0.996631  0.667789  0.667789  1
  Cu  Cu22  1  0.500000  0.000000  0.000000  1
  Cu  Cu23  1  0.000000  0.500000  0.500000  1
  Cu  Cu24  1  0.000000  0.500000  0.000000  1
  Cu  Cu25  1  0.500000  0.000000  0.500000  1
  Cu  Cu26  1  0.000000  0.000000  0.500000  1
  Cu  Cu27  1  0.500000  0.500000  0.000000  1
  Cu  Cu28  1  0.000000  0.000000  0.000000  1
  B  B29  1  0.500000  0.500000  0.500000  1
