# generated using pymatgen
data_Th(MnC)4
_symmetry_space_group_name_H-M   'P 1'
_cell_length_a   5.70093502
_cell_length_b   5.70093447
_cell_length_c   5.70093403
_cell_angle_alpha   94.80896397
_cell_angle_beta   94.80895597
_cell_angle_gamma   146.33909482
_symmetry_Int_Tables_number   1
_chemical_formula_structural   Th(MnC)4
_chemical_formula_sum   'Th1 Mn4 C4'
_cell_volume   98.29963383
_cell_formula_units_Z   1
loop_
 _symmetry_equiv_pos_site_id
 _symmetry_equiv_pos_as_xyz
  1  'x, y, z'
loop_
 _atom_site_type_symbol
 _atom_site_label
 _atom_site_symmetry_multiplicity
 _atom_site_fract_x
 _atom_site_fract_y
 _atom_site_fract_z
 _atom_site_occupancy
  Th  Th0  1  0.000000  0.000000  0.000000  1
  Mn  Mn1  1  0.637034  0.820992  0.458026  1
  Mn  Mn2  1  0.362966  0.179008  0.541974  1
  Mn  Mn3  1  0.820992  0.362966  0.183957  1
  Mn  Mn4  1  0.179008  0.637034  0.816043  1
  C  C5  1  0.241950  0.398055  0.640004  1
  C  C6  1  0.758050  0.601945  0.359996  1
  C  C7  1  0.398055  0.758050  0.156105  1
  C  C8  1  0.601945  0.241950  0.843895  1
