# generated using pymatgen
data_Sm4Dy4Re(TcB8)3
_symmetry_space_group_name_H-M   'P 1'
_cell_length_a   3.72648200
_cell_length_b   9.22631077
_cell_length_c   11.65369100
_cell_angle_alpha   90.02360904
_cell_angle_beta   90.00000000
_cell_angle_gamma   90.00000000
_symmetry_Int_Tables_number   1
_chemical_formula_structural   Sm4Dy4Re(TcB8)3
_chemical_formula_sum   'Sm4 Dy4 Re1 Tc3 B24'
_cell_volume   400.67345270
_cell_formula_units_Z   1
loop_
 _symmetry_equiv_pos_site_id
 _symmetry_equiv_pos_as_xyz
  1  'x, y, z'
loop_
 _atom_site_type_symbol
 _atom_site_label
 _atom_site_symmetry_multiplicity
 _atom_site_fract_x
 _atom_site_fract_y
 _atom_site_fract_z
 _atom_site_occupancy
  Sm  Sm0  1  0.000000  0.323625  0.414340  1
  Sm  Sm1  1  0.000000  0.676688  0.585720  1
  Sm  Sm2  1  0.000000  0.823401  0.085733  1
  Sm  Sm3  1  0.000000  0.176730  0.914370  1
  Dy  Dy4  1  0.000000  0.942335  0.368613  1
  Dy  Dy5  1  0.000000  0.058250  0.630485  1
  Dy  Dy6  1  0.000000  0.442318  0.131412  1
  Dy  Dy7  1  0.000000  0.556600  0.869104  1
  Re  Re8  1  0.000000  0.861170  0.819749  1
  Tc  Tc9  1  0.000000  0.638993  0.319767  1
  Tc  Tc10  1  0.000000  0.361083  0.680211  1
  Tc  Tc11  1  0.000000  0.138992  0.180303  1
  B  B12  1  0.500000  0.554382  0.431535  1
  B  B13  1  0.500000  0.445860  0.568625  1
  B  B14  1  0.500000  0.054254  0.068572  1
  B  B15  1  0.500000  0.945828  0.931601  1
  B  B16  1  0.500000  0.749002  0.416728  1
  B  B17  1  0.500000  0.251409  0.583253  1
  B  B18  1  0.500000  0.248876  0.083296  1
  B  B19  1  0.500000  0.750768  0.916876  1
  B  B20  1  0.500000  0.790967  0.265577  1
  B  B21  1  0.500000  0.209002  0.734266  1
  B  B22  1  0.500000  0.290950  0.234500  1
  B  B23  1  0.500000  0.708690  0.765672  1
  B  B24  1  0.500000  0.629874  0.186228  1
  B  B25  1  0.500000  0.369866  0.813765  1
  B  B26  1  0.500000  0.129919  0.313875  1
  B  B27  1  0.500000  0.870269  0.685990  1
  B  B28  1  0.500000  0.983441  0.212161  1
  B  B29  1  0.500000  0.016828  0.787610  1
  B  B30  1  0.500000  0.483427  0.287893  1
  B  B31  1  0.500000  0.516508  0.712333  1
  B  B32  1  0.500000  0.597498  0.027253  1
  B  B33  1  0.500000  0.401948  0.972998  1
  B  B34  1  0.500000  0.097814  0.472514  1
  B  B35  1  0.500000  0.902435  0.527070  1
