# generated using pymatgen
data_Ce2TmGa5
_symmetry_space_group_name_H-M   'P 1'
_cell_length_a   6.22016600
_cell_length_b   9.72529900
_cell_length_c   11.64760600
_cell_angle_alpha   90.00000000
_cell_angle_beta   90.00000000
_cell_angle_gamma   90.00000000
_symmetry_Int_Tables_number   1
_chemical_formula_structural   Ce2TmGa5
_chemical_formula_sum   'Ce8 Tm4 Ga20'
_cell_volume   704.59832901
_cell_formula_units_Z   4
loop_
 _symmetry_equiv_pos_site_id
 _symmetry_equiv_pos_as_xyz
  1  'x, y, z'
loop_
 _atom_site_type_symbol
 _atom_site_label
 _atom_site_symmetry_multiplicity
 _atom_site_fract_x
 _atom_site_fract_y
 _atom_site_fract_z
 _atom_site_occupancy
  Ce  Ce0  1  0.887264  0.508935  0.353064  1
  Ce  Ce1  1  0.612736  0.991065  0.853064  1
  Ce  Ce2  1  0.112736  0.008935  0.646936  1
  Ce  Ce3  1  0.387264  0.491065  0.146936  1
  Ce  Ce4  1  0.112736  0.491065  0.646936  1
  Ce  Ce5  1  0.387264  0.008935  0.146936  1
  Ce  Ce6  1  0.887264  0.991065  0.353064  1
  Ce  Ce7  1  0.612736  0.508935  0.853064  1
  Tm  Tm8  1  0.852730  0.750000  0.074544  1
  Tm  Tm9  1  0.647270  0.750000  0.574544  1
  Tm  Tm10  1  0.147270  0.250000  0.925456  1
  Tm  Tm11  1  0.352730  0.250000  0.425456  1
  Ga  Ga12  1  0.875256  0.053454  0.090285  1
  Ga  Ga13  1  0.624744  0.446546  0.590285  1
  Ga  Ga14  1  0.124744  0.553454  0.909715  1
  Ga  Ga15  1  0.375256  0.946546  0.409715  1
  Ga  Ga16  1  0.124744  0.946546  0.909715  1
  Ga  Ga17  1  0.375256  0.553454  0.409715  1
  Ga  Ga18  1  0.875256  0.446546  0.090285  1
  Ga  Ga19  1  0.624744  0.053454  0.590285  1
  Ga  Ga20  1  0.169942  0.750000  0.254836  1
  Ga  Ga21  1  0.330058  0.750000  0.754836  1
  Ga  Ga22  1  0.830058  0.250000  0.745164  1
  Ga  Ga23  1  0.669942  0.250000  0.245164  1
  Ga  Ga24  1  0.371762  0.750000  0.000833  1
  Ga  Ga25  1  0.128238  0.750000  0.500833  1
  Ga  Ga26  1  0.628238  0.250000  0.999167  1
  Ga  Ga27  1  0.871762  0.250000  0.499167  1
  Ga  Ga28  1  0.595691  0.750000  0.297956  1
  Ga  Ga29  1  0.904309  0.750000  0.797956  1
  Ga  Ga30  1  0.404309  0.250000  0.702044  1
  Ga  Ga31  1  0.095691  0.250000  0.202044  1
