# generated using pymatgen
data_Er2Ga2Co2C
_symmetry_space_group_name_H-M   'P 1'
_cell_length_a   5.71613476
_cell_length_b   5.71613531
_cell_length_c   6.88757856
_cell_angle_alpha   125.73623053
_cell_angle_beta   125.73623607
_cell_angle_gamma   39.97326983
_symmetry_Int_Tables_number   1
_chemical_formula_structural   Er2Ga2Co2C
_chemical_formula_sum   'Er2 Ga2 Co2 C1'
_cell_volume   113.26490371
_cell_formula_units_Z   1
loop_
 _symmetry_equiv_pos_site_id
 _symmetry_equiv_pos_as_xyz
  1  'x, y, z'
loop_
 _atom_site_type_symbol
 _atom_site_label
 _atom_site_symmetry_multiplicity
 _atom_site_fract_x
 _atom_site_fract_y
 _atom_site_fract_z
 _atom_site_occupancy
  Er  Er0  1  0.554732  0.554732  0.282762  1
  Er  Er1  1  0.445268  0.445268  0.717237  1
  Ga  Ga2  1  0.841538  0.841538  0.296964  1
  Ga  Ga3  1  0.158462  0.158462  0.703035  1
  Co  Co4  1  0.193111  0.193111  0.085802  1
  Co  Co5  1  0.806889  0.806889  0.914197  1
  C  C6  1  0.000000  0.000000  0.000000  1
