# generated using pymatgen
data_Ho9Lu(BiAu2)2
_symmetry_space_group_name_H-M   'P 1'
_cell_length_a   8.67900998
_cell_length_b   8.67901033
_cell_length_c   8.67901058
_cell_angle_alpha   124.20642980
_cell_angle_beta   124.20643468
_cell_angle_gamma   82.85663816
_symmetry_Int_Tables_number   1
_chemical_formula_structural   Ho9Lu(BiAu2)2
_chemical_formula_sum   'Ho9 Lu1 Bi2 Au4'
_cell_volume   429.21627775
_cell_formula_units_Z   1
loop_
 _symmetry_equiv_pos_site_id
 _symmetry_equiv_pos_as_xyz
  1  'x, y, z'
loop_
 _atom_site_type_symbol
 _atom_site_label
 _atom_site_symmetry_multiplicity
 _atom_site_fract_x
 _atom_site_fract_y
 _atom_site_fract_z
 _atom_site_occupancy
  Ho  Ho0  1  0.500000  0.500000  0.000000  1
  Ho  Ho1  1  0.014502  0.515124  0.809773  1
  Ho  Ho2  1  0.705351  0.204730  0.190227  1
  Ho  Ho3  1  0.515124  0.705351  0.500621  1
  Ho  Ho4  1  0.204730  0.014502  0.499379  1
  Ho  Ho5  1  0.985498  0.484876  0.190227  1
  Ho  Ho6  1  0.294649  0.795270  0.809773  1
  Ho  Ho7  1  0.484876  0.294649  0.499379  1
  Ho  Ho8  1  0.795270  0.985498  0.500621  1
  Lu  Lu9  1  0.000000  0.000000  0.000000  1
  Bi  Bi10  1  0.750318  0.750318  0.000000  1
  Bi  Bi11  1  0.249682  0.249682  0.000000  1
  Au  Au12  1  0.638505  0.137928  0.776432  1
  Au  Au13  1  0.361495  0.862072  0.223568  1
  Au  Au14  1  0.137928  0.361495  0.499424  1
  Au  Au15  1  0.862072  0.638505  0.500576  1
