# generated using pymatgen
data_K5Tl3Sb4S4(O4F3)4
_symmetry_space_group_name_H-M   'P 1'
_cell_length_a   5.72812000
_cell_length_b   9.29199100
_cell_length_c   14.35654900
_cell_angle_alpha   90.00000000
_cell_angle_beta   90.00000000
_cell_angle_gamma   90.00000000
_symmetry_Int_Tables_number   1
_chemical_formula_structural   K5Tl3Sb4S4(O4F3)4
_chemical_formula_sum   'K5 Tl3 Sb4 S4 O16 F12'
_cell_volume   764.13650135
_cell_formula_units_Z   1
loop_
 _symmetry_equiv_pos_site_id
 _symmetry_equiv_pos_as_xyz
  1  'x, y, z'
loop_
 _atom_site_type_symbol
 _atom_site_label
 _atom_site_symmetry_multiplicity
 _atom_site_fract_x
 _atom_site_fract_y
 _atom_site_fract_z
 _atom_site_occupancy
  K  K0  1  0.504424  0.998984  0.307846  1
  K  K1  1  0.005283  0.503916  0.690906  1
  K  K2  1  0.481806  0.685026  0.887032  1
  K  K3  1  0.996564  0.005219  0.808380  1
  K  K4  1  0.523715  0.183401  0.610448  1
  Tl  Tl5  1  0.975619  0.814841  0.115293  1
  Tl  Tl6  1  0.022494  0.317655  0.385769  1
  Tl  Tl7  1  0.491828  0.490654  0.192923  1
  Sb  Sb8  1  0.469739  0.058359  0.017505  1
  Sb  Sb9  1  0.969285  0.439907  0.971549  1
  Sb  Sb10  1  0.035087  0.941923  0.524872  1
  Sb  Sb11  1  0.528716  0.559708  0.485111  1
  S  S12  1  0.964608  0.710702  0.348631  1
  S  S13  1  0.525616  0.292197  0.837565  1
  S  S14  1  0.474944  0.793607  0.662177  1
  S  S15  1  0.031072  0.205236  0.153327  1
  O  O16  1  0.356447  0.374335  0.781990  1
  O  O17  1  0.584003  0.650365  0.634063  1
  O  O18  1  0.078901  0.126272  0.062755  1
  O  O19  1  0.918796  0.632750  0.439798  1
  O  O20  1  0.942693  0.353963  0.127744  1
  O  O21  1  0.743873  0.264281  0.785408  1
  O  O22  1  0.644426  0.874068  0.718476  1
  O  O23  1  0.579892  0.373510  0.926678  1
  O  O24  1  0.124254  0.624788  0.290550  1
  O  O25  1  0.424312  0.875018  0.572890  1
  O  O26  1  0.740244  0.739456  0.300967  1
  O  O27  1  0.255500  0.766305  0.713509  1
  O  O28  1  0.415379  0.149979  0.866015  1
  O  O29  1  0.850256  0.128575  0.206498  1
  O  O30  1  0.251697  0.218616  0.207045  1
  O  O31  1  0.082791  0.852205  0.373052  1
  F  F32  1  0.537364  0.405531  0.381179  1
  F  F33  1  0.744557  0.420378  0.545371  1
  F  F34  1  0.714873  0.928221  0.958177  1
  F  F35  1  0.050040  0.093058  0.628425  1
  F  F36  1  0.256573  0.918770  0.955963  1
  F  F37  1  0.787153  0.070778  0.466068  1
  F  F38  1  0.947895  0.588117  0.867201  1
  F  F39  1  0.285316  0.429239  0.544860  1
  F  F40  1  0.252196  0.078999  0.462695  1
  F  F41  1  0.754939  0.577678  0.034002  1
  F  F42  1  0.459713  0.909626  0.123117  1
  F  F43  1  0.215114  0.573782  0.026169  1
