# generated using pymatgen
data_Nd4Al6TcOs
_symmetry_space_group_name_H-M   'P 1'
_cell_length_a   5.66395900
_cell_length_b   5.66395842
_cell_length_c   8.94562600
_cell_angle_alpha   90.00000000
_cell_angle_beta   90.00000000
_cell_angle_gamma   119.99999754
_symmetry_Int_Tables_number   1
_chemical_formula_structural   Nd4Al6TcOs
_chemical_formula_sum   'Nd4 Al6 Tc1 Os1'
_cell_volume   248.53155500
_cell_formula_units_Z   1
loop_
 _symmetry_equiv_pos_site_id
 _symmetry_equiv_pos_as_xyz
  1  'x, y, z'
loop_
 _atom_site_type_symbol
 _atom_site_label
 _atom_site_symmetry_multiplicity
 _atom_site_fract_x
 _atom_site_fract_y
 _atom_site_fract_z
 _atom_site_occupancy
  Nd  Nd0  1  0.666667  0.333332  0.049243  1
  Nd  Nd1  1  0.666667  0.333332  0.450417  1
  Nd  Nd2  1  0.333333  0.666667  0.549584  1
  Nd  Nd3  1  0.333333  0.666667  0.950757  1
  Al  Al4  1  0.158703  0.317406  0.251937  1
  Al  Al5  1  0.158703  0.841298  0.251937  1
  Al  Al6  1  0.682594  0.841298  0.251937  1
  Al  Al7  1  0.317406  0.158702  0.748063  1
  Al  Al8  1  0.841298  0.158702  0.748063  1
  Al  Al9  1  0.841297  0.682593  0.748063  1
  Tc  Tc10  1  0.000000  0.000000  0.000000  1
  Os  Os11  1  0.000000  0.000000  0.500000  1
