# generated using pymatgen
data_Ta18Mn(FeS4)3
_symmetry_space_group_name_H-M   'P 1'
_cell_length_a   10.42104900
_cell_length_b   10.42104860
_cell_length_c   6.62859500
_cell_angle_alpha   90.00000000
_cell_angle_beta   90.00000000
_cell_angle_gamma   119.99999808
_symmetry_Int_Tables_number   1
_chemical_formula_structural   Ta18Mn(FeS4)3
_chemical_formula_sum   'Ta18 Mn1 Fe3 S12'
_cell_volume   623.41175127
_cell_formula_units_Z   1
loop_
 _symmetry_equiv_pos_site_id
 _symmetry_equiv_pos_as_xyz
  1  'x, y, z'
loop_
 _atom_site_type_symbol
 _atom_site_label
 _atom_site_symmetry_multiplicity
 _atom_site_fract_x
 _atom_site_fract_y
 _atom_site_fract_z
 _atom_site_occupancy
  Ta  Ta0  1  0.784106  0.527187  0.000160  1
  Ta  Ta1  1  0.743082  0.215894  0.000160  1
  Ta  Ta2  1  0.472813  0.256918  0.000160  1
  Ta  Ta3  1  0.256656  0.473284  0.999660  1
  Ta  Ta4  1  0.526716  0.783372  0.999660  1
  Ta  Ta5  1  0.216628  0.743344  0.999660  1
  Ta  Ta6  1  0.734478  0.190328  0.500042  1
  Ta  Ta7  1  0.809672  0.544149  0.500042  1
  Ta  Ta8  1  0.455851  0.265522  0.500042  1
  Ta  Ta9  1  0.266024  0.455726  0.500357  1
  Ta  Ta10  1  0.544274  0.810298  0.500357  1
  Ta  Ta11  1  0.189702  0.733976  0.500357  1
  Ta  Ta12  1  0.459453  0.999891  0.753656  1
  Ta  Ta13  1  0.540250  0.540660  0.246235  1
  Ta  Ta14  1  0.000409  0.459750  0.246235  1
  Ta  Ta15  1  0.000109  0.459562  0.753656  1
  Ta  Ta16  1  0.540438  0.540547  0.753656  1
  Ta  Ta17  1  0.459340  0.999591  0.246235  1
  Mn  Mn18  1  0.666667  0.333333  0.281252  1
  Fe  Fe19  1  0.666667  0.333333  0.716986  1
  Fe  Fe20  1  0.333333  0.666667  0.716844  1
  Fe  Fe21  1  0.333333  0.666667  0.283948  1
  S  S22  1  0.701562  0.999741  0.766203  1
  S  S23  1  0.298068  0.298446  0.233970  1
  S  S24  1  0.000378  0.701932  0.233970  1
  S  S25  1  0.000259  0.701822  0.766203  1
  S  S26  1  0.298178  0.298438  0.766203  1
  S  S27  1  0.701554  0.999622  0.233970  1
  S  S28  1  0.000270  0.279387  0.500091  1
  S  S29  1  0.720613  0.720883  0.500091  1
  S  S30  1  0.279117  0.999730  0.500091  1
  S  S31  1  0.000189  0.277115  0.999949  1
  S  S32  1  0.722885  0.723074  0.999949  1
  S  S33  1  0.276926  0.999811  0.999949  1
