# generated using pymatgen
data_Eu3ThB24
_symmetry_space_group_name_H-M   'P 1'
_cell_length_a   4.13921500
_cell_length_b   4.13921500
_cell_length_c   16.57843800
_cell_angle_alpha   90.00000000
_cell_angle_beta   90.00000000
_cell_angle_gamma   90.00000000
_symmetry_Int_Tables_number   1
_chemical_formula_structural   Eu3ThB24
_chemical_formula_sum   'Eu3 Th1 B24'
_cell_volume   284.04004963
_cell_formula_units_Z   1
loop_
 _symmetry_equiv_pos_site_id
 _symmetry_equiv_pos_as_xyz
  1  'x, y, z'
loop_
 _atom_site_type_symbol
 _atom_site_label
 _atom_site_symmetry_multiplicity
 _atom_site_fract_x
 _atom_site_fract_y
 _atom_site_fract_z
 _atom_site_occupancy
  Eu  Eu0  1  0.500000  0.500000  0.251343  1
  Eu  Eu1  1  0.500000  0.500000  0.500000  1
  Eu  Eu2  1  0.500000  0.500000  0.748657  1
  Th  Th3  1  0.500000  0.500000  0.000000  1
  B  B4  1  0.000000  0.000000  0.049297  1
  B  B5  1  0.000000  0.000000  0.299865  1
  B  B6  1  0.000000  0.000000  0.550359  1
  B  B7  1  0.000000  0.000000  0.800562  1
  B  B8  1  0.000000  0.300683  0.875763  1
  B  B9  1  0.000000  0.300683  0.124237  1
  B  B10  1  0.000000  0.299183  0.374820  1
  B  B11  1  0.000000  0.299183  0.625180  1
  B  B12  1  0.300683  0.000000  0.875763  1
  B  B13  1  0.300683  0.000000  0.124237  1
  B  B14  1  0.299183  0.000000  0.374820  1
  B  B15  1  0.299183  0.000000  0.625180  1
  B  B16  1  0.000000  0.000000  0.950703  1
  B  B17  1  0.000000  0.000000  0.199438  1
  B  B18  1  0.000000  0.000000  0.449641  1
  B  B19  1  0.000000  0.000000  0.700135  1
  B  B20  1  0.000000  0.699317  0.875763  1
  B  B21  1  0.000000  0.699317  0.124237  1
  B  B22  1  0.000000  0.700817  0.374820  1
  B  B23  1  0.000000  0.700817  0.625180  1
  B  B24  1  0.699317  0.000000  0.875763  1
  B  B25  1  0.699317  0.000000  0.124237  1
  B  B26  1  0.700817  0.000000  0.374820  1
  B  B27  1  0.700817  0.000000  0.625180  1
