# generated using pymatgen
data_Pr3Nd(ZnIr)4
_symmetry_space_group_name_H-M   'P 1'
_cell_length_a   4.17517100
_cell_length_b   7.21881998
_cell_length_c   8.28157571
_cell_angle_alpha   90.06444054
_cell_angle_beta   90.00000000
_cell_angle_gamma   90.00000000
_symmetry_Int_Tables_number   1
_chemical_formula_structural   Pr3Nd(ZnIr)4
_chemical_formula_sum   'Pr3 Nd1 Zn4 Ir4'
_cell_volume   249.60494263
_cell_formula_units_Z   1
loop_
 _symmetry_equiv_pos_site_id
 _symmetry_equiv_pos_as_xyz
  1  'x, y, z'
loop_
 _atom_site_type_symbol
 _atom_site_label
 _atom_site_symmetry_multiplicity
 _atom_site_fract_x
 _atom_site_fract_y
 _atom_site_fract_z
 _atom_site_occupancy
  Pr  Pr0  1  0.750000  0.469503  0.812346  1
  Pr  Pr1  1  0.750000  0.968693  0.688280  1
  Pr  Pr2  1  0.250000  0.030909  0.311440  1
  Nd  Nd3  1  0.250000  0.531429  0.188092  1
  Zn  Zn4  1  0.250000  0.642038  0.566132  1
  Zn  Zn5  1  0.750000  0.357365  0.432302  1
  Zn  Zn6  1  0.750000  0.856350  0.067147  1
  Zn  Zn7  1  0.250000  0.144315  0.933315  1
  Ir  Ir8  1  0.250000  0.765126  0.884608  1
  Ir  Ir9  1  0.750000  0.235819  0.116978  1
  Ir  Ir10  1  0.750000  0.733042  0.382708  1
  Ir  Ir11  1  0.250000  0.265412  0.616654  1
