# generated using pymatgen
data_Er2Lu8In8CoPt3
_symmetry_space_group_name_H-M   'P 1'
_cell_length_a   3.57266100
_cell_length_b   7.99948302
_cell_length_c   17.92894223
_cell_angle_alpha   89.98655586
_cell_angle_beta   90.00000000
_cell_angle_gamma   90.00000000
_symmetry_Int_Tables_number   1
_chemical_formula_structural   Er2Lu8In8CoPt3
_chemical_formula_sum   'Er2 Lu8 In8 Co1 Pt3'
_cell_volume   512.39913272
_cell_formula_units_Z   1
loop_
 _symmetry_equiv_pos_site_id
 _symmetry_equiv_pos_as_xyz
  1  'x, y, z'
loop_
 _atom_site_type_symbol
 _atom_site_label
 _atom_site_symmetry_multiplicity
 _atom_site_fract_x
 _atom_site_fract_y
 _atom_site_fract_z
 _atom_site_occupancy
  Er  Er0  1  0.000000  0.999893  0.001227  1
  Er  Er1  1  0.000000  0.501039  0.498624  1
  Lu  Lu2  1  0.000000  0.112691  0.408023  1
  Lu  Lu3  1  0.000000  0.883388  0.584594  1
  Lu  Lu4  1  0.000000  0.382928  0.914620  1
  Lu  Lu5  1  0.000000  0.617902  0.088205  1
  Lu  Lu6  1  0.000000  0.233650  0.224207  1
  Lu  Lu7  1  0.000000  0.757259  0.778705  1
  Lu  Lu8  1  0.000000  0.256347  0.721027  1
  Lu  Lu9  1  0.000000  0.756137  0.279628  1
  In  In10  1  0.500000  0.420295  0.350827  1
  In  In11  1  0.500000  0.576791  0.647924  1
  In  In12  1  0.500000  0.076433  0.851774  1
  In  In13  1  0.500000  0.928720  0.152861  1
  In  In14  1  0.500000  0.293559  0.067610  1
  In  In15  1  0.500000  0.706867  0.934372  1
  In  In16  1  0.500000  0.206479  0.564539  1
  In  In17  1  0.500000  0.797094  0.429459  1
  Co  Co18  1  0.500000  0.020129  0.304969  1
  Pt  Pt19  1  0.500000  0.974787  0.695595  1
  Pt  Pt20  1  0.500000  0.475016  0.803973  1
  Pt  Pt21  1  0.500000  0.522597  0.197234  1
