# generated using pymatgen
data_Tb2Sc2IrPt
_symmetry_space_group_name_H-M   'P 1'
_cell_length_a   4.45235900
_cell_length_b   7.05103200
_cell_length_c   8.59701000
_cell_angle_alpha   90.00000000
_cell_angle_beta   90.00000000
_cell_angle_gamma   90.00000000
_symmetry_Int_Tables_number   1
_chemical_formula_structural   Tb2Sc2IrPt
_chemical_formula_sum   'Tb4 Sc4 Ir2 Pt2'
_cell_volume   269.89217451
_cell_formula_units_Z   2
loop_
 _symmetry_equiv_pos_site_id
 _symmetry_equiv_pos_as_xyz
  1  'x, y, z'
loop_
 _atom_site_type_symbol
 _atom_site_label
 _atom_site_symmetry_multiplicity
 _atom_site_fract_x
 _atom_site_fract_y
 _atom_site_fract_z
 _atom_site_occupancy
  Tb  Tb0  1  0.250000  0.018275  0.674534  1
  Tb  Tb1  1  0.250000  0.518275  0.825466  1
  Tb  Tb2  1  0.750000  0.985271  0.324451  1
  Tb  Tb3  1  0.750000  0.485271  0.175549  1
  Sc  Sc4  1  0.250000  0.137275  0.073538  1
  Sc  Sc5  1  0.250000  0.637275  0.426462  1
  Sc  Sc6  1  0.750000  0.859488  0.933099  1
  Sc  Sc7  1  0.750000  0.359488  0.566901  1
  Ir  Ir8  1  0.250000  0.255755  0.402802  1
  Ir  Ir9  1  0.250000  0.755755  0.097198  1
  Pt  Pt10  1  0.750000  0.743937  0.601693  1
  Pt  Pt11  1  0.750000  0.243937  0.898307  1
