# generated using pymatgen
data_La2Sn2Rh6C
_symmetry_space_group_name_H-M   'P 1'
_cell_length_a   5.88086100
_cell_length_b   5.88085986
_cell_length_c   13.63010500
_cell_angle_alpha   90.00000000
_cell_angle_beta   90.00000000
_cell_angle_gamma   120.00000076
_symmetry_Int_Tables_number   1
_chemical_formula_structural   La2Sn2Rh6C
_chemical_formula_sum   'La4 Sn4 Rh12 C2'
_cell_volume   408.23625855
_cell_formula_units_Z   2
loop_
 _symmetry_equiv_pos_site_id
 _symmetry_equiv_pos_as_xyz
  1  'x, y, z'
loop_
 _atom_site_type_symbol
 _atom_site_label
 _atom_site_symmetry_multiplicity
 _atom_site_fract_x
 _atom_site_fract_y
 _atom_site_fract_z
 _atom_site_occupancy
  La  La0  1  0.333333  0.666667  0.398347  1
  La  La1  1  0.666667  0.333333  0.898347  1
  La  La2  1  0.666667  0.333333  0.601653  1
  La  La3  1  0.333333  0.666667  0.101653  1
  Sn  Sn4  1  0.000000  0.000000  0.750000  1
  Sn  Sn5  1  0.000000  0.000000  0.250000  1
  Sn  Sn6  1  0.333333  0.666667  0.750000  1
  Sn  Sn7  1  0.666667  0.333333  0.250000  1
  Rh  Rh8  1  0.333245  0.166623  0.409890  1
  Rh  Rh9  1  0.833377  0.166623  0.409890  1
  Rh  Rh10  1  0.833377  0.666755  0.409890  1
  Rh  Rh11  1  0.166623  0.333245  0.909890  1
  Rh  Rh12  1  0.666755  0.833377  0.590110  1
  Rh  Rh13  1  0.666755  0.833377  0.909890  1
  Rh  Rh14  1  0.333245  0.166623  0.090110  1
  Rh  Rh15  1  0.166623  0.333245  0.590110  1
  Rh  Rh16  1  0.166623  0.833377  0.590110  1
  Rh  Rh17  1  0.833377  0.166623  0.090110  1
  Rh  Rh18  1  0.833377  0.666755  0.090110  1
  Rh  Rh19  1  0.166623  0.833377  0.909890  1
  C  C20  1  0.000000  0.000000  0.500000  1
  C  C21  1  0.000000  0.000000  0.000000  1
