# generated using pymatgen
data_Ta12Al7AuN4
_symmetry_space_group_name_H-M   'P 1'
_cell_length_a   7.05914120
_cell_length_b   7.05914097
_cell_length_c   7.05914122
_cell_angle_alpha   89.83734220
_cell_angle_beta   90.16265743
_cell_angle_gamma   90.16265638
_symmetry_Int_Tables_number   1
_chemical_formula_structural   Ta12Al7AuN4
_chemical_formula_sum   'Ta12 Al7 Au1 N4'
_cell_volume   351.76315973
_cell_formula_units_Z   1
loop_
 _symmetry_equiv_pos_site_id
 _symmetry_equiv_pos_as_xyz
  1  'x, y, z'
loop_
 _atom_site_type_symbol
 _atom_site_label
 _atom_site_symmetry_multiplicity
 _atom_site_fract_x
 _atom_site_fract_y
 _atom_site_fract_z
 _atom_site_occupancy
  Ta  Ta0  1  0.789821  0.957179  0.373996  1
  Ta  Ta1  1  0.708527  0.044453  0.878324  1
  Ta  Ta2  1  0.205488  0.451292  0.119044  1
  Ta  Ta3  1  0.296464  0.541547  0.632448  1
  Ta  Ta4  1  0.955547  0.378324  0.791473  1
  Ta  Ta5  1  0.042821  0.873996  0.710179  1
  Ta  Ta6  1  0.458453  0.132448  0.203536  1
  Ta  Ta7  1  0.548708  0.619044  0.294512  1
  Ta  Ta8  1  0.380956  0.794512  0.951292  1
  Ta  Ta9  1  0.867552  0.703536  0.041547  1
  Ta  Ta10  1  0.126004  0.210179  0.457179  1
  Ta  Ta11  1  0.621676  0.291473  0.544453  1
  Al  Al12  1  0.321900  0.176569  0.821435  1
  Al  Al13  1  0.823431  0.321435  0.178100  1
  Al  Al14  1  0.678565  0.678100  0.676569  1
  Al  Al15  1  0.571118  0.428882  0.928882  1
  Al  Al16  1  0.425340  0.927577  0.568153  1
  Al  Al17  1  0.931847  0.574660  0.427577  1
  Al  Al18  1  0.072423  0.068153  0.074660  1
  Au  Au19  1  0.183054  0.816946  0.316946  1
  N  N20  1  0.874890  0.125110  0.625110  1
  N  N21  1  0.620484  0.875747  0.129323  1
  N  N22  1  0.124253  0.629323  0.879516  1
  N  N23  1  0.370677  0.379516  0.375747  1
