# generated using pymatgen
data_Ho2Si2TcPd
_symmetry_space_group_name_H-M   'P 1'
_cell_length_a   4.32673400
_cell_length_b   6.98664585
_cell_length_c   7.35873678
_cell_angle_alpha   90.13513085
_cell_angle_beta   90.00000000
_cell_angle_gamma   90.00000000
_symmetry_Int_Tables_number   1
_chemical_formula_structural   Ho2Si2TcPd
_chemical_formula_sum   'Ho4 Si4 Tc2 Pd2'
_cell_volume   222.44927094
_cell_formula_units_Z   2
loop_
 _symmetry_equiv_pos_site_id
 _symmetry_equiv_pos_as_xyz
  1  'x, y, z'
loop_
 _atom_site_type_symbol
 _atom_site_label
 _atom_site_symmetry_multiplicity
 _atom_site_fract_x
 _atom_site_fract_y
 _atom_site_fract_z
 _atom_site_occupancy
  Ho  Ho0  1  0.250000  0.989998  0.804495  1
  Ho  Ho1  1  0.750000  0.010002  0.195505  1
  Ho  Ho2  1  0.250000  0.501127  0.688281  1
  Ho  Ho3  1  0.750000  0.498873  0.311719  1
  Si  Si4  1  0.250000  0.299812  0.087552  1
  Si  Si5  1  0.750000  0.700188  0.912448  1
  Si  Si6  1  0.250000  0.790861  0.380472  1
  Si  Si7  1  0.750000  0.209139  0.619528  1
  Tc  Tc8  1  0.750000  0.344169  0.930102  1
  Tc  Tc9  1  0.250000  0.655831  0.069898  1
  Pd  Pd10  1  0.750000  0.833553  0.572722  1
  Pd  Pd11  1  0.250000  0.166447  0.427278  1
