# generated using pymatgen
data_Ho8TlIn3Au8
_symmetry_space_group_name_H-M   'P 1'
_cell_length_a   8.02136800
_cell_length_b   8.02136800
_cell_length_c   7.29931100
_cell_angle_alpha   90.00000000
_cell_angle_beta   90.00000000
_cell_angle_gamma   90.00000000
_symmetry_Int_Tables_number   1
_chemical_formula_structural   Ho8TlIn3Au8
_chemical_formula_sum   'Ho8 Tl1 In3 Au8'
_cell_volume   469.65478364
_cell_formula_units_Z   1
loop_
 _symmetry_equiv_pos_site_id
 _symmetry_equiv_pos_as_xyz
  1  'x, y, z'
loop_
 _atom_site_type_symbol
 _atom_site_label
 _atom_site_symmetry_multiplicity
 _atom_site_fract_x
 _atom_site_fract_y
 _atom_site_fract_z
 _atom_site_occupancy
  Ho  Ho0  1  0.159119  0.160121  0.999513  1
  Ho  Ho1  1  0.840881  0.839879  0.999513  1
  Ho  Ho2  1  0.660121  0.340881  0.500487  1
  Ho  Ho3  1  0.339879  0.659119  0.500487  1
  Ho  Ho4  1  0.677541  0.323442  0.999791  1
  Ho  Ho5  1  0.322459  0.676558  0.999791  1
  Ho  Ho6  1  0.823442  0.822459  0.500209  1
  Ho  Ho7  1  0.176558  0.177541  0.500209  1
  Tl  Tl8  1  0.500000  0.000000  0.250000  1
  In  In9  1  0.500000  0.000000  0.750000  1
  In  In10  1  0.000000  0.500000  0.250000  1
  In  In11  1  0.000000  0.500000  0.750000  1
  Au  Au12  1  0.370220  0.371844  0.232376  1
  Au  Au13  1  0.629122  0.629933  0.767723  1
  Au  Au14  1  0.629780  0.628156  0.232376  1
  Au  Au15  1  0.870067  0.129122  0.732277  1
  Au  Au16  1  0.871844  0.129780  0.267624  1
  Au  Au17  1  0.370878  0.370067  0.767723  1
  Au  Au18  1  0.128156  0.870220  0.267624  1
  Au  Au19  1  0.129933  0.870878  0.732277  1
