# generated using pymatgen
data_Ca12ZnP7Rh8
_symmetry_space_group_name_H-M   'P 1'
_cell_length_a   5.48593200
_cell_length_b   7.78715800
_cell_length_c   13.03173100
_cell_angle_alpha   89.99984549
_cell_angle_beta   90.00000000
_cell_angle_gamma   90.00000000
_symmetry_Int_Tables_number   1
_chemical_formula_structural   Ca12ZnP7Rh8
_chemical_formula_sum   'Ca12 Zn1 P7 Rh8'
_cell_volume   556.71319298
_cell_formula_units_Z   1
loop_
 _symmetry_equiv_pos_site_id
 _symmetry_equiv_pos_as_xyz
  1  'x, y, z'
loop_
 _atom_site_type_symbol
 _atom_site_label
 _atom_site_symmetry_multiplicity
 _atom_site_fract_x
 _atom_site_fract_y
 _atom_site_fract_z
 _atom_site_occupancy
  Ca  Ca0  1  0.638926  0.245553  0.250100  1
  Ca  Ca1  1  0.360590  0.756000  0.751911  1
  Ca  Ca2  1  0.360590  0.744000  0.248089  1
  Ca  Ca3  1  0.638926  0.254447  0.749900  1
  Ca  Ca4  1  0.131398  0.383987  0.105999  1
  Ca  Ca5  1  0.870366  0.614395  0.894112  1
  Ca  Ca6  1  0.865385  0.612192  0.604698  1
  Ca  Ca7  1  0.865385  0.887808  0.395302  1
  Ca  Ca8  1  0.136672  0.389329  0.395312  1
  Ca  Ca9  1  0.136672  0.110671  0.604688  1
  Ca  Ca10  1  0.131398  0.116013  0.894001  1
  Ca  Ca11  1  0.870366  0.885605  0.105888  1
  Zn  Zn12  1  0.619599  0.250000  0.500000  1
  P  P13  1  0.153066  0.097618  0.248323  1
  P  P14  1  0.851863  0.905784  0.753365  1
  P  P15  1  0.851863  0.594216  0.246635  1
  P  P16  1  0.153066  0.402382  0.751677  1
  P  P17  1  0.586373  0.250000  0.000000  1
  P  P18  1  0.414280  0.750000  0.000000  1
  P  P19  1  0.395090  0.750000  0.500000  1
  Rh  Rh20  1  0.366156  0.021799  0.086735  1
  Rh  Rh21  1  0.634744  0.977655  0.914121  1
  Rh  Rh22  1  0.623454  0.955168  0.593425  1
  Rh  Rh23  1  0.623454  0.544832  0.406575  1
  Rh  Rh24  1  0.359706  0.011346  0.408356  1
  Rh  Rh25  1  0.359706  0.488654  0.591644  1
  Rh  Rh26  1  0.366156  0.478201  0.913265  1
  Rh  Rh27  1  0.634744  0.522345  0.085879  1
