# generated using pymatgen
data_TbEr(WN3)2
_symmetry_space_group_name_H-M   'P 1'
_cell_length_a   7.36370616
_cell_length_b   7.36370749
_cell_length_c   6.28292630
_cell_angle_alpha   73.52605464
_cell_angle_beta   73.52604745
_cell_angle_gamma   81.84108788
_symmetry_Int_Tables_number   1
_chemical_formula_structural   TbEr(WN3)2
_chemical_formula_sum   'Tb2 Er2 W4 N12'
_cell_volume   312.58799038
_cell_formula_units_Z   2
loop_
 _symmetry_equiv_pos_site_id
 _symmetry_equiv_pos_as_xyz
  1  'x, y, z'
loop_
 _atom_site_type_symbol
 _atom_site_label
 _atom_site_symmetry_multiplicity
 _atom_site_fract_x
 _atom_site_fract_y
 _atom_site_fract_z
 _atom_site_occupancy
  Tb  Tb0  1  0.712771  0.287229  0.250000  1
  Tb  Tb1  1  0.287229  0.712771  0.750000  1
  Er  Er2  1  0.910300  0.089700  0.750000  1
  Er  Er3  1  0.089700  0.910300  0.250000  1
  W  W4  1  0.620256  0.798836  0.271365  1
  W  W5  1  0.201164  0.379744  0.228635  1
  W  W6  1  0.379744  0.201164  0.728635  1
  W  W7  1  0.798836  0.620256  0.771365  1
  N  N8  1  0.657481  0.631104  0.070782  1
  N  N9  1  0.375109  0.887599  0.333474  1
  N  N10  1  0.368896  0.342519  0.429218  1
  N  N11  1  0.112401  0.624891  0.166526  1
  N  N12  1  0.003097  0.215556  0.348266  1
  N  N13  1  0.784444  0.996903  0.151734  1
  N  N14  1  0.215556  0.003097  0.848266  1
  N  N15  1  0.624891  0.112401  0.666526  1
  N  N16  1  0.342519  0.368896  0.929218  1
  N  N17  1  0.887599  0.375109  0.833474  1
  N  N18  1  0.631104  0.657481  0.570782  1
  N  N19  1  0.996903  0.784444  0.651734  1
