# generated using pymatgen
data_Hf18BeV2FeRe6
_symmetry_space_group_name_H-M   'P 1'
_cell_length_a   8.36582300
_cell_length_b   8.58900744
_cell_length_c   8.58900705
_cell_angle_alpha   120.00961430
_cell_angle_beta   90.00000000
_cell_angle_gamma   90.00000000
_symmetry_Int_Tables_number   1
_chemical_formula_structural   Hf18BeV2FeRe6
_chemical_formula_sum   'Hf18 Be1 V2 Fe1 Re6'
_cell_volume   534.42056148
_cell_formula_units_Z   1
loop_
 _symmetry_equiv_pos_site_id
 _symmetry_equiv_pos_as_xyz
  1  'x, y, z'
loop_
 _atom_site_type_symbol
 _atom_site_label
 _atom_site_symmetry_multiplicity
 _atom_site_fract_x
 _atom_site_fract_y
 _atom_site_fract_z
 _atom_site_occupancy
  Hf  Hf0  1  0.555502  0.804280  0.608605  1
  Hf  Hf1  1  0.555498  0.804174  0.195826  1
  Hf  Hf2  1  0.555502  0.391395  0.195720  1
  Hf  Hf3  1  0.442396  0.200562  0.401181  1
  Hf  Hf4  1  0.442355  0.200532  0.799468  1
  Hf  Hf5  1  0.442396  0.598819  0.799438  1
  Hf  Hf6  1  0.057604  0.200562  0.401181  1
  Hf  Hf7  1  0.057645  0.200532  0.799468  1
  Hf  Hf8  1  0.057604  0.598819  0.799438  1
  Hf  Hf9  1  0.944498  0.804280  0.608605  1
  Hf  Hf10  1  0.944502  0.804174  0.195826  1
  Hf  Hf11  1  0.944498  0.391395  0.195720  1
  Hf  Hf12  1  0.750000  0.460075  0.920228  1
  Hf  Hf13  1  0.750000  0.460220  0.539780  1
  Hf  Hf14  1  0.750000  0.079772  0.539924  1
  Hf  Hf15  1  0.250000  0.540720  0.081522  1
  Hf  Hf16  1  0.250000  0.540682  0.459318  1
  Hf  Hf17  1  0.250000  0.918478  0.459279  1
  Be  Be18  1  0.750000  0.666643  0.333357  1
  V  V19  1  0.497825  0.000052  0.999948  1
  V  V20  1  0.002175  0.000052  0.999948  1
  Fe  Fe21  1  0.250000  0.333884  0.666116  1
  Re  Re22  1  0.750000  0.109615  0.219343  1
  Re  Re23  1  0.750000  0.109665  0.890335  1
  Re  Re24  1  0.750000  0.780657  0.890385  1
  Re  Re25  1  0.250000  0.889594  0.779239  1
  Re  Re26  1  0.250000  0.889606  0.110394  1
  Re  Re27  1  0.250000  0.220761  0.110406  1
