# generated using pymatgen
data_Yb5Ni2Ag
_symmetry_space_group_name_H-M   'P 1'
_cell_length_a   7.39711768
_cell_length_b   7.39711774
_cell_length_c   8.80031412
_cell_angle_alpha   114.85199823
_cell_angle_beta   114.85199235
_cell_angle_gamma   89.99999827
_symmetry_Int_Tables_number   1
_chemical_formula_structural   Yb5Ni2Ag
_chemical_formula_sum   'Yb10 Ni4 Ag2'
_cell_volume   387.24603193
_cell_formula_units_Z   2
loop_
 _symmetry_equiv_pos_site_id
 _symmetry_equiv_pos_as_xyz
  1  'x, y, z'
loop_
 _atom_site_type_symbol
 _atom_site_label
 _atom_site_symmetry_multiplicity
 _atom_site_fract_x
 _atom_site_fract_y
 _atom_site_fract_z
 _atom_site_occupancy
  Yb  Yb0  1  0.000000  0.000000  0.000000  1
  Yb  Yb1  1  0.500000  0.500000  0.000000  1
  Yb  Yb2  1  0.463143  0.301868  0.265010  1
  Yb  Yb3  1  0.963142  0.463143  0.265010  1
  Yb  Yb4  1  0.301868  0.801869  0.265010  1
  Yb  Yb5  1  0.801869  0.963142  0.265010  1
  Yb  Yb6  1  0.198131  0.036857  0.734990  1
  Yb  Yb7  1  0.698132  0.198131  0.734990  1
  Yb  Yb8  1  0.036857  0.536857  0.734990  1
  Yb  Yb9  1  0.536857  0.698132  0.734990  1
  Ni  Ni10  1  0.616931  0.116932  0.000000  1
  Ni  Ni11  1  0.116932  0.383068  0.000000  1
  Ni  Ni12  1  0.883068  0.616931  0.000000  1
  Ni  Ni13  1  0.383068  0.883068  0.000000  1
  Ag  Ag14  1  0.250000  0.250000  0.500000  1
  Ag  Ag15  1  0.750000  0.750000  0.500000  1
