# generated using pymatgen
data_K8TaFeSe8
_symmetry_space_group_name_H-M   'P 1'
_cell_length_a   8.43616816
_cell_length_b   10.00658700
_cell_length_c   14.88271200
_cell_angle_alpha   90.00000000
_cell_angle_beta   91.59171338
_cell_angle_gamma   90.00000000
_symmetry_Int_Tables_number   1
_chemical_formula_structural   K8TaFeSe8
_chemical_formula_sum   'K16 Ta2 Fe2 Se16'
_cell_volume   1255.87285390
_cell_formula_units_Z   2
loop_
 _symmetry_equiv_pos_site_id
 _symmetry_equiv_pos_as_xyz
  1  'x, y, z'
loop_
 _atom_site_type_symbol
 _atom_site_label
 _atom_site_symmetry_multiplicity
 _atom_site_fract_x
 _atom_site_fract_y
 _atom_site_fract_z
 _atom_site_occupancy
  K  K0  1  0.000000  0.000000  0.000000  1
  K  K1  1  0.500000  0.000000  0.500000  1
  K  K2  1  0.000000  0.500000  0.000000  1
  K  K3  1  0.500000  0.500000  0.500000  1
  K  K4  1  0.993159  0.750000  0.443583  1
  K  K5  1  0.474522  0.250000  0.087540  1
  K  K6  1  0.006841  0.250000  0.556417  1
  K  K7  1  0.525478  0.750000  0.912460  1
  K  K8  1  0.849465  0.063947  0.281298  1
  K  K9  1  0.339124  0.963544  0.230311  1
  K  K10  1  0.150535  0.563947  0.718702  1
  K  K11  1  0.660876  0.463544  0.769689  1
  K  K12  1  0.150535  0.936053  0.718702  1
  K  K13  1  0.660876  0.036456  0.769689  1
  K  K14  1  0.849465  0.436053  0.281298  1
  K  K15  1  0.339124  0.536456  0.230311  1
  Ta  Ta16  1  0.740521  0.750000  0.164380  1
  Ta  Ta17  1  0.259479  0.250000  0.835620  1
  Fe  Fe18  1  0.759056  0.750000  0.669986  1
  Fe  Fe19  1  0.240944  0.250000  0.330014  1
  Se  Se20  1  0.972709  0.250000  0.828770  1
  Se  Se21  1  0.529801  0.250000  0.316958  1
  Se  Se22  1  0.470199  0.750000  0.683042  1
  Se  Se23  1  0.027291  0.750000  0.171230  1
  Se  Se24  1  0.647775  0.552025  0.086959  1
  Se  Se25  1  0.160974  0.449270  0.407316  1
  Se  Se26  1  0.352225  0.052025  0.913041  1
  Se  Se27  1  0.839026  0.949270  0.592684  1
  Se  Se28  1  0.352225  0.447975  0.913041  1
  Se  Se29  1  0.839026  0.550730  0.592684  1
  Se  Se30  1  0.647775  0.947975  0.086959  1
  Se  Se31  1  0.160974  0.050730  0.407316  1
  Se  Se32  1  0.635476  0.750000  0.314093  1
  Se  Se33  1  0.119262  0.250000  0.174536  1
  Se  Se34  1  0.364524  0.250000  0.685907  1
  Se  Se35  1  0.880738  0.750000  0.825464  1
