# generated using pymatgen
data_Er2PuTi(PN3)4
_symmetry_space_group_name_H-M   'P 1'
_cell_length_a   6.75197202
_cell_length_b   6.75197082
_cell_length_c   5.30898035
_cell_angle_alpha   78.62772575
_cell_angle_beta   78.62772822
_cell_angle_gamma   85.65556534
_symmetry_Int_Tables_number   1
_chemical_formula_structural   Er2PuTi(PN3)4
_chemical_formula_sum   'Er2 Pu1 Ti1 P4 N12'
_cell_volume   232.45003377
_cell_formula_units_Z   1
loop_
 _symmetry_equiv_pos_site_id
 _symmetry_equiv_pos_as_xyz
  1  'x, y, z'
loop_
 _atom_site_type_symbol
 _atom_site_label
 _atom_site_symmetry_multiplicity
 _atom_site_fract_x
 _atom_site_fract_y
 _atom_site_fract_z
 _atom_site_occupancy
  Er  Er0  1  0.924869  0.075131  0.250000  1
  Er  Er1  1  0.323386  0.676614  0.250000  1
  Pu  Pu2  1  0.697642  0.302358  0.750000  1
  Ti  Ti3  1  0.127090  0.872910  0.750000  1
  P  P4  1  0.197985  0.381954  0.759756  1
  P  P5  1  0.369522  0.206394  0.267474  1
  P  P6  1  0.793606  0.630478  0.232526  1
  P  P7  1  0.618046  0.802015  0.740244  1
  N  N8  1  0.299453  0.377624  0.023066  1
  N  N9  1  0.019063  0.220761  0.825982  1
  N  N10  1  0.987835  0.767606  0.132250  1
  N  N11  1  0.381658  0.332341  0.506972  1
  N  N12  1  0.606138  0.161267  0.125301  1
  N  N13  1  0.385339  0.872034  0.837760  1
  N  N14  1  0.838733  0.393862  0.374699  1
  N  N15  1  0.667659  0.618342  0.993028  1
  N  N16  1  0.779239  0.980937  0.674018  1
  N  N17  1  0.127966  0.614661  0.662240  1
  N  N18  1  0.232394  0.012165  0.367750  1
  N  N19  1  0.622376  0.700547  0.476934  1
