# generated using pymatgen
data_TbYV3Co9As7
_symmetry_space_group_name_H-M   'P 1'
_cell_length_a   3.77479800
_cell_length_b   9.40819263
_cell_length_c   9.40819300
_cell_angle_alpha   119.99999779
_cell_angle_beta   90.00000000
_cell_angle_gamma   90.00000000
_symmetry_Int_Tables_number   1
_chemical_formula_structural   TbYV3Co9As7
_chemical_formula_sum   'Tb1 Y1 V3 Co9 As7'
_cell_volume   289.35885439
_cell_formula_units_Z   1
loop_
 _symmetry_equiv_pos_site_id
 _symmetry_equiv_pos_as_xyz
  1  'x, y, z'
loop_
 _atom_site_type_symbol
 _atom_site_label
 _atom_site_symmetry_multiplicity
 _atom_site_fract_x
 _atom_site_fract_y
 _atom_site_fract_z
 _atom_site_occupancy
  Tb  Tb0  1  0.500000  0.333333  0.666667  1
  Y  Y1  1  0.000000  0.666667  0.333333  1
  V  V2  1  0.500000  0.782150  0.898832  1
  V  V3  1  0.500000  0.116682  0.217850  1
  V  V4  1  0.500000  0.101168  0.883318  1
  Co  Co5  1  0.000000  0.569922  0.941517  1
  Co  Co6  1  0.000000  0.371593  0.430078  1
  Co  Co7  1  0.000000  0.058483  0.628407  1
  Co  Co8  1  0.000000  0.878075  0.157370  1
  Co  Co9  1  0.000000  0.279295  0.121925  1
  Co  Co10  1  0.000000  0.842630  0.720705  1
  Co  Co11  1  0.500000  0.950264  0.382810  1
  Co  Co12  1  0.500000  0.432545  0.049736  1
  Co  Co13  1  0.500000  0.617190  0.567455  1
  As  As14  1  0.000000  0.000000  0.000000  1
  As  As15  1  0.500000  0.708046  0.118075  1
  As  As16  1  0.500000  0.410029  0.291954  1
  As  As17  1  0.500000  0.881925  0.589971  1
  As  As18  1  0.000000  0.587382  0.702079  1
  As  As19  1  0.000000  0.114697  0.412618  1
  As  As20  1  0.000000  0.297921  0.885303  1
