# generated using pymatgen
data_La5Bi4Te
_symmetry_space_group_name_H-M   'P 1'
_cell_length_a   12.34789075
_cell_length_b   12.34789187
_cell_length_c   12.34789014
_cell_angle_alpha   157.86213411
_cell_angle_beta   148.92127517
_cell_angle_gamma   38.48799553
_symmetry_Int_Tables_number   1
_chemical_formula_structural   La5Bi4Te
_chemical_formula_sum   'La5 Bi4 Te1'
_cell_volume   365.69474227
_cell_formula_units_Z   1
loop_
 _symmetry_equiv_pos_site_id
 _symmetry_equiv_pos_as_xyz
  1  'x, y, z'
loop_
 _atom_site_type_symbol
 _atom_site_label
 _atom_site_symmetry_multiplicity
 _atom_site_fract_x
 _atom_site_fract_y
 _atom_site_fract_z
 _atom_site_occupancy
  La  La0  1  0.897635  0.897635  0.000000  1
  La  La1  1  0.102365  0.102365  0.000000  1
  La  La2  1  0.300565  0.300565  0.000000  1
  La  La3  1  0.699435  0.699435  0.000000  1
  La  La4  1  0.500000  0.500000  0.000000  1
  Bi  Bi5  1  0.599227  0.099227  0.500000  1
  Bi  Bi6  1  0.400773  0.900773  0.500000  1
  Bi  Bi7  1  0.799897  0.299897  0.500000  1
  Bi  Bi8  1  0.200103  0.700103  0.500000  1
  Te  Te9  1  0.000000  0.500000  0.500000  1
