# generated using pymatgen
data_Tb3YbCr2(SbO7)2
_symmetry_space_group_name_H-M   'P 1'
_cell_length_a   7.30337398
_cell_length_b   7.18742584
_cell_length_c   7.35445200
_cell_angle_alpha   89.99938707
_cell_angle_beta   59.76559720
_cell_angle_gamma   120.11113261
_symmetry_Int_Tables_number   1
_chemical_formula_structural   Tb3YbCr2(SbO7)2
_chemical_formula_sum   'Tb3 Yb1 Cr2 Sb2 O14'
_cell_volume   271.54714278
_cell_formula_units_Z   1
loop_
 _symmetry_equiv_pos_site_id
 _symmetry_equiv_pos_as_xyz
  1  'x, y, z'
loop_
 _atom_site_type_symbol
 _atom_site_label
 _atom_site_symmetry_multiplicity
 _atom_site_fract_x
 _atom_site_fract_y
 _atom_site_fract_z
 _atom_site_occupancy
  Tb  Tb0  1  0.499946  0.999945  0.999966  1
  Tb  Tb1  1  0.000093  0.000109  0.500010  1
  Tb  Tb2  1  0.000016  0.999949  0.999888  1
  Yb  Yb3  1  0.499903  0.499897  0.000098  1
  Cr  Cr4  1  0.499737  0.000175  0.499991  1
  Cr  Cr5  1  0.500377  0.500434  0.500123  1
  Sb  Sb6  1  0.999937  0.499947  0.000003  1
  Sb  Sb7  1  0.000135  0.499810  0.499957  1
  O  O8  1  0.244024  0.117863  0.127938  1
  O  O9  1  0.755802  0.881948  0.872077  1
  O  O10  1  0.652570  0.819293  0.423707  1
  O  O11  1  0.836135  0.418277  0.831906  1
  O  O12  1  0.249146  0.834892  0.834232  1
  O  O13  1  0.251417  0.422071  0.421772  1
  O  O14  1  0.251352  0.422063  0.826997  1
  O  O15  1  0.249045  0.834880  0.416537  1
  O  O16  1  0.347659  0.181059  0.576177  1
  O  O17  1  0.163714  0.581627  0.168099  1
  O  O18  1  0.750832  0.164962  0.165678  1
  O  O19  1  0.748780  0.577952  0.578351  1
  O  O20  1  0.748677  0.577920  0.173070  1
  O  O21  1  0.750706  0.164925  0.583425  1
