# generated using pymatgen
data_Nd2TiFe5Co6P7
_symmetry_space_group_name_H-M   'P 1'
_cell_length_a   9.13709572
_cell_length_b   9.10449694
_cell_length_c   3.66966100
_cell_angle_alpha   90.00000000
_cell_angle_beta   90.00000000
_cell_angle_gamma   120.02872598
_symmetry_Int_Tables_number   1
_chemical_formula_structural   Nd2TiFe5Co6P7
_chemical_formula_sum   'Nd2 Ti1 Fe5 Co6 P7'
_cell_volume   264.29863636
_cell_formula_units_Z   1
loop_
 _symmetry_equiv_pos_site_id
 _symmetry_equiv_pos_as_xyz
  1  'x, y, z'
loop_
 _atom_site_type_symbol
 _atom_site_label
 _atom_site_symmetry_multiplicity
 _atom_site_fract_x
 _atom_site_fract_y
 _atom_site_fract_z
 _atom_site_occupancy
  Nd  Nd0  1  0.664213  0.330937  0.000000  1
  Nd  Nd1  1  0.333560  0.664465  0.500000  1
  Ti  Ti2  1  0.104827  0.891578  0.500000  1
  Fe  Fe3  1  0.272103  0.121455  0.000000  1
  Fe  Fe4  1  0.842211  0.724834  0.000000  1
  Fe  Fe5  1  0.879175  0.153107  0.000000  1
  Fe  Fe6  1  0.777293  0.900422  0.500000  1
  Fe  Fe7  1  0.124684  0.225070  0.500000  1
  Co  Co8  1  0.058320  0.625306  0.000000  1
  Co  Co9  1  0.572982  0.941806  0.000000  1
  Co  Co10  1  0.371091  0.429488  0.000000  1
  Co  Co11  1  0.437338  0.051005  0.500000  1
  Co  Co12  1  0.614739  0.565676  0.500000  1
  Co  Co13  1  0.949666  0.380060  0.500000  1
  P  P14  1  0.304444  0.894265  0.000000  1
  P  P15  1  0.596496  0.704548  0.000000  1
  P  P16  1  0.105864  0.402531  0.000000  1
  P  P17  1  0.395734  0.289313  0.500000  1
  P  P18  1  0.886629  0.593436  0.500000  1
  P  P19  1  0.714031  0.108101  0.500000  1
  P  P20  1  0.994598  0.002599  0.000000  1
