# generated using pymatgen
data_Cd4SnPbO8
_symmetry_space_group_name_H-M   'P 1'
_cell_length_a   6.71539429
_cell_length_b   6.70113112
_cell_length_c   6.70113047
_cell_angle_alpha   121.18198872
_cell_angle_beta   120.00256297
_cell_angle_gamma   88.92157149
_symmetry_Int_Tables_number   1
_chemical_formula_structural   Cd4SnPbO8
_chemical_formula_sum   'Cd4 Sn1 Pb1 O8'
_cell_volume   211.36439876
_cell_formula_units_Z   1
loop_
 _symmetry_equiv_pos_site_id
 _symmetry_equiv_pos_as_xyz
  1  'x, y, z'
loop_
 _atom_site_type_symbol
 _atom_site_label
 _atom_site_symmetry_multiplicity
 _atom_site_fract_x
 _atom_site_fract_y
 _atom_site_fract_z
 _atom_site_occupancy
  Cd  Cd0  1  0.889462  0.140570  0.748892  1
  Cd  Cd1  1  0.500000  0.000000  0.000000  1
  Cd  Cd2  1  0.500000  0.500000  0.500000  1
  Cd  Cd3  1  0.110538  0.859430  0.251108  1
  Sn  Sn4  1  0.000000  0.500000  0.500000  1
  Pb  Pb5  1  0.500000  0.500000  0.000000  1
  O  O6  1  0.761258  0.278720  0.040038  1
  O  O7  1  0.761258  0.721220  0.482538  1
  O  O8  1  0.770334  0.283031  0.487304  1
  O  O9  1  0.291224  0.275385  0.015841  1
  O  O10  1  0.708776  0.724615  0.984159  1
  O  O11  1  0.229666  0.716969  0.512696  1
  O  O12  1  0.238742  0.278780  0.517462  1
  O  O13  1  0.238742  0.721280  0.959962  1
