# generated using pymatgen
data_Gd3In2Sn3
_symmetry_space_group_name_H-M   'P 1'
_cell_length_a   8.53627531
_cell_length_b   8.53635554
_cell_length_c   8.53634200
_cell_angle_alpha   119.86817882
_cell_angle_beta   119.86833327
_cell_angle_gamma   90.22876814
_symmetry_Int_Tables_number   1
_chemical_formula_structural   Gd3In2Sn3
_chemical_formula_sum   'Gd6 In4 Sn6'
_cell_volume   440.71344871
_cell_formula_units_Z   2
loop_
 _symmetry_equiv_pos_site_id
 _symmetry_equiv_pos_as_xyz
  1  'x, y, z'
loop_
 _atom_site_type_symbol
 _atom_site_label
 _atom_site_symmetry_multiplicity
 _atom_site_fract_x
 _atom_site_fract_y
 _atom_site_fract_z
 _atom_site_occupancy
  Gd  Gd0  1  0.760666  0.760856  0.999993  1
  Gd  Gd1  1  0.260756  0.260692  0.999967  1
  Gd  Gd2  1  0.338559  0.838507  0.186410  1
  Gd  Gd3  1  0.651992  0.152043  0.813828  1
  Gd  Gd4  1  0.838791  0.651227  0.499969  1
  Gd  Gd5  1  0.151172  0.338795  0.500033  1
  In  In6  1  0.031733  0.531749  0.213747  1
  In  In7  1  0.317942  0.817818  0.785806  1
  In  In8  1  0.531208  0.317697  0.500118  1
  In  In9  1  0.817712  0.031106  0.499953  1
  Sn  Sn10  1  0.966957  0.466951  0.795943  1
  Sn  Sn11  1  0.671212  0.171260  0.204182  1
  Sn  Sn12  1  0.467413  0.671318  0.500165  1
  Sn  Sn13  1  0.171328  0.967449  0.500233  1
  Sn  Sn14  1  0.011309  0.011114  0.999723  1
  Sn  Sn15  1  0.511254  0.511419  0.999930  1
