# generated using pymatgen
data_Cu2Bi3PbO8
_symmetry_space_group_name_H-M   'P 1'
_cell_length_a   8.45091900
_cell_length_b   8.41717604
_cell_length_c   6.09135900
_cell_angle_alpha   88.58509672
_cell_angle_beta   90.00000000
_cell_angle_gamma   90.00000000
_symmetry_Int_Tables_number   1
_chemical_formula_structural   Cu2Bi3PbO8
_chemical_formula_sum   'Cu4 Bi6 Pb2 O16'
_cell_volume   433.16375362
_cell_formula_units_Z   2
loop_
 _symmetry_equiv_pos_site_id
 _symmetry_equiv_pos_as_xyz
  1  'x, y, z'
loop_
 _atom_site_type_symbol
 _atom_site_label
 _atom_site_symmetry_multiplicity
 _atom_site_fract_x
 _atom_site_fract_y
 _atom_site_fract_z
 _atom_site_occupancy
  Cu  Cu0  1  0.000277  0.497525  0.074353  1
  Cu  Cu1  1  0.500277  0.002475  0.425647  1
  Cu  Cu2  1  0.502308  0.001671  0.918273  1
  Cu  Cu3  1  0.002308  0.498329  0.581727  1
  Bi  Bi4  1  0.831955  0.156604  0.253158  1
  Bi  Bi5  1  0.331955  0.343396  0.246842  1
  Bi  Bi6  1  0.831670  0.823201  0.751373  1
  Bi  Bi7  1  0.331670  0.676799  0.748627  1
  Bi  Bi8  1  0.676243  0.333494  0.750068  1
  Bi  Bi9  1  0.176243  0.166506  0.749932  1
  Pb  Pb10  1  0.650774  0.658287  0.251675  1
  Pb  Pb11  1  0.150774  0.841713  0.248325  1
  O  O12  1  0.591374  0.795424  0.894532  1
  O  O13  1  0.296358  0.910839  0.893642  1
  O  O14  1  0.708634  0.095438  0.919786  1
  O  O15  1  0.404896  0.209241  0.915677  1
  O  O16  1  0.904896  0.290759  0.584323  1
  O  O17  1  0.091374  0.704576  0.605468  1
  O  O18  1  0.796358  0.589161  0.606358  1
  O  O19  1  0.208634  0.404562  0.580214  1
  O  O20  1  0.898820  0.697534  0.076612  1
  O  O21  1  0.203155  0.593554  0.090686  1
  O  O22  1  0.801191  0.391611  0.076270  1
  O  O23  1  0.102344  0.294472  0.090071  1
  O  O24  1  0.602344  0.205528  0.409929  1
  O  O25  1  0.398820  0.802466  0.423388  1
  O  O26  1  0.703155  0.906446  0.409314  1
  O  O27  1  0.301191  0.108389  0.423730  1
