# generated using pymatgen
data_Ce2Y14Cd4AgIr3
_symmetry_space_group_name_H-M   'P 1'
_cell_length_a   9.70684924
_cell_length_b   9.70684950
_cell_length_c   9.71970120
_cell_angle_alpha   60.41697542
_cell_angle_beta   60.41697211
_cell_angle_gamma   60.01035840
_symmetry_Int_Tables_number   1
_chemical_formula_structural   Ce2Y14Cd4AgIr3
_chemical_formula_sum   'Ce2 Y14 Cd4 Ag1 Ir3'
_cell_volume   651.68467827
_cell_formula_units_Z   1
loop_
 _symmetry_equiv_pos_site_id
 _symmetry_equiv_pos_as_xyz
  1  'x, y, z'
loop_
 _atom_site_type_symbol
 _atom_site_label
 _atom_site_symmetry_multiplicity
 _atom_site_fract_x
 _atom_site_fract_y
 _atom_site_fract_z
 _atom_site_occupancy
  Ce  Ce0  1  0.342620  0.342620  0.344806  1
  Ce  Ce1  1  0.358104  0.358104  0.940534  1
  Y  Y2  1  0.361539  0.933773  0.360600  1
  Y  Y3  1  0.933773  0.361539  0.360600  1
  Y  Y4  1  0.797891  0.191858  0.191972  1
  Y  Y5  1  0.190421  0.813620  0.810382  1
  Y  Y6  1  0.191858  0.797891  0.191972  1
  Y  Y7  1  0.813620  0.190421  0.810382  1
  Y  Y8  1  0.189964  0.189964  0.804310  1
  Y  Y9  1  0.812540  0.812540  0.188343  1
  Y  Y10  1  0.938451  0.564138  0.566268  1
  Y  Y11  1  0.565986  0.940884  0.936782  1
  Y  Y12  1  0.564138  0.938451  0.566268  1
  Y  Y13  1  0.940884  0.565986  0.936782  1
  Y  Y14  1  0.564687  0.564687  0.937333  1
  Y  Y15  1  0.938845  0.938845  0.565236  1
  Cd  Cd16  1  0.582824  0.582824  0.581017  1
  Cd  Cd17  1  0.579732  0.579732  0.254275  1
  Cd  Cd18  1  0.579800  0.253968  0.580724  1
  Cd  Cd19  1  0.253968  0.579800  0.580724  1
  Ag  Ag20  1  0.141857  0.141857  0.150221  1
  Ir  Ir21  1  0.142686  0.142686  0.569934  1
  Ir  Ir22  1  0.145701  0.568115  0.135269  1
  Ir  Ir23  1  0.568115  0.145701  0.135269  1
