# generated using pymatgen
data_Ca4Y4Cd3Hg5
_symmetry_space_group_name_H-M   'P 1'
_cell_length_a   7.55377477
_cell_length_b   7.55303790
_cell_length_c   7.49720100
_cell_angle_alpha   89.99969572
_cell_angle_beta   89.99887313
_cell_angle_gamma   90.05392487
_symmetry_Int_Tables_number   1
_chemical_formula_structural   Ca4Y4Cd3Hg5
_chemical_formula_sum   'Ca4 Y4 Cd3 Hg5'
_cell_volume   427.74472024
_cell_formula_units_Z   1
loop_
 _symmetry_equiv_pos_site_id
 _symmetry_equiv_pos_as_xyz
  1  'x, y, z'
loop_
 _atom_site_type_symbol
 _atom_site_label
 _atom_site_symmetry_multiplicity
 _atom_site_fract_x
 _atom_site_fract_y
 _atom_site_fract_z
 _atom_site_occupancy
  Ca  Ca0  1  0.748730  0.250774  0.997692  1
  Ca  Ca1  1  0.250279  0.749200  0.502309  1
  Ca  Ca2  1  0.749757  0.250804  0.502534  1
  Ca  Ca3  1  0.251303  0.749240  0.997444  1
  Y  Y4  1  0.251773  0.250991  0.997326  1
  Y  Y5  1  0.748237  0.749004  0.997336  1
  Y  Y6  1  0.749752  0.748983  0.502653  1
  Y  Y7  1  0.250258  0.251011  0.502685  1
  Cd  Cd8  1  0.000182  0.500130  0.248635  1
  Cd  Cd9  1  0.000180  0.999868  0.248656  1
  Cd  Cd10  1  0.500172  0.000129  0.251358  1
  Hg  Hg11  1  0.500214  0.499872  0.251305  1
  Hg  Hg12  1  0.499787  0.500124  0.748662  1
  Hg  Hg13  1  0.499794  0.999879  0.748598  1
  Hg  Hg14  1  0.999790  0.000116  0.751400  1
  Hg  Hg15  1  0.999791  0.499879  0.751410  1
