# generated using pymatgen
data_Ba2ErBrO3
_symmetry_space_group_name_H-M   'P 1'
_cell_length_a   4.41481500
_cell_length_b   4.41481500
_cell_length_c   15.59084700
_cell_angle_alpha   90.00000000
_cell_angle_beta   90.00000000
_cell_angle_gamma   90.00000000
_symmetry_Int_Tables_number   1
_chemical_formula_structural   Ba2ErBrO3
_chemical_formula_sum   'Ba4 Er2 Br2 O6'
_cell_volume   303.87482977
_cell_formula_units_Z   2
loop_
 _symmetry_equiv_pos_site_id
 _symmetry_equiv_pos_as_xyz
  1  'x, y, z'
loop_
 _atom_site_type_symbol
 _atom_site_label
 _atom_site_symmetry_multiplicity
 _atom_site_fract_x
 _atom_site_fract_y
 _atom_site_fract_z
 _atom_site_occupancy
  Ba  Ba0  1  0.000000  0.500000  0.660863  1
  Ba  Ba1  1  0.500000  0.000000  0.339137  1
  Ba  Ba2  1  0.500000  0.000000  0.091571  1
  Ba  Ba3  1  0.000000  0.500000  0.908429  1
  Er  Er4  1  0.000000  0.500000  0.209014  1
  Er  Er5  1  0.500000  0.000000  0.790986  1
  Br  Br6  1  0.500000  0.000000  0.578638  1
  Br  Br7  1  0.000000  0.500000  0.421362  1
  O  O8  1  0.000000  0.000000  0.769498  1
  O  O9  1  0.500000  0.500000  0.769498  1
  O  O10  1  0.000000  0.000000  0.230502  1
  O  O11  1  0.500000  0.000000  0.927163  1
  O  O12  1  0.500000  0.500000  0.230502  1
  O  O13  1  0.000000  0.500000  0.072837  1
