# generated using pymatgen
data_Tb2LuMgIr8
_symmetry_space_group_name_H-M   'P 1'
_cell_length_a   5.32244200
_cell_length_b   5.32244115
_cell_length_c   8.64222800
_cell_angle_alpha   90.00000000
_cell_angle_beta   90.00000000
_cell_angle_gamma   120.00000529
_symmetry_Int_Tables_number   1
_chemical_formula_structural   Tb2LuMgIr8
_chemical_formula_sum   'Tb2 Lu1 Mg1 Ir8'
_cell_volume   212.02063648
_cell_formula_units_Z   1
loop_
 _symmetry_equiv_pos_site_id
 _symmetry_equiv_pos_as_xyz
  1  'x, y, z'
loop_
 _atom_site_type_symbol
 _atom_site_label
 _atom_site_symmetry_multiplicity
 _atom_site_fract_x
 _atom_site_fract_y
 _atom_site_fract_z
 _atom_site_occupancy
  Tb  Tb0  1  0.333333  0.666667  0.077809  1
  Tb  Tb1  1  0.666667  0.333333  0.559492  1
  Lu  Lu2  1  0.666667  0.333333  0.930688  1
  Mg  Mg3  1  0.333333  0.666667  0.439814  1
  Ir  Ir4  1  0.000000  0.000000  0.996905  1
  Ir  Ir5  1  0.000000  0.000000  0.497449  1
  Ir  Ir6  1  0.830389  0.660779  0.249988  1
  Ir  Ir7  1  0.170528  0.829472  0.749294  1
  Ir  Ir8  1  0.658943  0.829472  0.749294  1
  Ir  Ir9  1  0.339221  0.169611  0.249988  1
  Ir  Ir10  1  0.830389  0.169611  0.249988  1
  Ir  Ir11  1  0.170528  0.341057  0.749294  1
