# generated using pymatgen
data_Cs2Os3Cl7O5
_symmetry_space_group_name_H-M   'P 1'
_cell_length_a   10.06335848
_cell_length_b   10.06335884
_cell_length_c   10.58533206
_cell_angle_alpha   74.62606552
_cell_angle_beta   74.62606499
_cell_angle_gamma   50.90524948
_symmetry_Int_Tables_number   1
_chemical_formula_structural   Cs2Os3Cl7O5
_chemical_formula_sum   'Cs4 Os6 Cl14 O10'
_cell_volume   795.30478313
_cell_formula_units_Z   2
loop_
 _symmetry_equiv_pos_site_id
 _symmetry_equiv_pos_as_xyz
  1  'x, y, z'
loop_
 _atom_site_type_symbol
 _atom_site_label
 _atom_site_symmetry_multiplicity
 _atom_site_fract_x
 _atom_site_fract_y
 _atom_site_fract_z
 _atom_site_occupancy
  Cs  Cs0  1  0.734946  0.835625  0.858233  1
  Cs  Cs1  1  0.164375  0.265054  0.641767  1
  Cs  Cs2  1  0.265054  0.164375  0.141767  1
  Cs  Cs3  1  0.835625  0.734946  0.358233  1
  Os  Os4  1  0.211052  0.791089  0.543279  1
  Os  Os5  1  0.208911  0.788948  0.956721  1
  Os  Os6  1  0.788948  0.208911  0.456721  1
  Os  Os7  1  0.791089  0.211052  0.043279  1
  Os  Os8  1  0.442483  0.557517  0.250000  1
  Os  Os9  1  0.557517  0.442483  0.750000  1
  Cl  Cl10  1  0.068151  0.658359  0.614184  1
  Cl  Cl11  1  0.341641  0.931849  0.885816  1
  Cl  Cl12  1  0.931849  0.341641  0.385816  1
  Cl  Cl13  1  0.658359  0.068151  0.114184  1
  Cl  Cl14  1  0.350427  0.926488  0.474225  1
  Cl  Cl15  1  0.073512  0.649573  0.025775  1
  Cl  Cl16  1  0.649573  0.073512  0.525775  1
  Cl  Cl17  1  0.926488  0.350427  0.974225  1
  Cl  Cl18  1  0.303067  0.419512  0.319324  1
  Cl  Cl19  1  0.580488  0.696933  0.180676  1
  Cl  Cl20  1  0.696933  0.580488  0.680676  1
  Cl  Cl21  1  0.419512  0.303067  0.819324  1
  Cl  Cl22  1  0.085249  0.914751  0.750000  1
  Cl  Cl23  1  0.914751  0.085249  0.250000  1
  O  O24  1  0.294978  0.705381  0.379658  1
  O  O25  1  0.294619  0.705022  0.120342  1
  O  O26  1  0.705022  0.294619  0.620342  1
  O  O27  1  0.705381  0.294978  0.879658  1
  O  O28  1  0.402807  0.597778  0.624189  1
  O  O29  1  0.402222  0.597193  0.875811  1
  O  O30  1  0.597193  0.402222  0.375811  1
  O  O31  1  0.597778  0.402807  0.124189  1
  O  O32  1  0.000000  0.000000  0.500000  1
  O  O33  1  0.000000  0.000000  0.000000  1
