# generated using pymatgen
data_PbWSeO6
_symmetry_space_group_name_H-M   'P 1'
_cell_length_a   7.03108370
_cell_length_b   7.37853487
_cell_length_c   11.09658793
_cell_angle_alpha   99.67929981
_cell_angle_beta   100.04200682
_cell_angle_gamma   89.96184521
_symmetry_Int_Tables_number   1
_chemical_formula_structural   PbWSeO6
_chemical_formula_sum   'Pb4 W4 Se4 O24'
_cell_volume   558.54845346
_cell_formula_units_Z   4
loop_
 _symmetry_equiv_pos_site_id
 _symmetry_equiv_pos_as_xyz
  1  'x, y, z'
loop_
 _atom_site_type_symbol
 _atom_site_label
 _atom_site_symmetry_multiplicity
 _atom_site_fract_x
 _atom_site_fract_y
 _atom_site_fract_z
 _atom_site_occupancy
  Pb  Pb0  1  0.752418  0.860958  0.518063  1
  Pb  Pb1  1  0.247582  0.139042  0.481937  1
  Pb  Pb2  1  0.684691  0.708449  0.853345  1
  Pb  Pb3  1  0.315309  0.291551  0.146655  1
  W  W4  1  0.167980  0.954970  0.798813  1
  W  W5  1  0.832020  0.045030  0.201187  1
  W  W6  1  0.168870  0.452260  0.796950  1
  W  W7  1  0.831130  0.547740  0.203050  1
  Se  Se8  1  0.292111  0.642097  0.534873  1
  Se  Se9  1  0.707889  0.357903  0.465127  1
  Se  Se10  1  0.608678  0.191687  0.781486  1
  Se  Se11  1  0.391322  0.808313  0.218514  1
  O  O12  1  0.176899  0.048374  0.957702  1
  O  O13  1  0.823101  0.951626  0.042298  1
  O  O14  1  0.909562  0.891162  0.753950  1
  O  O15  1  0.090438  0.108838  0.246050  1
  O  O16  1  0.139860  0.185913  0.730516  1
  O  O17  1  0.860140  0.814087  0.269484  1
  O  O18  1  0.260287  0.711063  0.823718  1
  O  O19  1  0.739713  0.288937  0.176282  1
  O  O20  1  0.185367  0.842974  0.600611  1
  O  O21  1  0.814633  0.157026  0.399389  1
  O  O22  1  0.470794  0.019024  0.818933  1
  O  O23  1  0.529206  0.980976  0.181067  1
  O  O24  1  0.195220  0.438609  0.957518  1
  O  O25  1  0.804780  0.561391  0.042482  1
  O  O26  1  0.914665  0.495484  0.760520  1
  O  O27  1  0.085335  0.504516  0.239480  1
  O  O28  1  0.206529  0.468316  0.605615  1
  O  O29  1  0.793471  0.531684  0.394385  1
  O  O30  1  0.477707  0.390159  0.807191  1
  O  O31  1  0.522293  0.609841  0.192809  1
  O  O32  1  0.529641  0.675008  0.607164  1
  O  O33  1  0.470359  0.324992  0.392836  1
  O  O34  1  0.568521  0.134824  0.620918  1
  O  O35  1  0.431479  0.865176  0.379082  1
