# generated using pymatgen
data_Y3PaMnV3B16
_symmetry_space_group_name_H-M   'P 1'
_cell_length_a   3.48225400
_cell_length_b   5.96126665
_cell_length_c   11.52433917
_cell_angle_alpha   89.97179641
_cell_angle_beta   90.00000000
_cell_angle_gamma   90.00000000
_symmetry_Int_Tables_number   1
_chemical_formula_structural   Y3PaMnV3B16
_chemical_formula_sum   'Y3 Pa1 Mn1 V3 B16'
_cell_volume   239.22963231
_cell_formula_units_Z   1
loop_
 _symmetry_equiv_pos_site_id
 _symmetry_equiv_pos_as_xyz
  1  'x, y, z'
loop_
 _atom_site_type_symbol
 _atom_site_label
 _atom_site_symmetry_multiplicity
 _atom_site_fract_x
 _atom_site_fract_y
 _atom_site_fract_z
 _atom_site_occupancy
  Y  Y0  1  0.000000  0.375228  0.651850  1
  Y  Y1  1  0.000000  0.122915  0.149585  1
  Y  Y2  1  0.000000  0.875040  0.849481  1
  Pa  Pa3  1  0.000000  0.625318  0.348579  1
  Mn  Mn4  1  0.000000  0.622670  0.083295  1
  V  V5  1  0.000000  0.374647  0.920948  1
  V  V6  1  0.000000  0.126806  0.414508  1
  V  V7  1  0.000000  0.873265  0.581057  1
  B  B8  1  0.500000  0.778626  0.181976  1
  B  B9  1  0.500000  0.216675  0.815637  1
  B  B10  1  0.500000  0.284663  0.313563  1
  B  B11  1  0.500000  0.717048  0.686611  1
  B  B12  1  0.500000  0.861533  0.033291  1
  B  B13  1  0.500000  0.135348  0.968951  1
  B  B14  1  0.500000  0.364918  0.465791  1
  B  B15  1  0.500000  0.637093  0.532490  1
  B  B16  1  0.500000  0.887392  0.452813  1
  B  B17  1  0.500000  0.114907  0.546554  1
  B  B18  1  0.500000  0.389285  0.048437  1
  B  B19  1  0.500000  0.615907  0.955850  1
  B  B20  1  0.500000  0.972548  0.306980  1
  B  B21  1  0.500000  0.024935  0.692785  1
  B  B22  1  0.500000  0.478255  0.189754  1
  B  B23  1  0.500000  0.524974  0.809214  1
