# generated using pymatgen
data_RbPaS2O9
_symmetry_space_group_name_H-M   'P 1'
_cell_length_a   5.25480300
_cell_length_b   9.08004200
_cell_length_c   17.67494400
_cell_angle_alpha   90.00000000
_cell_angle_beta   90.00000000
_cell_angle_gamma   90.00000000
_symmetry_Int_Tables_number   1
_chemical_formula_structural   RbPaS2O9
_chemical_formula_sum   'Rb4 Pa4 S8 O36'
_cell_volume   843.33930760
_cell_formula_units_Z   4
loop_
 _symmetry_equiv_pos_site_id
 _symmetry_equiv_pos_as_xyz
  1  'x, y, z'
loop_
 _atom_site_type_symbol
 _atom_site_label
 _atom_site_symmetry_multiplicity
 _atom_site_fract_x
 _atom_site_fract_y
 _atom_site_fract_z
 _atom_site_occupancy
  Rb  Rb0  1  0.750000  0.670811  0.058692  1
  Rb  Rb1  1  0.250000  0.170811  0.441308  1
  Rb  Rb2  1  0.750000  0.829189  0.558692  1
  Rb  Rb3  1  0.250000  0.329189  0.941308  1
  Pa  Pa4  1  0.750000  0.587926  0.307932  1
  Pa  Pa5  1  0.250000  0.087926  0.192068  1
  Pa  Pa6  1  0.750000  0.912074  0.807932  1
  Pa  Pa7  1  0.250000  0.412074  0.692068  1
  S  S8  1  0.750000  0.981879  0.323587  1
  S  S9  1  0.750000  0.371726  0.553394  1
  S  S10  1  0.250000  0.628274  0.446606  1
  S  S11  1  0.250000  0.018121  0.676413  1
  S  S12  1  0.250000  0.871726  0.946606  1
  S  S13  1  0.750000  0.128274  0.053394  1
  S  S14  1  0.750000  0.518121  0.823587  1
  S  S15  1  0.250000  0.481879  0.176413  1
  O  O16  1  0.750000  0.525039  0.532391  1
  O  O17  1  0.250000  0.762913  0.006555  1
  O  O18  1  0.750000  0.112043  0.827858  1
  O  O19  1  0.750000  0.974961  0.032391  1
  O  O20  1  0.021360  0.935419  0.703505  1
  O  O21  1  0.250000  0.164114  0.717893  1
  O  O22  1  0.026056  0.660505  0.393687  1
  O  O23  1  0.750000  0.664114  0.782107  1
  O  O24  1  0.021360  0.564581  0.203505  1
  O  O25  1  0.521360  0.435419  0.796495  1
  O  O26  1  0.973944  0.339495  0.606313  1
  O  O27  1  0.750000  0.262913  0.493445  1
  O  O28  1  0.250000  0.737087  0.506555  1
  O  O29  1  0.750000  0.967307  0.404902  1
  O  O30  1  0.526056  0.160505  0.106313  1
  O  O31  1  0.478640  0.935419  0.703505  1
  O  O32  1  0.250000  0.335886  0.217893  1
  O  O33  1  0.473944  0.660505  0.393687  1
  O  O34  1  0.750000  0.835886  0.282107  1
  O  O35  1  0.473944  0.839495  0.893687  1
  O  O36  1  0.978640  0.064581  0.296495  1
  O  O37  1  0.526056  0.339495  0.606313  1
  O  O38  1  0.250000  0.032693  0.595098  1
  O  O39  1  0.750000  0.237087  0.993445  1
  O  O40  1  0.750000  0.387957  0.327858  1
  O  O41  1  0.026056  0.839495  0.893687  1
  O  O42  1  0.250000  0.474961  0.467609  1
  O  O43  1  0.973944  0.160505  0.106313  1
  O  O44  1  0.750000  0.532693  0.904902  1
  O  O45  1  0.250000  0.467307  0.095098  1
  O  O46  1  0.478640  0.564581  0.203505  1
  O  O47  1  0.250000  0.612043  0.672142  1
  O  O48  1  0.521360  0.064581  0.296495  1
  O  O49  1  0.250000  0.025039  0.967609  1
  O  O50  1  0.250000  0.887957  0.172142  1
  O  O51  1  0.978640  0.435419  0.796495  1
