# generated using pymatgen
data_Y5Er(BO3)6
_symmetry_space_group_name_H-M   'P 1'
_cell_length_a   6.58137330
_cell_length_b   6.58838915
_cell_length_c   9.63961541
_cell_angle_alpha   70.40105695
_cell_angle_beta   70.39899639
_cell_angle_gamma   60.04873852
_symmetry_Int_Tables_number   1
_chemical_formula_structural   Y5Er(BO3)6
_chemical_formula_sum   'Y5 Er1 B6 O18'
_cell_volume   333.87235268
_cell_formula_units_Z   1
loop_
 _symmetry_equiv_pos_site_id
 _symmetry_equiv_pos_as_xyz
  1  'x, y, z'
loop_
 _atom_site_type_symbol
 _atom_site_label
 _atom_site_symmetry_multiplicity
 _atom_site_fract_x
 _atom_site_fract_y
 _atom_site_fract_z
 _atom_site_occupancy
  Y  Y0  1  0.000111  0.499956  0.499990  1
  Y  Y1  1  0.500057  0.000027  0.999942  1
  Y  Y2  1  0.170555  0.657965  0.999365  1
  Y  Y3  1  0.342390  0.829215  0.500643  1
  Y  Y4  1  0.829425  0.341963  0.000708  1
  Er  Er5  1  0.657325  0.170944  0.499407  1
  B  B6  1  0.917370  0.843606  0.746079  1
  B  B7  1  0.158085  0.082330  0.752799  1
  B  B8  1  0.081327  0.157023  0.253910  1
  B  B9  1  0.842523  0.918355  0.247386  1
  B  B10  1  0.676612  0.323061  0.749408  1
  B  B11  1  0.324136  0.675614  0.250426  1
  O  O12  1  0.964618  0.784309  0.602493  1
  O  O13  1  0.217491  0.034020  0.896689  1
  O  O14  1  0.032321  0.217192  0.397493  1
  O  O15  1  0.782699  0.966046  0.103638  1
  O  O16  1  0.870268  0.686006  0.887547  1
  O  O17  1  0.316973  0.129723  0.611976  1
  O  O18  1  0.129369  0.314210  0.112450  1
  O  O19  1  0.684957  0.871934  0.388724  1
  O  O20  1  0.518888  0.384729  0.891109  1
  O  O21  1  0.615012  0.479925  0.607810  1
  O  O22  1  0.481467  0.614893  0.108551  1
  O  O23  1  0.387473  0.516186  0.391474  1
  O  O24  1  0.917074  0.299248  0.751556  1
  O  O25  1  0.700116  0.083760  0.746766  1
  O  O26  1  0.083300  0.700572  0.248476  1
  O  O27  1  0.299263  0.916251  0.252367  1
  O  O28  1  0.134503  0.866155  0.749545  1
  O  O29  1  0.864295  0.134783  0.251274  1
