# generated using pymatgen
data_Li4CaAc3Pb4
_symmetry_space_group_name_H-M   'P 1'
_cell_length_a   4.94255800
_cell_length_b   8.21626723
_cell_length_c   8.65010387
_cell_angle_alpha   89.28107519
_cell_angle_beta   90.00000000
_cell_angle_gamma   90.00000000
_symmetry_Int_Tables_number   1
_chemical_formula_structural   Li4CaAc3Pb4
_chemical_formula_sum   'Li4 Ca1 Ac3 Pb4'
_cell_volume   351.24767971
_cell_formula_units_Z   1
loop_
 _symmetry_equiv_pos_site_id
 _symmetry_equiv_pos_as_xyz
  1  'x, y, z'
loop_
 _atom_site_type_symbol
 _atom_site_label
 _atom_site_symmetry_multiplicity
 _atom_site_fract_x
 _atom_site_fract_y
 _atom_site_fract_z
 _atom_site_occupancy
  Li  Li0  1  0.250000  0.671526  0.071794  1
  Li  Li1  1  0.250000  0.149908  0.435127  1
  Li  Li2  1  0.750000  0.848549  0.576817  1
  Li  Li3  1  0.750000  0.335599  0.926033  1
  Ca  Ca4  1  0.250000  0.004107  0.794630  1
  Ac  Ac5  1  0.750000  0.996722  0.193281  1
  Ac  Ac6  1  0.750000  0.495313  0.292050  1
  Ac  Ac7  1  0.250000  0.502783  0.710837  1
  Pb  Pb8  1  0.250000  0.281693  0.094420  1
  Pb  Pb9  1  0.250000  0.779491  0.401940  1
  Pb  Pb10  1  0.750000  0.217094  0.601704  1
  Pb  Pb11  1  0.750000  0.717215  0.901370  1
