# generated using pymatgen
data_Yb2Pt9Pb
_symmetry_space_group_name_H-M   'P 1'
_cell_length_a   9.35277540
_cell_length_b   9.35277558
_cell_length_c   9.35277493
_cell_angle_alpha   33.76712051
_cell_angle_beta   33.76711847
_cell_angle_gamma   33.76712388
_symmetry_Int_Tables_number   1
_chemical_formula_structural   Yb2Pt9Pb
_chemical_formula_sum   'Yb2 Pt9 Pb1'
_cell_volume   225.20652097
_cell_formula_units_Z   1
loop_
 _symmetry_equiv_pos_site_id
 _symmetry_equiv_pos_as_xyz
  1  'x, y, z'
loop_
 _atom_site_type_symbol
 _atom_site_label
 _atom_site_symmetry_multiplicity
 _atom_site_fract_x
 _atom_site_fract_y
 _atom_site_fract_z
 _atom_site_occupancy
  Yb  Yb0  1  0.001565  0.001565  0.001565  1
  Yb  Yb1  1  0.858575  0.858575  0.858575  1
  Pt  Pt2  1  0.584964  0.584964  0.080959  1
  Pt  Pt3  1  0.332477  0.332477  0.332477  1
  Pt  Pt4  1  0.919965  0.414549  0.414550  1
  Pt  Pt5  1  0.414549  0.919965  0.414550  1
  Pt  Pt6  1  0.500460  0.500460  0.500460  1
  Pt  Pt7  1  0.584965  0.080958  0.584964  1
  Pt  Pt8  1  0.080958  0.584965  0.584964  1
  Pt  Pt9  1  0.667144  0.667144  0.667144  1
  Pt  Pt10  1  0.414550  0.414550  0.919965  1
  Pb  Pb11  1  0.139827  0.139827  0.139827  1
