# generated using pymatgen
data_Zr2Ta(NbN3)2
_symmetry_space_group_name_H-M   'P 1'
_cell_length_a   5.35033289
_cell_length_b   5.35033287
_cell_length_c   10.67448200
_cell_angle_alpha   90.00000000
_cell_angle_beta   90.00000000
_cell_angle_gamma   120.11915026
_symmetry_Int_Tables_number   1
_chemical_formula_structural   Zr2Ta(NbN3)2
_chemical_formula_sum   'Zr4 Ta2 Nb4 N12'
_cell_volume   264.31168567
_cell_formula_units_Z   2
loop_
 _symmetry_equiv_pos_site_id
 _symmetry_equiv_pos_as_xyz
  1  'x, y, z'
loop_
 _atom_site_type_symbol
 _atom_site_label
 _atom_site_symmetry_multiplicity
 _atom_site_fract_x
 _atom_site_fract_y
 _atom_site_fract_z
 _atom_site_occupancy
  Zr  Zr0  1  0.665562  0.333227  0.999933  1
  Zr  Zr1  1  0.333227  0.665562  0.999933  1
  Zr  Zr2  1  0.333227  0.665562  0.500067  1
  Zr  Zr3  1  0.665562  0.333227  0.500067  1
  Ta  Ta4  1  0.680342  0.000178  0.250000  1
  Ta  Ta5  1  0.000178  0.680342  0.250000  1
  Nb  Nb6  1  0.679241  0.679241  0.750000  1
  Nb  Nb7  1  0.321183  0.999966  0.750000  1
  Nb  Nb8  1  0.999966  0.321183  0.750000  1
  Nb  Nb9  1  0.320429  0.320429  0.250000  1
  N  N10  1  0.661470  0.661470  0.371375  1
  N  N11  1  0.343950  0.996199  0.370719  1
  N  N12  1  0.996199  0.343950  0.370719  1
  N  N13  1  0.343159  0.343159  0.627821  1
  N  N14  1  0.655869  0.999894  0.627839  1
  N  N15  1  0.999894  0.655869  0.627839  1
  N  N16  1  0.343159  0.343159  0.872179  1
  N  N17  1  0.655869  0.999894  0.872161  1
  N  N18  1  0.999894  0.655869  0.872161  1
  N  N19  1  0.661470  0.661470  0.128625  1
  N  N20  1  0.343950  0.996199  0.129281  1
  N  N21  1  0.996199  0.343950  0.129281  1
