# generated using pymatgen
data_Pr8DyTmSn8
_symmetry_space_group_name_H-M   'P 1'
_cell_length_a   8.27800300
_cell_length_b   8.43514800
_cell_length_c   16.02924000
_cell_angle_alpha   90.00000000
_cell_angle_beta   90.00000000
_cell_angle_gamma   90.00000000
_symmetry_Int_Tables_number   1
_chemical_formula_structural   Pr8DyTmSn8
_chemical_formula_sum   'Pr16 Dy2 Tm2 Sn16'
_cell_volume   1119.26060471
_cell_formula_units_Z   2
loop_
 _symmetry_equiv_pos_site_id
 _symmetry_equiv_pos_as_xyz
  1  'x, y, z'
loop_
 _atom_site_type_symbol
 _atom_site_label
 _atom_site_symmetry_multiplicity
 _atom_site_fract_x
 _atom_site_fract_y
 _atom_site_fract_z
 _atom_site_occupancy
  Pr  Pr0  1  0.367189  0.837970  0.878502  1
  Pr  Pr1  1  0.867189  0.662030  0.621498  1
  Pr  Pr2  1  0.632806  0.162238  0.379084  1
  Pr  Pr3  1  0.132806  0.337762  0.120916  1
  Pr  Pr4  1  0.632806  0.162238  0.120916  1
  Pr  Pr5  1  0.132806  0.337762  0.379084  1
  Pr  Pr6  1  0.367189  0.837970  0.621498  1
  Pr  Pr7  1  0.867189  0.662030  0.878502  1
  Pr  Pr8  1  0.519218  0.319627  0.901657  1
  Pr  Pr9  1  0.019218  0.180373  0.598343  1
  Pr  Pr10  1  0.480802  0.680290  0.402033  1
  Pr  Pr11  1  0.980802  0.819710  0.097967  1
  Pr  Pr12  1  0.480802  0.680290  0.097967  1
  Pr  Pr13  1  0.980802  0.819710  0.402033  1
  Pr  Pr14  1  0.519218  0.319627  0.598343  1
  Pr  Pr15  1  0.019218  0.180373  0.901657  1
  Dy  Dy16  1  0.801071  0.498208  0.250000  1
  Dy  Dy17  1  0.301071  0.001792  0.250000  1
  Tm  Tm18  1  0.199484  0.501751  0.750000  1
  Tm  Tm19  1  0.699484  0.998249  0.750000  1
  Sn  Sn20  1  0.292948  0.035284  0.043521  1
  Sn  Sn21  1  0.792948  0.464716  0.456479  1
  Sn  Sn22  1  0.707179  0.965191  0.544496  1
  Sn  Sn23  1  0.207179  0.534809  0.955504  1
  Sn  Sn24  1  0.707179  0.965191  0.955504  1
  Sn  Sn25  1  0.207179  0.534809  0.544496  1
  Sn  Sn26  1  0.292948  0.035284  0.456479  1
  Sn  Sn27  1  0.792948  0.464716  0.043521  1
  Sn  Sn28  1  0.563881  0.615137  0.750000  1
  Sn  Sn29  1  0.063881  0.884863  0.750000  1
  Sn  Sn30  1  0.435221  0.384591  0.250000  1
  Sn  Sn31  1  0.935221  0.115409  0.250000  1
  Sn  Sn32  1  0.326230  0.148543  0.750000  1
  Sn  Sn33  1  0.826230  0.351457  0.750000  1
  Sn  Sn34  1  0.673829  0.852473  0.250000  1
  Sn  Sn35  1  0.173829  0.647527  0.250000  1
