# generated using pymatgen
data_LiTa5As4
_symmetry_space_group_name_H-M   'P 1'
_cell_length_a   3.49039320
_cell_length_b   7.25032786
_cell_length_c   10.17017400
_cell_angle_alpha   46.03605562
_cell_angle_beta   90.00849490
_cell_angle_gamma   76.03949660
_symmetry_Int_Tables_number   1
_chemical_formula_structural   LiTa5As4
_chemical_formula_sum   'Li1 Ta5 As4'
_cell_volume   174.52479073
_cell_formula_units_Z   1
loop_
 _symmetry_equiv_pos_site_id
 _symmetry_equiv_pos_as_xyz
  1  'x, y, z'
loop_
 _atom_site_type_symbol
 _atom_site_label
 _atom_site_symmetry_multiplicity
 _atom_site_fract_x
 _atom_site_fract_y
 _atom_site_fract_z
 _atom_site_occupancy
  Li  Li0  1  0.380883  0.122912  0.305444  1
  Ta  Ta1  1  0.360343  0.120279  0.805986  1
  Ta  Ta2  1  0.662133  0.514932  0.733778  1
  Ta  Ta3  1  0.725626  0.386564  0.479323  1
  Ta  Ta4  1  0.059326  0.725402  0.878309  1
  Ta  Ta5  1  0.995081  0.853939  0.132707  1
  As  As6  1  0.646700  0.552064  0.145501  1
  As  As7  1  0.076499  0.688865  0.466295  1
  As  As8  1  0.419484  0.001909  0.598994  1
  As  As9  1  0.300212  0.238274  0.013415  1
