# generated using pymatgen
data_Ho3Hf8Sc3Ga8Ir7
_symmetry_space_group_name_H-M   'P 1'
_cell_length_a   9.17342877
_cell_length_b   9.17342896
_cell_length_c   9.17877878
_cell_angle_alpha   60.01927576
_cell_angle_beta   60.01927242
_cell_angle_gamma   59.99999563
_symmetry_Int_Tables_number   1
_chemical_formula_structural   Ho3Hf8Sc3Ga8Ir7
_chemical_formula_sum   'Ho3 Hf8 Sc3 Ga8 Ir7'
_cell_volume   546.33590898
_cell_formula_units_Z   1
loop_
 _symmetry_equiv_pos_site_id
 _symmetry_equiv_pos_as_xyz
  1  'x, y, z'
loop_
 _atom_site_type_symbol
 _atom_site_label
 _atom_site_symmetry_multiplicity
 _atom_site_fract_x
 _atom_site_fract_y
 _atom_site_fract_z
 _atom_site_occupancy
  Ho  Ho0  1  0.689835  0.689835  0.311008  1
  Ho  Ho1  1  0.309323  0.689835  0.311008  1
  Ho  Ho2  1  0.689835  0.309323  0.311008  1
  Hf  Hf3  1  0.873436  0.873436  0.379694  1
  Hf  Hf4  1  0.876078  0.375340  0.872505  1
  Hf  Hf5  1  0.375340  0.876078  0.872505  1
  Hf  Hf6  1  0.876078  0.876078  0.872505  1
  Hf  Hf7  1  0.124401  0.124401  0.626797  1
  Hf  Hf8  1  0.127116  0.622409  0.123357  1
  Hf  Hf9  1  0.622409  0.127116  0.123357  1
  Hf  Hf10  1  0.127116  0.127116  0.123357  1
  Sc  Sc11  1  0.312350  0.312350  0.688708  1
  Sc  Sc12  1  0.686593  0.312350  0.688708  1
  Sc  Sc13  1  0.312350  0.686593  0.688708  1
  Ga  Ga14  1  0.658434  0.658434  0.024699  1
  Ga  Ga15  1  0.652432  0.036284  0.658852  1
  Ga  Ga16  1  0.036284  0.652432  0.658852  1
  Ga  Ga17  1  0.652432  0.652432  0.658852  1
  Ga  Ga18  1  0.347858  0.347858  0.956424  1
  Ga  Ga19  1  0.341333  0.969707  0.347625  1
  Ga  Ga20  1  0.969707  0.341333  0.347625  1
  Ga  Ga21  1  0.341333  0.341333  0.347625  1
  Ir  Ir22  1  0.999737  0.999737  0.000788  1
  Ir  Ir23  1  0.999247  0.999247  0.502011  1
  Ir  Ir24  1  0.499494  0.999247  0.502011  1
  Ir  Ir25  1  0.999247  0.499494  0.502011  1
  Ir  Ir26  1  0.499239  0.499239  0.999800  1
  Ir  Ir27  1  0.001721  0.499239  0.999800  1
  Ir  Ir28  1  0.499239  0.001721  0.999800  1
