# generated using pymatgen
data_Pa3AlZn2Pt3
_symmetry_space_group_name_H-M   'P 1'
_cell_length_a   7.04360288
_cell_length_b   6.98314028
_cell_length_c   4.17169400
_cell_angle_alpha   90.00000000
_cell_angle_beta   90.00000000
_cell_angle_gamma   119.71645580
_symmetry_Int_Tables_number   1
_chemical_formula_structural   Pa3AlZn2Pt3
_chemical_formula_sum   'Pa3 Al1 Zn2 Pt3'
_cell_volume   178.20606687
_cell_formula_units_Z   1
loop_
 _symmetry_equiv_pos_site_id
 _symmetry_equiv_pos_as_xyz
  1  'x, y, z'
loop_
 _atom_site_type_symbol
 _atom_site_label
 _atom_site_symmetry_multiplicity
 _atom_site_fract_x
 _atom_site_fract_y
 _atom_site_fract_z
 _atom_site_occupancy
  Pa  Pa0  1  0.426246  0.423010  0.500000  1
  Pa  Pa1  1  0.573754  0.996765  0.500000  1
  Pa  Pa2  1  0.000000  0.585507  0.500000  1
  Al  Al3  1  0.000000  0.231915  0.000000  1
  Zn  Zn4  1  0.761423  0.761674  0.000000  1
  Zn  Zn5  1  0.238577  0.000251  0.000000  1
  Pt  Pt6  1  0.674175  0.330211  0.000000  1
  Pt  Pt7  1  0.325825  0.656038  0.000000  1
  Pt  Pt8  1  0.000000  0.014626  0.500000  1
