# generated using pymatgen
data_Sc3AlCu2O
_symmetry_space_group_name_H-M   'P 1'
_cell_length_a   8.41799703
_cell_length_b   8.41799732
_cell_length_c   8.41799700
_cell_angle_alpha   59.99999732
_cell_angle_beta   59.99999620
_cell_angle_gamma   60.00000086
_symmetry_Int_Tables_number   1
_chemical_formula_structural   Sc3AlCu2O
_chemical_formula_sum   'Sc12 Al4 Cu8 O4'
_cell_volume   421.80459039
_cell_formula_units_Z   4
loop_
 _symmetry_equiv_pos_site_id
 _symmetry_equiv_pos_as_xyz
  1  'x, y, z'
loop_
 _atom_site_type_symbol
 _atom_site_label
 _atom_site_symmetry_multiplicity
 _atom_site_fract_x
 _atom_site_fract_y
 _atom_site_fract_z
 _atom_site_occupancy
  Sc  Sc0  1  0.938953  0.561047  0.561047  1
  Sc  Sc1  1  0.688953  0.311047  0.688953  1
  Sc  Sc2  1  0.938953  0.561047  0.938953  1
  Sc  Sc3  1  0.561047  0.938953  0.938953  1
  Sc  Sc4  1  0.311047  0.688953  0.311047  1
  Sc  Sc5  1  0.561047  0.938953  0.561047  1
  Sc  Sc6  1  0.688953  0.688953  0.311047  1
  Sc  Sc7  1  0.938953  0.938953  0.561047  1
  Sc  Sc8  1  0.311047  0.311047  0.688953  1
  Sc  Sc9  1  0.688953  0.311047  0.311047  1
  Sc  Sc10  1  0.561047  0.561047  0.938953  1
  Sc  Sc11  1  0.311047  0.688953  0.688953  1
  Al  Al12  1  0.125000  0.625000  0.125000  1
  Al  Al13  1  0.125000  0.125000  0.625000  1
  Al  Al14  1  0.625000  0.125000  0.125000  1
  Al  Al15  1  0.125000  0.125000  0.125000  1
  Cu  Cu16  1  0.244698  0.918434  0.918434  1
  Cu  Cu17  1  0.331566  0.331566  0.331566  1
  Cu  Cu18  1  0.331566  0.331566  0.005302  1
  Cu  Cu19  1  0.918434  0.244698  0.918434  1
  Cu  Cu20  1  0.918434  0.918434  0.918434  1
  Cu  Cu21  1  0.005302  0.331566  0.331566  1
  Cu  Cu22  1  0.918434  0.918434  0.244698  1
  Cu  Cu23  1  0.331566  0.005302  0.331566  1
  O  O24  1  0.625000  0.125000  0.625000  1
  O  O25  1  0.625000  0.625000  0.125000  1
  O  O26  1  0.125000  0.625000  0.625000  1
  O  O27  1  0.625000  0.625000  0.625000  1
