# generated using pymatgen
data_YHo3Si6IrRh
_symmetry_space_group_name_H-M   'P 1'
_cell_length_a   8.15819900
_cell_length_b   8.15819874
_cell_length_c   7.88938000
_cell_angle_alpha   90.00000000
_cell_angle_beta   90.00000000
_cell_angle_gamma   120.00000509
_symmetry_Int_Tables_number   1
_chemical_formula_structural   YHo3Si6IrRh
_chemical_formula_sum   'Y2 Ho6 Si12 Ir2 Rh2'
_cell_volume   454.73885094
_cell_formula_units_Z   2
loop_
 _symmetry_equiv_pos_site_id
 _symmetry_equiv_pos_as_xyz
  1  'x, y, z'
loop_
 _atom_site_type_symbol
 _atom_site_label
 _atom_site_symmetry_multiplicity
 _atom_site_fract_x
 _atom_site_fract_y
 _atom_site_fract_z
 _atom_site_occupancy
  Y  Y0  1  0.000000  0.000000  0.248603  1
  Y  Y1  1  0.000000  0.000000  0.751397  1
  Ho  Ho2  1  0.509338  0.490662  0.250290  1
  Ho  Ho3  1  0.509338  0.018677  0.250290  1
  Ho  Ho4  1  0.981323  0.490662  0.250290  1
  Ho  Ho5  1  0.490662  0.509338  0.749710  1
  Ho  Ho6  1  0.490662  0.981323  0.749710  1
  Ho  Ho7  1  0.018677  0.509338  0.749710  1
  Si  Si8  1  0.166944  0.833056  0.499017  1
  Si  Si9  1  0.166944  0.333886  0.499017  1
  Si  Si10  1  0.666114  0.833056  0.499017  1
  Si  Si11  1  0.833056  0.166944  0.500983  1
  Si  Si12  1  0.833056  0.666114  0.500983  1
  Si  Si13  1  0.333886  0.166944  0.500983  1
  Si  Si14  1  0.832785  0.167215  0.000088  1
  Si  Si15  1  0.832785  0.665571  0.000088  1
  Si  Si16  1  0.334429  0.167215  0.000088  1
  Si  Si17  1  0.167215  0.832785  0.999912  1
  Si  Si18  1  0.167215  0.334429  0.999912  1
  Si  Si19  1  0.665571  0.832785  0.999912  1
  Ir  Ir20  1  0.333333  0.666667  0.468594  1
  Ir  Ir21  1  0.666667  0.333333  0.531406  1
  Rh  Rh22  1  0.666667  0.333333  0.962902  1
  Rh  Rh23  1  0.333333  0.666667  0.037098  1
