# generated using pymatgen
data_ErTmGaCoRu
_symmetry_space_group_name_H-M   'P 1'
_cell_length_a   4.06718582
_cell_length_b   5.55377952
_cell_length_c   5.41428140
_cell_angle_alpha   120.74267097
_cell_angle_beta   112.06128344
_cell_angle_gamma   89.99999839
_symmetry_Int_Tables_number   1
_chemical_formula_structural   ErTmGaCoRu
_chemical_formula_sum   'Er1 Tm1 Ga1 Co1 Ru1'
_cell_volume   94.54428066
_cell_formula_units_Z   1
loop_
 _symmetry_equiv_pos_site_id
 _symmetry_equiv_pos_as_xyz
  1  'x, y, z'
loop_
 _atom_site_type_symbol
 _atom_site_label
 _atom_site_symmetry_multiplicity
 _atom_site_fract_x
 _atom_site_fract_y
 _atom_site_fract_z
 _atom_site_occupancy
  Er  Er0  1  0.208253  0.701569  0.416507  1
  Tm  Tm1  1  0.791849  0.284944  0.583699  1
  Ga  Ga2  1  0.000285  0.990455  0.000569  1
  Co  Co3  1  0.499996  0.727809  0.999992  1
  Ru  Ru4  1  0.499617  0.295224  0.999234  1
