# generated using pymatgen
data_NdEr3Cu2(Ni9Sn2)2
_symmetry_space_group_name_H-M   'P 1'
_cell_length_a   4.87262700
_cell_length_b   4.87262659
_cell_length_c   19.62428800
_cell_angle_alpha   90.00000000
_cell_angle_beta   90.00000000
_cell_angle_gamma   120.00000959
_symmetry_Int_Tables_number   1
_chemical_formula_structural   NdEr3Cu2(Ni9Sn2)2
_chemical_formula_sum   'Nd1 Er3 Cu2 Ni18 Sn4'
_cell_volume   403.50674291
_cell_formula_units_Z   1
loop_
 _symmetry_equiv_pos_site_id
 _symmetry_equiv_pos_as_xyz
  1  'x, y, z'
loop_
 _atom_site_type_symbol
 _atom_site_label
 _atom_site_symmetry_multiplicity
 _atom_site_fract_x
 _atom_site_fract_y
 _atom_site_fract_z
 _atom_site_occupancy
  Nd  Nd0  1  0.000000  0.000000  0.000000  1
  Er  Er1  1  0.333333  0.666667  0.251174  1
  Er  Er2  1  0.666667  0.333333  0.748826  1
  Er  Er3  1  0.000000  0.000000  0.500000  1
  Cu  Cu4  1  0.000000  0.000000  0.251159  1
  Cu  Cu5  1  0.000000  0.000000  0.748841  1
  Ni  Ni6  1  0.333333  0.666667  0.748614  1
  Ni  Ni7  1  0.666667  0.333333  0.251386  1
  Ni  Ni8  1  0.333333  0.666667  0.957244  1
  Ni  Ni9  1  0.666667  0.333333  0.042756  1
  Ni  Ni10  1  0.666667  0.333333  0.458942  1
  Ni  Ni11  1  0.333333  0.666667  0.541058  1
  Ni  Ni12  1  0.833531  0.166469  0.355086  1
  Ni  Ni13  1  0.833531  0.667063  0.355086  1
  Ni  Ni14  1  0.332937  0.166469  0.355086  1
  Ni  Ni15  1  0.166469  0.833531  0.644914  1
  Ni  Ni16  1  0.166469  0.332937  0.644914  1
  Ni  Ni17  1  0.667063  0.833531  0.644914  1
  Ni  Ni18  1  0.166924  0.833076  0.852470  1
  Ni  Ni19  1  0.166924  0.333847  0.852470  1
  Ni  Ni20  1  0.666153  0.833076  0.852470  1
  Ni  Ni21  1  0.833076  0.166924  0.147530  1
  Ni  Ni22  1  0.833076  0.666153  0.147530  1
  Ni  Ni23  1  0.333847  0.166924  0.147530  1
  Sn  Sn24  1  0.333333  0.666667  0.412675  1
  Sn  Sn25  1  0.666667  0.333333  0.587325  1
  Sn  Sn26  1  0.666667  0.333333  0.910703  1
  Sn  Sn27  1  0.333333  0.666667  0.089297  1
