# generated using pymatgen
data_Ho2P7Ru12
_symmetry_space_group_name_H-M   'P 1'
_cell_length_a   9.40409000
_cell_length_b   9.40408964
_cell_length_c   3.95776500
_cell_angle_alpha   90.00000000
_cell_angle_beta   90.00000000
_cell_angle_gamma   119.99999423
_symmetry_Int_Tables_number   1
_chemical_formula_structural   Ho2P7Ru12
_chemical_formula_sum   'Ho2 P7 Ru12'
_cell_volume   303.11972441
_cell_formula_units_Z   1
loop_
 _symmetry_equiv_pos_site_id
 _symmetry_equiv_pos_as_xyz
  1  'x, y, z'
loop_
 _atom_site_type_symbol
 _atom_site_label
 _atom_site_symmetry_multiplicity
 _atom_site_fract_x
 _atom_site_fract_y
 _atom_site_fract_z
 _atom_site_occupancy
  Ho  Ho0  1  0.666667  0.333333  0.500000  1
  Ho  Ho1  1  0.333333  0.666667  0.000000  1
  P  P2  1  0.599776  0.718024  0.500000  1
  P  P3  1  0.000000  0.000000  0.000000  1
  P  P4  1  0.281976  0.881752  0.500000  1
  P  P5  1  0.118248  0.400224  0.500000  1
  P  P6  1  0.884451  0.574925  0.000000  1
  P  P7  1  0.425075  0.309526  0.000000  1
  P  P8  1  0.690474  0.115549  0.000000  1
  Ru  Ru9  1  0.556237  0.948719  0.500000  1
  Ru  Ru10  1  0.392483  0.443763  0.500000  1
  Ru  Ru11  1  0.914477  0.122727  0.500000  1
  Ru  Ru12  1  0.208250  0.085523  0.500000  1
  Ru  Ru13  1  0.877273  0.791750  0.500000  1
  Ru  Ru14  1  0.728181  0.892063  0.000000  1
  Ru  Ru15  1  0.107937  0.836117  0.000000  1
  Ru  Ru16  1  0.163883  0.271819  0.000000  1
  Ru  Ru17  1  0.424935  0.065940  0.000000  1
  Ru  Ru18  1  0.934060  0.358996  0.000000  1
  Ru  Ru19  1  0.641004  0.575065  0.000000  1
  Ru  Ru20  1  0.051281  0.607517  0.500000  1
