# generated using pymatgen
data_DyHo9(Si3Ir)2
_symmetry_space_group_name_H-M   'P 1'
_cell_length_a   7.13466300
_cell_length_b   7.91493524
_cell_length_c   14.57627900
_cell_angle_alpha   89.96789528
_cell_angle_beta   90.00000000
_cell_angle_gamma   90.00000000
_symmetry_Int_Tables_number   1
_chemical_formula_structural   DyHo9(Si3Ir)2
_chemical_formula_sum   'Dy2 Ho18 Si12 Ir4'
_cell_volume   823.12811261
_cell_formula_units_Z   2
loop_
 _symmetry_equiv_pos_site_id
 _symmetry_equiv_pos_as_xyz
  1  'x, y, z'
loop_
 _atom_site_type_symbol
 _atom_site_label
 _atom_site_symmetry_multiplicity
 _atom_site_fract_x
 _atom_site_fract_y
 _atom_site_fract_z
 _atom_site_occupancy
  Dy  Dy0  1  0.511578  0.682535  0.907032  1
  Dy  Dy1  1  0.011578  0.817465  0.592968  1
  Ho  Ho2  1  0.689360  0.173782  0.627646  1
  Ho  Ho3  1  0.189360  0.326218  0.872354  1
  Ho  Ho4  1  0.310381  0.826690  0.127816  1
  Ho  Ho5  1  0.810381  0.673310  0.372184  1
  Ho  Ho6  1  0.310615  0.826492  0.372285  1
  Ho  Ho7  1  0.810615  0.673508  0.127715  1
  Ho  Ho8  1  0.689571  0.173606  0.872422  1
  Ho  Ho9  1  0.189571  0.326394  0.627578  1
  Ho  Ho10  1  0.511942  0.682958  0.593760  1
  Ho  Ho11  1  0.011942  0.817042  0.906240  1
  Ho  Ho12  1  0.487994  0.316972  0.093851  1
  Ho  Ho13  1  0.987994  0.183028  0.406149  1
  Ho  Ho14  1  0.488147  0.316966  0.406270  1
  Ho  Ho15  1  0.988147  0.183034  0.093730  1
  Ho  Ho16  1  0.834099  0.512197  0.749977  1
  Ho  Ho17  1  0.334099  0.987803  0.750023  1
  Ho  Ho18  1  0.165929  0.487675  0.250009  1
  Ho  Ho19  1  0.665929  0.012325  0.249991  1
  Si  Si20  1  0.653437  0.971638  0.461548  1
  Si  Si21  1  0.153437  0.528362  0.038452  1
  Si  Si22  1  0.346344  0.029124  0.961923  1
  Si  Si23  1  0.846344  0.470876  0.538077  1
  Si  Si24  1  0.347438  0.028788  0.538178  1
  Si  Si25  1  0.847438  0.471212  0.961822  1
  Si  Si26  1  0.653364  0.972051  0.038560  1
  Si  Si27  1  0.153364  0.527949  0.461440  1
  Si  Si28  1  0.735547  0.864367  0.750199  1
  Si  Si29  1  0.235547  0.635633  0.749801  1
  Si  Si30  1  0.264373  0.135930  0.250006  1
  Si  Si31  1  0.764373  0.364070  0.249994  1
  Ir  Ir32  1  0.481993  0.405762  0.749789  1
  Ir  Ir33  1  0.981993  0.094238  0.750211  1
  Ir  Ir34  1  0.517889  0.593826  0.249975  1
  Ir  Ir35  1  0.017889  0.906174  0.250025  1
