# generated using pymatgen
data_CaLa(Pr2Rh9)2
_symmetry_space_group_name_H-M   'P 1'
_cell_length_a   5.35718100
_cell_length_b   5.35718089
_cell_length_c   17.69066400
_cell_angle_alpha   90.00000000
_cell_angle_beta   90.00000000
_cell_angle_gamma   119.99999451
_symmetry_Int_Tables_number   1
_chemical_formula_structural   CaLa(Pr2Rh9)2
_chemical_formula_sum   'Ca1 La1 Pr4 Rh18'
_cell_volume   439.69084244
_cell_formula_units_Z   1
loop_
 _symmetry_equiv_pos_site_id
 _symmetry_equiv_pos_as_xyz
  1  'x, y, z'
loop_
 _atom_site_type_symbol
 _atom_site_label
 _atom_site_symmetry_multiplicity
 _atom_site_fract_x
 _atom_site_fract_y
 _atom_site_fract_z
 _atom_site_occupancy
  Ca  Ca0  1  0.333333  0.666667  0.541703  1
  La  La1  1  0.666667  0.333333  0.251499  1
  Pr  Pr2  1  0.666667  0.333333  0.042437  1
  Pr  Pr3  1  0.666667  0.333333  0.461565  1
  Pr  Pr4  1  0.333333  0.666667  0.956672  1
  Pr  Pr5  1  0.333333  0.666667  0.745729  1
  Rh  Rh6  1  0.166589  0.333176  0.127138  1
  Rh  Rh7  1  0.833518  0.667036  0.626744  1
  Rh  Rh8  1  0.666824  0.833411  0.127138  1
  Rh  Rh9  1  0.166589  0.833411  0.127138  1
  Rh  Rh10  1  0.833518  0.166482  0.626744  1
  Rh  Rh11  1  0.332964  0.166482  0.626744  1
  Rh  Rh12  1  0.833430  0.666860  0.871954  1
  Rh  Rh13  1  0.833430  0.166570  0.871954  1
  Rh  Rh14  1  0.333140  0.166570  0.871954  1
  Rh  Rh15  1  0.666831  0.833415  0.373872  1
  Rh  Rh16  1  0.166585  0.833415  0.373872  1
  Rh  Rh17  1  0.166585  0.333169  0.373872  1
  Rh  Rh18  1  0.000000  0.000000  0.250792  1
  Rh  Rh19  1  0.000000  0.000000  0.749637  1
  Rh  Rh20  1  0.333333  0.666667  0.250657  1
  Rh  Rh21  1  0.666667  0.333333  0.749707  1
  Rh  Rh22  1  0.000000  0.000000  0.999472  1
  Rh  Rh23  1  0.000000  0.000000  0.501001  1
