# generated using pymatgen
data_DyY2Pu5(ReB6)4
_symmetry_space_group_name_H-M   'P 1'
_cell_length_a   3.68688500
_cell_length_b   9.16778646
_cell_length_c   11.51710409
_cell_angle_alpha   90.17337438
_cell_angle_beta   90.00000000
_cell_angle_gamma   90.00000000
_symmetry_Int_Tables_number   1
_chemical_formula_structural   DyY2Pu5(ReB6)4
_chemical_formula_sum   'Dy1 Y2 Pu5 Re4 B24'
_cell_volume   389.28295102
_cell_formula_units_Z   1
loop_
 _symmetry_equiv_pos_site_id
 _symmetry_equiv_pos_as_xyz
  1  'x, y, z'
loop_
 _atom_site_type_symbol
 _atom_site_label
 _atom_site_symmetry_multiplicity
 _atom_site_fract_x
 _atom_site_fract_y
 _atom_site_fract_z
 _atom_site_occupancy
  Dy  Dy0  1  0.000000  0.555716  0.874605  1
  Y  Y1  1  0.000000  0.944386  0.373617  1
  Y  Y2  1  0.000000  0.055095  0.625442  1
  Pu  Pu3  1  0.000000  0.822335  0.085685  1
  Pu  Pu4  1  0.000000  0.177726  0.913143  1
  Pu  Pu5  1  0.000000  0.323983  0.412805  1
  Pu  Pu6  1  0.000000  0.674752  0.588247  1
  Pu  Pu7  1  0.000000  0.442569  0.128048  1
  Re  Re8  1  0.000000  0.143316  0.177242  1
  Re  Re9  1  0.000000  0.862027  0.822601  1
  Re  Re10  1  0.000000  0.634825  0.317324  1
  Re  Re11  1  0.000000  0.362734  0.678134  1
  B  B12  1  0.500000  0.052492  0.067134  1
  B  B13  1  0.500000  0.948017  0.933521  1
  B  B14  1  0.500000  0.552801  0.433285  1
  B  B15  1  0.500000  0.447988  0.566690  1
  B  B16  1  0.500000  0.249940  0.080799  1
  B  B17  1  0.500000  0.753204  0.920206  1
  B  B18  1  0.500000  0.746580  0.419978  1
  B  B19  1  0.500000  0.253400  0.579444  1
  B  B20  1  0.500000  0.294817  0.234104  1
  B  B21  1  0.500000  0.706806  0.766520  1
  B  B22  1  0.500000  0.792972  0.266010  1
  B  B23  1  0.500000  0.207228  0.733765  1
  B  B24  1  0.500000  0.133483  0.314385  1
  B  B25  1  0.500000  0.865796  0.685748  1
  B  B26  1  0.500000  0.630884  0.184904  1
  B  B27  1  0.500000  0.367125  0.813832  1
  B  B28  1  0.500000  0.480567  0.286527  1
  B  B29  1  0.500000  0.518155  0.713131  1
  B  B30  1  0.500000  0.982593  0.212462  1
  B  B31  1  0.500000  0.017888  0.787193  1
  B  B32  1  0.500000  0.115991  0.467354  1
  B  B33  1  0.500000  0.882908  0.531794  1
  B  B34  1  0.500000  0.606582  0.031914  1
  B  B35  1  0.500000  0.392323  0.972404  1
