# generated using pymatgen
data_CaNd2Cu5(Ni4B)2
_symmetry_space_group_name_H-M   'P 1'
_cell_length_a   5.11103596
_cell_length_b   5.11103602
_cell_length_c   10.87715000
_cell_angle_alpha   90.00000000
_cell_angle_beta   90.00000000
_cell_angle_gamma   119.99055276
_symmetry_Int_Tables_number   1
_chemical_formula_structural   CaNd2Cu5(Ni4B)2
_chemical_formula_sum   'Ca1 Nd2 Cu5 Ni8 B2'
_cell_volume   246.09623149
_cell_formula_units_Z   1
loop_
 _symmetry_equiv_pos_site_id
 _symmetry_equiv_pos_as_xyz
  1  'x, y, z'
loop_
 _atom_site_type_symbol
 _atom_site_label
 _atom_site_symmetry_multiplicity
 _atom_site_fract_x
 _atom_site_fract_y
 _atom_site_fract_z
 _atom_site_occupancy
  Ca  Ca0  1  0.000000  0.000000  0.000000  1
  Nd  Nd1  1  0.000000  0.000000  0.677139  1
  Nd  Nd2  1  0.000000  0.000000  0.322861  1
  Cu  Cu3  1  0.500000  0.500000  0.500000  1
  Cu  Cu4  1  0.331509  0.668491  0.314928  1
  Cu  Cu5  1  0.668491  0.331509  0.314928  1
  Cu  Cu6  1  0.668491  0.331509  0.685072  1
  Cu  Cu7  1  0.331509  0.668491  0.685072  1
  Ni  Ni8  1  0.000000  0.500000  0.873371  1
  Ni  Ni9  1  0.500000  0.000000  0.500000  1
  Ni  Ni10  1  0.000000  0.500000  0.500000  1
  Ni  Ni11  1  0.500000  0.000000  0.126629  1
  Ni  Ni12  1  0.500000  0.500000  0.126602  1
  Ni  Ni13  1  0.000000  0.500000  0.126629  1
  Ni  Ni14  1  0.500000  0.000000  0.873371  1
  Ni  Ni15  1  0.500000  0.500000  0.873398  1
  B  B16  1  0.666554  0.333446  0.000000  1
  B  B17  1  0.333446  0.666554  0.000000  1
