# generated using pymatgen
data_Ho2TmTh11Os6
_symmetry_space_group_name_H-M   'P 1'
_cell_length_a   9.89107324
_cell_length_b   9.96888596
_cell_length_c   6.36535421
_cell_angle_alpha   90.07118635
_cell_angle_beta   90.00625226
_cell_angle_gamma   120.15176148
_symmetry_Int_Tables_number   1
_chemical_formula_structural   Ho2TmTh11Os6
_chemical_formula_sum   'Ho2 Tm1 Th11 Os6'
_cell_volume   542.72094670
_cell_formula_units_Z   1
loop_
 _symmetry_equiv_pos_site_id
 _symmetry_equiv_pos_as_xyz
  1  'x, y, z'
loop_
 _atom_site_type_symbol
 _atom_site_label
 _atom_site_symmetry_multiplicity
 _atom_site_fract_x
 _atom_site_fract_y
 _atom_site_fract_z
 _atom_site_occupancy
  Ho  Ho0  1  0.073436  0.535656  0.301266  1
  Ho  Ho1  1  0.928072  0.463837  0.800184  1
  Tm  Tm2  1  0.460038  0.536445  0.299777  1
  Th  Th3  1  0.252555  0.128576  0.510027  1
  Th  Th4  1  0.540892  0.080114  0.796023  1
  Th  Th5  1  0.745255  0.872051  0.013876  1
  Th  Th6  1  0.667401  0.334055  0.273761  1
  Th  Th7  1  0.126467  0.869821  0.009663  1
  Th  Th8  1  0.460272  0.917868  0.295426  1
  Th  Th9  1  0.537819  0.466396  0.801208  1
  Th  Th10  1  0.874497  0.130059  0.511693  1
  Th  Th11  1  0.125535  0.255915  0.014813  1
  Th  Th12  1  0.873269  0.745192  0.509560  1
  Th  Th13  1  0.332233  0.664893  0.770127  1
  Os  Os14  1  0.812489  0.628466  0.047476  1
  Os  Os15  1  0.813737  0.183529  0.045918  1
  Os  Os16  1  0.629713  0.812516  0.545075  1
  Os  Os17  1  0.371837  0.187665  0.042568  1
  Os  Os18  1  0.187014  0.370124  0.551841  1
  Os  Os19  1  0.187471  0.816823  0.543718  1
