# generated using pymatgen
data_YbHo3Al24Pt7Au2
_symmetry_space_group_name_H-M   'P 1'
_cell_length_a   7.56020249
_cell_length_b   7.58414705
_cell_length_c   13.18144220
_cell_angle_alpha   84.56931210
_cell_angle_beta   79.03930796
_cell_angle_gamma   59.90744024
_symmetry_Int_Tables_number   1
_chemical_formula_structural   YbHo3Al24Pt7Au2
_chemical_formula_sum   'Yb1 Ho3 Al24 Pt7 Au2'
_cell_volume   641.99575403
_cell_formula_units_Z   1
loop_
 _symmetry_equiv_pos_site_id
 _symmetry_equiv_pos_as_xyz
  1  'x, y, z'
loop_
 _atom_site_type_symbol
 _atom_site_label
 _atom_site_symmetry_multiplicity
 _atom_site_fract_x
 _atom_site_fract_y
 _atom_site_fract_z
 _atom_site_occupancy
  Yb  Yb0  1  0.392253  0.169607  0.808555  1
  Ho  Ho1  1  0.607095  0.831027  0.190731  1
  Ho  Ho2  1  0.734016  0.498674  0.809567  1
  Ho  Ho3  1  0.266153  0.500378  0.189995  1
  Al  Al4  1  0.682748  0.834683  0.944962  1
  Al  Al5  1  0.316887  0.165541  0.053669  1
  Al  Al6  1  0.145966  0.838930  0.561731  1
  Al  Al7  1  0.853462  0.161169  0.438534  1
  Al  Al8  1  0.487628  0.159306  0.559496  1
  Al  Al9  1  0.512139  0.841013  0.441172  1
  Al  Al10  1  0.223518  0.160570  0.325019  1
  Al  Al11  1  0.775657  0.840315  0.674989  1
  Al  Al12  1  0.440163  0.506222  0.675203  1
  Al  Al13  1  0.560179  0.493203  0.324880  1
  Al  Al14  1  0.109345  0.154891  0.673509  1
  Al  Al15  1  0.891377  0.845118  0.326557  1
  Al  Al16  1  0.353450  0.498453  0.944486  1
  Al  Al17  1  0.646493  0.501090  0.055314  1
  Al  Al18  1  0.015829  0.167483  0.953666  1
  Al  Al19  1  0.984741  0.832118  0.045913  1
  Al  Al20  1  0.195459  0.499248  0.438236  1
  Al  Al21  1  0.804727  0.500569  0.562137  1
  Al  Al22  1  0.733290  0.164170  0.183117  1
  Al  Al23  1  0.268426  0.833224  0.817105  1
  Al  Al24  1  0.057229  0.635863  0.818358  1
  Al  Al25  1  0.939846  0.366095  0.181965  1
  Al  Al26  1  0.855313  0.044135  0.816759  1
  Al  Al27  1  0.146257  0.956909  0.183488  1
  Pt  Pt28  1  0.657189  0.171540  0.000550  1
  Pt  Pt29  1  0.342628  0.828069  0.000827  1
  Pt  Pt30  1  0.537359  0.166814  0.361803  1
  Pt  Pt31  1  0.462386  0.832995  0.637669  1
  Pt  Pt32  1  0.780275  0.175086  0.636387  1
  Pt  Pt33  1  0.220750  0.824650  0.363197  1
  Pt  Pt34  1  0.999552  0.500246  0.000657  1
  Au  Au35  1  0.120217  0.491314  0.638177  1
  Au  Au36  1  0.880000  0.509282  0.361620  1
