# generated using pymatgen
data_Yb7Pr(Sc3Sb4)4
_symmetry_space_group_name_H-M   'P 1'
_cell_length_a   7.85411007
_cell_length_b   7.92117419
_cell_length_c   15.05175300
_cell_angle_alpha   90.12113521
_cell_angle_beta   89.99252991
_cell_angle_gamma   89.97987121
_symmetry_Int_Tables_number   1
_chemical_formula_structural   Yb7Pr(Sc3Sb4)4
_chemical_formula_sum   'Yb7 Pr1 Sc12 Sb16'
_cell_volume   936.42420029
_cell_formula_units_Z   1
loop_
 _symmetry_equiv_pos_site_id
 _symmetry_equiv_pos_as_xyz
  1  'x, y, z'
loop_
 _atom_site_type_symbol
 _atom_site_label
 _atom_site_symmetry_multiplicity
 _atom_site_fract_x
 _atom_site_fract_y
 _atom_site_fract_z
 _atom_site_occupancy
  Yb  Yb0  1  0.973882  0.820886  0.907299  1
  Yb  Yb1  1  0.527553  0.320399  0.093163  1
  Yb  Yb2  1  0.026464  0.177315  0.405622  1
  Yb  Yb3  1  0.526996  0.318992  0.407165  1
  Yb  Yb4  1  0.027727  0.179583  0.093307  1
  Yb  Yb5  1  0.471380  0.678514  0.906153  1
  Yb  Yb6  1  0.971991  0.820732  0.593675  1
  Pr  Pr7  1  0.477191  0.681297  0.594680  1
  Sc  Sc8  1  0.646971  0.143653  0.625669  1
  Sc  Sc9  1  0.148973  0.351995  0.874353  1
  Sc  Sc10  1  0.349600  0.853060  0.125012  1
  Sc  Sc11  1  0.848529  0.647005  0.374722  1
  Sc  Sc12  1  0.348684  0.851786  0.374600  1
  Sc  Sc13  1  0.850140  0.647764  0.125160  1
  Sc  Sc14  1  0.649771  0.148070  0.875312  1
  Sc  Sc15  1  0.152131  0.353507  0.624734  1
  Sc  Sc16  1  0.811062  0.499063  0.749529  1
  Sc  Sc17  1  0.311770  0.004961  0.749619  1
  Sc  Sc18  1  0.189636  0.503479  0.249554  1
  Sc  Sc19  1  0.689019  0.996037  0.249592  1
  Sb  Sb20  1  0.700577  0.950075  0.452566  1
  Sb  Sb21  1  0.202457  0.547323  0.047872  1
  Sb  Sb22  1  0.297314  0.048590  0.952129  1
  Sb  Sb23  1  0.800645  0.448993  0.548145  1
  Sb  Sb24  1  0.295234  0.047558  0.546960  1
  Sb  Sb25  1  0.797178  0.453007  0.951918  1
  Sb  Sb26  1  0.702337  0.952254  0.048154  1
  Sb  Sb27  1  0.201330  0.545716  0.450901  1
  Sb  Sb28  1  0.454661  0.358435  0.749649  1
  Sb  Sb29  1  0.954749  0.144807  0.749322  1
  Sb  Sb30  1  0.545419  0.643893  0.249491  1
  Sb  Sb31  1  0.045249  0.856248  0.249990  1
  Sb  Sb32  1  0.661811  0.848282  0.754190  1
  Sb  Sb33  1  0.157688  0.657121  0.750204  1
  Sb  Sb34  1  0.342324  0.156311  0.249641  1
  Sb  Sb35  1  0.841551  0.343292  0.249946  1
