# generated using pymatgen
data_Tb3NdZr2(AlPt2)2
_symmetry_space_group_name_H-M   'P 1'
_cell_length_a   4.50235700
_cell_length_b   7.25078561
_cell_length_c   8.02998552
_cell_angle_alpha   90.25933870
_cell_angle_beta   90.00000000
_cell_angle_gamma   90.00000000
_symmetry_Int_Tables_number   1
_chemical_formula_structural   Tb3NdZr2(AlPt2)2
_chemical_formula_sum   'Tb3 Nd1 Zr2 Al2 Pt4'
_cell_volume   262.14121345
_cell_formula_units_Z   1
loop_
 _symmetry_equiv_pos_site_id
 _symmetry_equiv_pos_as_xyz
  1  'x, y, z'
loop_
 _atom_site_type_symbol
 _atom_site_label
 _atom_site_symmetry_multiplicity
 _atom_site_fract_x
 _atom_site_fract_y
 _atom_site_fract_z
 _atom_site_occupancy
  Tb  Tb0  1  0.750000  0.450129  0.179864  1
  Tb  Tb1  1  0.250000  0.047385  0.676891  1
  Tb  Tb2  1  0.750000  0.987056  0.326177  1
  Nd  Nd3  1  0.250000  0.512235  0.826914  1
  Zr  Zr4  1  0.750000  0.869435  0.934907  1
  Zr  Zr5  1  0.250000  0.631762  0.433609  1
  Al  Al6  1  0.750000  0.358601  0.564654  1
  Al  Al7  1  0.250000  0.139533  0.067420  1
  Pt  Pt8  1  0.750000  0.730544  0.610146  1
  Pt  Pt9  1  0.750000  0.231725  0.881375  1
  Pt  Pt10  1  0.250000  0.263930  0.380441  1
  Pt  Pt11  1  0.250000  0.777665  0.117603  1
