# generated using pymatgen
data_PrUCu2(PO)2
_symmetry_space_group_name_H-M   'P 1'
_cell_length_a   3.82471200
_cell_length_b   3.82471200
_cell_length_c   8.31082800
_cell_angle_alpha   90.00000000
_cell_angle_beta   90.00000000
_cell_angle_gamma   90.00000000
_symmetry_Int_Tables_number   1
_chemical_formula_structural   PrUCu2(PO)2
_chemical_formula_sum   'Pr1 U1 Cu2 P2 O2'
_cell_volume   121.57429818
_cell_formula_units_Z   1
loop_
 _symmetry_equiv_pos_site_id
 _symmetry_equiv_pos_as_xyz
  1  'x, y, z'
loop_
 _atom_site_type_symbol
 _atom_site_label
 _atom_site_symmetry_multiplicity
 _atom_site_fract_x
 _atom_site_fract_y
 _atom_site_fract_z
 _atom_site_occupancy
  Pr  Pr0  1  0.750000  0.750000  0.331610  1
  U  U1  1  0.250001  0.250001  0.657328  1
  Cu  Cu2  1  0.750000  0.250001  0.994427  1
  Cu  Cu3  1  0.250001  0.750000  0.994427  1
  P  P4  1  0.250001  0.250001  0.163765  1
  P  P5  1  0.750000  0.750000  0.823046  1
  O  O6  1  0.750000  0.250001  0.517698  1
  O  O7  1  0.250001  0.750000  0.517698  1
