# generated using pymatgen
data_Tm(TaS2)4
_symmetry_space_group_name_H-M   'P 1'
_cell_length_a   6.68452700
_cell_length_b   6.68452622
_cell_length_c   13.66035900
_cell_angle_alpha   90.00000000
_cell_angle_beta   90.00000000
_cell_angle_gamma   120.00000883
_symmetry_Int_Tables_number   1
_chemical_formula_structural   Tm(TaS2)4
_chemical_formula_sum   'Tm2 Ta8 S16'
_cell_volume   528.60834955
_cell_formula_units_Z   2
loop_
 _symmetry_equiv_pos_site_id
 _symmetry_equiv_pos_as_xyz
  1  'x, y, z'
loop_
 _atom_site_type_symbol
 _atom_site_label
 _atom_site_symmetry_multiplicity
 _atom_site_fract_x
 _atom_site_fract_y
 _atom_site_fract_z
 _atom_site_occupancy
  Tm  Tm0  1  0.000000  0.000000  0.500000  1
  Tm  Tm1  1  0.000000  0.000000  0.000000  1
  Ta  Ta2  1  0.505008  0.494992  0.750000  1
  Ta  Ta3  1  0.010015  0.505008  0.250000  1
  Ta  Ta4  1  0.494992  0.989985  0.250000  1
  Ta  Ta5  1  0.505008  0.010015  0.750000  1
  Ta  Ta6  1  0.989985  0.494992  0.750000  1
  Ta  Ta7  1  0.494992  0.505008  0.250000  1
  Ta  Ta8  1  0.000000  0.000000  0.750000  1
  Ta  Ta9  1  0.000000  0.000000  0.250000  1
  S  S10  1  0.831580  0.168420  0.364531  1
  S  S11  1  0.831580  0.663160  0.364531  1
  S  S12  1  0.336840  0.168420  0.364531  1
  S  S13  1  0.663160  0.831580  0.864531  1
  S  S14  1  0.168420  0.336840  0.635469  1
  S  S15  1  0.168420  0.831580  0.864531  1
  S  S16  1  0.168420  0.336840  0.864531  1
  S  S17  1  0.831580  0.168420  0.135469  1
  S  S18  1  0.336840  0.168420  0.135469  1
  S  S19  1  0.663160  0.831580  0.635469  1
  S  S20  1  0.333333  0.666667  0.132546  1
  S  S21  1  0.666667  0.333333  0.632546  1
  S  S22  1  0.666667  0.333333  0.867454  1
  S  S23  1  0.333333  0.666667  0.367454  1
  S  S24  1  0.831580  0.663160  0.135469  1
  S  S25  1  0.168420  0.831580  0.635469  1
