# generated using pymatgen
data_Ba11Sr5Ca8(MoN4)8
_symmetry_space_group_name_H-M   'P 1'
_cell_length_a   9.79729775
_cell_length_b   10.39896726
_cell_length_c   11.89929863
_cell_angle_alpha   89.98901509
_cell_angle_beta   89.77697140
_cell_angle_gamma   90.02385046
_symmetry_Int_Tables_number   1
_chemical_formula_structural   Ba11Sr5Ca8(MoN4)8
_chemical_formula_sum   'Ba11 Sr5 Ca8 Mo8 N32'
_cell_volume   1212.31239556
_cell_formula_units_Z   1
loop_
 _symmetry_equiv_pos_site_id
 _symmetry_equiv_pos_as_xyz
  1  'x, y, z'
loop_
 _atom_site_type_symbol
 _atom_site_label
 _atom_site_symmetry_multiplicity
 _atom_site_fract_x
 _atom_site_fract_y
 _atom_site_fract_z
 _atom_site_occupancy
  Ba  Ba0  1  0.623948  0.465704  0.647195  1
  Ba  Ba1  1  0.122149  0.034038  0.646249  1
  Ba  Ba2  1  0.877196  0.967547  0.352408  1
  Ba  Ba3  1  0.808053  0.763914  0.618213  1
  Ba  Ba4  1  0.195497  0.237062  0.380227  1
  Ba  Ba5  1  0.686115  0.263417  0.381490  1
  Ba  Ba6  1  0.187872  0.736172  0.117398  1
  Ba  Ba7  1  0.310086  0.737277  0.617648  1
  Ba  Ba8  1  0.815760  0.263607  0.884797  1
  Ba  Ba9  1  0.316233  0.237817  0.882959  1
  Ba  Ba10  1  0.682659  0.763322  0.115017  1
  Sr  Sr11  1  0.621889  0.964786  0.858285  1
  Sr  Sr12  1  0.378487  0.037365  0.140019  1
  Sr  Sr13  1  0.880499  0.464225  0.142746  1
  Sr  Sr14  1  0.380752  0.539253  0.358387  1
  Sr  Sr15  1  0.122671  0.536383  0.859091  1
  Ca  Ca16  1  0.967361  0.878488  0.898989  1
  Ca  Ca17  1  0.033289  0.121403  0.101438  1
  Ca  Ca18  1  0.532971  0.379714  0.102610  1
  Ca  Ca19  1  0.032766  0.618551  0.394720  1
  Ca  Ca20  1  0.467717  0.621436  0.897834  1
  Ca  Ca21  1  0.967726  0.383149  0.602383  1
  Ca  Ca22  1  0.466366  0.117368  0.603959  1
  Ca  Ca23  1  0.532766  0.880753  0.395743  1
  Mo  Mo24  1  0.794693  0.594852  0.884723  1
  Mo  Mo25  1  0.208996  0.405142  0.117233  1
  Mo  Mo26  1  0.706128  0.095376  0.115584  1
  Mo  Mo27  1  0.214784  0.903145  0.378054  1
  Mo  Mo28  1  0.293537  0.905341  0.884186  1
  Mo  Mo29  1  0.783958  0.094048  0.622996  1
  Mo  Mo30  1  0.286656  0.407271  0.619050  1
  Mo  Mo31  1  0.709974  0.593573  0.377695  1
  N  N32  1  0.928557  0.664522  0.980670  1
  N  N33  1  0.073045  0.336504  0.022338  1
  N  N34  1  0.572697  0.165094  0.019503  1
  N  N35  1  0.078285  0.833418  0.472737  1
  N  N36  1  0.427307  0.835129  0.980222  1
  N  N37  1  0.917352  0.169883  0.528638  1
  N  N38  1  0.420517  0.331976  0.524205  1
  N  N39  1  0.576718  0.667310  0.473613  1
  N  N40  1  0.682557  0.720096  0.818385  1
  N  N41  1  0.319796  0.278071  0.181783  1
  N  N42  1  0.817446  0.221034  0.182496  1
  N  N43  1  0.324957  0.776208  0.312723  1
  N  N44  1  0.181817  0.780093  0.817721  1
  N  N45  1  0.669827  0.212409  0.694995  1
  N  N46  1  0.173272  0.287578  0.690153  1
  N  N47  1  0.823338  0.713614  0.306449  1
  N  N48  1  0.670782  0.990846  0.532441  1
  N  N49  1  0.329747  0.006362  0.467061  1
  N  N50  1  0.826020  0.490610  0.466082  1
  N  N51  1  0.324180  0.510127  0.028612  1
  N  N52  1  0.174755  0.510635  0.527772  1
  N  N53  1  0.678603  0.489025  0.971630  1
  N  N54  1  0.177438  0.011751  0.970447  1
  N  N55  1  0.822809  0.989789  0.028981  1
  N  N56  1  0.868567  0.988685  0.732176  1
  N  N57  1  0.133850  0.006658  0.265648  1
  N  N58  1  0.621200  0.489936  0.269740  1
  N  N59  1  0.125106  0.505067  0.230347  1
  N  N60  1  0.369343  0.511305  0.730283  1
  N  N61  1  0.881711  0.494207  0.773367  1
  N  N62  1  0.380537  0.006196  0.773180  1
  N  N63  1  0.618311  0.994360  0.226277  1
