# generated using pymatgen
data_Yb4PrRh3
_symmetry_space_group_name_H-M   'P 1'
_cell_length_a   10.79482000
_cell_length_b   10.77279400
_cell_length_c   6.25725700
_cell_angle_alpha   90.00000000
_cell_angle_beta   90.00000000
_cell_angle_gamma   90.00000000
_symmetry_Int_Tables_number   1
_chemical_formula_structural   Yb4PrRh3
_chemical_formula_sum   'Yb16 Pr4 Rh12'
_cell_volume   727.65874502
_cell_formula_units_Z   4
loop_
 _symmetry_equiv_pos_site_id
 _symmetry_equiv_pos_as_xyz
  1  'x, y, z'
loop_
 _atom_site_type_symbol
 _atom_site_label
 _atom_site_symmetry_multiplicity
 _atom_site_fract_x
 _atom_site_fract_y
 _atom_site_fract_z
 _atom_site_occupancy
  Yb  Yb0  1  0.298216  0.082173  0.376541  1
  Yb  Yb1  1  0.298216  0.917827  0.876541  1
  Yb  Yb2  1  0.701784  0.082173  0.876541  1
  Yb  Yb3  1  0.701784  0.917827  0.376541  1
  Yb  Yb4  1  0.585573  0.792184  0.872189  1
  Yb  Yb5  1  0.585573  0.207816  0.372189  1
  Yb  Yb6  1  0.414427  0.792184  0.372189  1
  Yb  Yb7  1  0.414427  0.207816  0.872189  1
  Yb  Yb8  1  0.214012  0.414587  0.631715  1
  Yb  Yb9  1  0.214012  0.585413  0.131715  1
  Yb  Yb10  1  0.785988  0.414587  0.131715  1
  Yb  Yb11  1  0.785988  0.585413  0.631715  1
  Yb  Yb12  1  0.000000  0.000000  0.481604  1
  Yb  Yb13  1  0.000000  0.000000  0.981604  1
  Yb  Yb14  1  0.500000  0.500000  0.996003  1
  Yb  Yb15  1  0.500000  0.500000  0.496003  1
  Pr  Pr16  1  0.906064  0.713463  0.136425  1
  Pr  Pr17  1  0.906064  0.286537  0.636425  1
  Pr  Pr18  1  0.093936  0.713463  0.636425  1
  Pr  Pr19  1  0.093936  0.286537  0.136425  1
  Rh  Rh20  1  0.850361  0.157646  0.234196  1
  Rh  Rh21  1  0.850361  0.842354  0.734196  1
  Rh  Rh22  1  0.149639  0.157646  0.734196  1
  Rh  Rh23  1  0.149639  0.842354  0.234196  1
  Rh  Rh24  1  0.649083  0.343307  0.752806  1
  Rh  Rh25  1  0.649083  0.656693  0.252806  1
  Rh  Rh26  1  0.350917  0.343307  0.252806  1
  Rh  Rh27  1  0.350917  0.656693  0.752806  1
  Rh  Rh28  1  0.500000  0.000000  0.127212  1
  Rh  Rh29  1  0.500000  0.000000  0.627212  1
  Rh  Rh30  1  0.000000  0.500000  0.887436  1
  Rh  Rh31  1  0.000000  0.500000  0.387436  1
