# generated using pymatgen
data_DyZr4Bi3F28
_symmetry_space_group_name_H-M   'P 1'
_cell_length_a   5.83433235
_cell_length_b   9.30816343
_cell_length_c   12.44907303
_cell_angle_alpha   62.05744080
_cell_angle_beta   89.99069127
_cell_angle_gamma   89.97966274
_symmetry_Int_Tables_number   1
_chemical_formula_structural   DyZr4Bi3F28
_chemical_formula_sum   'Dy1 Zr4 Bi3 F28'
_cell_volume   597.25294800
_cell_formula_units_Z   1
loop_
 _symmetry_equiv_pos_site_id
 _symmetry_equiv_pos_as_xyz
  1  'x, y, z'
loop_
 _atom_site_type_symbol
 _atom_site_label
 _atom_site_symmetry_multiplicity
 _atom_site_fract_x
 _atom_site_fract_y
 _atom_site_fract_z
 _atom_site_occupancy
  Dy  Dy0  1  0.756283  0.812418  0.765492  1
  Zr  Zr1  1  0.744713  0.270882  0.457572  1
  Zr  Zr2  1  0.244184  0.725143  0.040936  1
  Zr  Zr3  1  0.256074  0.725294  0.548517  1
  Zr  Zr4  1  0.756189  0.278550  0.953482  1
  Bi  Bi5  1  0.742118  0.815331  0.264269  1
  Bi  Bi6  1  0.242742  0.182114  0.236346  1
  Bi  Bi7  1  0.257764  0.177437  0.736127  1
  F  F8  1  0.467614  0.714527  0.918712  1
  F  F9  1  0.961192  0.288215  0.578402  1
  F  F10  1  0.540794  0.290708  0.077037  1
  F  F11  1  0.040412  0.712543  0.425282  1
  F  F12  1  0.454650  0.280005  0.546901  1
  F  F13  1  0.957407  0.721811  0.945435  1
  F  F14  1  0.542465  0.720513  0.454401  1
  F  F15  1  0.044322  0.283958  0.045524  1
  F  F16  1  0.765423  0.526914  0.857558  1
  F  F17  1  0.267457  0.481289  0.642721  1
  F  F18  1  0.230822  0.480934  0.138758  1
  F  F19  1  0.731919  0.517274  0.360582  1
  F  F20  1  0.760142  0.030019  0.057062  1
  F  F21  1  0.260280  0.974136  0.443587  1
  F  F22  1  0.239558  0.974229  0.941959  1
  F  F23  1  0.740456  0.023674  0.562100  1
  F  F24  1  0.988513  0.737191  0.651069  1
  F  F25  1  0.487272  0.266451  0.853946  1
  F  F26  1  0.014467  0.265181  0.355165  1
  F  F27  1  0.512684  0.734591  0.142386  1
  F  F28  1  0.039123  0.747208  0.166673  1
  F  F29  1  0.540998  0.251481  0.329964  1
  F  F30  1  0.960657  0.254925  0.828790  1
  F  F31  1  0.469281  0.749394  0.672035  1
  F  F32  1  0.418463  0.968544  0.232277  1
  F  F33  1  0.916940  0.028999  0.267894  1
  F  F34  1  0.576939  0.020414  0.766396  1
  F  F35  1  0.069681  0.967702  0.734640  1
