# generated using pymatgen
data_Tm12Fe3Pb2
_symmetry_space_group_name_H-M   'P 1'
_cell_length_a   8.28673737
_cell_length_b   8.28673749
_cell_length_c   8.28673778
_cell_angle_alpha   108.52784555
_cell_angle_beta   108.52784377
_cell_angle_gamma   111.37490993
_symmetry_Int_Tables_number   1
_chemical_formula_structural   Tm12Fe3Pb2
_chemical_formula_sum   'Tm12 Fe3 Pb2'
_cell_volume   437.69117941
_cell_formula_units_Z   1
loop_
 _symmetry_equiv_pos_site_id
 _symmetry_equiv_pos_as_xyz
  1  'x, y, z'
loop_
 _atom_site_type_symbol
 _atom_site_label
 _atom_site_symmetry_multiplicity
 _atom_site_fract_x
 _atom_site_fract_y
 _atom_site_fract_z
 _atom_site_occupancy
  Tm  Tm0  1  0.192457  0.426090  0.233633  1
  Tm  Tm1  1  0.807543  0.573910  0.766367  1
  Tm  Tm2  1  0.192457  0.958825  0.766367  1
  Tm  Tm3  1  0.958825  0.192457  0.766367  1
  Tm  Tm4  1  0.807543  0.041175  0.233633  1
  Tm  Tm5  1  0.041175  0.807543  0.233633  1
  Tm  Tm6  1  0.426090  0.192457  0.233633  1
  Tm  Tm7  1  0.573910  0.807543  0.766367  1
  Tm  Tm8  1  0.308414  0.308414  0.616827  1
  Tm  Tm9  1  0.691586  0.691586  0.383173  1
  Tm  Tm10  1  0.691586  0.308414  0.000000  1
  Tm  Tm11  1  0.308414  0.691586  0.000000  1
  Fe  Fe12  1  0.384944  0.384944  0.000000  1
  Fe  Fe13  1  0.615056  0.615056  0.000000  1
  Fe  Fe14  1  0.000000  0.000000  0.000000  1
  Pb  Pb15  1  0.000000  0.500000  0.500000  1
  Pb  Pb16  1  0.500000  0.000000  0.500000  1
