# generated using pymatgen
data_KCr2InO8
_symmetry_space_group_name_H-M   'P 1'
_cell_length_a   5.37516600
_cell_length_b   5.37516710
_cell_length_c   8.26031200
_cell_angle_alpha   90.00000000
_cell_angle_beta   90.00000000
_cell_angle_gamma   120.00000553
_symmetry_Int_Tables_number   1
_chemical_formula_structural   KCr2InO8
_chemical_formula_sum   'K1 Cr2 In1 O8'
_cell_volume   206.68592834
_cell_formula_units_Z   1
loop_
 _symmetry_equiv_pos_site_id
 _symmetry_equiv_pos_as_xyz
  1  'x, y, z'
loop_
 _atom_site_type_symbol
 _atom_site_label
 _atom_site_symmetry_multiplicity
 _atom_site_fract_x
 _atom_site_fract_y
 _atom_site_fract_z
 _atom_site_occupancy
  K  K0  1  0.000000  0.000000  0.500001  1
  Cr  Cr1  1  0.333334  0.666668  0.224040  1
  Cr  Cr2  1  0.666666  0.333334  0.775960  1
  In  In3  1  0.000000  0.000000  0.000000  1
  O  O4  1  0.068890  0.346462  0.160048  1
  O  O5  1  0.653539  0.722429  0.160048  1
  O  O6  1  0.277571  0.931109  0.160048  1
  O  O7  1  0.333334  0.666668  0.421283  1
  O  O8  1  0.666666  0.333334  0.578717  1
  O  O9  1  0.722428  0.068890  0.839952  1
  O  O10  1  0.346463  0.277573  0.839952  1
  O  O11  1  0.931108  0.653537  0.839952  1
