# generated using pymatgen
data_PrDyFe3P7Ru9
_symmetry_space_group_name_H-M   'P 1'
_cell_length_a   9.33546100
_cell_length_b   9.33546129
_cell_length_c   3.86758500
_cell_angle_alpha   90.00000000
_cell_angle_beta   90.00000000
_cell_angle_gamma   119.99999545
_symmetry_Int_Tables_number   1
_chemical_formula_structural   PrDyFe3P7Ru9
_chemical_formula_sum   'Pr1 Dy1 Fe3 P7 Ru9'
_cell_volume   291.90536027
_cell_formula_units_Z   1
loop_
 _symmetry_equiv_pos_site_id
 _symmetry_equiv_pos_as_xyz
  1  'x, y, z'
loop_
 _atom_site_type_symbol
 _atom_site_label
 _atom_site_symmetry_multiplicity
 _atom_site_fract_x
 _atom_site_fract_y
 _atom_site_fract_z
 _atom_site_occupancy
  Pr  Pr0  1  0.333333  0.666667  0.000000  1
  Dy  Dy1  1  0.000000  0.000000  0.500000  1
  Fe  Fe2  1  0.933048  0.490002  0.000000  1
  Fe  Fe3  1  0.509998  0.443045  0.000000  1
  Fe  Fe4  1  0.556955  0.066952  0.000000  1
  P  P5  1  0.972231  0.746583  0.000000  1
  P  P6  1  0.253417  0.225648  0.000000  1
  P  P7  1  0.774352  0.027769  0.000000  1
  P  P8  1  0.058833  0.445827  0.500000  1
  P  P9  1  0.554173  0.613005  0.500000  1
  P  P10  1  0.386995  0.941167  0.500000  1
  P  P11  1  0.666667  0.333333  0.000000  1
  Ru  Ru12  1  0.728690  0.753882  0.000000  1
  Ru  Ru13  1  0.246118  0.974809  0.000000  1
  Ru  Ru14  1  0.025191  0.271310  0.000000  1
  Ru  Ru15  1  0.101730  0.720201  0.500000  1
  Ru  Ru16  1  0.279799  0.381529  0.500000  1
  Ru  Ru17  1  0.618471  0.898270  0.500000  1
  Ru  Ru18  1  0.754789  0.536489  0.500000  1
  Ru  Ru19  1  0.463511  0.218301  0.500000  1
  Ru  Ru20  1  0.781699  0.245211  0.500000  1
