# generated using pymatgen
data_NaPuF6
_symmetry_space_group_name_H-M   'P 1'
_cell_length_a   6.21153962
_cell_length_b   6.21153982
_cell_length_c   6.21153900
_cell_angle_alpha   59.99999903
_cell_angle_beta   59.99999799
_cell_angle_gamma   59.99999970
_symmetry_Int_Tables_number   1
_chemical_formula_structural   NaPuF6
_chemical_formula_sum   'Na1 Pu1 F6'
_cell_volume   169.46606335
_cell_formula_units_Z   1
loop_
 _symmetry_equiv_pos_site_id
 _symmetry_equiv_pos_as_xyz
  1  'x, y, z'
loop_
 _atom_site_type_symbol
 _atom_site_label
 _atom_site_symmetry_multiplicity
 _atom_site_fract_x
 _atom_site_fract_y
 _atom_site_fract_z
 _atom_site_occupancy
  Na  Na0  1  0.500000  0.500000  0.500000  1
  Pu  Pu1  1  0.000000  0.000000  0.000000  1
  F  F2  1  0.764549  0.235451  0.235451  1
  F  F3  1  0.235451  0.764549  0.764549  1
  F  F4  1  0.235451  0.764549  0.235451  1
  F  F5  1  0.764549  0.235451  0.764549  1
  F  F6  1  0.235451  0.235451  0.764549  1
  F  F7  1  0.764549  0.764549  0.235451  1
