# generated using pymatgen
data_Nd20Ir7Os2Pd3
_symmetry_space_group_name_H-M   'P 1'
_cell_length_a   11.32769661
_cell_length_b   11.32769661
_cell_length_c   6.60208883
_cell_angle_alpha   89.93975813
_cell_angle_beta   89.93975813
_cell_angle_gamma   90.18675691
_symmetry_Int_Tables_number   1
_chemical_formula_structural   Nd20Ir7Os2Pd3
_chemical_formula_sum   'Nd20 Ir7 Os2 Pd3'
_cell_volume   847.15288147
_cell_formula_units_Z   1
loop_
 _symmetry_equiv_pos_site_id
 _symmetry_equiv_pos_as_xyz
  1  'x, y, z'
loop_
 _atom_site_type_symbol
 _atom_site_label
 _atom_site_symmetry_multiplicity
 _atom_site_fract_x
 _atom_site_fract_y
 _atom_site_fract_z
 _atom_site_occupancy
  Nd  Nd0  1  0.086628  0.296290  0.128436  1
  Nd  Nd1  1  0.793032  0.410092  0.119067  1
  Nd  Nd2  1  0.204827  0.587305  0.126867  1
  Nd  Nd3  1  0.912048  0.702884  0.129167  1
  Nd  Nd4  1  0.412695  0.795173  0.373133  1
  Nd  Nd5  1  0.589908  0.206968  0.380933  1
  Nd  Nd6  1  0.297116  0.087952  0.370833  1
  Nd  Nd7  1  0.703710  0.913372  0.371564  1
  Nd  Nd8  1  0.416010  0.209108  0.884553  1
  Nd  Nd9  1  0.705796  0.094777  0.884582  1
  Nd  Nd10  1  0.293333  0.911689  0.884864  1
  Nd  Nd11  1  0.589107  0.793865  0.885154  1
  Nd  Nd12  1  0.088311  0.706667  0.615136  1
  Nd  Nd13  1  0.905223  0.294204  0.615418  1
  Nd  Nd14  1  0.206135  0.410893  0.614846  1
  Nd  Nd15  1  0.790892  0.583990  0.615447  1
  Nd  Nd16  1  0.999402  0.999804  0.001041  1
  Nd  Nd17  1  0.502304  0.498355  0.001725  1
  Nd  Nd18  1  0.501645  0.497696  0.498275  1
  Nd  Nd19  1  0.000196  0.000598  0.498959  1
  Ir  Ir20  1  0.151257  0.848743  0.250000  1
  Ir  Ir21  1  0.346712  0.347325  0.250499  1
  Ir  Ir22  1  0.652675  0.653288  0.249501  1
  Ir  Ir23  1  0.849590  0.150410  0.250000  1
  Ir  Ir24  1  0.653084  0.346916  0.750000  1
  Ir  Ir25  1  0.499540  0.998311  0.625841  1
  Ir  Ir26  1  0.001689  0.500460  0.874159  1
  Os  Os27  1  0.000729  0.500600  0.378798  1
  Os  Os28  1  0.499400  0.999271  0.121202  1
  Pd  Pd29  1  0.346113  0.653887  0.750000  1
  Pd  Pd30  1  0.155155  0.154262  0.750321  1
  Pd  Pd31  1  0.845738  0.844845  0.749679  1
