# generated using pymatgen
data_Ca10AgHgRh4
_symmetry_space_group_name_H-M   'P 1'
_cell_length_a   9.06500839
_cell_length_b   9.06500849
_cell_length_c   9.06500805
_cell_angle_alpha   129.16248692
_cell_angle_beta   129.16247529
_cell_angle_gamma   74.74927458
_symmetry_Int_Tables_number   1
_chemical_formula_structural   Ca10AgHgRh4
_chemical_formula_sum   'Ca10 Ag1 Hg1 Rh4'
_cell_volume   436.25524624
_cell_formula_units_Z   1
loop_
 _symmetry_equiv_pos_site_id
 _symmetry_equiv_pos_as_xyz
  1  'x, y, z'
loop_
 _atom_site_type_symbol
 _atom_site_label
 _atom_site_symmetry_multiplicity
 _atom_site_fract_x
 _atom_site_fract_y
 _atom_site_fract_z
 _atom_site_occupancy
  Ca  Ca0  1  0.465394  0.965155  0.167173  1
  Ca  Ca1  1  0.201780  0.702019  0.167173  1
  Ca  Ca2  1  0.534845  0.034606  0.832827  1
  Ca  Ca3  1  0.034606  0.201780  0.499761  1
  Ca  Ca4  1  0.702019  0.534845  0.500239  1
  Ca  Ca5  1  0.965155  0.797981  0.499761  1
  Ca  Ca6  1  0.998885  0.998885  0.000000  1
  Ca  Ca7  1  0.501115  0.501115  0.000000  1
  Ca  Ca8  1  0.797981  0.298220  0.832827  1
  Ca  Ca9  1  0.298220  0.465394  0.500239  1
  Ag  Ag10  1  0.250000  0.250000  0.000000  1
  Hg  Hg11  1  0.750000  0.750000  0.000000  1
  Rh  Rh12  1  0.125399  0.625399  0.750798  1
  Rh  Rh13  1  0.625399  0.874601  0.500000  1
  Rh  Rh14  1  0.374601  0.125399  0.500000  1
  Rh  Rh15  1  0.874601  0.374601  0.249202  1
