# generated using pymatgen
data_Er4LuZn2Bi
_symmetry_space_group_name_H-M   'P 1'
_cell_length_a   8.55809362
_cell_length_b   8.55809307
_cell_length_c   8.55809455
_cell_angle_alpha   123.89553947
_cell_angle_beta   123.89553559
_cell_angle_gamma   83.37555424
_symmetry_Int_Tables_number   1
_chemical_formula_structural   Er4LuZn2Bi
_chemical_formula_sum   'Er8 Lu2 Zn4 Bi2'
_cell_volume   414.08544131
_cell_formula_units_Z   2
loop_
 _symmetry_equiv_pos_site_id
 _symmetry_equiv_pos_as_xyz
  1  'x, y, z'
loop_
 _atom_site_type_symbol
 _atom_site_label
 _atom_site_symmetry_multiplicity
 _atom_site_fract_x
 _atom_site_fract_y
 _atom_site_fract_z
 _atom_site_occupancy
  Er  Er0  1  0.512555  0.012555  0.807084  1
  Er  Er1  1  0.205470  0.705470  0.192916  1
  Er  Er2  1  0.012555  0.205470  0.500000  1
  Er  Er3  1  0.705470  0.512555  0.500000  1
  Er  Er4  1  0.487445  0.987445  0.192916  1
  Er  Er5  1  0.794530  0.294530  0.807084  1
  Er  Er6  1  0.987445  0.794530  0.500000  1
  Er  Er7  1  0.294530  0.487445  0.500000  1
  Lu  Lu8  1  0.500000  0.500000  0.000000  1
  Lu  Lu9  1  0.000000  0.000000  0.000000  1
  Zn  Zn10  1  0.139219  0.639219  0.778437  1
  Zn  Zn11  1  0.860781  0.360781  0.221563  1
  Zn  Zn12  1  0.639219  0.860781  0.500000  1
  Zn  Zn13  1  0.360781  0.139219  0.500000  1
  Bi  Bi14  1  0.250000  0.250000  0.000000  1
  Bi  Bi15  1  0.750000  0.750000  0.000000  1
