# generated using pymatgen
data_Na4LuAuO6
_symmetry_space_group_name_H-M   'P 1'
_cell_length_a   5.65207412
_cell_length_b   5.65207454
_cell_length_c   5.84769636
_cell_angle_alpha   99.41801484
_cell_angle_beta   99.41802387
_cell_angle_gamma   119.88407564
_symmetry_Int_Tables_number   1
_chemical_formula_structural   Na4LuAuO6
_chemical_formula_sum   'Na4 Lu1 Au1 O6'
_cell_volume   153.08334602
_cell_formula_units_Z   1
loop_
 _symmetry_equiv_pos_site_id
 _symmetry_equiv_pos_as_xyz
  1  'x, y, z'
loop_
 _atom_site_type_symbol
 _atom_site_label
 _atom_site_symmetry_multiplicity
 _atom_site_fract_x
 _atom_site_fract_y
 _atom_site_fract_z
 _atom_site_occupancy
  Na  Na0  1  0.501053  0.498948  0.000000  1
  Na  Na1  1  0.987456  0.012546  0.499998  1
  Na  Na2  1  0.664309  0.335690  0.500000  1
  Na  Na3  1  0.343162  0.656837  0.500000  1
  Lu  Lu4  1  0.167376  0.832625  0.000000  1
  Au  Au5  1  0.833528  0.166473  0.000000  1
  O  O6  1  0.590113  0.944169  0.211292  1
  O  O7  1  0.927090  0.551972  0.216200  1
  O  O8  1  0.199639  0.217580  0.216238  1
  O  O9  1  0.782421  0.800362  0.783763  1
  O  O10  1  0.448029  0.072911  0.783801  1
  O  O11  1  0.055832  0.409888  0.788709  1
