# generated using pymatgen
data_La4Sm3Y3Sn8
_symmetry_space_group_name_H-M   'P 1'
_cell_length_a   8.23078200
_cell_length_b   8.39484054
_cell_length_c   15.93635700
_cell_angle_alpha   89.90097431
_cell_angle_beta   90.00000000
_cell_angle_gamma   90.00000000
_symmetry_Int_Tables_number   1
_chemical_formula_structural   La4Sm3Y3Sn8
_chemical_formula_sum   'La8 Sm6 Y6 Sn16'
_cell_volume   1101.13851045
_cell_formula_units_Z   2
loop_
 _symmetry_equiv_pos_site_id
 _symmetry_equiv_pos_as_xyz
  1  'x, y, z'
loop_
 _atom_site_type_symbol
 _atom_site_label
 _atom_site_symmetry_multiplicity
 _atom_site_fract_x
 _atom_site_fract_y
 _atom_site_fract_z
 _atom_site_occupancy
  La  La0  1  0.514350  0.320035  0.902095  1
  La  La1  1  0.014350  0.179965  0.597905  1
  La  La2  1  0.485001  0.680584  0.404080  1
  La  La3  1  0.985001  0.819416  0.095920  1
  La  La4  1  0.484948  0.681003  0.096226  1
  La  La5  1  0.984948  0.818997  0.403774  1
  La  La6  1  0.515857  0.320321  0.597761  1
  La  La7  1  0.015857  0.179679  0.902239  1
  Sm  Sm8  1  0.362121  0.836933  0.878295  1
  Sm  Sm9  1  0.862121  0.663067  0.621705  1
  Sm  Sm10  1  0.638794  0.164251  0.378121  1
  Sm  Sm11  1  0.138794  0.335749  0.121879  1
  Sm  Sm12  1  0.639783  0.163327  0.120100  1
  Sm  Sm13  1  0.139783  0.336673  0.379900  1
  Y  Y14  1  0.359537  0.837270  0.624695  1
  Y  Y15  1  0.859537  0.662730  0.875305  1
  Y  Y16  1  0.193967  0.503303  0.749598  1
  Y  Y17  1  0.693967  0.996697  0.750402  1
  Y  Y18  1  0.806394  0.497226  0.249663  1
  Y  Y19  1  0.306394  0.002774  0.250337  1
  Sn  Sn20  1  0.300087  0.037500  0.043623  1
  Sn  Sn21  1  0.800087  0.462500  0.456377  1
  Sn  Sn22  1  0.693332  0.960923  0.544194  1
  Sn  Sn23  1  0.193332  0.539077  0.955806  1
  Sn  Sn24  1  0.703180  0.959035  0.955622  1
  Sn  Sn25  1  0.203180  0.540965  0.544378  1
  Sn  Sn26  1  0.301924  0.036080  0.459486  1
  Sn  Sn27  1  0.801924  0.463920  0.040514  1
  Sn  Sn28  1  0.558872  0.622077  0.750312  1
  Sn  Sn29  1  0.058872  0.877923  0.749688  1
  Sn  Sn30  1  0.440905  0.379365  0.249518  1
  Sn  Sn31  1  0.940905  0.120635  0.250482  1
  Sn  Sn32  1  0.321927  0.142171  0.749552  1
  Sn  Sn33  1  0.821927  0.357829  0.750448  1
  Sn  Sn34  1  0.679022  0.857332  0.249832  1
  Sn  Sn35  1  0.179022  0.642668  0.250168  1
