# generated using pymatgen
data_CaY3ErZn5
_symmetry_space_group_name_H-M   'P 1'
_cell_length_a   3.61163100
_cell_length_b   3.61163100
_cell_length_c   17.70907000
_cell_angle_alpha   90.00000000
_cell_angle_beta   90.00000000
_cell_angle_gamma   90.00000000
_symmetry_Int_Tables_number   1
_chemical_formula_structural   CaY3ErZn5
_chemical_formula_sum   'Ca1 Y3 Er1 Zn5'
_cell_volume   230.99495708
_cell_formula_units_Z   1
loop_
 _symmetry_equiv_pos_site_id
 _symmetry_equiv_pos_as_xyz
  1  'x, y, z'
loop_
 _atom_site_type_symbol
 _atom_site_label
 _atom_site_symmetry_multiplicity
 _atom_site_fract_x
 _atom_site_fract_y
 _atom_site_fract_z
 _atom_site_occupancy
  Ca  Ca0  1  0.000000  0.000000  0.000892  1
  Y  Y1  1  0.000000  0.000000  0.398744  1
  Y  Y2  1  0.000000  0.000000  0.599610  1
  Y  Y3  1  0.000000  0.000000  0.799589  1
  Er  Er4  1  0.000000  0.000000  0.201305  1
  Zn  Zn5  1  0.500000  0.500000  0.108131  1
  Zn  Zn6  1  0.500000  0.500000  0.298853  1
  Zn  Zn7  1  0.500000  0.500000  0.499542  1
  Zn  Zn8  1  0.500000  0.500000  0.698601  1
  Zn  Zn9  1  0.500000  0.500000  0.894733  1
