# generated using pymatgen
data_BiIr2(Cl4O)2
_symmetry_space_group_name_H-M   'P 1'
_cell_length_a   7.49422092
_cell_length_b   8.64734275
_cell_length_c   10.85099169
_cell_angle_alpha   90.08899027
_cell_angle_beta   79.75976972
_cell_angle_gamma   88.61891292
_symmetry_Int_Tables_number   1
_chemical_formula_structural   BiIr2(Cl4O)2
_chemical_formula_sum   'Bi2 Ir4 Cl16 O4'
_cell_volume   691.78511402
_cell_formula_units_Z   2
loop_
 _symmetry_equiv_pos_site_id
 _symmetry_equiv_pos_as_xyz
  1  'x, y, z'
loop_
 _atom_site_type_symbol
 _atom_site_label
 _atom_site_symmetry_multiplicity
 _atom_site_fract_x
 _atom_site_fract_y
 _atom_site_fract_z
 _atom_site_occupancy
  Bi  Bi0  1  0.626331  0.324901  0.581484  1
  Bi  Bi1  1  0.373669  0.675099  0.418516  1
  Ir  Ir2  1  0.717054  0.890440  0.143525  1
  Ir  Ir3  1  0.282946  0.109560  0.856475  1
  Ir  Ir4  1  0.783370  0.106343  0.857457  1
  Ir  Ir5  1  0.216630  0.893657  0.142543  1
  Cl  Cl6  1  0.708054  0.628579  0.193036  1
  Cl  Cl7  1  0.291946  0.371421  0.806964  1
  Cl  Cl8  1  0.655385  0.946237  0.357702  1
  Cl  Cl9  1  0.344615  0.053763  0.642298  1
  Cl  Cl10  1  0.777473  0.839843  0.920232  1
  Cl  Cl11  1  0.222527  0.160157  0.079768  1
  Cl  Cl12  1  0.727772  0.161141  0.080279  1
  Cl  Cl13  1  0.272228  0.838859  0.919721  1
  Cl  Cl14  1  0.830379  0.041613  0.645259  1
  Cl  Cl15  1  0.169621  0.958387  0.354741  1
  Cl  Cl16  1  0.790661  0.368442  0.798872  1
  Cl  Cl17  1  0.209339  0.631558  0.201128  1
  Cl  Cl18  1  0.595090  0.632287  0.597191  1
  Cl  Cl19  1  0.404910  0.367713  0.402809  1
  Cl  Cl20  1  0.896214  0.341790  0.413792  1
  Cl  Cl21  1  0.103786  0.658210  0.586208  1
  O  O22  1  0.468749  0.894835  0.137032  1
  O  O23  1  0.531251  0.105165  0.862968  1
  O  O24  1  0.033296  0.105962  0.858400  1
  O  O25  1  0.966704  0.894038  0.141600  1
