# generated using pymatgen
data_Ho5Tm7(TcIr)2
_symmetry_space_group_name_H-M   'P 1'
_cell_length_a   6.28342265
_cell_length_b   7.32348422
_cell_length_c   9.03020609
_cell_angle_alpha   89.96506953
_cell_angle_beta   90.12814356
_cell_angle_gamma   90.05585126
_symmetry_Int_Tables_number   1
_chemical_formula_structural   Ho5Tm7(TcIr)2
_chemical_formula_sum   'Ho5 Tm7 Tc2 Ir2'
_cell_volume   415.53758598
_cell_formula_units_Z   1
loop_
 _symmetry_equiv_pos_site_id
 _symmetry_equiv_pos_as_xyz
  1  'x, y, z'
loop_
 _atom_site_type_symbol
 _atom_site_label
 _atom_site_symmetry_multiplicity
 _atom_site_fract_x
 _atom_site_fract_y
 _atom_site_fract_z
 _atom_site_occupancy
  Ho  Ho0  1  0.332282  0.676278  0.065382  1
  Ho  Ho1  1  0.874234  0.539212  0.250335  1
  Ho  Ho2  1  0.625783  0.039715  0.250286  1
  Ho  Ho3  1  0.132358  0.459542  0.749615  1
  Ho  Ho4  1  0.367463  0.959927  0.749659  1
  Tm  Tm5  1  0.167450  0.176219  0.434510  1
  Tm  Tm6  1  0.665758  0.323961  0.560812  1
  Tm  Tm7  1  0.834434  0.824294  0.938919  1
  Tm  Tm8  1  0.666026  0.323700  0.938877  1
  Tm  Tm9  1  0.834480  0.824148  0.560846  1
  Tm  Tm10  1  0.332486  0.676051  0.435155  1
  Tm  Tm11  1  0.167074  0.176111  0.065543  1
  Tc  Tc12  1  0.036298  0.885139  0.250316  1
  Tc  Tc13  1  0.463484  0.384431  0.250230  1
  Ir  Ir14  1  0.954890  0.115709  0.750112  1
  Ir  Ir15  1  0.545500  0.615564  0.749403  1
