# generated using pymatgen
data_Y11In9(NiPd)2
_symmetry_space_group_name_H-M   'P 1'
_cell_length_a   13.17270960
_cell_length_b   13.20067298
_cell_length_c   3.67279000
_cell_angle_alpha   90.00000000
_cell_angle_beta   90.00000000
_cell_angle_gamma   112.72229029
_symmetry_Int_Tables_number   1
_chemical_formula_structural   Y11In9(NiPd)2
_chemical_formula_sum   'Y11 In9 Ni2 Pd2'
_cell_volume   589.08895260
_cell_formula_units_Z   1
loop_
 _symmetry_equiv_pos_site_id
 _symmetry_equiv_pos_as_xyz
  1  'x, y, z'
loop_
 _atom_site_type_symbol
 _atom_site_label
 _atom_site_symmetry_multiplicity
 _atom_site_fract_x
 _atom_site_fract_y
 _atom_site_fract_z
 _atom_site_occupancy
  Y  Y0  1  0.072282  0.413597  0.000000  1
  Y  Y1  1  0.927718  0.586403  0.000000  1
  Y  Y2  1  0.415898  0.078451  0.000000  1
  Y  Y3  1  0.584102  0.921549  0.000000  1
  Y  Y4  1  0.620446  0.368140  0.000000  1
  Y  Y5  1  0.379554  0.631860  0.000000  1
  Y  Y6  1  0.837790  0.159616  0.000000  1
  Y  Y7  1  0.162210  0.840384  0.000000  1
  Y  Y8  1  0.000000  0.000000  0.000000  1
  Y  Y9  1  0.314045  0.306735  0.000000  1
  Y  Y10  1  0.685955  0.693265  0.000000  1
  In  In11  1  0.841487  0.368023  0.500000  1
  In  In12  1  0.158513  0.631977  0.500000  1
  In  In13  1  0.368815  0.842384  0.500000  1
  In  In14  1  0.631185  0.157616  0.500000  1
  In  In15  1  0.074496  0.217060  0.500000  1
  In  In16  1  0.925504  0.782940  0.500000  1
  In  In17  1  0.218530  0.075109  0.500000  1
  In  In18  1  0.781470  0.924891  0.500000  1
  In  In19  1  0.500000  0.500000  0.500000  1
  Ni  Ni20  1  0.448369  0.245417  0.500000  1
  Ni  Ni21  1  0.551631  0.754583  0.500000  1
  Pd  Pd22  1  0.249071  0.449787  0.500000  1
  Pd  Pd23  1  0.750929  0.550213  0.500000  1
