# generated using pymatgen
data_CaEuTaMnO7
_symmetry_space_group_name_H-M   'P 1'
_cell_length_a   7.29066167
_cell_length_b   7.29066247
_cell_length_c   7.39312300
_cell_angle_alpha   59.53401387
_cell_angle_beta   59.53401018
_cell_angle_gamma   59.56532874
_symmetry_Int_Tables_number   1
_chemical_formula_structural   CaEuTaMnO7
_chemical_formula_sum   'Ca2 Eu2 Ta2 Mn2 O14'
_cell_volume   274.99517474
_cell_formula_units_Z   2
loop_
 _symmetry_equiv_pos_site_id
 _symmetry_equiv_pos_as_xyz
  1  'x, y, z'
loop_
 _atom_site_type_symbol
 _atom_site_label
 _atom_site_symmetry_multiplicity
 _atom_site_fract_x
 _atom_site_fract_y
 _atom_site_fract_z
 _atom_site_occupancy
  Ca  Ca0  1  0.125000  0.625000  0.125000  1
  Ca  Ca1  1  0.625000  0.125000  0.125000  1
  Eu  Eu2  1  0.125000  0.125000  0.625000  1
  Eu  Eu3  1  0.125000  0.125000  0.125000  1
  Ta  Ta4  1  0.625000  0.625000  0.625000  1
  Ta  Ta5  1  0.625000  0.625000  0.125000  1
  Mn  Mn6  1  0.125000  0.625000  0.625000  1
  Mn  Mn7  1  0.625000  0.125000  0.625000  1
  O  O8  1  0.299149  0.700280  0.691163  1
  O  O9  1  0.549720  0.950851  0.940592  1
  O  O10  1  0.700595  0.700595  0.299405  1
  O  O11  1  0.300445  0.300445  0.699555  1
  O  O12  1  0.004749  0.004749  0.995251  1
  O  O13  1  0.299149  0.700280  0.309408  1
  O  O14  1  0.700280  0.299149  0.691163  1
  O  O15  1  0.950851  0.549720  0.940592  1
  O  O16  1  0.549405  0.549405  0.950595  1
  O  O17  1  0.949555  0.949555  0.550445  1
  O  O18  1  0.245251  0.245251  0.254749  1
  O  O19  1  0.549720  0.950851  0.558837  1
  O  O20  1  0.700280  0.299149  0.309408  1
  O  O21  1  0.950851  0.549720  0.558837  1
