# generated using pymatgen
data_Ca2Tm2As6Rh7
_symmetry_space_group_name_H-M   'P 1'
_cell_length_a   7.28598341
_cell_length_b   7.28598264
_cell_length_c   7.25595101
_cell_angle_alpha   109.48447070
_cell_angle_beta   109.48448160
_cell_angle_gamma   109.61188040
_symmetry_Int_Tables_number   1
_chemical_formula_structural   Ca2Tm2As6Rh7
_chemical_formula_sum   'Ca2 Tm2 As6 Rh7'
_cell_volume   295.90273579
_cell_formula_units_Z   1
loop_
 _symmetry_equiv_pos_site_id
 _symmetry_equiv_pos_as_xyz
  1  'x, y, z'
loop_
 _atom_site_type_symbol
 _atom_site_label
 _atom_site_symmetry_multiplicity
 _atom_site_fract_x
 _atom_site_fract_y
 _atom_site_fract_z
 _atom_site_occupancy
  Ca  Ca0  1  0.500000  0.500000  0.500000  1
  Ca  Ca1  1  0.000000  0.000000  0.500000  1
  Tm  Tm2  1  0.000000  0.500000  0.000000  1
  Tm  Tm3  1  0.500000  0.000000  0.000000  1
  As  As4  1  0.679136  0.999478  0.678614  1
  As  As5  1  0.678813  0.678813  0.000000  1
  As  As6  1  0.321187  0.321187  0.000000  1
  As  As7  1  0.999478  0.679136  0.678614  1
  As  As8  1  0.000522  0.320864  0.321386  1
  As  As9  1  0.320864  0.000522  0.321386  1
  Rh  Rh10  1  0.496038  0.750190  0.246228  1
  Rh  Rh11  1  0.750000  0.250000  0.500000  1
  Rh  Rh12  1  0.250000  0.750000  0.500000  1
  Rh  Rh13  1  0.249810  0.503962  0.753772  1
  Rh  Rh14  1  0.000000  0.000000  0.000000  1
  Rh  Rh15  1  0.503962  0.249810  0.753772  1
  Rh  Rh16  1  0.750190  0.496038  0.246228  1
