# generated using pymatgen
data_Ce3DyEr(SiB4)2
_symmetry_space_group_name_H-M   'P 1'
_cell_length_a   7.29434107
_cell_length_b   7.29434111
_cell_length_c   8.22674900
_cell_angle_alpha   90.00000000
_cell_angle_beta   90.00000000
_cell_angle_gamma   90.08261710
_symmetry_Int_Tables_number   1
_chemical_formula_structural   Ce3DyEr(SiB4)2
_chemical_formula_sum   'Ce6 Dy2 Er2 Si4 B16'
_cell_volume   437.72356775
_cell_formula_units_Z   2
loop_
 _symmetry_equiv_pos_site_id
 _symmetry_equiv_pos_as_xyz
  1  'x, y, z'
loop_
 _atom_site_type_symbol
 _atom_site_label
 _atom_site_symmetry_multiplicity
 _atom_site_fract_x
 _atom_site_fract_y
 _atom_site_fract_z
 _atom_site_occupancy
  Ce  Ce0  1  0.682360  0.182700  0.227785  1
  Ce  Ce1  1  0.317300  0.817640  0.772215  1
  Ce  Ce2  1  0.317300  0.817640  0.227785  1
  Ce  Ce3  1  0.818384  0.681616  0.227735  1
  Ce  Ce4  1  0.818384  0.681616  0.772265  1
  Ce  Ce5  1  0.682360  0.182700  0.772215  1
  Dy  Dy6  1  0.181210  0.318790  0.780398  1
  Dy  Dy7  1  0.181210  0.318790  0.219602  1
  Er  Er8  1  0.001825  0.001036  0.500000  1
  Er  Er9  1  0.498964  0.498175  0.500000  1
  Si  Si10  1  0.116856  0.613806  0.500000  1
  Si  Si11  1  0.886194  0.383144  0.500000  1
  Si  Si12  1  0.382340  0.117660  0.500000  1
  Si  Si13  1  0.614161  0.885839  0.500000  1
  B  B14  1  0.173448  0.039423  0.000000  1
  B  B15  1  0.827928  0.962099  0.000000  1
  B  B16  1  0.960826  0.173023  0.000000  1
  B  B17  1  0.326977  0.539174  0.000000  1
  B  B18  1  0.039941  0.827933  0.000000  1
  B  B19  1  0.672067  0.460059  0.000000  1
  B  B20  1  0.537901  0.672072  0.000000  1
  B  B21  1  0.460577  0.326552  0.000000  1
  B  B22  1  0.091606  0.590912  0.000000  1
  B  B23  1  0.909088  0.408394  0.000000  1
  B  B24  1  0.409342  0.090658  0.000000  1
  B  B25  1  0.590853  0.909147  0.000000  1
  B  B26  1  0.000673  0.000373  0.159825  1
  B  B27  1  0.000673  0.000373  0.840175  1
  B  B28  1  0.499627  0.499327  0.840175  1
  B  B29  1  0.499627  0.499327  0.159825  1
