# generated using pymatgen
data_Yb7Tm(Si3Pd)4
_symmetry_space_group_name_H-M   'P 1'
_cell_length_a   8.23934600
_cell_length_b   8.23934468
_cell_length_c   8.15612500
_cell_angle_alpha   90.00000000
_cell_angle_beta   90.00000000
_cell_angle_gamma   119.99999727
_symmetry_Int_Tables_number   1
_chemical_formula_structural   Yb7Tm(Si3Pd)4
_chemical_formula_sum   'Yb7 Tm1 Si12 Pd4'
_cell_volume   479.51249555
_cell_formula_units_Z   1
loop_
 _symmetry_equiv_pos_site_id
 _symmetry_equiv_pos_as_xyz
  1  'x, y, z'
loop_
 _atom_site_type_symbol
 _atom_site_label
 _atom_site_symmetry_multiplicity
 _atom_site_fract_x
 _atom_site_fract_y
 _atom_site_fract_z
 _atom_site_occupancy
  Yb  Yb0  1  0.501951  0.003903  0.250000  1
  Yb  Yb1  1  0.497972  0.995944  0.750000  1
  Yb  Yb2  1  0.996097  0.498049  0.250000  1
  Yb  Yb3  1  0.004056  0.502028  0.750000  1
  Yb  Yb4  1  0.501951  0.498049  0.250000  1
  Yb  Yb5  1  0.497972  0.502028  0.750000  1
  Yb  Yb6  1  0.000000  0.000000  0.250000  1
  Tm  Tm7  1  0.000000  0.000000  0.750000  1
  Si  Si8  1  0.163989  0.327979  0.998246  1
  Si  Si9  1  0.836079  0.672159  0.995379  1
  Si  Si10  1  0.672021  0.836011  0.998246  1
  Si  Si11  1  0.836079  0.672159  0.504621  1
  Si  Si12  1  0.327841  0.163921  0.995379  1
  Si  Si13  1  0.163989  0.327979  0.501754  1
  Si  Si14  1  0.163989  0.836011  0.998246  1
  Si  Si15  1  0.327841  0.163921  0.504621  1
  Si  Si16  1  0.836079  0.163921  0.995379  1
  Si  Si17  1  0.672021  0.836011  0.501754  1
  Si  Si18  1  0.836079  0.163921  0.504621  1
  Si  Si19  1  0.163989  0.836011  0.501754  1
  Pd  Pd20  1  0.333333  0.666667  0.004786  1
  Pd  Pd21  1  0.666667  0.333333  0.995904  1
  Pd  Pd22  1  0.666667  0.333333  0.504096  1
  Pd  Pd23  1  0.333333  0.666667  0.495214  1
