# generated using pymatgen
data_LaSm3(In2Br5)4
_symmetry_space_group_name_H-M   'P 1'
_cell_length_a   8.63563446
_cell_length_b   9.20667200
_cell_length_c   13.54942241
_cell_angle_alpha   90.00000000
_cell_angle_beta   90.26637605
_cell_angle_gamma   90.00000000
_symmetry_Int_Tables_number   1
_chemical_formula_structural   LaSm3(In2Br5)4
_chemical_formula_sum   'La1 Sm3 In8 Br20'
_cell_volume   1077.24133762
_cell_formula_units_Z   1
loop_
 _symmetry_equiv_pos_site_id
 _symmetry_equiv_pos_as_xyz
  1  'x, y, z'
loop_
 _atom_site_type_symbol
 _atom_site_label
 _atom_site_symmetry_multiplicity
 _atom_site_fract_x
 _atom_site_fract_y
 _atom_site_fract_z
 _atom_site_occupancy
  La  La0  1  0.423681  0.250000  0.993617  1
  Sm  Sm1  1  0.923814  0.750000  0.505494  1
  Sm  Sm2  1  0.577004  0.750000  0.005568  1
  Sm  Sm3  1  0.076334  0.250000  0.494398  1
  In  In4  1  0.941593  0.005828  0.828270  1
  In  In5  1  0.057719  0.993204  0.171661  1
  In  In6  1  0.558299  0.493958  0.329100  1
  In  In7  1  0.057719  0.506796  0.171661  1
  In  In8  1  0.941593  0.494172  0.828270  1
  In  In9  1  0.441720  0.506511  0.670810  1
  In  In10  1  0.558299  0.006042  0.329100  1
  In  In11  1  0.441720  0.993489  0.670810  1
  Br  Br12  1  0.579910  0.750000  0.505606  1
  Br  Br13  1  0.167142  0.955090  0.428905  1
  Br  Br14  1  0.833062  0.044875  0.570939  1
  Br  Br15  1  0.330456  0.550353  0.926834  1
  Br  Br16  1  0.167142  0.544910  0.428905  1
  Br  Br17  1  0.342068  0.250000  0.208302  1
  Br  Br18  1  0.330456  0.949647  0.926834  1
  Br  Br19  1  0.833062  0.455125  0.570939  1
  Br  Br20  1  0.391734  0.750000  0.185483  1
  Br  Br21  1  0.671074  0.040876  0.073761  1
  Br  Br22  1  0.155982  0.250000  0.704146  1
  Br  Br23  1  0.614307  0.250000  0.808949  1
  Br  Br24  1  0.420094  0.250000  0.495045  1
  Br  Br25  1  0.108296  0.750000  0.685765  1
  Br  Br26  1  0.671074  0.459124  0.073761  1
  Br  Br27  1  0.071191  0.250000  0.995152  1
  Br  Br28  1  0.921759  0.750000  0.005099  1
  Br  Br29  1  0.844589  0.750000  0.296312  1
  Br  Br30  1  0.655911  0.750000  0.796567  1
  Br  Br31  1  0.891197  0.250000  0.313938  1
