# generated using pymatgen
data_Ta12Re7Tc5
_symmetry_space_group_name_H-M   'P 1'
_cell_length_a   4.51325100
_cell_length_b   6.40381900
_cell_length_c   13.62599900
_cell_angle_alpha   90.00000000
_cell_angle_beta   89.99974610
_cell_angle_gamma   90.00000000
_symmetry_Int_Tables_number   1
_chemical_formula_structural   Ta12Re7Tc5
_chemical_formula_sum   'Ta12 Re7 Tc5'
_cell_volume   393.81920228
_cell_formula_units_Z   1
loop_
 _symmetry_equiv_pos_site_id
 _symmetry_equiv_pos_as_xyz
  1  'x, y, z'
loop_
 _atom_site_type_symbol
 _atom_site_label
 _atom_site_symmetry_multiplicity
 _atom_site_fract_x
 _atom_site_fract_y
 _atom_site_fract_z
 _atom_site_occupancy
  Ta  Ta0  1  0.500003  0.249527  0.000023  1
  Ta  Ta1  1  0.500003  0.750473  0.000023  1
  Ta  Ta2  1  0.999998  0.249881  0.166721  1
  Ta  Ta3  1  0.999998  0.750119  0.166721  1
  Ta  Ta4  1  0.499993  0.249999  0.333328  1
  Ta  Ta5  1  0.499993  0.750002  0.333328  1
  Ta  Ta6  1  0.000002  0.250094  0.499984  1
  Ta  Ta7  1  0.000002  0.749907  0.499984  1
  Ta  Ta8  1  0.500004  0.249998  0.666654  1
  Ta  Ta9  1  0.500004  0.750003  0.666654  1
  Ta  Ta10  1  0.000004  0.249883  0.833294  1
  Ta  Ta11  1  0.000004  0.750117  0.833294  1
  Re  Re12  1  0.000005  0.000000  0.000019  1
  Re  Re13  1  0.499992  0.500000  0.166954  1
  Re  Re14  1  0.999992  0.000000  0.333436  1
  Re  Re15  1  0.499992  0.500000  0.499991  1
  Re  Re16  1  0.000005  0.000000  0.666513  1
  Re  Re17  1  0.500007  0.500000  0.833051  1
  Re  Re18  1  0.000000  0.500000  0.000017  1
  Tc  Tc19  1  0.499987  0.000000  0.166763  1
  Tc  Tc20  1  0.000002  0.500000  0.333421  1
  Tc  Tc21  1  0.499999  0.000000  0.499990  1
  Tc  Tc22  1  0.000000  0.500000  0.666592  1
  Tc  Tc23  1  0.500019  0.000000  0.833247  1
