# generated using pymatgen
data_Li2CaNpF8
_symmetry_space_group_name_H-M   'P 1'
_cell_length_a   6.66561542
_cell_length_b   6.66561549
_cell_length_c   6.66561467
_cell_angle_alpha   133.33953924
_cell_angle_beta   133.33954562
_cell_angle_gamma   68.12141371
_symmetry_Int_Tables_number   1
_chemical_formula_structural   Li2CaNpF8
_chemical_formula_sum   'Li2 Ca1 Np1 F8'
_cell_volume   153.92189019
_cell_formula_units_Z   1
loop_
 _symmetry_equiv_pos_site_id
 _symmetry_equiv_pos_as_xyz
  1  'x, y, z'
loop_
 _atom_site_type_symbol
 _atom_site_label
 _atom_site_symmetry_multiplicity
 _atom_site_fract_x
 _atom_site_fract_y
 _atom_site_fract_z
 _atom_site_occupancy
  Li  Li0  1  0.750000  0.250000  0.500000  1
  Li  Li1  1  0.000000  0.000000  0.000000  1
  Ca  Ca2  1  0.500000  0.500000  0.000000  1
  Np  Np3  1  0.250000  0.750000  0.500000  1
  F  F4  1  0.503077  0.451334  0.608137  1
  F  F5  1  0.241104  0.804945  0.876518  1
  F  F6  1  0.548666  0.156803  0.051744  1
  F  F7  1  0.105060  0.496923  0.948256  1
  F  F8  1  0.843197  0.894940  0.391863  1
  F  F9  1  0.195055  0.071573  0.436159  1
  F  F10  1  0.928427  0.364586  0.123482  1
  F  F11  1  0.635414  0.758896  0.563841  1
