# generated using pymatgen
data_La4Y12Cd3HgIr4
_symmetry_space_group_name_H-M   'P 1'
_cell_length_a   9.78826906
_cell_length_b   9.78826920
_cell_length_c   9.78827027
_cell_angle_alpha   60.12157874
_cell_angle_beta   60.12158224
_cell_angle_gamma   60.12157291
_symmetry_Int_Tables_number   1
_chemical_formula_structural   La4Y12Cd3HgIr4
_chemical_formula_sum   'La4 Y12 Cd3 Hg1 Ir4'
_cell_volume   664.96274645
_cell_formula_units_Z   1
loop_
 _symmetry_equiv_pos_site_id
 _symmetry_equiv_pos_as_xyz
  1  'x, y, z'
loop_
 _atom_site_type_symbol
 _atom_site_label
 _atom_site_symmetry_multiplicity
 _atom_site_fract_x
 _atom_site_fract_y
 _atom_site_fract_z
 _atom_site_occupancy
  La  La0  1  0.349668  0.349668  0.349668  1
  La  La1  1  0.351380  0.351380  0.947608  1
  La  La2  1  0.351380  0.947608  0.351380  1
  La  La3  1  0.947608  0.351380  0.351380  1
  Y  Y4  1  0.812467  0.187042  0.187042  1
  Y  Y5  1  0.186063  0.812465  0.812465  1
  Y  Y6  1  0.187042  0.812467  0.187042  1
  Y  Y7  1  0.812465  0.186063  0.812465  1
  Y  Y8  1  0.187042  0.187042  0.812467  1
  Y  Y9  1  0.812465  0.812465  0.186063  1
  Y  Y10  1  0.934319  0.564604  0.564604  1
  Y  Y11  1  0.564279  0.935181  0.935181  1
  Y  Y12  1  0.564604  0.934319  0.564604  1
  Y  Y13  1  0.935181  0.564279  0.935181  1
  Y  Y14  1  0.564604  0.564604  0.934319  1
  Y  Y15  1  0.935181  0.935181  0.564279  1
  Cd  Cd16  1  0.581631  0.581631  0.253838  1
  Cd  Cd17  1  0.581631  0.253838  0.581631  1
  Cd  Cd18  1  0.253838  0.581631  0.581631  1
  Hg  Hg19  1  0.585597  0.585597  0.585597  1
  Ir  Ir20  1  0.140255  0.140255  0.140255  1
  Ir  Ir21  1  0.141285  0.141285  0.578730  1
  Ir  Ir22  1  0.141285  0.578730  0.141285  1
  Ir  Ir23  1  0.578730  0.141285  0.141285  1
