# generated using pymatgen
data_La4MgScSi3Ge
_symmetry_space_group_name_H-M   'P 1'
_cell_length_a   7.51617904
_cell_length_b   7.52968297
_cell_length_c   4.51286600
_cell_angle_alpha   90.00000000
_cell_angle_beta   90.00000000
_cell_angle_gamma   89.74929101
_symmetry_Int_Tables_number   1
_chemical_formula_structural   La4MgScSi3Ge
_chemical_formula_sum   'La4 Mg1 Sc1 Si3 Ge1'
_cell_volume   255.40070299
_cell_formula_units_Z   1
loop_
 _symmetry_equiv_pos_site_id
 _symmetry_equiv_pos_as_xyz
  1  'x, y, z'
loop_
 _atom_site_type_symbol
 _atom_site_label
 _atom_site_symmetry_multiplicity
 _atom_site_fract_x
 _atom_site_fract_y
 _atom_site_fract_z
 _atom_site_occupancy
  La  La0  1  0.674176  0.183880  0.500000  1
  La  La1  1  0.326812  0.817157  0.500000  1
  La  La2  1  0.183904  0.323640  0.500000  1
  La  La3  1  0.814040  0.674402  0.500000  1
  Mg  Mg4  1  0.501722  0.499086  0.000000  1
  Sc  Sc5  1  0.999014  0.002074  0.000000  1
  Si  Si6  1  0.890268  0.374352  0.000000  1
  Si  Si7  1  0.622497  0.892947  0.000000  1
  Si  Si8  1  0.377339  0.106956  0.000000  1
  Ge  Ge9  1  0.110226  0.625506  0.000000  1
