# generated using pymatgen
data_U4MnGeAs5Ru6
_symmetry_space_group_name_H-M   'P 1'
_cell_length_a   7.17575408
_cell_length_b   7.17575310
_cell_length_c   7.17575286
_cell_angle_alpha   109.46843447
_cell_angle_beta   109.50640614
_cell_angle_gamma   109.43883655
_symmetry_Int_Tables_number   1
_chemical_formula_structural   U4MnGeAs5Ru6
_chemical_formula_sum   'U4 Mn1 Ge1 As5 Ru6'
_cell_volume   284.43328747
_cell_formula_units_Z   1
loop_
 _symmetry_equiv_pos_site_id
 _symmetry_equiv_pos_as_xyz
  1  'x, y, z'
loop_
 _atom_site_type_symbol
 _atom_site_label
 _atom_site_symmetry_multiplicity
 _atom_site_fract_x
 _atom_site_fract_y
 _atom_site_fract_z
 _atom_site_occupancy
  U  U0  1  0.996810  0.993555  0.498442  1
  U  U1  1  0.504886  0.006445  0.003255  1
  U  U2  1  0.996810  0.498368  0.003255  1
  U  U3  1  0.504886  0.501632  0.498442  1
  Mn  Mn4  1  0.750408  0.500000  0.250408  1
  Ge  Ge5  1  0.307314  0.000000  0.307314  1
  As  As6  1  0.997783  0.309055  0.306839  1
  As  As7  1  0.997783  0.690945  0.688728  1
  As  As8  1  0.313377  0.309069  0.004308  1
  As  As9  1  0.695237  0.690931  0.004308  1
  As  As10  1  0.691838  0.000000  0.691838  1
  Ru  Ru11  1  0.499061  0.749378  0.248439  1
  Ru  Ru12  1  0.499061  0.250622  0.749683  1
  Ru  Ru13  1  0.747616  0.250620  0.496996  1
  Ru  Ru14  1  0.246375  0.749380  0.496996  1
  Ru  Ru15  1  0.250463  0.500000  0.750463  1
  Ru  Ru16  1  0.000289  0.000000  0.000289  1
