# generated using pymatgen
data_Lu3ScGa2Pt3
_symmetry_space_group_name_H-M   'P 1'
_cell_length_a   7.14964527
_cell_length_b   7.12255772
_cell_length_c   4.07885300
_cell_angle_alpha   90.00000000
_cell_angle_beta   90.00000000
_cell_angle_gamma   119.87474022
_symmetry_Int_Tables_number   1
_chemical_formula_structural   Lu3ScGa2Pt3
_chemical_formula_sum   'Lu3 Sc1 Ga2 Pt3'
_cell_volume   180.10921838
_cell_formula_units_Z   1
loop_
 _symmetry_equiv_pos_site_id
 _symmetry_equiv_pos_as_xyz
  1  'x, y, z'
loop_
 _atom_site_type_symbol
 _atom_site_label
 _atom_site_symmetry_multiplicity
 _atom_site_fract_x
 _atom_site_fract_y
 _atom_site_fract_z
 _atom_site_occupancy
  Lu  Lu0  1  0.428783  0.413576  0.500000  1
  Lu  Lu1  1  0.571217  0.984792  0.500000  1
  Lu  Lu2  1  0.000000  0.612399  0.500000  1
  Sc  Sc3  1  0.000000  0.242052  0.000000  1
  Ga  Ga4  1  0.746605  0.749536  0.000000  1
  Ga  Ga5  1  0.253395  0.002931  0.000000  1
  Pt  Pt6  1  0.670613  0.332021  0.000000  1
  Pt  Pt7  1  0.329387  0.661409  0.000000  1
  Pt  Pt8  1  0.000000  0.001284  0.500000  1
