# generated using pymatgen
data_Dy2UBe2Ir5
_symmetry_space_group_name_H-M   'P 1'
_cell_length_a   9.87890200
_cell_length_b   9.87890200
_cell_length_c   3.32375400
_cell_angle_alpha   90.00000000
_cell_angle_beta   90.00000000
_cell_angle_gamma   90.00000000
_symmetry_Int_Tables_number   1
_chemical_formula_structural   Dy2UBe2Ir5
_chemical_formula_sum   'Dy4 U2 Be4 Ir10'
_cell_volume   324.37414270
_cell_formula_units_Z   2
loop_
 _symmetry_equiv_pos_site_id
 _symmetry_equiv_pos_as_xyz
  1  'x, y, z'
loop_
 _atom_site_type_symbol
 _atom_site_label
 _atom_site_symmetry_multiplicity
 _atom_site_fract_x
 _atom_site_fract_y
 _atom_site_fract_z
 _atom_site_occupancy
  Dy  Dy0  1  0.674042  0.174042  0.000000  1
  Dy  Dy1  1  0.325958  0.825958  0.000000  1
  Dy  Dy2  1  0.174042  0.325958  0.000000  1
  Dy  Dy3  1  0.825958  0.674042  0.000000  1
  U  U4  1  0.000000  0.000000  0.000000  1
  U  U5  1  0.500000  0.500000  0.000000  1
  Be  Be6  1  0.119408  0.619408  0.000000  1
  Be  Be7  1  0.880592  0.380592  0.000000  1
  Be  Be8  1  0.619408  0.880592  0.000000  1
  Be  Be9  1  0.380592  0.119408  0.000000  1
  Ir  Ir10  1  0.218747  0.069463  0.500000  1
  Ir  Ir11  1  0.781253  0.930537  0.500000  1
  Ir  Ir12  1  0.069463  0.781253  0.500000  1
  Ir  Ir13  1  0.718747  0.430537  0.500000  1
  Ir  Ir14  1  0.930537  0.218747  0.500000  1
  Ir  Ir15  1  0.281253  0.569463  0.500000  1
  Ir  Ir16  1  0.569463  0.718747  0.500000  1
  Ir  Ir17  1  0.430537  0.281253  0.500000  1
  Ir  Ir18  1  0.500000  0.000000  0.500000  1
  Ir  Ir19  1  0.000000  0.500000  0.500000  1
