# generated using pymatgen
data_Th2(AlPt3)3
_symmetry_space_group_name_H-M   'P 1'
_cell_length_a   7.76019018
_cell_length_b   7.76018910
_cell_length_c   10.51141189
_cell_angle_alpha   67.84206934
_cell_angle_beta   67.84208187
_cell_angle_gamma   59.98554956
_symmetry_Int_Tables_number   1
_chemical_formula_structural   Th2(AlPt3)3
_chemical_formula_sum   'Th4 Al6 Pt18'
_cell_volume   493.41490302
_cell_formula_units_Z   2
loop_
 _symmetry_equiv_pos_site_id
 _symmetry_equiv_pos_as_xyz
  1  'x, y, z'
loop_
 _atom_site_type_symbol
 _atom_site_label
 _atom_site_symmetry_multiplicity
 _atom_site_fract_x
 _atom_site_fract_y
 _atom_site_fract_z
 _atom_site_occupancy
  Th  Th0  1  0.244930  0.415678  0.250554  1
  Th  Th1  1  0.755070  0.584322  0.749446  1
  Th  Th2  1  0.415678  0.244930  0.750554  1
  Th  Th3  1  0.584322  0.755070  0.249446  1
  Al  Al4  1  0.176542  0.649156  0.499732  1
  Al  Al5  1  0.649156  0.176542  0.999732  1
  Al  Al6  1  0.000000  0.500000  0.000000  1
  Al  Al7  1  0.823458  0.350844  0.500268  1
  Al  Al8  1  0.350844  0.823458  0.000268  1
  Al  Al9  1  0.500000  0.000000  0.500000  1
  Pt  Pt10  1  0.135957  0.864043  0.250000  1
  Pt  Pt11  1  0.352392  0.528003  0.927843  1
  Pt  Pt12  1  0.696481  0.857843  0.928744  1
  Pt  Pt13  1  0.701409  0.084371  0.247812  1
  Pt  Pt14  1  0.857843  0.696481  0.428744  1
  Pt  Pt15  1  0.977697  0.811705  0.070285  1
  Pt  Pt16  1  0.303519  0.142157  0.071256  1
  Pt  Pt17  1  0.647608  0.471997  0.072157  1
  Pt  Pt18  1  0.915629  0.298591  0.252188  1
  Pt  Pt19  1  0.084371  0.701409  0.747812  1
  Pt  Pt20  1  0.811705  0.977697  0.570285  1
  Pt  Pt21  1  0.528003  0.352392  0.427843  1
  Pt  Pt22  1  0.142157  0.303519  0.571256  1
  Pt  Pt23  1  0.298591  0.915629  0.752188  1
  Pt  Pt24  1  0.022303  0.188295  0.929715  1
  Pt  Pt25  1  0.864043  0.135957  0.750000  1
  Pt  Pt26  1  0.471997  0.647608  0.572157  1
  Pt  Pt27  1  0.188295  0.022303  0.429715  1
