# generated using pymatgen
data_Tb15Ho5(Bi2Rh)4
_symmetry_space_group_name_H-M   'P 1'
_cell_length_a   8.02815528
_cell_length_b   9.01463932
_cell_length_c   12.54218456
_cell_angle_alpha   90.02431399
_cell_angle_beta   89.97586550
_cell_angle_gamma   90.01808142
_symmetry_Int_Tables_number   1
_chemical_formula_structural   Tb15Ho5(Bi2Rh)4
_chemical_formula_sum   'Tb15 Ho5 Bi8 Rh4'
_cell_volume   907.68928067
_cell_formula_units_Z   1
loop_
 _symmetry_equiv_pos_site_id
 _symmetry_equiv_pos_as_xyz
  1  'x, y, z'
loop_
 _atom_site_type_symbol
 _atom_site_label
 _atom_site_symmetry_multiplicity
 _atom_site_fract_x
 _atom_site_fract_y
 _atom_site_fract_z
 _atom_site_occupancy
  Tb  Tb0  1  0.840099  0.749874  0.793939  1
  Tb  Tb1  1  0.159755  0.250090  0.206079  1
  Tb  Tb2  1  0.340077  0.250146  0.706152  1
  Tb  Tb3  1  0.659973  0.749888  0.293806  1
  Tb  Tb4  1  0.374464  0.749802  0.690867  1
  Tb  Tb5  1  0.625571  0.250198  0.309100  1
  Tb  Tb6  1  0.874398  0.250077  0.809267  1
  Tb  Tb7  1  0.125360  0.749861  0.190776  1
  Tb  Tb8  1  0.953316  0.749796  0.501704  1
  Tb  Tb9  1  0.046674  0.250181  0.498290  1
  Tb  Tb10  1  0.453411  0.250097  0.998294  1
  Tb  Tb11  1  0.546913  0.749900  0.001734  1
  Tb  Tb12  1  0.678063  0.041915  0.566634  1
  Tb  Tb13  1  0.321936  0.958053  0.433374  1
  Tb  Tb14  1  0.177802  0.958121  0.933479  1
  Ho  Ho15  1  0.322922  0.542003  0.433506  1
  Ho  Ho16  1  0.822791  0.041988  0.066522  1
  Ho  Ho17  1  0.677075  0.457985  0.566477  1
  Ho  Ho18  1  0.823011  0.457968  0.066446  1
  Ho  Ho19  1  0.177073  0.541897  0.933559  1
  Bi  Bi20  1  0.566749  0.492124  0.825865  1
  Bi  Bi21  1  0.433233  0.507882  0.174135  1
  Bi  Bi22  1  0.066742  0.507882  0.674161  1
  Bi  Bi23  1  0.433259  0.992149  0.174042  1
  Bi  Bi24  1  0.933238  0.492121  0.325869  1
  Bi  Bi25  1  0.566939  0.007903  0.825859  1
  Bi  Bi26  1  0.932896  0.007911  0.325749  1
  Bi  Bi27  1  0.067020  0.992134  0.674133  1
  Rh  Rh28  1  0.571863  0.749324  0.509043  1
  Rh  Rh29  1  0.428129  0.250683  0.490952  1
  Rh  Rh30  1  0.071374  0.250358  0.991110  1
  Rh  Rh31  1  0.927877  0.749690  0.009079  1
