# generated using pymatgen
data_AcBi3Te10
_symmetry_space_group_name_H-M   'P 1'
_cell_length_a   24.21725406
_cell_length_b   24.21725298
_cell_length_c   3.22942700
_cell_angle_alpha   90.00000000
_cell_angle_beta   90.00000000
_cell_angle_gamma   166.49096153
_symmetry_Int_Tables_number   1
_chemical_formula_structural   AcBi3Te10
_chemical_formula_sum   'Ac1 Bi3 Te10'
_cell_volume   442.43122402
_cell_formula_units_Z   1
loop_
 _symmetry_equiv_pos_site_id
 _symmetry_equiv_pos_as_xyz
  1  'x, y, z'
loop_
 _atom_site_type_symbol
 _atom_site_label
 _atom_site_symmetry_multiplicity
 _atom_site_fract_x
 _atom_site_fract_y
 _atom_site_fract_z
 _atom_site_occupancy
  Ac  Ac0  1  0.101343  0.898657  0.750000  1
  Bi  Bi1  1  0.685983  0.314017  0.250000  1
  Bi  Bi2  1  0.319724  0.680276  0.750000  1
  Bi  Bi3  1  0.886240  0.113760  0.250000  1
  Te  Te4  1  0.622664  0.377336  0.250000  1
  Te  Te5  1  0.384844  0.615156  0.750000  1
  Te  Te6  1  0.821324  0.178676  0.250000  1
  Te  Te7  1  0.177476  0.822524  0.750000  1
  Te  Te8  1  0.953679  0.046321  0.750000  1
  Te  Te9  1  0.041059  0.958941  0.250000  1
  Te  Te10  1  0.544695  0.455305  0.750000  1
  Te  Te11  1  0.457165  0.542835  0.250000  1
  Te  Te12  1  0.750266  0.249734  0.750000  1
  Te  Te13  1  0.253539  0.746461  0.250000  1
