# generated using pymatgen
data_Sr5Bi2P
_symmetry_space_group_name_H-M   'P 1'
_cell_length_a   8.73134300
_cell_length_b   9.93358000
_cell_length_c   13.39765500
_cell_angle_alpha   90.00000000
_cell_angle_beta   90.00000000
_cell_angle_gamma   90.00000000
_symmetry_Int_Tables_number   1
_chemical_formula_structural   Sr5Bi2P
_chemical_formula_sum   'Sr20 Bi8 P4'
_cell_volume   1162.02543221
_cell_formula_units_Z   4
loop_
 _symmetry_equiv_pos_site_id
 _symmetry_equiv_pos_as_xyz
  1  'x, y, z'
loop_
 _atom_site_type_symbol
 _atom_site_label
 _atom_site_symmetry_multiplicity
 _atom_site_fract_x
 _atom_site_fract_y
 _atom_site_fract_z
 _atom_site_occupancy
  Sr  Sr0  1  0.047629  0.750000  0.501239  1
  Sr  Sr1  1  0.952371  0.250000  0.498761  1
  Sr  Sr2  1  0.547629  0.250000  0.998761  1
  Sr  Sr3  1  0.452371  0.750000  0.001239  1
  Sr  Sr4  1  0.865706  0.750000  0.802074  1
  Sr  Sr5  1  0.134294  0.250000  0.197926  1
  Sr  Sr6  1  0.365706  0.250000  0.697926  1
  Sr  Sr7  1  0.634294  0.750000  0.302074  1
  Sr  Sr8  1  0.680652  0.535741  0.573121  1
  Sr  Sr9  1  0.319348  0.464259  0.426879  1
  Sr  Sr10  1  0.180652  0.464259  0.926879  1
  Sr  Sr11  1  0.319348  0.035741  0.426879  1
  Sr  Sr12  1  0.819348  0.535741  0.073121  1
  Sr  Sr13  1  0.680652  0.964259  0.573121  1
  Sr  Sr14  1  0.819348  0.964259  0.073121  1
  Sr  Sr15  1  0.180652  0.035741  0.926879  1
  Sr  Sr16  1  0.338360  0.750000  0.709071  1
  Sr  Sr17  1  0.661640  0.250000  0.290929  1
  Sr  Sr18  1  0.838360  0.250000  0.790929  1
  Sr  Sr19  1  0.161640  0.750000  0.209071  1
  Bi  Bi20  1  0.566637  0.510001  0.828462  1
  Bi  Bi21  1  0.433363  0.489999  0.171538  1
  Bi  Bi22  1  0.066637  0.489999  0.671538  1
  Bi  Bi23  1  0.433363  0.010001  0.171538  1
  Bi  Bi24  1  0.933363  0.510001  0.328462  1
  Bi  Bi25  1  0.566637  0.989999  0.828462  1
  Bi  Bi26  1  0.933363  0.989999  0.328462  1
  Bi  Bi27  1  0.066637  0.010001  0.671538  1
  P  P28  1  0.072752  0.750000  0.987726  1
  P  P29  1  0.927248  0.250000  0.012274  1
  P  P30  1  0.572752  0.250000  0.512274  1
  P  P31  1  0.427248  0.750000  0.487726  1
