# generated using pymatgen
data_Pr7Nd3InBi5Br2
_symmetry_space_group_name_H-M   'P 1'
_cell_length_a   9.73870602
_cell_length_b   9.69000629
_cell_length_c   6.77781401
_cell_angle_alpha   89.99592551
_cell_angle_beta   90.00378204
_cell_angle_gamma   120.15980755
_symmetry_Int_Tables_number   1
_chemical_formula_structural   Pr7Nd3InBi5Br2
_chemical_formula_sum   'Pr7 Nd3 In1 Bi5 Br2'
_cell_volume   553.02400312
_cell_formula_units_Z   1
loop_
 _symmetry_equiv_pos_site_id
 _symmetry_equiv_pos_as_xyz
  1  'x, y, z'
loop_
 _atom_site_type_symbol
 _atom_site_label
 _atom_site_symmetry_multiplicity
 _atom_site_fract_x
 _atom_site_fract_y
 _atom_site_fract_z
 _atom_site_occupancy
  Pr  Pr0  1  0.273914  0.000037  0.749923  1
  Pr  Pr1  1  0.727426  0.000099  0.250151  1
  Pr  Pr2  1  0.996000  0.268934  0.749890  1
  Pr  Pr3  1  0.000300  0.729608  0.250090  1
  Pr  Pr4  1  0.727198  0.731076  0.749889  1
  Pr  Pr5  1  0.270703  0.270369  0.250062  1
  Pr  Pr6  1  0.334832  0.668138  0.001514  1
  Nd  Nd7  1  0.334851  0.668194  0.498449  1
  Nd  Nd8  1  0.666706  0.331814  0.498556  1
  Nd  Nd9  1  0.666644  0.331721  0.001425  1
  In  In10  1  0.614188  0.000303  0.749768  1
  Bi  Bi11  1  0.387212  0.000385  0.250300  1
  Bi  Bi12  1  0.998363  0.615247  0.749726  1
  Bi  Bi13  1  0.999399  0.383608  0.250273  1
  Bi  Bi14  1  0.383480  0.384416  0.749737  1
  Bi  Bi15  1  0.616147  0.616042  0.250236  1
  Br  Br16  1  0.001316  0.000001  0.499619  1
  Br  Br17  1  0.001320  0.000008  0.000392  1
