# generated using pymatgen
data_CaTb3Er4(B6Os)4
_symmetry_space_group_name_H-M   'P 1'
_cell_length_a   3.64647500
_cell_length_b   9.14291030
_cell_length_c   11.54215417
_cell_angle_alpha   89.90262411
_cell_angle_beta   90.00000000
_cell_angle_gamma   90.00000000
_symmetry_Int_Tables_number   1
_chemical_formula_structural   CaTb3Er4(B6Os)4
_chemical_formula_sum   'Ca1 Tb3 Er4 B24 Os4'
_cell_volume   384.80786781
_cell_formula_units_Z   1
loop_
 _symmetry_equiv_pos_site_id
 _symmetry_equiv_pos_as_xyz
  1  'x, y, z'
loop_
 _atom_site_type_symbol
 _atom_site_label
 _atom_site_symmetry_multiplicity
 _atom_site_fract_x
 _atom_site_fract_y
 _atom_site_fract_z
 _atom_site_occupancy
  Ca  Ca0  1  0.000000  0.322189  0.413677  1
  Tb  Tb1  1  0.000000  0.676298  0.585139  1
  Tb  Tb2  1  0.000000  0.822273  0.086700  1
  Tb  Tb3  1  0.000000  0.178249  0.914331  1
  Er  Er4  1  0.000000  0.944433  0.371873  1
  Er  Er5  1  0.000000  0.057506  0.627311  1
  Er  Er6  1  0.000000  0.443353  0.128921  1
  Er  Er7  1  0.000000  0.555867  0.872684  1
  B  B8  1  0.500000  0.554355  0.432255  1
  B  B9  1  0.500000  0.445884  0.567829  1
  B  B10  1  0.500000  0.053596  0.066949  1
  B  B11  1  0.500000  0.945533  0.932149  1
  B  B12  1  0.500000  0.748930  0.418743  1
  B  B13  1  0.500000  0.251628  0.581478  1
  B  B14  1  0.500000  0.248325  0.080997  1
  B  B15  1  0.500000  0.751030  0.919112  1
  B  B16  1  0.500000  0.791850  0.266340  1
  B  B17  1  0.500000  0.209254  0.733963  1
  B  B18  1  0.500000  0.290396  0.233347  1
  B  B19  1  0.500000  0.708981  0.766482  1
  B  B20  1  0.500000  0.631637  0.185934  1
  B  B21  1  0.500000  0.368811  0.815145  1
  B  B22  1  0.500000  0.130917  0.313923  1
  B  B23  1  0.500000  0.868833  0.685139  1
  B  B24  1  0.500000  0.983493  0.212463  1
  B  B25  1  0.500000  0.016508  0.786631  1
  B  B26  1  0.500000  0.483816  0.287214  1
  B  B27  1  0.500000  0.516368  0.713277  1
  B  B28  1  0.500000  0.605707  0.029445  1
  B  B29  1  0.500000  0.394424  0.971278  1
  B  B30  1  0.500000  0.102823  0.471426  1
  B  B31  1  0.500000  0.896070  0.528666  1
  Os  Os32  1  0.000000  0.640017  0.320104  1
  Os  Os33  1  0.000000  0.361756  0.680611  1
  Os  Os34  1  0.000000  0.136956  0.177680  1
  Os  Os35  1  0.000000  0.861935  0.820783  1
