# generated using pymatgen
data_Ti6Ga6IrPt5
_symmetry_space_group_name_H-M   'P 1'
_cell_length_a   7.05529000
_cell_length_b   7.05528918
_cell_length_c   6.68094500
_cell_angle_alpha   90.00000000
_cell_angle_beta   90.00000000
_cell_angle_gamma   119.99998635
_symmetry_Int_Tables_number   1
_chemical_formula_structural   Ti6Ga6IrPt5
_chemical_formula_sum   'Ti6 Ga6 Ir1 Pt5'
_cell_volume   288.00383891
_cell_formula_units_Z   1
loop_
 _symmetry_equiv_pos_site_id
 _symmetry_equiv_pos_as_xyz
  1  'x, y, z'
loop_
 _atom_site_type_symbol
 _atom_site_label
 _atom_site_symmetry_multiplicity
 _atom_site_fract_x
 _atom_site_fract_y
 _atom_site_fract_z
 _atom_site_occupancy
  Ti  Ti0  1  0.030153  0.619171  0.744614  1
  Ti  Ti1  1  0.980150  0.594468  0.253212  1
  Ti  Ti2  1  0.614318  0.019850  0.253212  1
  Ti  Ti3  1  0.589019  0.969847  0.744614  1
  Ti  Ti4  1  0.405532  0.385682  0.253212  1
  Ti  Ti5  1  0.380829  0.410981  0.744614  1
  Ga  Ga6  1  0.999262  0.273291  0.498508  1
  Ga  Ga7  1  0.722349  0.720238  0.999509  1
  Ga  Ga8  1  0.997890  0.277651  0.999509  1
  Ga  Ga9  1  0.274030  0.000738  0.498508  1
  Ga  Ga10  1  0.279762  0.002110  0.999509  1
  Ga  Ga11  1  0.726709  0.725970  0.498508  1
  Ir  Ir12  1  0.333333  0.666667  0.475672  1
  Pt  Pt13  1  0.666667  0.333333  0.534368  1
  Pt  Pt14  1  0.666667  0.333333  0.966506  1
  Pt  Pt15  1  0.000000  0.000000  0.244681  1
  Pt  Pt16  1  0.000000  0.000000  0.752977  1
  Pt  Pt17  1  0.333333  0.666667  0.038266  1
