# generated using pymatgen
data_YbDy4Y5(In2Pt)4
_symmetry_space_group_name_H-M   'P 1'
_cell_length_a   3.62075900
_cell_length_b   8.19550080
_cell_length_c   18.37273258
_cell_angle_alpha   89.90242689
_cell_angle_beta   90.00000000
_cell_angle_gamma   90.00000000
_symmetry_Int_Tables_number   1
_chemical_formula_structural   YbDy4Y5(In2Pt)4
_chemical_formula_sum   'Yb1 Dy4 Y5 In8 Pt4'
_cell_volume   545.19045032
_cell_formula_units_Z   1
loop_
 _symmetry_equiv_pos_site_id
 _symmetry_equiv_pos_as_xyz
  1  'x, y, z'
loop_
 _atom_site_type_symbol
 _atom_site_label
 _atom_site_symmetry_multiplicity
 _atom_site_fract_x
 _atom_site_fract_y
 _atom_site_fract_z
 _atom_site_occupancy
  Yb  Yb0  1  0.000000  0.000000  0.000000  1
  Dy  Dy1  1  0.000000  0.243424  0.220867  1
  Dy  Dy2  1  0.000000  0.756576  0.779133  1
  Dy  Dy3  1  0.000000  0.256514  0.720771  1
  Dy  Dy4  1  0.000000  0.743486  0.279229  1
  Y  Y5  1  0.000000  0.117931  0.415037  1
  Y  Y6  1  0.000000  0.882069  0.584963  1
  Y  Y7  1  0.000000  0.380773  0.914834  1
  Y  Y8  1  0.000000  0.619227  0.085166  1
  Y  Y9  1  0.000000  0.500000  0.500000  1
  In  In10  1  0.500000  0.424630  0.351222  1
  In  In11  1  0.500000  0.575370  0.648778  1
  In  In12  1  0.500000  0.074266  0.851028  1
  In  In13  1  0.500000  0.925734  0.148972  1
  In  In14  1  0.500000  0.292630  0.067663  1
  In  In15  1  0.500000  0.707370  0.932337  1
  In  In16  1  0.500000  0.207920  0.567175  1
  In  In17  1  0.500000  0.792080  0.432825  1
  Pt  Pt18  1  0.500000  0.024465  0.302826  1
  Pt  Pt19  1  0.500000  0.975535  0.697174  1
  Pt  Pt20  1  0.500000  0.476863  0.802464  1
  Pt  Pt21  1  0.500000  0.523137  0.197536  1
