# generated using pymatgen
data_TaNb12Co8Mo3N4
_symmetry_space_group_name_H-M   'P 1'
_cell_length_a   8.16795986
_cell_length_b   8.16795928
_cell_length_c   8.16795902
_cell_angle_alpha   60.18295560
_cell_angle_beta   60.18295640
_cell_angle_gamma   60.18296357
_symmetry_Int_Tables_number   1
_chemical_formula_structural   TaNb12Co8Mo3N4
_chemical_formula_sum   'Ta1 Nb12 Co8 Mo3 N4'
_cell_volume   386.92020888
_cell_formula_units_Z   1
loop_
 _symmetry_equiv_pos_site_id
 _symmetry_equiv_pos_as_xyz
  1  'x, y, z'
loop_
 _atom_site_type_symbol
 _atom_site_label
 _atom_site_symmetry_multiplicity
 _atom_site_fract_x
 _atom_site_fract_y
 _atom_site_fract_z
 _atom_site_occupancy
  Ta  Ta0  1  0.125000  0.125000  0.125000  1
  Nb  Nb1  1  0.690659  0.309567  0.690659  1
  Nb  Nb2  1  0.559341  0.559341  0.940433  1
  Nb  Nb3  1  0.559341  0.940433  0.559341  1
  Nb  Nb4  1  0.937877  0.937877  0.563456  1
  Nb  Nb5  1  0.940433  0.559341  0.559341  1
  Nb  Nb6  1  0.937877  0.563456  0.937877  1
  Nb  Nb7  1  0.686544  0.312123  0.312123  1
  Nb  Nb8  1  0.312123  0.686544  0.312123  1
  Nb  Nb9  1  0.312123  0.312123  0.686544  1
  Nb  Nb10  1  0.309567  0.690659  0.690659  1
  Nb  Nb11  1  0.690659  0.690659  0.309567  1
  Nb  Nb12  1  0.563456  0.937877  0.937877  1
  Co  Co13  1  0.232967  0.920354  0.920354  1
  Co  Co14  1  0.920354  0.232967  0.920354  1
  Co  Co15  1  0.923252  0.923252  0.923252  1
  Co  Co16  1  0.920354  0.920354  0.232967  1
  Co  Co17  1  0.017033  0.329646  0.329646  1
  Co  Co18  1  0.329646  0.329646  0.017033  1
  Co  Co19  1  0.329646  0.017033  0.329646  1
  Co  Co20  1  0.326748  0.326748  0.326748  1
  Mo  Mo21  1  0.625000  0.125000  0.125000  1
  Mo  Mo22  1  0.125000  0.125000  0.625000  1
  Mo  Mo23  1  0.125000  0.625000  0.125000  1
  N  N24  1  0.625000  0.625000  0.625000  1
  N  N25  1  0.125000  0.625000  0.625000  1
  N  N26  1  0.625000  0.125000  0.625000  1
  N  N27  1  0.625000  0.625000  0.125000  1
