# generated using pymatgen
data_Tb5Er11(InPd)4
_symmetry_space_group_name_H-M   'P 1'
_cell_length_a   9.70776999
_cell_length_b   9.68217593
_cell_length_c   9.68218205
_cell_angle_alpha   59.85154468
_cell_angle_beta   59.91252013
_cell_angle_gamma   59.91225802
_symmetry_Int_Tables_number   1
_chemical_formula_structural   Tb5Er11(InPd)4
_chemical_formula_sum   'Tb5 Er11 In4 Pd4'
_cell_volume   641.92749509
_cell_formula_units_Z   1
loop_
 _symmetry_equiv_pos_site_id
 _symmetry_equiv_pos_as_xyz
  1  'x, y, z'
loop_
 _atom_site_type_symbol
 _atom_site_label
 _atom_site_symmetry_multiplicity
 _atom_site_fract_x
 _atom_site_fract_y
 _atom_site_fract_z
 _atom_site_occupancy
  Tb  Tb0  1  0.562728  0.937272  0.937270  1
  Tb  Tb1  1  0.564324  0.935234  0.563699  1
  Tb  Tb2  1  0.936746  0.563695  0.935235  1
  Tb  Tb3  1  0.564327  0.563698  0.935231  1
  Tb  Tb4  1  0.936746  0.935236  0.563695  1
  Er  Er5  1  0.353130  0.351713  0.351715  1
  Er  Er6  1  0.353182  0.351941  0.941688  1
  Er  Er7  1  0.353179  0.941686  0.351946  1
  Er  Er8  1  0.943441  0.351709  0.351712  1
  Er  Er9  1  0.811179  0.188826  0.188826  1
  Er  Er10  1  0.189672  0.810330  0.810325  1
  Er  Er11  1  0.188253  0.811191  0.190383  1
  Er  Er12  1  0.810183  0.190379  0.811181  1
  Er  Er13  1  0.188253  0.190380  0.811188  1
  Er  Er14  1  0.810178  0.811182  0.190385  1
  Er  Er15  1  0.936946  0.563055  0.563056  1
  In  In16  1  0.584082  0.583259  0.583259  1
  In  In17  1  0.582152  0.582185  0.253519  1
  In  In18  1  0.582146  0.253524  0.582183  1
  In  In19  1  0.249395  0.583260  0.583261  1
  Pd  Pd20  1  0.144593  0.143854  0.143853  1
  Pd  Pd21  1  0.143732  0.144245  0.568290  1
  Pd  Pd22  1  0.143729  0.568292  0.144247  1
  Pd  Pd23  1  0.567701  0.143852  0.143854  1
