# generated using pymatgen
data_Tb4AsI6
_symmetry_space_group_name_H-M   'P 1'
_cell_length_a   4.25483000
_cell_length_b   13.93103600
_cell_length_c   14.77974600
_cell_angle_alpha   90.00000000
_cell_angle_beta   90.00000000
_cell_angle_gamma   90.00000000
_symmetry_Int_Tables_number   1
_chemical_formula_structural   Tb4AsI6
_chemical_formula_sum   'Tb8 As2 I12'
_cell_volume   876.05747114
_cell_formula_units_Z   2
loop_
 _symmetry_equiv_pos_site_id
 _symmetry_equiv_pos_as_xyz
  1  'x, y, z'
loop_
 _atom_site_type_symbol
 _atom_site_label
 _atom_site_symmetry_multiplicity
 _atom_site_fract_x
 _atom_site_fract_y
 _atom_site_fract_z
 _atom_site_occupancy
  Tb  Tb0  1  0.500000  0.114693  0.346979  1
  Tb  Tb1  1  0.500000  0.885307  0.653021  1
  Tb  Tb2  1  0.500000  0.614693  0.153021  1
  Tb  Tb3  1  0.500000  0.385307  0.846979  1
  Tb  Tb4  1  0.000000  0.110350  0.573129  1
  Tb  Tb5  1  0.000000  0.889650  0.426871  1
  Tb  Tb6  1  0.000000  0.610350  0.926871  1
  Tb  Tb7  1  0.000000  0.389650  0.073129  1
  As  As8  1  0.500000  0.000000  0.500000  1
  As  As9  1  0.500000  0.500000  0.000000  1
  I  I10  1  0.500000  0.245526  0.160273  1
  I  I11  1  0.500000  0.754474  0.839727  1
  I  I12  1  0.500000  0.745526  0.339727  1
  I  I13  1  0.500000  0.254474  0.660273  1
  I  I14  1  0.000000  0.258660  0.413825  1
  I  I15  1  0.000000  0.741340  0.586175  1
  I  I16  1  0.000000  0.758660  0.086175  1
  I  I17  1  0.000000  0.241340  0.913825  1
  I  I18  1  0.000000  0.999442  0.240560  1
  I  I19  1  0.000000  0.000558  0.759440  1
  I  I20  1  0.000000  0.499442  0.259440  1
  I  I21  1  0.000000  0.500558  0.740560  1
