# generated using pymatgen
data_Dy5GeRhO12
_symmetry_space_group_name_H-M   'P 1'
_cell_length_a   6.82727027
_cell_length_b   6.82727003
_cell_length_c   7.26328662
_cell_angle_alpha   74.48331094
_cell_angle_beta   74.48331205
_cell_angle_gamma   51.01341939
_symmetry_Int_Tables_number   1
_chemical_formula_structural   Dy5GeRhO12
_chemical_formula_sum   'Dy5 Ge1 Rh1 O12'
_cell_volume   251.32953247
_cell_formula_units_Z   1
loop_
 _symmetry_equiv_pos_site_id
 _symmetry_equiv_pos_as_xyz
  1  'x, y, z'
loop_
 _atom_site_type_symbol
 _atom_site_label
 _atom_site_symmetry_multiplicity
 _atom_site_fract_x
 _atom_site_fract_y
 _atom_site_fract_z
 _atom_site_occupancy
  Dy  Dy0  1  0.298056  0.307593  0.359650  1
  Dy  Dy1  1  0.692407  0.701944  0.640350  1
  Dy  Dy2  1  0.309939  0.305298  0.831188  1
  Dy  Dy3  1  0.694702  0.690061  0.168812  1
  Dy  Dy4  1  0.000555  0.999445  0.500000  1
  Ge  Ge5  1  0.246061  0.753939  0.000000  1
  Rh  Rh6  1  0.756378  0.243622  0.000000  1
  O  O7  1  0.902416  0.425765  0.917371  1
  O  O8  1  0.422633  0.900020  0.918738  1
  O  O9  1  0.099980  0.577367  0.081262  1
  O  O10  1  0.574235  0.097584  0.082629  1
  O  O11  1  0.095622  0.596232  0.576118  1
  O  O12  1  0.598876  0.097639  0.574070  1
  O  O13  1  0.902361  0.401124  0.425930  1
  O  O14  1  0.403768  0.904378  0.423882  1
  O  O15  1  0.009015  0.991278  0.819939  1
  O  O16  1  0.008722  0.990985  0.180061  1
  O  O17  1  0.492112  0.507836  0.817293  1
  O  O18  1  0.492164  0.507888  0.182707  1
