# generated using pymatgen
data_Tm3Co7MoP6Rh
_symmetry_space_group_name_H-M   'P 1'
_cell_length_a   3.69249900
_cell_length_b   10.65876900
_cell_length_c   12.30759400
_cell_angle_alpha   90.00000000
_cell_angle_beta   90.00000000
_cell_angle_gamma   90.00000000
_symmetry_Int_Tables_number   1
_chemical_formula_structural   Tm3Co7MoP6Rh
_chemical_formula_sum   'Tm6 Co14 Mo2 P12 Rh2'
_cell_volume   484.39605546
_cell_formula_units_Z   2
loop_
 _symmetry_equiv_pos_site_id
 _symmetry_equiv_pos_as_xyz
  1  'x, y, z'
loop_
 _atom_site_type_symbol
 _atom_site_label
 _atom_site_symmetry_multiplicity
 _atom_site_fract_x
 _atom_site_fract_y
 _atom_site_fract_z
 _atom_site_occupancy
  Tm  Tm0  1  0.000000  0.500000  0.520601  1
  Tm  Tm1  1  0.500000  0.000000  0.479399  1
  Tm  Tm2  1  0.500000  0.816046  0.202965  1
  Tm  Tm3  1  0.500000  0.183954  0.202965  1
  Tm  Tm4  1  0.000000  0.683954  0.797035  1
  Tm  Tm5  1  0.000000  0.316046  0.797035  1
  Co  Co6  1  0.000000  0.500000  0.988117  1
  Co  Co7  1  0.500000  0.000000  0.011883  1
  Co  Co8  1  0.500000  0.331742  0.990920  1
  Co  Co9  1  0.500000  0.668258  0.990920  1
  Co  Co10  1  0.000000  0.168258  0.009080  1
  Co  Co11  1  0.000000  0.831742  0.009080  1
  Co  Co12  1  0.500000  0.297458  0.431270  1
  Co  Co13  1  0.500000  0.702542  0.431270  1
  Co  Co14  1  0.000000  0.202542  0.568730  1
  Co  Co15  1  0.000000  0.797458  0.568730  1
  Co  Co16  1  0.500000  0.879026  0.707389  1
  Co  Co17  1  0.500000  0.120974  0.707389  1
  Co  Co18  1  0.000000  0.620974  0.292611  1
  Co  Co19  1  0.000000  0.379026  0.292611  1
  Mo  Mo20  1  0.500000  0.500000  0.156494  1
  Mo  Mo21  1  0.000000  0.000000  0.843506  1
  P  P22  1  0.500000  0.500000  0.887795  1
  P  P23  1  0.000000  0.000000  0.112205  1
  P  P24  1  0.500000  0.500000  0.349338  1
  P  P25  1  0.000000  0.000000  0.650662  1
  P  P26  1  0.500000  0.304374  0.614502  1
  P  P27  1  0.500000  0.695626  0.614502  1
  P  P28  1  0.000000  0.195626  0.385498  1
  P  P29  1  0.000000  0.804374  0.385498  1
  P  P30  1  0.500000  0.844189  0.892621  1
  P  P31  1  0.500000  0.155811  0.892621  1
  P  P32  1  0.000000  0.655811  0.107379  1
  P  P33  1  0.000000  0.344189  0.107379  1
  Rh  Rh34  1  0.500000  0.500000  0.700478  1
  Rh  Rh35  1  0.000000  0.000000  0.299522  1
