# generated using pymatgen
data_LiAcTbAgSn2
_symmetry_space_group_name_H-M   'P 1'
_cell_length_a   4.81848100
_cell_length_b   4.81847992
_cell_length_c   7.93488700
_cell_angle_alpha   90.00000000
_cell_angle_beta   90.00000000
_cell_angle_gamma   120.00000052
_symmetry_Int_Tables_number   1
_chemical_formula_structural   LiAcTbAgSn2
_chemical_formula_sum   'Li1 Ac1 Tb1 Ag1 Sn2'
_cell_volume   159.54807935
_cell_formula_units_Z   1
loop_
 _symmetry_equiv_pos_site_id
 _symmetry_equiv_pos_as_xyz
  1  'x, y, z'
loop_
 _atom_site_type_symbol
 _atom_site_label
 _atom_site_symmetry_multiplicity
 _atom_site_fract_x
 _atom_site_fract_y
 _atom_site_fract_z
 _atom_site_occupancy
  Li  Li0  1  0.666667  0.333333  0.464275  1
  Ac  Ac1  1  0.000000  0.000000  0.735089  1
  Tb  Tb2  1  0.000000  0.000000  0.233130  1
  Ag  Ag3  1  0.333333  0.666667  0.061325  1
  Sn  Sn4  1  0.333333  0.666667  0.447398  1
  Sn  Sn5  1  0.666667  0.333333  0.982781  1
