# generated using pymatgen
data_Nd2GaSi2(PRh3)4
_symmetry_space_group_name_H-M   'P 1'
_cell_length_a   9.76938417
_cell_length_b   9.77260762
_cell_length_c   3.89254007
_cell_angle_alpha   89.89136044
_cell_angle_beta   90.01469959
_cell_angle_gamma   119.85105794
_symmetry_Int_Tables_number   1
_chemical_formula_structural   Nd2GaSi2(PRh3)4
_chemical_formula_sum   'Nd2 Ga1 Si2 P4 Rh12'
_cell_volume   322.32226618
_cell_formula_units_Z   1
loop_
 _symmetry_equiv_pos_site_id
 _symmetry_equiv_pos_as_xyz
  1  'x, y, z'
loop_
 _atom_site_type_symbol
 _atom_site_label
 _atom_site_symmetry_multiplicity
 _atom_site_fract_x
 _atom_site_fract_y
 _atom_site_fract_z
 _atom_site_occupancy
  Nd  Nd0  1  0.332175  0.664599  0.751516  1
  Nd  Nd1  1  0.667103  0.333217  0.247677  1
  Ga  Ga2  1  0.000682  0.000007  0.511104  1
  Si  Si3  1  0.888846  0.601795  0.748162  1
  Si  Si4  1  0.400062  0.288732  0.748733  1
  P  P5  1  0.712865  0.113509  0.750220  1
  P  P6  1  0.111697  0.399502  0.249645  1
  P  P7  1  0.599464  0.709863  0.249180  1
  P  P8  1  0.287924  0.886508  0.248712  1
  Rh  Rh9  1  0.616417  0.557934  0.749577  1
  Rh  Rh10  1  0.450155  0.062260  0.750421  1
  Rh  Rh11  1  0.936285  0.381686  0.750290  1
  Rh  Rh12  1  0.382295  0.444406  0.249043  1
  Rh  Rh13  1  0.552106  0.935144  0.249123  1
  Rh  Rh14  1  0.061098  0.614836  0.248648  1
  Rh  Rh15  1  0.129158  0.849712  0.749449  1
  Rh  Rh16  1  0.149439  0.274733  0.752052  1
  Rh  Rh17  1  0.722930  0.879632  0.750556  1
  Rh  Rh18  1  0.876489  0.153023  0.249389  1
  Rh  Rh19  1  0.848427  0.729713  0.247353  1
  Rh  Rh20  1  0.274383  0.119187  0.249151  1
