# generated using pymatgen
data_Sm2Lu4MgTa(Co4P3)4
_symmetry_space_group_name_H-M   'P 1'
_cell_length_a   3.72025000
_cell_length_b   10.60570400
_cell_length_c   12.24876400
_cell_angle_alpha   90.00000000
_cell_angle_beta   90.00000000
_cell_angle_gamma   90.00000000
_symmetry_Int_Tables_number   1
_chemical_formula_structural   Sm2Lu4MgTa(Co4P3)4
_chemical_formula_sum   'Sm2 Lu4 Mg1 Ta1 Co16 P12'
_cell_volume   483.28564379
_cell_formula_units_Z   1
loop_
 _symmetry_equiv_pos_site_id
 _symmetry_equiv_pos_as_xyz
  1  'x, y, z'
loop_
 _atom_site_type_symbol
 _atom_site_label
 _atom_site_symmetry_multiplicity
 _atom_site_fract_x
 _atom_site_fract_y
 _atom_site_fract_z
 _atom_site_occupancy
  Sm  Sm0  1  0.000000  0.500000  0.527886  1
  Sm  Sm1  1  0.500000  0.000000  0.473623  1
  Lu  Lu2  1  0.500000  0.821420  0.205711  1
  Lu  Lu3  1  0.500000  0.178580  0.205711  1
  Lu  Lu4  1  0.000000  0.677081  0.795753  1
  Lu  Lu5  1  0.000000  0.322919  0.795753  1
  Mg  Mg6  1  0.000000  0.000000  0.844998  1
  Ta  Ta7  1  0.500000  0.500000  0.155954  1
  Co  Co8  1  0.500000  0.500000  0.706997  1
  Co  Co9  1  0.000000  0.000000  0.290990  1
  Co  Co10  1  0.000000  0.500000  0.988105  1
  Co  Co11  1  0.500000  0.000000  0.011851  1
  Co  Co12  1  0.500000  0.332509  0.995091  1
  Co  Co13  1  0.500000  0.667491  0.995091  1
  Co  Co14  1  0.000000  0.168548  0.004388  1
  Co  Co15  1  0.000000  0.831452  0.004388  1
  Co  Co16  1  0.500000  0.295320  0.430192  1
  Co  Co17  1  0.500000  0.704680  0.430192  1
  Co  Co18  1  0.000000  0.204894  0.568328  1
  Co  Co19  1  0.000000  0.795106  0.568328  1
  Co  Co20  1  0.500000  0.876240  0.708002  1
  Co  Co21  1  0.500000  0.123760  0.708002  1
  Co  Co22  1  0.000000  0.622987  0.292046  1
  Co  Co23  1  0.000000  0.377013  0.292046  1
  P  P24  1  0.500000  0.500000  0.883718  1
  P  P25  1  0.000000  0.000000  0.114354  1
  P  P26  1  0.500000  0.500000  0.355557  1
  P  P27  1  0.000000  0.000000  0.646845  1
  P  P28  1  0.500000  0.308760  0.618147  1
  P  P29  1  0.500000  0.691240  0.618147  1
  P  P30  1  0.000000  0.190556  0.382302  1
  P  P31  1  0.000000  0.809444  0.382302  1
  P  P32  1  0.500000  0.838197  0.891362  1
  P  P33  1  0.500000  0.161803  0.891362  1
  P  P34  1  0.000000  0.661151  0.108240  1
  P  P35  1  0.000000  0.338849  0.108240  1
