# generated using pymatgen
data_Th7SnRh12
_symmetry_space_group_name_H-M   'P 1'
_cell_length_a   5.91363900
_cell_length_b   7.82711500
_cell_length_c   9.04752564
_cell_angle_alpha   90.85087383
_cell_angle_beta   90.00000000
_cell_angle_gamma   90.00000000
_symmetry_Int_Tables_number   1
_chemical_formula_structural   Th7SnRh12
_chemical_formula_sum   'Th7 Sn1 Rh12'
_cell_volume   418.73422145
_cell_formula_units_Z   1
loop_
 _symmetry_equiv_pos_site_id
 _symmetry_equiv_pos_as_xyz
  1  'x, y, z'
loop_
 _atom_site_type_symbol
 _atom_site_label
 _atom_site_symmetry_multiplicity
 _atom_site_fract_x
 _atom_site_fract_y
 _atom_site_fract_z
 _atom_site_occupancy
  Th  Th0  1  0.750000  0.892993  0.859842  1
  Th  Th1  1  0.750000  0.418593  0.645641  1
  Th  Th2  1  0.250000  0.089639  0.138855  1
  Th  Th3  1  0.250000  0.591446  0.350487  1
  Th  Th4  1  0.750000  0.934437  0.404309  1
  Th  Th5  1  0.750000  0.437255  0.084367  1
  Th  Th6  1  0.250000  0.083254  0.612746  1
  Sn  Sn7  1  0.250000  0.551263  0.919159  1
  Rh  Rh8  1  0.750000  0.581721  0.358015  1
  Rh  Rh9  1  0.750000  0.086819  0.138881  1
  Rh  Rh10  1  0.250000  0.433181  0.642737  1
  Rh  Rh11  1  0.250000  0.888298  0.864643  1
  Rh  Rh12  1  0.999059  0.261320  0.386095  1
  Rh  Rh13  1  0.502180  0.758046  0.118108  1
  Rh  Rh14  1  0.494513  0.751209  0.608142  1
  Rh  Rh15  1  0.005981  0.234975  0.877814  1
  Rh  Rh16  1  0.005487  0.751209  0.608142  1
  Rh  Rh17  1  0.494019  0.234975  0.877814  1
  Rh  Rh18  1  0.500941  0.261320  0.386095  1
  Rh  Rh19  1  0.997820  0.758046  0.118108  1
