# generated using pymatgen
data_Lu2Th3Sn3C
_symmetry_space_group_name_H-M   'P 1'
_cell_length_a   9.17952451
_cell_length_b   9.18452466
_cell_length_c   6.44717602
_cell_angle_alpha   90.00385568
_cell_angle_beta   89.99806427
_cell_angle_gamma   120.01802249
_symmetry_Int_Tables_number   1
_chemical_formula_structural   Lu2Th3Sn3C
_chemical_formula_sum   'Lu4 Th6 Sn6 C2'
_cell_volume   470.65007136
_cell_formula_units_Z   2
loop_
 _symmetry_equiv_pos_site_id
 _symmetry_equiv_pos_as_xyz
  1  'x, y, z'
loop_
 _atom_site_type_symbol
 _atom_site_label
 _atom_site_symmetry_multiplicity
 _atom_site_fract_x
 _atom_site_fract_y
 _atom_site_fract_z
 _atom_site_occupancy
  Lu  Lu0  1  0.666628  0.333316  0.500018  1
  Lu  Lu1  1  0.333372  0.666689  0.500018  1
  Lu  Lu2  1  0.333370  0.666716  0.999991  1
  Lu  Lu3  1  0.666630  0.333346  0.999991  1
  Th  Th4  1  0.776174  0.776182  0.250014  1
  Th  Th5  1  0.223826  0.000008  0.250014  1
  Th  Th6  1  0.000000  0.223829  0.249998  1
  Th  Th7  1  0.223867  0.223833  0.749997  1
  Th  Th8  1  0.776133  0.999967  0.749997  1
  Th  Th9  1  0.000000  0.776154  0.750007  1
  Sn  Sn10  1  0.407217  0.407243  0.250014  1
  Sn  Sn11  1  0.592783  0.000025  0.250014  1
  Sn  Sn12  1  0.000000  0.592732  0.249982  1
  Sn  Sn13  1  0.592751  0.592709  0.749986  1
  Sn  Sn14  1  0.407249  0.999958  0.749986  1
  Sn  Sn15  1  0.000000  0.407324  0.750003  1
  C  C16  1  0.000000  0.999979  0.499963  1
  C  C17  1  0.000000  0.999990  0.000008  1
