# generated using pymatgen
data_Zr6BiPAu
_symmetry_space_group_name_H-M   'P 1'
_cell_length_a   7.60534000
_cell_length_b   7.60533944
_cell_length_c   3.87161400
_cell_angle_alpha   90.00000000
_cell_angle_beta   90.00000000
_cell_angle_gamma   120.00000243
_symmetry_Int_Tables_number   1
_chemical_formula_structural   Zr6BiPAu
_chemical_formula_sum   'Zr6 Bi1 P1 Au1'
_cell_volume   193.93665877
_cell_formula_units_Z   1
loop_
 _symmetry_equiv_pos_site_id
 _symmetry_equiv_pos_as_xyz
  1  'x, y, z'
loop_
 _atom_site_type_symbol
 _atom_site_label
 _atom_site_symmetry_multiplicity
 _atom_site_fract_x
 _atom_site_fract_y
 _atom_site_fract_z
 _atom_site_occupancy
  Zr  Zr0  1  0.386621  0.380007  0.500000  1
  Zr  Zr1  1  0.619993  0.006613  0.500000  1
  Zr  Zr2  1  0.993387  0.613379  0.500000  1
  Zr  Zr3  1  0.763980  0.753049  0.000000  1
  Zr  Zr4  1  0.246951  0.010931  0.000000  1
  Zr  Zr5  1  0.989069  0.236020  0.000000  1
  Bi  Bi6  1  0.333333  0.666667  0.000000  1
  P  P7  1  0.000000  0.000000  0.500000  1
  Au  Au8  1  0.666667  0.333333  0.000000  1
