# generated using pymatgen
data_LiTb3Zn2Si2Pd
_symmetry_space_group_name_H-M   'P 1'
_cell_length_a   6.97563272
_cell_length_b   6.98113713
_cell_length_c   4.23030100
_cell_angle_alpha   90.00000000
_cell_angle_beta   90.00000000
_cell_angle_gamma   120.02609656
_symmetry_Int_Tables_number   1
_chemical_formula_structural   LiTb3Zn2Si2Pd
_chemical_formula_sum   'Li1 Tb3 Zn2 Si2 Pd1'
_cell_volume   178.35997871
_cell_formula_units_Z   1
loop_
 _symmetry_equiv_pos_site_id
 _symmetry_equiv_pos_as_xyz
  1  'x, y, z'
loop_
 _atom_site_type_symbol
 _atom_site_label
 _atom_site_symmetry_multiplicity
 _atom_site_fract_x
 _atom_site_fract_y
 _atom_site_fract_z
 _atom_site_occupancy
  Li  Li0  1  0.000000  0.766368  0.500000  1
  Tb  Tb1  1  0.000000  0.412701  0.000000  1
  Tb  Tb2  1  0.585404  0.581454  0.000000  1
  Tb  Tb3  1  0.414596  0.996050  0.000000  1
  Zn  Zn4  1  0.245967  0.243083  0.500000  1
  Zn  Zn5  1  0.754033  0.997116  0.500000  1
  Si  Si6  1  0.333734  0.663786  0.500000  1
  Si  Si7  1  0.666266  0.330051  0.500000  1
  Pd  Pd8  1  0.000000  0.009392  0.000000  1
