# generated using pymatgen
data_Li4Dy3ErSi8
_symmetry_space_group_name_H-M   'P 1'
_cell_length_a   3.78778500
_cell_length_b   7.58093853
_cell_length_c   10.15643507
_cell_angle_alpha   90.05586444
_cell_angle_beta   90.00000000
_cell_angle_gamma   90.00000000
_symmetry_Int_Tables_number   1
_chemical_formula_structural   Li4Dy3ErSi8
_chemical_formula_sum   'Li4 Dy3 Er1 Si8'
_cell_volume   291.64154152
_cell_formula_units_Z   1
loop_
 _symmetry_equiv_pos_site_id
 _symmetry_equiv_pos_as_xyz
  1  'x, y, z'
loop_
 _atom_site_type_symbol
 _atom_site_label
 _atom_site_symmetry_multiplicity
 _atom_site_fract_x
 _atom_site_fract_y
 _atom_site_fract_z
 _atom_site_occupancy
  Li  Li0  1  0.250000  0.990877  0.391609  1
  Li  Li1  1  0.250000  0.490394  0.108298  1
  Li  Li2  1  0.750000  0.009618  0.608634  1
  Li  Li3  1  0.750000  0.509670  0.892009  1
  Dy  Dy4  1  0.250000  0.139100  0.864233  1
  Dy  Dy5  1  0.250000  0.638934  0.635536  1
  Dy  Dy6  1  0.750000  0.860639  0.135884  1
  Er  Er7  1  0.750000  0.361960  0.364064  1
  Si  Si8  1  0.250000  0.232477  0.566744  1
  Si  Si9  1  0.250000  0.731765  0.931899  1
  Si  Si10  1  0.750000  0.767159  0.431645  1
  Si  Si11  1  0.750000  0.268844  0.069091  1
  Si  Si12  1  0.250000  0.654601  0.320331  1
  Si  Si13  1  0.250000  0.157464  0.180919  1
  Si  Si14  1  0.750000  0.343685  0.679149  1
  Si  Si15  1  0.750000  0.842810  0.819957  1
