# generated using pymatgen
data_Lu8Ti3Re9Si16
_symmetry_space_group_name_H-M   'P 1'
_cell_length_a   6.71979233
_cell_length_b   6.71979257
_cell_length_c   12.84943518
_cell_angle_alpha   90.11754898
_cell_angle_beta   90.11755092
_cell_angle_gamma   90.48240228
_symmetry_Int_Tables_number   1
_chemical_formula_structural   Lu8Ti3Re9Si16
_chemical_formula_sum   'Lu8 Ti3 Re9 Si16'
_cell_volume   580.20106226
_cell_formula_units_Z   1
loop_
 _symmetry_equiv_pos_site_id
 _symmetry_equiv_pos_as_xyz
  1  'x, y, z'
loop_
 _atom_site_type_symbol
 _atom_site_label
 _atom_site_symmetry_multiplicity
 _atom_site_fract_x
 _atom_site_fract_y
 _atom_site_fract_z
 _atom_site_occupancy
  Lu  Lu0  1  0.008272  0.661649  0.031693  1
  Lu  Lu1  1  0.988477  0.337026  0.533303  1
  Lu  Lu2  1  0.338351  0.991728  0.468307  1
  Lu  Lu3  1  0.157496  0.489502  0.780401  1
  Lu  Lu4  1  0.838760  0.507144  0.281224  1
  Lu  Lu5  1  0.492856  0.161240  0.218776  1
  Lu  Lu6  1  0.510498  0.842504  0.719599  1
  Lu  Lu7  1  0.662974  0.011523  0.966697  1
  Ti  Ti8  1  0.657223  0.656780  0.501830  1
  Ti  Ti9  1  0.157943  0.842057  0.250000  1
  Ti  Ti10  1  0.343220  0.342777  0.998170  1
  Re  Re11  1  0.999029  0.803193  0.635077  1
  Re  Re12  1  0.000305  0.182084  0.134287  1
  Re  Re13  1  0.817916  0.999695  0.365713  1
  Re  Re14  1  0.316799  0.499634  0.386848  1
  Re  Re15  1  0.682290  0.510257  0.888520  1
  Re  Re16  1  0.489743  0.317710  0.611480  1
  Re  Re17  1  0.500366  0.683201  0.113152  1
  Re  Re18  1  0.196807  0.000971  0.864923  1
  Re  Re19  1  0.838732  0.161268  0.750000  1
  Si  Si20  1  0.019770  0.719132  0.442971  1
  Si  Si21  1  0.623162  0.295514  0.427870  1
  Si  Si22  1  0.378095  0.704887  0.928604  1
  Si  Si23  1  0.195568  0.115128  0.677821  1
  Si  Si24  1  0.295113  0.621905  0.571396  1
  Si  Si25  1  0.704486  0.376838  0.072130  1
  Si  Si26  1  0.796201  0.876236  0.178616  1
  Si  Si27  1  0.123764  0.203799  0.321384  1
  Si  Si28  1  0.979659  0.276768  0.941216  1
  Si  Si29  1  0.723232  0.020341  0.558784  1
  Si  Si30  1  0.224011  0.479435  0.194523  1
  Si  Si31  1  0.767203  0.514625  0.697046  1
  Si  Si32  1  0.485375  0.232797  0.802954  1
  Si  Si33  1  0.520565  0.775989  0.305477  1
  Si  Si34  1  0.280868  0.980230  0.057029  1
  Si  Si35  1  0.884872  0.804432  0.822179  1
