# generated using pymatgen
data_PrErAg2(Ir2O7)2
_symmetry_space_group_name_H-M   'P 1'
_cell_length_a   7.26496885
_cell_length_b   7.19515267
_cell_length_c   7.26973826
_cell_angle_alpha   60.33880089
_cell_angle_beta   61.30879430
_cell_angle_gamma   60.31738859
_symmetry_Int_Tables_number   1
_chemical_formula_structural   PrErAg2(Ir2O7)2
_chemical_formula_sum   'Pr1 Er1 Ag2 Ir4 O14'
_cell_volume   272.62708836
_cell_formula_units_Z   1
loop_
 _symmetry_equiv_pos_site_id
 _symmetry_equiv_pos_as_xyz
  1  'x, y, z'
loop_
 _atom_site_type_symbol
 _atom_site_label
 _atom_site_symmetry_multiplicity
 _atom_site_fract_x
 _atom_site_fract_y
 _atom_site_fract_z
 _atom_site_occupancy
  Pr  Pr0  1  0.625000  0.125000  0.125000  1
  Er  Er1  1  0.125000  0.125000  0.625000  1
  Ag  Ag2  1  0.125000  0.125000  0.125000  1
  Ag  Ag3  1  0.125000  0.625000  0.125000  1
  Ir  Ir4  1  0.625000  0.625000  0.625000  1
  Ir  Ir5  1  0.125000  0.625000  0.625000  1
  Ir  Ir6  1  0.625000  0.125000  0.625000  1
  Ir  Ir7  1  0.625000  0.625000  0.125000  1
  O  O8  1  0.950875  0.533364  0.561385  1
  O  O9  1  0.299125  0.295624  0.688615  1
  O  O10  1  0.943770  0.558365  0.939499  1
  O  O11  1  0.701385  0.295282  0.301721  1
  O  O12  1  0.548615  0.548387  0.948279  1
  O  O13  1  0.529737  0.961804  0.546656  1
  O  O14  1  0.548615  0.954718  0.948279  1
  O  O15  1  0.228977  0.258753  0.253516  1
  O  O16  1  0.299125  0.716636  0.688615  1
  O  O17  1  0.720263  0.288196  0.703344  1
  O  O18  1  0.021023  0.991247  0.996484  1
  O  O19  1  0.950875  0.954376  0.561385  1
  O  O20  1  0.306230  0.691635  0.310501  1
  O  O21  1  0.701385  0.701613  0.301721  1
