# generated using pymatgen
data_TmLu4(Cd2Pd)2
_symmetry_space_group_name_H-M   'P 1'
_cell_length_a   3.55306100
_cell_length_b   7.91434800
_cell_length_c   18.18543100
_cell_angle_alpha   90.00000000
_cell_angle_beta   90.00000000
_cell_angle_gamma   90.00000000
_symmetry_Int_Tables_number   1
_chemical_formula_structural   TmLu4(Cd2Pd)2
_chemical_formula_sum   'Tm2 Lu8 Cd8 Pd4'
_cell_volume   511.37725156
_cell_formula_units_Z   2
loop_
 _symmetry_equiv_pos_site_id
 _symmetry_equiv_pos_as_xyz
  1  'x, y, z'
loop_
 _atom_site_type_symbol
 _atom_site_label
 _atom_site_symmetry_multiplicity
 _atom_site_fract_x
 _atom_site_fract_y
 _atom_site_fract_z
 _atom_site_occupancy
  Tm  Tm0  1  0.000000  0.000000  0.000000  1
  Tm  Tm1  1  0.000000  0.500000  0.500000  1
  Lu  Lu2  1  0.000000  0.115682  0.415682  1
  Lu  Lu3  1  0.000000  0.884318  0.584318  1
  Lu  Lu4  1  0.000000  0.384318  0.915682  1
  Lu  Lu5  1  0.000000  0.615682  0.084318  1
  Lu  Lu6  1  0.000000  0.244075  0.219410  1
  Lu  Lu7  1  0.000000  0.755925  0.780590  1
  Lu  Lu8  1  0.000000  0.255925  0.719410  1
  Lu  Lu9  1  0.000000  0.744075  0.280590  1
  Cd  Cd10  1  0.500000  0.427143  0.352479  1
  Cd  Cd11  1  0.500000  0.572857  0.647521  1
  Cd  Cd12  1  0.500000  0.072857  0.852479  1
  Cd  Cd13  1  0.500000  0.927143  0.147521  1
  Cd  Cd14  1  0.500000  0.289066  0.066259  1
  Cd  Cd15  1  0.500000  0.710934  0.933741  1
  Cd  Cd16  1  0.500000  0.210934  0.566259  1
  Cd  Cd17  1  0.500000  0.789066  0.433741  1
  Pd  Pd18  1  0.500000  0.028441  0.303722  1
  Pd  Pd19  1  0.500000  0.971559  0.696278  1
  Pd  Pd20  1  0.500000  0.471559  0.803722  1
  Pd  Pd21  1  0.500000  0.528441  0.196278  1
