# generated using pymatgen
data_LiDyTm4(Si3Ru)8
_symmetry_space_group_name_H-M   'P 1'
_cell_length_a   10.09603762
_cell_length_b   10.09608312
_cell_length_c   8.06838953
_cell_angle_alpha   89.97125813
_cell_angle_beta   90.02638696
_cell_angle_gamma   132.79877462
_symmetry_Int_Tables_number   1
_chemical_formula_structural   LiDyTm4(Si3Ru)8
_chemical_formula_sum   'Li1 Dy1 Tm4 Si24 Ru8'
_cell_volume   603.44191310
_cell_formula_units_Z   1
loop_
 _symmetry_equiv_pos_site_id
 _symmetry_equiv_pos_as_xyz
  1  'x, y, z'
loop_
 _atom_site_type_symbol
 _atom_site_label
 _atom_site_symmetry_multiplicity
 _atom_site_fract_x
 _atom_site_fract_y
 _atom_site_fract_z
 _atom_site_occupancy
  Li  Li0  1  0.500065  0.500025  0.499829  1
  Dy  Dy1  1  0.001589  0.501624  0.749290  1
  Tm  Tm2  1  0.000050  0.000044  0.000166  1
  Tm  Tm3  1  0.501975  0.001855  0.749212  1
  Tm  Tm4  1  0.998380  0.498344  0.250818  1
  Tm  Tm5  1  0.498816  0.998868  0.250711  1
  Si  Si6  1  0.796567  0.202868  0.499795  1
  Si  Si7  1  0.297280  0.704360  0.000385  1
  Si  Si8  1  0.203986  0.797736  0.499693  1
  Si  Si9  1  0.703286  0.296150  0.000283  1
  Si  Si10  1  0.336347  0.336705  0.827239  1
  Si  Si11  1  0.663257  0.663377  0.172397  1
  Si  Si12  1  0.171954  0.171919  0.336449  1
  Si  Si13  1  0.827958  0.827714  0.663901  1
  Si  Si14  1  0.124187  0.890663  0.729687  1
  Si  Si15  1  0.109339  0.876513  0.271552  1
  Si  Si16  1  0.608069  0.378692  0.233388  1
  Si  Si17  1  0.620960  0.391002  0.765330  1
  Si  Si18  1  0.877324  0.110121  0.271814  1
  Si  Si19  1  0.888986  0.122411  0.729429  1
  Si  Si20  1  0.392735  0.622743  0.765033  1
  Si  Si21  1  0.378022  0.607374  0.233646  1
  Si  Si22  1  0.349374  0.120246  0.507850  1
  Si  Si23  1  0.879365  0.649822  0.492181  1
  Si  Si24  1  0.387943  0.154780  0.005178  1
  Si  Si25  1  0.845774  0.612390  0.994451  1
  Si  Si26  1  0.650811  0.880027  0.493654  1
  Si  Si27  1  0.120412  0.349787  0.506657  1
  Si  Si28  1  0.612348  0.845443  0.993350  1
  Si  Si29  1  0.153883  0.387491  0.006563  1
  Ru  Ru30  1  0.671542  0.327049  0.498474  1
  Ru  Ru31  1  0.171813  0.829697  0.001593  1
  Ru  Ru32  1  0.328390  0.673057  0.498392  1
  Ru  Ru33  1  0.828390  0.170318  0.001571  1
  Ru  Ru34  1  0.123639  0.123887  0.629368  1
  Ru  Ru35  1  0.875569  0.875659  0.371242  1
  Ru  Ru36  1  0.370351  0.370273  0.123717  1
  Ru  Ru37  1  0.629266  0.628967  0.875709  1
