# generated using pymatgen
data_Tb4Pr16Si15Hg
_symmetry_space_group_name_H-M   'P 1'
_cell_length_a   7.91244626
_cell_length_b   7.89295178
_cell_length_c   15.29621892
_cell_angle_alpha   90.07069019
_cell_angle_beta   89.65317376
_cell_angle_gamma   89.90514529
_symmetry_Int_Tables_number   1
_chemical_formula_structural   Tb4Pr16Si15Hg
_chemical_formula_sum   'Tb4 Pr16 Si15 Hg1'
_cell_volume   955.26843053
_cell_formula_units_Z   1
loop_
 _symmetry_equiv_pos_site_id
 _symmetry_equiv_pos_as_xyz
  1  'x, y, z'
loop_
 _atom_site_type_symbol
 _atom_site_label
 _atom_site_symmetry_multiplicity
 _atom_site_fract_x
 _atom_site_fract_y
 _atom_site_fract_z
 _atom_site_occupancy
  Tb  Tb0  1  0.309743  0.309193  0.000114  1
  Tb  Tb1  1  0.191868  0.811002  0.249627  1
  Tb  Tb2  1  0.799312  0.187545  0.752463  1
  Tb  Tb3  1  0.689420  0.689335  0.498239  1
  Pr  Pr4  1  0.373351  0.013906  0.448020  1
  Pr  Pr5  1  0.491156  0.869787  0.698826  1
  Pr  Pr6  1  0.512219  0.122621  0.197433  1
  Pr  Pr7  1  0.878750  0.488257  0.301453  1
  Pr  Pr8  1  0.118716  0.518644  0.804223  1
  Pr  Pr9  1  0.626399  0.986161  0.950617  1
  Pr  Pr10  1  0.002899  0.382351  0.547764  1
  Pr  Pr11  1  0.989889  0.625146  0.053774  1
  Pr  Pr12  1  0.129341  0.978388  0.880389  1
  Pr  Pr13  1  0.523109  0.629083  0.128237  1
  Pr  Pr14  1  0.481583  0.376978  0.627206  1
  Pr  Pr15  1  0.627472  0.523262  0.874935  1
  Pr  Pr16  1  0.374174  0.480388  0.370327  1
  Pr  Pr17  1  0.873775  0.022771  0.377122  1
  Pr  Pr18  1  0.980155  0.127781  0.122822  1
  Pr  Pr19  1  0.012325  0.861221  0.619314  1
  Si  Si20  1  0.329574  0.690093  0.956826  1
  Si  Si21  1  0.664840  0.307263  0.453877  1
  Si  Si22  1  0.693768  0.331358  0.045770  1
  Si  Si23  1  0.310392  0.671577  0.542153  1
  Si  Si24  1  0.812245  0.829712  0.206460  1
  Si  Si25  1  0.172031  0.190959  0.294715  1
  Si  Si26  1  0.831746  0.809631  0.795247  1
  Si  Si27  1  0.286799  0.923295  0.063702  1
  Si  Si28  1  0.579958  0.787225  0.313070  1
  Si  Si29  1  0.436274  0.209648  0.818010  1
  Si  Si30  1  0.783840  0.576875  0.688700  1
  Si  Si31  1  0.215041  0.422793  0.186878  1
  Si  Si32  1  0.710457  0.078095  0.561962  1
  Si  Si33  1  0.923903  0.288089  0.937971  1
  Si  Si34  1  0.078668  0.713923  0.435254  1
  Hg  Hg35  1  0.184804  0.165649  0.696499  1
