# generated using pymatgen
data_Y5Cr3(As3Rh4)4
_symmetry_space_group_name_H-M   'P 1'
_cell_length_a   13.23487000
_cell_length_b   13.23486858
_cell_length_c   3.97696800
_cell_angle_alpha   90.00000000
_cell_angle_beta   90.00000000
_cell_angle_gamma   120.00000354
_symmetry_Int_Tables_number   1
_chemical_formula_structural   Y5Cr3(As3Rh4)4
_chemical_formula_sum   'Y5 Cr3 As12 Rh16'
_cell_volume   603.28430350
_cell_formula_units_Z   1
loop_
 _symmetry_equiv_pos_site_id
 _symmetry_equiv_pos_as_xyz
  1  'x, y, z'
loop_
 _atom_site_type_symbol
 _atom_site_label
 _atom_site_symmetry_multiplicity
 _atom_site_fract_x
 _atom_site_fract_y
 _atom_site_fract_z
 _atom_site_occupancy
  Y  Y0  1  0.192124  0.192124  0.500000  1
  Y  Y1  1  0.807876  0.000000  0.500000  1
  Y  Y2  1  0.000000  0.807876  0.500000  1
  Y  Y3  1  0.333333  0.666667  0.000000  1
  Y  Y4  1  0.666667  0.333333  0.000000  1
  Cr  Cr5  1  0.558842  0.558842  0.000000  1
  Cr  Cr6  1  0.441158  0.000000  0.000000  1
  Cr  Cr7  1  0.000000  0.441158  0.000000  1
  As  As8  1  0.823265  0.823265  0.000000  1
  As  As9  1  0.176735  0.000000  0.000000  1
  As  As10  1  0.000000  0.176735  0.000000  1
  As  As11  1  0.168232  0.485111  0.500000  1
  As  As12  1  0.514889  0.683121  0.500000  1
  As  As13  1  0.316879  0.831768  0.500000  1
  As  As14  1  0.683121  0.514889  0.500000  1
  As  As15  1  0.831768  0.316879  0.500000  1
  As  As16  1  0.485111  0.168232  0.500000  1
  As  As17  1  0.365476  0.365476  0.000000  1
  As  As18  1  0.634524  0.000000  0.000000  1
  As  As19  1  0.000000  0.634524  0.000000  1
  Rh  Rh20  1  0.715820  0.715820  0.500000  1
  Rh  Rh21  1  0.284180  0.000000  0.500000  1
  Rh  Rh22  1  0.000000  0.284180  0.500000  1
  Rh  Rh23  1  0.177545  0.375485  0.000000  1
  Rh  Rh24  1  0.624515  0.802061  0.000000  1
  Rh  Rh25  1  0.197939  0.822455  0.000000  1
  Rh  Rh26  1  0.802061  0.624515  0.000000  1
  Rh  Rh27  1  0.822455  0.197939  0.000000  1
  Rh  Rh28  1  0.375485  0.177545  0.000000  1
  Rh  Rh29  1  0.357106  0.484447  0.500000  1
  Rh  Rh30  1  0.515553  0.872660  0.500000  1
  Rh  Rh31  1  0.127340  0.642894  0.500000  1
  Rh  Rh32  1  0.872660  0.515553  0.500000  1
  Rh  Rh33  1  0.642894  0.127340  0.500000  1
  Rh  Rh34  1  0.484447  0.357106  0.500000  1
  Rh  Rh35  1  0.000000  0.000000  0.000000  1
