# generated using pymatgen
data_PrNd3CrMo5O24
_symmetry_space_group_name_H-M   'P 1'
_cell_length_a   7.61546456
_cell_length_b   7.61272071
_cell_length_c   10.95431477
_cell_angle_alpha   89.77670185
_cell_angle_beta   89.77888553
_cell_angle_gamma   90.27775124
_symmetry_Int_Tables_number   1
_chemical_formula_structural   PrNd3CrMo5O24
_chemical_formula_sum   'Pr1 Nd3 Cr1 Mo5 O24'
_cell_volume   635.05281755
_cell_formula_units_Z   1
loop_
 _symmetry_equiv_pos_site_id
 _symmetry_equiv_pos_as_xyz
  1  'x, y, z'
loop_
 _atom_site_type_symbol
 _atom_site_label
 _atom_site_symmetry_multiplicity
 _atom_site_fract_x
 _atom_site_fract_y
 _atom_site_fract_z
 _atom_site_occupancy
  Pr  Pr0  1  0.307440  0.186606  0.263589  1
  Nd  Nd1  1  0.189109  0.689113  0.733644  1
  Nd  Nd2  1  0.811040  0.311040  0.739532  1
  Nd  Nd3  1  0.687104  0.806880  0.263824  1
  Cr  Cr4  1  0.209820  0.710160  0.355979  1
  Mo  Mo5  1  0.789452  0.290105  0.356403  1
  Mo  Mo6  1  0.709740  0.791807  0.643984  1
  Mo  Mo7  1  0.291808  0.209818  0.644941  1
  Mo  Mo8  1  0.001541  0.996658  0.999553  1
  Mo  Mo9  1  0.497540  0.503098  0.999510  1
  O  O10  1  0.996836  0.224803  0.296555  1
  O  O11  1  0.015226  0.768849  0.302737  1
  O  O12  1  0.224589  0.000154  0.701666  1
  O  O13  1  0.500386  0.724662  0.701257  1
  O  O14  1  0.774322  0.999561  0.703746  1
  O  O15  1  0.499785  0.274443  0.704191  1
  O  O16  1  0.268048  0.515555  0.302706  1
  O  O17  1  0.724005  0.498018  0.296642  1
  O  O18  1  0.189298  0.041163  0.092187  1
  O  O19  1  0.817532  0.951501  0.097902  1
  O  O20  1  0.044410  0.812114  0.903009  1
  O  O21  1  0.312531  0.545245  0.903165  1
  O  O22  1  0.956475  0.184873  0.905950  1
  O  O23  1  0.685237  0.457327  0.905734  1
  O  O24  1  0.453006  0.317939  0.096588  1
  O  O25  1  0.542419  0.689833  0.093465  1
  O  O26  1  0.626193  0.124488  0.311706  1
  O  O27  1  0.364557  0.862914  0.311261  1
  O  O28  1  0.127392  0.373385  0.689059  1
  O  O29  1  0.873191  0.627576  0.688725  1
  O  O30  1  0.201057  0.701249  0.507398  1
  O  O31  1  0.802066  0.302257  0.518382  1
  O  O32  1  0.700613  0.806093  0.481921  1
  O  O33  1  0.306237  0.200717  0.483093  1
