# generated using pymatgen
data_Ho3Tm17BiSb11
_symmetry_space_group_name_H-M   'P 1'
_cell_length_a   8.02784643
_cell_length_b   9.26226263
_cell_length_c   11.72032632
_cell_angle_alpha   90.04210650
_cell_angle_beta   89.94361482
_cell_angle_gamma   90.00108510
_symmetry_Int_Tables_number   1
_chemical_formula_structural   Ho3Tm17BiSb11
_chemical_formula_sum   'Ho3 Tm17 Bi1 Sb11'
_cell_volume   871.47618386
_cell_formula_units_Z   1
loop_
 _symmetry_equiv_pos_site_id
 _symmetry_equiv_pos_as_xyz
  1  'x, y, z'
loop_
 _atom_site_type_symbol
 _atom_site_label
 _atom_site_symmetry_multiplicity
 _atom_site_fract_x
 _atom_site_fract_y
 _atom_site_fract_z
 _atom_site_occupancy
  Ho  Ho0  1  0.813153  0.251970  0.282221  1
  Ho  Ho1  1  0.685156  0.750057  0.781308  1
  Ho  Ho2  1  0.185088  0.749983  0.718493  1
  Tm  Tm3  1  0.355729  0.747868  0.216086  1
  Tm  Tm4  1  0.850765  0.747307  0.285125  1
  Tm  Tm5  1  0.646594  0.250012  0.784405  1
  Tm  Tm6  1  0.146769  0.249917  0.715601  1
  Tm  Tm7  1  0.691603  0.562527  0.059653  1
  Tm  Tm8  1  0.192777  0.936927  0.442284  1
  Tm  Tm9  1  0.309380  0.063111  0.938759  1
  Tm  Tm10  1  0.808131  0.437373  0.559838  1
  Tm  Tm11  1  0.308485  0.437585  0.940247  1
  Tm  Tm12  1  0.808325  0.062782  0.559697  1
  Tm  Tm13  1  0.689904  0.936727  0.059076  1
  Tm  Tm14  1  0.191716  0.562472  0.440130  1
  Tm  Tm15  1  0.474096  0.250050  0.489165  1
  Tm  Tm16  1  0.973489  0.252114  0.009747  1
  Tm  Tm17  1  0.525945  0.749844  0.510817  1
  Tm  Tm18  1  0.025385  0.747926  0.987687  1
  Tm  Tm19  1  0.317123  0.253095  0.218589  1
  Bi  Bi20  1  0.067152  0.996079  0.174551  1
  Sb  Sb21  1  0.406524  0.749979  0.959496  1
  Sb  Sb22  1  0.906965  0.749953  0.540695  1
  Sb  Sb23  1  0.592682  0.250033  0.041066  1
  Sb  Sb24  1  0.093431  0.249943  0.459034  1
  Sb  Sb25  1  0.565086  0.995476  0.326387  1
  Sb  Sb26  1  0.066610  0.504469  0.173300  1
  Sb  Sb27  1  0.434330  0.495148  0.673181  1
  Sb  Sb28  1  0.934175  0.004891  0.827085  1
  Sb  Sb29  1  0.434391  0.004898  0.673149  1
  Sb  Sb30  1  0.933917  0.495052  0.826412  1
  Sb  Sb31  1  0.565121  0.504434  0.326720  1
