# generated using pymatgen
data_Pu2B6W
_symmetry_space_group_name_H-M   'P 1'
_cell_length_a   3.69886700
_cell_length_b   9.30090400
_cell_length_c   11.41329100
_cell_angle_alpha   90.00000000
_cell_angle_beta   90.00000000
_cell_angle_gamma   90.00000000
_symmetry_Int_Tables_number   1
_chemical_formula_structural   Pu2B6W
_chemical_formula_sum   'Pu8 B24 W4'
_cell_volume   392.64924609
_cell_formula_units_Z   4
loop_
 _symmetry_equiv_pos_site_id
 _symmetry_equiv_pos_as_xyz
  1  'x, y, z'
loop_
 _atom_site_type_symbol
 _atom_site_label
 _atom_site_symmetry_multiplicity
 _atom_site_fract_x
 _atom_site_fract_y
 _atom_site_fract_z
 _atom_site_occupancy
  Pu  Pu0  1  0.000000  0.334023  0.408355  1
  Pu  Pu1  1  0.000000  0.665977  0.591645  1
  Pu  Pu2  1  0.000000  0.834023  0.091645  1
  Pu  Pu3  1  0.000000  0.165977  0.908355  1
  Pu  Pu4  1  0.000000  0.953357  0.387656  1
  Pu  Pu5  1  0.000000  0.046643  0.612344  1
  Pu  Pu6  1  0.000000  0.453357  0.112344  1
  Pu  Pu7  1  0.000000  0.546643  0.887656  1
  B  B8  1  0.500000  0.552484  0.433186  1
  B  B9  1  0.500000  0.447516  0.566814  1
  B  B10  1  0.500000  0.052484  0.066814  1
  B  B11  1  0.500000  0.947516  0.933186  1
  B  B12  1  0.500000  0.746310  0.423352  1
  B  B13  1  0.500000  0.253690  0.576648  1
  B  B14  1  0.500000  0.246310  0.076648  1
  B  B15  1  0.500000  0.753690  0.923352  1
  B  B16  1  0.500000  0.802625  0.271304  1
  B  B17  1  0.500000  0.197375  0.728696  1
  B  B18  1  0.500000  0.302625  0.228696  1
  B  B19  1  0.500000  0.697375  0.771304  1
  B  B20  1  0.500000  0.642177  0.186962  1
  B  B21  1  0.500000  0.357823  0.813038  1
  B  B22  1  0.500000  0.142177  0.313038  1
  B  B23  1  0.500000  0.857823  0.686962  1
  B  B24  1  0.500000  0.986988  0.217399  1
  B  B25  1  0.500000  0.013012  0.782601  1
  B  B26  1  0.500000  0.486988  0.282601  1
  B  B27  1  0.500000  0.513012  0.717399  1
  B  B28  1  0.500000  0.635491  0.037724  1
  B  B29  1  0.500000  0.364509  0.962276  1
  B  B30  1  0.500000  0.135491  0.462276  1
  B  B31  1  0.500000  0.864509  0.537724  1
  W  W32  1  0.000000  0.645294  0.319967  1
  W  W33  1  0.000000  0.354706  0.680033  1
  W  W34  1  0.000000  0.145294  0.180033  1
  W  W35  1  0.000000  0.854706  0.819967  1
