# generated using pymatgen
data_K2TeF8
_symmetry_space_group_name_H-M   'P 1'
_cell_length_a   5.85227900
_cell_length_b   8.64857700
_cell_length_c   12.43826700
_cell_angle_alpha   90.00000000
_cell_angle_beta   90.00000000
_cell_angle_gamma   90.00000000
_symmetry_Int_Tables_number   1
_chemical_formula_structural   K2TeF8
_chemical_formula_sum   'K8 Te4 F32'
_cell_volume   629.54902247
_cell_formula_units_Z   4
loop_
 _symmetry_equiv_pos_site_id
 _symmetry_equiv_pos_as_xyz
  1  'x, y, z'
loop_
 _atom_site_type_symbol
 _atom_site_label
 _atom_site_symmetry_multiplicity
 _atom_site_fract_x
 _atom_site_fract_y
 _atom_site_fract_z
 _atom_site_occupancy
  K  K0  1  0.250000  0.049595  0.209683  1
  K  K1  1  0.750000  0.950405  0.790317  1
  K  K2  1  0.250000  0.549595  0.290317  1
  K  K3  1  0.750000  0.450405  0.709683  1
  K  K4  1  0.250000  0.169495  0.559335  1
  K  K5  1  0.750000  0.830505  0.440665  1
  K  K6  1  0.250000  0.669495  0.940665  1
  K  K7  1  0.750000  0.330505  0.059335  1
  Te  Te8  1  0.250000  0.217412  0.877344  1
  Te  Te9  1  0.750000  0.782588  0.122656  1
  Te  Te10  1  0.250000  0.717412  0.622656  1
  Te  Te11  1  0.750000  0.282588  0.377344  1
  F  F12  1  0.250000  0.769941  0.465504  1
  F  F13  1  0.750000  0.230059  0.534496  1
  F  F14  1  0.250000  0.269941  0.034496  1
  F  F15  1  0.750000  0.730059  0.965504  1
  F  F16  1  0.250000  0.995518  0.839543  1
  F  F17  1  0.750000  0.004482  0.160457  1
  F  F18  1  0.250000  0.495518  0.660457  1
  F  F19  1  0.750000  0.504482  0.339543  1
  F  F20  1  0.028674  0.869744  0.062426  1
  F  F21  1  0.528674  0.130256  0.937574  1
  F  F22  1  0.471326  0.369744  0.437574  1
  F  F23  1  0.971326  0.630256  0.562426  1
  F  F24  1  0.546407  0.097479  0.384157  1
  F  F25  1  0.046407  0.902521  0.615843  1
  F  F26  1  0.953593  0.597479  0.115843  1
  F  F27  1  0.453593  0.402521  0.884157  1
  F  F28  1  0.453593  0.902521  0.615843  1
  F  F29  1  0.953593  0.097479  0.384157  1
  F  F30  1  0.046407  0.402521  0.884157  1
  F  F31  1  0.546407  0.597479  0.115843  1
  F  F32  1  0.545619  0.288662  0.248902  1
  F  F33  1  0.045619  0.711338  0.751098  1
  F  F34  1  0.954381  0.788662  0.251098  1
  F  F35  1  0.454381  0.211338  0.748902  1
  F  F36  1  0.454381  0.711338  0.751098  1
  F  F37  1  0.954381  0.288662  0.248902  1
  F  F38  1  0.045619  0.211338  0.748902  1
  F  F39  1  0.545619  0.788662  0.251098  1
  F  F40  1  0.028674  0.369744  0.437574  1
  F  F41  1  0.528674  0.630256  0.562426  1
  F  F42  1  0.471326  0.869744  0.062426  1
  F  F43  1  0.971326  0.130256  0.937574  1
