# generated using pymatgen
data_Sr4Fe3Co(PdN3)2
_symmetry_space_group_name_H-M   'P 1'
_cell_length_a   6.53266939
_cell_length_b   6.50980669
_cell_length_c   6.53726626
_cell_angle_alpha   89.81539843
_cell_angle_beta   90.10235877
_cell_angle_gamma   117.07518006
_symmetry_Int_Tables_number   1
_chemical_formula_structural   Sr4Fe3Co(PdN3)2
_chemical_formula_sum   'Sr4 Fe3 Co1 Pd2 N6'
_cell_volume   247.53848065
_cell_formula_units_Z   1
loop_
 _symmetry_equiv_pos_site_id
 _symmetry_equiv_pos_as_xyz
  1  'x, y, z'
loop_
 _atom_site_type_symbol
 _atom_site_label
 _atom_site_symmetry_multiplicity
 _atom_site_fract_x
 _atom_site_fract_y
 _atom_site_fract_z
 _atom_site_occupancy
  Sr  Sr0  1  0.826325  0.672693  0.896272  1
  Sr  Sr1  1  0.322868  0.173130  0.603723  1
  Sr  Sr2  1  0.171087  0.321554  0.101365  1
  Sr  Sr3  1  0.675193  0.829798  0.396723  1
  Fe  Fe4  1  0.434538  0.837487  0.899139  1
  Fe  Fe5  1  0.832957  0.436564  0.399158  1
  Fe  Fe6  1  0.167924  0.568931  0.601796  1
  Co  Co7  1  0.568005  0.167812  0.103136  1
  Pd  Pd8  1  0.811672  0.187383  0.747715  1
  Pd  Pd9  1  0.189716  0.811078  0.250282  1
  N  N10  1  0.409903  0.586450  0.752180  1
  N  N11  1  0.590238  0.409972  0.255233  1
  N  N12  1  0.996155  0.716600  0.520673  1
  N  N13  1  0.718817  0.995660  0.018264  1
  N  N14  1  0.005289  0.286647  0.476302  1
  N  N15  1  0.279314  0.998240  0.978038  1
