# generated using pymatgen
data_Tb2YIn3AgRh2
_symmetry_space_group_name_H-M   'P 1'
_cell_length_a   7.79504453
_cell_length_b   7.80362250
_cell_length_c   3.81456300
_cell_angle_alpha   90.00000000
_cell_angle_beta   90.00000000
_cell_angle_gamma   120.03530148
_symmetry_Int_Tables_number   1
_chemical_formula_structural   Tb2YIn3AgRh2
_chemical_formula_sum   'Tb2 Y1 In3 Ag1 Rh2'
_cell_volume   200.87952769
_cell_formula_units_Z   1
loop_
 _symmetry_equiv_pos_site_id
 _symmetry_equiv_pos_as_xyz
  1  'x, y, z'
loop_
 _atom_site_type_symbol
 _atom_site_label
 _atom_site_symmetry_multiplicity
 _atom_site_fract_x
 _atom_site_fract_y
 _atom_site_fract_z
 _atom_site_occupancy
  Tb  Tb0  1  0.972992  0.585281  0.500000  1
  Tb  Tb1  1  0.414389  0.387569  0.500000  1
  Y  Y2  1  0.612601  0.026098  0.500000  1
  In  In3  1  0.002568  0.259790  0.000000  1
  In  In4  1  0.257341  0.996825  0.000000  1
  In  In5  1  0.739824  0.743282  0.000000  1
  Ag  Ag6  1  0.333226  0.666596  0.000000  1
  Rh  Rh7  1  0.000379  0.999937  0.500000  1
  Rh  Rh8  1  0.666676  0.334625  0.000000  1
