# generated using pymatgen
data_Pr3ThNb(MoN4)3
_symmetry_space_group_name_H-M   'P 1'
_cell_length_a   11.41268173
_cell_length_b   11.41268197
_cell_length_c   11.41268200
_cell_angle_alpha   109.42923221
_cell_angle_beta   109.55523074
_cell_angle_gamma   109.42923126
_symmetry_Int_Tables_number   1
_chemical_formula_structural   Pr3ThNb(MoN4)3
_chemical_formula_sum   'Pr12 Th4 Nb4 Mo12 N48'
_cell_volume   1144.30171417
_cell_formula_units_Z   4
loop_
 _symmetry_equiv_pos_site_id
 _symmetry_equiv_pos_as_xyz
  1  'x, y, z'
loop_
 _atom_site_type_symbol
 _atom_site_label
 _atom_site_symmetry_multiplicity
 _atom_site_fract_x
 _atom_site_fract_y
 _atom_site_fract_z
 _atom_site_occupancy
  Pr  Pr0  1  0.376881  0.750000  0.126882  1
  Pr  Pr1  1  0.266827  0.381390  0.135154  1
  Pr  Pr2  1  0.385437  0.131673  0.266827  1
  Pr  Pr3  1  0.864847  0.631673  0.246236  1
  Pr  Pr4  1  0.753764  0.118611  0.385437  1
  Pr  Pr5  1  0.126881  0.250000  0.376881  1
  Pr  Pr6  1  0.873119  0.750000  0.623119  1
  Pr  Pr7  1  0.246236  0.881391  0.614563  1
  Pr  Pr8  1  0.135155  0.368327  0.753764  1
  Pr  Pr9  1  0.614563  0.868327  0.733173  1
  Pr  Pr10  1  0.623119  0.250000  0.873120  1
  Pr  Pr11  1  0.733173  0.618610  0.864846  1
  Th  Th12  1  0.000000  0.000000  0.000000  1
  Th  Th13  1  0.500001  0.000000  0.000000  1
  Th  Th14  1  0.000000  0.500001  0.000000  1
  Th  Th15  1  0.000000  0.500000  0.500000  1
  Nb  Nb16  1  0.500000  0.500000  0.000000  1
  Nb  Nb17  1  0.000000  0.000000  0.500001  1
  Nb  Nb18  1  0.500001  0.500001  0.500001  1
  Nb  Nb19  1  0.500000  0.000000  0.500000  1
  Mo  Mo20  1  0.875000  0.250000  0.125000  1
  Mo  Mo21  1  0.749322  0.868984  0.131019  1
  Mo  Mo22  1  0.619662  0.381697  0.250678  1
  Mo  Mo23  1  0.131019  0.881697  0.262035  1
  Mo  Mo24  1  0.262035  0.631016  0.380338  1
  Mo  Mo25  1  0.625000  0.750000  0.375000  1
  Mo  Mo26  1  0.375000  0.250000  0.625000  1
  Mo  Mo27  1  0.737965  0.368984  0.619662  1
  Mo  Mo28  1  0.868981  0.118303  0.737965  1
  Mo  Mo29  1  0.380338  0.618303  0.749322  1
  Mo  Mo30  1  0.250678  0.131016  0.868981  1
  Mo  Mo31  1  0.125000  0.750000  0.875000  1
  N  N32  1  0.224428  0.127789  0.019138  1
  N  N33  1  0.304066  0.900977  0.032500  1
  N  N34  1  0.868477  0.400977  0.096910  1
  N  N35  1  0.698986  0.677088  0.082983  1
  N  N36  1  0.980862  0.705290  0.108652  1
  N  N37  1  0.607971  0.411079  0.095013  1
  N  N38  1  0.032500  0.228433  0.131523  1
  N  N39  1  0.604783  0.907706  0.135843  1
  N  N40  1  0.228137  0.592294  0.197078  1
  N  N41  1  0.491046  0.602208  0.186312  1
  N  N42  1  0.596639  0.205290  0.224427  1
  N  N43  1  0.135844  0.031059  0.228138  1
  N  N44  1  0.316066  0.911079  0.303109  1
  N  N45  1  0.478101  0.383997  0.301014  1
  N  N46  1  0.903090  0.271567  0.304066  1
  N  N47  1  0.904987  0.012958  0.316066  1
  N  N48  1  0.584105  0.897793  0.388839  1
  N  N49  1  0.303109  0.487042  0.392030  1
  N  N50  1  0.802923  0.531059  0.395217  1
  N  N51  1  0.082983  0.883996  0.405895  1
  N  N52  1  0.108652  0.627789  0.403361  1
  N  N53  1  0.813688  0.804733  0.415895  1
  N  N54  1  0.594105  0.177088  0.478101  1
  N  N55  1  0.388839  0.304733  0.491046  1
  N  N56  1  0.611161  0.695266  0.508953  1
  N  N57  1  0.405896  0.822913  0.521899  1
  N  N58  1  0.186312  0.195266  0.584105  1
  N  N59  1  0.891349  0.372212  0.596639  1
  N  N60  1  0.917017  0.116003  0.594104  1
  N  N61  1  0.197078  0.468941  0.604784  1
  N  N62  1  0.415895  0.102208  0.611162  1
  N  N63  1  0.696890  0.512957  0.607970  1
  N  N64  1  0.096910  0.728433  0.695934  1
  N  N65  1  0.095013  0.987042  0.683934  1
  N  N66  1  0.683934  0.088921  0.696891  1
  N  N67  1  0.521898  0.616003  0.698985  1
  N  N68  1  0.864157  0.968942  0.771863  1
  N  N69  1  0.403361  0.794710  0.775572  1
  N  N70  1  0.508954  0.397793  0.813689  1
  N  N71  1  0.771862  0.407706  0.802922  1
  N  N72  1  0.395216  0.092294  0.864156  1
  N  N73  1  0.967501  0.771568  0.868478  1
  N  N74  1  0.019138  0.294710  0.891348  1
  N  N75  1  0.392030  0.588921  0.904988  1
  N  N76  1  0.301014  0.322912  0.917017  1
  N  N77  1  0.131522  0.599022  0.903090  1
  N  N78  1  0.695934  0.099023  0.967500  1
  N  N79  1  0.775573  0.872212  0.980863  1
