# generated using pymatgen
data_LaPr2Lu(ZnSn)4
_symmetry_space_group_name_H-M   'P 1'
_cell_length_a   4.57422800
_cell_length_b   4.57422880
_cell_length_c   16.52174200
_cell_angle_alpha   90.00000000
_cell_angle_beta   90.00000000
_cell_angle_gamma   120.00000866
_symmetry_Int_Tables_number   1
_chemical_formula_structural   LaPr2Lu(ZnSn)4
_chemical_formula_sum   'La1 Pr2 Lu1 Zn4 Sn4'
_cell_volume   299.37954362
_cell_formula_units_Z   1
loop_
 _symmetry_equiv_pos_site_id
 _symmetry_equiv_pos_as_xyz
  1  'x, y, z'
loop_
 _atom_site_type_symbol
 _atom_site_label
 _atom_site_symmetry_multiplicity
 _atom_site_fract_x
 _atom_site_fract_y
 _atom_site_fract_z
 _atom_site_occupancy
  La  La0  1  0.000000  0.000000  0.993183  1
  Pr  Pr1  1  0.000000  0.000000  0.250849  1
  Pr  Pr2  1  0.000000  0.000000  0.506678  1
  Lu  Lu3  1  0.000000  0.000000  0.749156  1
  Zn  Zn4  1  0.333333  0.666667  0.154424  1
  Zn  Zn5  1  0.666667  0.333333  0.831941  1
  Zn  Zn6  1  0.666667  0.333333  0.667520  1
  Zn  Zn7  1  0.333333  0.666667  0.346146  1
  Sn  Sn8  1  0.333333  0.666667  0.622038  1
  Sn  Sn9  1  0.666667  0.333333  0.387328  1
  Sn  Sn10  1  0.666667  0.333333  0.113850  1
  Sn  Sn11  1  0.333333  0.666667  0.876889  1
