# generated using pymatgen
data_Eu5TlRh2
_symmetry_space_group_name_H-M   'P 1'
_cell_length_a   9.31244335
_cell_length_b   9.31244372
_cell_length_c   9.31244401
_cell_angle_alpha   128.70690057
_cell_angle_beta   128.70690416
_cell_angle_gamma   75.48264586
_symmetry_Int_Tables_number   1
_chemical_formula_structural   Eu5TlRh2
_chemical_formula_sum   'Eu10 Tl2 Rh4'
_cell_volume   478.54093557
_cell_formula_units_Z   2
loop_
 _symmetry_equiv_pos_site_id
 _symmetry_equiv_pos_as_xyz
  1  'x, y, z'
loop_
 _atom_site_type_symbol
 _atom_site_label
 _atom_site_symmetry_multiplicity
 _atom_site_fract_x
 _atom_site_fract_y
 _atom_site_fract_z
 _atom_site_occupancy
  Eu  Eu0  1  0.535880  0.035880  0.832709  1
  Eu  Eu1  1  0.203170  0.703170  0.167291  1
  Eu  Eu2  1  0.035880  0.203170  0.500000  1
  Eu  Eu3  1  0.703170  0.535880  0.500000  1
  Eu  Eu4  1  0.464120  0.964120  0.167291  1
  Eu  Eu5  1  0.796830  0.296830  0.832709  1
  Eu  Eu6  1  0.964120  0.796830  0.500000  1
  Eu  Eu7  1  0.296830  0.464120  0.500000  1
  Eu  Eu8  1  0.500000  0.500000  0.000000  1
  Eu  Eu9  1  0.000000  0.000000  0.000000  1
  Tl  Tl10  1  0.250000  0.250000  0.000000  1
  Tl  Tl11  1  0.750000  0.750000  0.000000  1
  Rh  Rh12  1  0.869499  0.369499  0.238998  1
  Rh  Rh13  1  0.130501  0.630501  0.761002  1
  Rh  Rh14  1  0.369499  0.130501  0.500000  1
  Rh  Rh15  1  0.630501  0.869499  0.500000  1
