# generated using pymatgen
data_Y4HoTm3(ReC2)4
_symmetry_space_group_name_H-M   'P 1'
_cell_length_a   5.08965600
_cell_length_b   6.57859089
_cell_length_c   9.81661733
_cell_angle_alpha   90.05961161
_cell_angle_beta   90.00000000
_cell_angle_gamma   90.00000000
_symmetry_Int_Tables_number   1
_chemical_formula_structural   Y4HoTm3(ReC2)4
_chemical_formula_sum   'Y4 Ho1 Tm3 Re4 C8'
_cell_volume   328.68730923
_cell_formula_units_Z   1
loop_
 _symmetry_equiv_pos_site_id
 _symmetry_equiv_pos_as_xyz
  1  'x, y, z'
loop_
 _atom_site_type_symbol
 _atom_site_label
 _atom_site_symmetry_multiplicity
 _atom_site_fract_x
 _atom_site_fract_y
 _atom_site_fract_z
 _atom_site_occupancy
  Y  Y0  1  0.250000  0.466032  0.784168  1
  Y  Y1  1  0.750000  0.033955  0.285209  1
  Y  Y2  1  0.250000  0.965642  0.715118  1
  Y  Y3  1  0.750000  0.534339  0.215887  1
  Ho  Ho4  1  0.750000  0.177725  0.942826  1
  Tm  Tm5  1  0.250000  0.823611  0.058004  1
  Tm  Tm6  1  0.750000  0.676162  0.557529  1
  Tm  Tm7  1  0.250000  0.324100  0.442296  1
  Re  Re8  1  0.250000  0.278839  0.133757  1
  Re  Re9  1  0.750000  0.220777  0.632695  1
  Re  Re10  1  0.250000  0.779140  0.366978  1
  Re  Re11  1  0.750000  0.720947  0.866474  1
  C  C12  1  0.250000  0.173045  0.950820  1
  C  C13  1  0.750000  0.825499  0.049802  1
  C  C14  1  0.250000  0.672584  0.549718  1
  C  C15  1  0.750000  0.327419  0.450043  1
  C  C16  1  0.250000  0.047177  0.260030  1
  C  C17  1  0.750000  0.453368  0.758642  1
  C  C18  1  0.250000  0.547321  0.240387  1
  C  C19  1  0.750000  0.952317  0.739617  1
