# generated using pymatgen
data_Yb2GeB2Rh5
_symmetry_space_group_name_H-M   'P 1'
_cell_length_a   9.59584300
_cell_length_b   9.59584300
_cell_length_c   2.99495100
_cell_angle_alpha   90.00000000
_cell_angle_beta   90.00000000
_cell_angle_gamma   90.00000000
_symmetry_Int_Tables_number   1
_chemical_formula_structural   Yb2GeB2Rh5
_chemical_formula_sum   'Yb4 Ge2 B4 Rh10'
_cell_volume   275.77569570
_cell_formula_units_Z   2
loop_
 _symmetry_equiv_pos_site_id
 _symmetry_equiv_pos_as_xyz
  1  'x, y, z'
loop_
 _atom_site_type_symbol
 _atom_site_label
 _atom_site_symmetry_multiplicity
 _atom_site_fract_x
 _atom_site_fract_y
 _atom_site_fract_z
 _atom_site_occupancy
  Yb  Yb0  1  0.824752  0.324752  0.000000  1
  Yb  Yb1  1  0.324752  0.175248  0.000000  1
  Yb  Yb2  1  0.675248  0.824752  0.000000  1
  Yb  Yb3  1  0.175248  0.675248  0.000000  1
  Ge  Ge4  1  0.000000  0.000000  0.000000  1
  Ge  Ge5  1  0.500000  0.500000  0.000000  1
  B  B6  1  0.623762  0.123762  0.000000  1
  B  B7  1  0.123762  0.376238  0.000000  1
  B  B8  1  0.876238  0.623762  0.000000  1
  B  B9  1  0.376238  0.876238  0.000000  1
  Rh  Rh10  1  0.069690  0.217523  0.500000  1
  Rh  Rh11  1  0.217523  0.930310  0.500000  1
  Rh  Rh12  1  0.782477  0.069690  0.500000  1
  Rh  Rh13  1  0.930310  0.782477  0.500000  1
  Rh  Rh14  1  0.430310  0.717523  0.500000  1
  Rh  Rh15  1  0.569690  0.282477  0.500000  1
  Rh  Rh16  1  0.717523  0.569690  0.500000  1
  Rh  Rh17  1  0.282477  0.430310  0.500000  1
  Rh  Rh18  1  0.500000  0.000000  0.500000  1
  Rh  Rh19  1  0.000000  0.500000  0.500000  1
