# generated using pymatgen
data_Tb2Er4SbRuO14
_symmetry_space_group_name_H-M   'P 1'
_cell_length_a   6.41770222
_cell_length_b   6.41770361
_cell_length_c   7.47400335
_cell_angle_alpha   90.16986846
_cell_angle_beta   89.83012820
_cell_angle_gamma   109.39847841
_symmetry_Int_Tables_number   1
_chemical_formula_structural   Tb2Er4SbRuO14
_chemical_formula_sum   'Tb2 Er4 Sb1 Ru1 O14'
_cell_volume   290.35407606
_cell_formula_units_Z   1
loop_
 _symmetry_equiv_pos_site_id
 _symmetry_equiv_pos_as_xyz
  1  'x, y, z'
loop_
 _atom_site_type_symbol
 _atom_site_label
 _atom_site_symmetry_multiplicity
 _atom_site_fract_x
 _atom_site_fract_y
 _atom_site_fract_z
 _atom_site_occupancy
  Tb  Tb0  1  0.500000  0.500000  0.500000  1
  Tb  Tb1  1  0.500000  0.500000  0.000000  1
  Er  Er2  1  0.533308  0.000427  0.748989  1
  Er  Er3  1  0.000427  0.533308  0.251011  1
  Er  Er4  1  0.466692  0.999573  0.251011  1
  Er  Er5  1  0.999573  0.466692  0.748989  1
  Sb  Sb6  1  0.000000  0.000000  0.000000  1
  Ru  Ru7  1  0.000000  0.000000  0.500000  1
  O  O8  1  0.678892  0.927201  0.469878  1
  O  O9  1  0.927201  0.678892  0.530122  1
  O  O10  1  0.675281  0.927366  0.029873  1
  O  O11  1  0.927366  0.675281  0.970127  1
  O  O12  1  0.321108  0.072799  0.530122  1
  O  O13  1  0.072799  0.321108  0.469878  1
  O  O14  1  0.324719  0.072634  0.970127  1
  O  O15  1  0.072634  0.324719  0.029873  1
  O  O16  1  0.928152  0.071848  0.748591  1
  O  O17  1  0.071848  0.928152  0.251409  1
  O  O18  1  0.367145  0.632855  0.750056  1
  O  O19  1  0.632855  0.367145  0.249944  1
  O  O20  1  0.638761  0.361239  0.749219  1
  O  O21  1  0.361239  0.638761  0.250781  1
