# generated using pymatgen
data_LiMgFe4(B2Rh5)2
_symmetry_space_group_name_H-M   'P 1'
_cell_length_a   9.34580524
_cell_length_b   9.34580441
_cell_length_c   2.90234600
_cell_angle_alpha   90.00000000
_cell_angle_beta   90.00000000
_cell_angle_gamma   90.28256260
_symmetry_Int_Tables_number   1
_chemical_formula_structural   LiMgFe4(B2Rh5)2
_chemical_formula_sum   'Li1 Mg1 Fe4 B4 Rh10'
_cell_volume   253.49962317
_cell_formula_units_Z   1
loop_
 _symmetry_equiv_pos_site_id
 _symmetry_equiv_pos_as_xyz
  1  'x, y, z'
loop_
 _atom_site_type_symbol
 _atom_site_label
 _atom_site_symmetry_multiplicity
 _atom_site_fract_x
 _atom_site_fract_y
 _atom_site_fract_z
 _atom_site_occupancy
  Li  Li0  1  0.177202  0.322798  0.000000  1
  Mg  Mg1  1  0.824463  0.675537  0.000000  1
  Fe  Fe2  1  0.677320  0.177534  0.000000  1
  Fe  Fe3  1  0.322466  0.822680  0.000000  1
  Fe  Fe4  1  0.000068  0.999331  0.000000  1
  Fe  Fe5  1  0.500669  0.499932  0.000000  1
  B  B6  1  0.127238  0.621382  0.000000  1
  B  B7  1  0.878618  0.372762  0.000000  1
  B  B8  1  0.623583  0.876417  0.000000  1
  B  B9  1  0.366646  0.133354  0.000000  1
  Rh  Rh10  1  0.498406  0.001594  0.500000  1
  Rh  Rh11  1  0.001675  0.498325  0.500000  1
  Rh  Rh12  1  0.216288  0.063028  0.500000  1
  Rh  Rh13  1  0.781963  0.935627  0.500000  1
  Rh  Rh14  1  0.077622  0.786595  0.500000  1
  Rh  Rh15  1  0.713405  0.422378  0.500000  1
  Rh  Rh16  1  0.921433  0.210407  0.500000  1
  Rh  Rh17  1  0.289593  0.578567  0.500000  1
  Rh  Rh18  1  0.564373  0.718037  0.500000  1
  Rh  Rh19  1  0.436972  0.283712  0.500000  1
