# generated using pymatgen
data_UCuHgSe3
_symmetry_space_group_name_H-M   'P 1'
_cell_length_a   8.73321282
_cell_length_b   8.73321306
_cell_length_c   10.43875400
_cell_angle_alpha   90.00000000
_cell_angle_beta   90.00000000
_cell_angle_gamma   153.15613385
_symmetry_Int_Tables_number   1
_chemical_formula_structural   UCuHgSe3
_chemical_formula_sum   'U2 Cu2 Hg2 Se6'
_cell_volume   359.51165696
_cell_formula_units_Z   2
loop_
 _symmetry_equiv_pos_site_id
 _symmetry_equiv_pos_as_xyz
  1  'x, y, z'
loop_
 _atom_site_type_symbol
 _atom_site_label
 _atom_site_symmetry_multiplicity
 _atom_site_fract_x
 _atom_site_fract_y
 _atom_site_fract_z
 _atom_site_occupancy
  U  U0  1  0.000000  0.000000  0.000000  1
  U  U1  1  0.000000  0.000000  0.500000  1
  Cu  Cu2  1  0.472227  0.527774  0.250000  1
  Cu  Cu3  1  0.527774  0.472227  0.750000  1
  Hg  Hg4  1  0.741006  0.258995  0.250000  1
  Hg  Hg5  1  0.258995  0.741006  0.750000  1
  Se  Se6  1  0.394834  0.605167  0.056319  1
  Se  Se7  1  0.057719  0.942282  0.250000  1
  Se  Se8  1  0.394834  0.605167  0.443680  1
  Se  Se9  1  0.605167  0.394834  0.556320  1
  Se  Se10  1  0.942282  0.057719  0.750000  1
  Se  Se11  1  0.605167  0.394834  0.943680  1
