# generated using pymatgen
data_SrLuGe4N7
_symmetry_space_group_name_H-M   'P 1'
_cell_length_a   6.26092200
_cell_length_b   6.26092106
_cell_length_c   10.24315000
_cell_angle_alpha   90.00000000
_cell_angle_beta   90.00000000
_cell_angle_gamma   119.99999438
_symmetry_Int_Tables_number   1
_chemical_formula_structural   SrLuGe4N7
_chemical_formula_sum   'Sr2 Lu2 Ge8 N14'
_cell_volume   347.72883898
_cell_formula_units_Z   2
loop_
 _symmetry_equiv_pos_site_id
 _symmetry_equiv_pos_as_xyz
  1  'x, y, z'
loop_
 _atom_site_type_symbol
 _atom_site_label
 _atom_site_symmetry_multiplicity
 _atom_site_fract_x
 _atom_site_fract_y
 _atom_site_fract_z
 _atom_site_occupancy
  Sr  Sr0  1  0.666667  0.333333  0.583173  1
  Sr  Sr1  1  0.333333  0.666667  0.083173  1
  Lu  Lu2  1  0.666667  0.333333  0.950966  1
  Lu  Lu3  1  0.333333  0.666667  0.450966  1
  Ge  Ge4  1  0.173467  0.346934  0.760715  1
  Ge  Ge5  1  0.826533  0.173467  0.260715  1
  Ge  Ge6  1  0.346934  0.173467  0.260715  1
  Ge  Ge7  1  0.653066  0.826533  0.760715  1
  Ge  Ge8  1  0.173467  0.826533  0.760715  1
  Ge  Ge9  1  0.826533  0.653066  0.260715  1
  Ge  Ge10  1  0.000000  0.000000  0.024858  1
  Ge  Ge11  1  0.000000  0.000000  0.524858  1
  N  N12  1  0.000000  0.000000  0.832284  1
  N  N13  1  0.000000  0.000000  0.332284  1
  N  N14  1  0.839148  0.678295  0.080710  1
  N  N15  1  0.160852  0.839148  0.580710  1
  N  N16  1  0.678295  0.839148  0.580710  1
  N  N17  1  0.321705  0.160852  0.080710  1
  N  N18  1  0.839148  0.160852  0.080710  1
  N  N19  1  0.160852  0.321705  0.580710  1
  N  N20  1  0.496476  0.503524  0.819088  1
  N  N21  1  0.992953  0.496476  0.319088  1
  N  N22  1  0.503524  0.007047  0.319088  1
  N  N23  1  0.496476  0.992953  0.819088  1
  N  N24  1  0.503524  0.496476  0.319088  1
  N  N25  1  0.007047  0.503524  0.819088  1
