# generated using pymatgen
data_Sm4PdPb2Au3
_symmetry_space_group_name_H-M   'P 1'
_cell_length_a   8.20567939
_cell_length_b   8.20567939
_cell_length_c   3.76273900
_cell_angle_alpha   90.00000000
_cell_angle_beta   90.00000000
_cell_angle_gamma   89.65407473
_symmetry_Int_Tables_number   1
_chemical_formula_structural   Sm4PdPb2Au3
_chemical_formula_sum   'Sm4 Pd1 Pb2 Au3'
_cell_volume   253.35254303
_cell_formula_units_Z   1
loop_
 _symmetry_equiv_pos_site_id
 _symmetry_equiv_pos_as_xyz
  1  'x, y, z'
loop_
 _atom_site_type_symbol
 _atom_site_label
 _atom_site_symmetry_multiplicity
 _atom_site_fract_x
 _atom_site_fract_y
 _atom_site_fract_z
 _atom_site_occupancy
  Sm  Sm0  1  0.336945  0.827610  0.500000  1
  Sm  Sm1  1  0.672390  0.163055  0.500000  1
  Sm  Sm2  1  0.823140  0.676860  0.500000  1
  Sm  Sm3  1  0.170411  0.329589  0.500000  1
  Pd  Pd4  1  0.625323  0.874677  0.000000  1
  Pb  Pb5  1  0.995328  0.997689  0.000000  1
  Pb  Pb6  1  0.502311  0.504672  0.000000  1
  Au  Au7  1  0.123015  0.626313  0.000000  1
  Au  Au8  1  0.377451  0.122549  0.000000  1
  Au  Au9  1  0.873687  0.376985  0.000000  1
