# generated using pymatgen
data_Cs4Sb2Au7
_symmetry_space_group_name_H-M   'P 1'
_cell_length_a   11.41332453
_cell_length_b   11.41332485
_cell_length_c   11.41332487
_cell_angle_alpha   35.62144277
_cell_angle_beta   35.62143883
_cell_angle_gamma   35.62144100
_symmetry_Int_Tables_number   1
_chemical_formula_structural   Cs4Sb2Au7
_chemical_formula_sum   'Cs4 Sb2 Au7'
_cell_volume   450.79394027
_cell_formula_units_Z   1
loop_
 _symmetry_equiv_pos_site_id
 _symmetry_equiv_pos_as_xyz
  1  'x, y, z'
loop_
 _atom_site_type_symbol
 _atom_site_label
 _atom_site_symmetry_multiplicity
 _atom_site_fract_x
 _atom_site_fract_y
 _atom_site_fract_z
 _atom_site_occupancy
  Cs  Cs0  1  0.812284  0.812284  0.812284  1
  Cs  Cs1  1  0.686302  0.686302  0.686302  1
  Cs  Cs2  1  0.313698  0.313698  0.313698  1
  Cs  Cs3  1  0.187716  0.187716  0.187716  1
  Sb  Sb4  1  0.441117  0.441117  0.441117  1
  Sb  Sb5  1  0.558883  0.558883  0.558883  1
  Au  Au6  1  0.792157  0.792157  0.192456  1
  Au  Au7  1  0.207843  0.807544  0.207843  1
  Au  Au8  1  0.792157  0.192456  0.792157  1
  Au  Au9  1  0.807544  0.207843  0.207843  1
  Au  Au10  1  0.192456  0.792157  0.792157  1
  Au  Au11  1  0.000000  0.000000  0.000000  1
  Au  Au12  1  0.207843  0.207843  0.807544  1
