# generated using pymatgen
data_Ce7DyTi5Si16Mo7
_symmetry_space_group_name_H-M   'P 1'
_cell_length_a   6.99909110
_cell_length_b   7.01038485
_cell_length_c   13.01832751
_cell_angle_alpha   89.95433441
_cell_angle_beta   90.11794637
_cell_angle_gamma   90.09630735
_symmetry_Int_Tables_number   1
_chemical_formula_structural   Ce7DyTi5Si16Mo7
_chemical_formula_sum   'Ce7 Dy1 Ti5 Si16 Mo7'
_cell_volume   638.75899520
_cell_formula_units_Z   1
loop_
 _symmetry_equiv_pos_site_id
 _symmetry_equiv_pos_as_xyz
  1  'x, y, z'
loop_
 _atom_site_type_symbol
 _atom_site_label
 _atom_site_symmetry_multiplicity
 _atom_site_fract_x
 _atom_site_fract_y
 _atom_site_fract_z
 _atom_site_occupancy
  Ce  Ce0  1  0.995682  0.665464  0.032681  1
  Ce  Ce1  1  0.002573  0.338148  0.531059  1
  Ce  Ce2  1  0.664821  0.995840  0.968713  1
  Ce  Ce3  1  0.165697  0.505716  0.781160  1
  Ce  Ce4  1  0.835922  0.494847  0.281604  1
  Ce  Ce5  1  0.504587  0.164156  0.218940  1
  Ce  Ce6  1  0.493676  0.835675  0.718136  1
  Dy  Dy7  1  0.337686  0.000241  0.468203  1
  Ti  Ti8  1  0.671928  0.667637  0.499982  1
  Ti  Ti9  1  0.831416  0.168298  0.747865  1
  Ti  Ti10  1  0.168049  0.829359  0.249746  1
  Ti  Ti11  1  0.329002  0.328090  0.000930  1
  Ti  Ti12  1  0.662621  0.495912  0.873801  1
  Si  Si13  1  0.039268  0.712999  0.435364  1
  Si  Si14  1  0.962566  0.287687  0.935807  1
  Si  Si15  1  0.709656  0.038285  0.563493  1
  Si  Si16  1  0.211423  0.460903  0.186445  1
  Si  Si17  1  0.788646  0.540265  0.685060  1
  Si  Si18  1  0.460580  0.210569  0.814088  1
  Si  Si19  1  0.538301  0.787362  0.314991  1
  Si  Si20  1  0.288455  0.961937  0.064333  1
  Si  Si21  1  0.799185  0.876199  0.187645  1
  Si  Si22  1  0.300296  0.625569  0.562450  1
  Si  Si23  1  0.699802  0.375957  0.063465  1
  Si  Si24  1  0.622248  0.298931  0.436997  1
  Si  Si25  1  0.374877  0.700871  0.937726  1
  Si  Si26  1  0.125759  0.196897  0.314697  1
  Si  Si27  1  0.199557  0.125764  0.685290  1
  Si  Si28  1  0.876568  0.802676  0.811422  1
  Mo  Mo29  1  0.337666  0.505788  0.374740  1
  Mo  Mo30  1  0.836816  0.995169  0.376424  1
  Mo  Mo31  1  0.006619  0.161415  0.126296  1
  Mo  Mo32  1  0.995332  0.839436  0.622746  1
  Mo  Mo33  1  0.506058  0.337725  0.625453  1
  Mo  Mo34  1  0.163587  0.004869  0.874784  1
  Mo  Mo35  1  0.493078  0.663348  0.127465  1
