# generated using pymatgen
data_EuMgF6
_symmetry_space_group_name_H-M   'P 1'
_cell_length_a   5.94819658
_cell_length_b   5.94637507
_cell_length_c   5.96165428
_cell_angle_alpha   59.93519488
_cell_angle_beta   59.90489709
_cell_angle_gamma   60.15989687
_symmetry_Int_Tables_number   1
_chemical_formula_structural   EuMgF6
_chemical_formula_sum   'Eu1 Mg1 F6'
_cell_volume   149.10225850
_cell_formula_units_Z   1
loop_
 _symmetry_equiv_pos_site_id
 _symmetry_equiv_pos_as_xyz
  1  'x, y, z'
loop_
 _atom_site_type_symbol
 _atom_site_label
 _atom_site_symmetry_multiplicity
 _atom_site_fract_x
 _atom_site_fract_y
 _atom_site_fract_z
 _atom_site_occupancy
  Eu  Eu0  1  0.000000  0.000000  0.000000  1
  Mg  Mg1  1  0.500000  0.500000  0.500000  1
  F  F2  1  0.738741  0.261259  0.261259  1
  F  F3  1  0.739992  0.739992  0.260008  1
  F  F4  1  0.260011  0.739989  0.260011  1
  F  F5  1  0.261259  0.738741  0.738741  1
  F  F6  1  0.260008  0.260008  0.739992  1
  F  F7  1  0.739989  0.260011  0.739989  1
