# generated using pymatgen
data_Nd2HfMoF14
_symmetry_space_group_name_H-M   'P 1'
_cell_length_a   5.83486916
_cell_length_b   6.22669517
_cell_length_c   8.43289500
_cell_angle_alpha   101.99908072
_cell_angle_beta   89.98675343
_cell_angle_gamma   90.02980672
_symmetry_Int_Tables_number   1
_chemical_formula_structural   Nd2HfMoF14
_chemical_formula_sum   'Nd2 Hf1 Mo1 F14'
_cell_volume   299.68929661
_cell_formula_units_Z   1
loop_
 _symmetry_equiv_pos_site_id
 _symmetry_equiv_pos_as_xyz
  1  'x, y, z'
loop_
 _atom_site_type_symbol
 _atom_site_label
 _atom_site_symmetry_multiplicity
 _atom_site_fract_x
 _atom_site_fract_y
 _atom_site_fract_z
 _atom_site_occupancy
  Nd  Nd0  1  0.700498  0.659311  0.687993  1
  Nd  Nd1  1  0.200379  0.340546  0.311663  1
  Hf  Hf2  1  0.209709  0.190584  0.776851  1
  Mo  Mo3  1  0.708294  0.809489  0.223793  1
  F  F4  1  0.890545  0.453343  0.475861  1
  F  F5  1  0.389099  0.553920  0.524265  1
  F  F6  1  0.428126  0.940057  0.771946  1
  F  F7  1  0.924820  0.065206  0.230510  1
  F  F8  1  0.955187  0.967422  0.760503  1
  F  F9  1  0.453545  0.025911  0.241699  1
  F  F10  1  0.996070  0.446056  0.788977  1
  F  F11  1  0.493618  0.548950  0.207699  1
  F  F12  1  0.697313  0.754685  0.983628  1
  F  F13  1  0.200621  0.240337  0.018725  1
  F  F14  1  0.720070  0.865755  0.465026  1
  F  F15  1  0.214689  0.141595  0.534026  1
  F  F16  1  0.489540  0.382422  0.786096  1
  F  F17  1  0.980596  0.614413  0.210738  1
