# generated using pymatgen
data_Pr9Dy11Pb16
_symmetry_space_group_name_H-M   'P 1'
_cell_length_a   8.28126734
_cell_length_b   8.43246588
_cell_length_c   15.88497300
_cell_angle_alpha   90.02951603
_cell_angle_beta   90.16012709
_cell_angle_gamma   90.24118903
_symmetry_Int_Tables_number   1
_chemical_formula_structural   Pr9Dy11Pb16
_chemical_formula_sum   'Pr9 Dy11 Pb16'
_cell_volume   1109.25724643
_cell_formula_units_Z   1
loop_
 _symmetry_equiv_pos_site_id
 _symmetry_equiv_pos_as_xyz
  1  'x, y, z'
loop_
 _atom_site_type_symbol
 _atom_site_label
 _atom_site_symmetry_multiplicity
 _atom_site_fract_x
 _atom_site_fract_y
 _atom_site_fract_z
 _atom_site_occupancy
  Pr  Pr0  1  0.128372  0.338663  0.618844  1
  Pr  Pr1  1  0.471094  0.678764  0.598896  1
  Pr  Pr2  1  0.973234  0.822291  0.903278  1
  Pr  Pr3  1  0.526841  0.322624  0.097944  1
  Pr  Pr4  1  0.029142  0.176587  0.399458  1
  Pr  Pr5  1  0.526547  0.322820  0.400807  1
  Pr  Pr6  1  0.026369  0.177358  0.098108  1
  Pr  Pr7  1  0.474369  0.678277  0.902668  1
  Pr  Pr8  1  0.972516  0.822674  0.598806  1
  Dy  Dy9  1  0.630831  0.160037  0.622795  1
  Dy  Dy10  1  0.131452  0.340843  0.878763  1
  Dy  Dy11  1  0.368525  0.840917  0.122003  1
  Dy  Dy12  1  0.869421  0.658421  0.378395  1
  Dy  Dy13  1  0.371780  0.841074  0.375890  1
  Dy  Dy14  1  0.868977  0.659861  0.121956  1
  Dy  Dy15  1  0.630576  0.159198  0.879631  1
  Dy  Dy16  1  0.796510  0.495486  0.751062  1
  Dy  Dy17  1  0.297817  0.003967  0.750657  1
  Dy  Dy18  1  0.203010  0.505293  0.248920  1
  Dy  Dy19  1  0.703546  0.995881  0.250050  1
  Pb  Pb20  1  0.710113  0.962503  0.456589  1
  Pb  Pb21  1  0.208083  0.538342  0.043424  1
  Pb  Pb22  1  0.291345  0.038572  0.956986  1
  Pb  Pb23  1  0.782119  0.465326  0.543118  1
  Pb  Pb24  1  0.295439  0.031565  0.542205  1
  Pb  Pb25  1  0.792687  0.461651  0.956880  1
  Pb  Pb26  1  0.708173  0.960968  0.044176  1
  Pb  Pb27  1  0.210362  0.541785  0.452714  1
  Pb  Pb28  1  0.435553  0.369892  0.752231  1
  Pb  Pb29  1  0.931898  0.126381  0.752289  1
  Pb  Pb30  1  0.566553  0.629512  0.249305  1
  Pb  Pb31  1  0.065684  0.869755  0.249824  1
  Pb  Pb32  1  0.661467  0.851998  0.750834  1
  Pb  Pb33  1  0.161272  0.650426  0.751838  1
  Pb  Pb34  1  0.339208  0.148664  0.249248  1
  Pb  Pb35  1  0.839112  0.351627  0.249408  1
