# generated using pymatgen
data_AcSm(In2Rh)2
_symmetry_space_group_name_H-M   'P 1'
_cell_length_a   5.65333740
_cell_length_b   5.65333753
_cell_length_c   8.49086300
_cell_angle_alpha   90.00000000
_cell_angle_beta   90.00000000
_cell_angle_gamma   135.02783721
_symmetry_Int_Tables_number   1
_chemical_formula_structural   AcSm(In2Rh)2
_chemical_formula_sum   'Ac1 Sm1 In4 Rh2'
_cell_volume   191.79423617
_cell_formula_units_Z   1
loop_
 _symmetry_equiv_pos_site_id
 _symmetry_equiv_pos_as_xyz
  1  'x, y, z'
loop_
 _atom_site_type_symbol
 _atom_site_label
 _atom_site_symmetry_multiplicity
 _atom_site_fract_x
 _atom_site_fract_y
 _atom_site_fract_z
 _atom_site_occupancy
  Ac  Ac0  1  0.063495  0.936505  0.250000  1
  Sm  Sm1  1  0.934877  0.065123  0.750000  1
  In  In2  1  0.647757  0.352243  0.556677  1
  In  In3  1  0.351493  0.648507  0.460109  1
  In  In4  1  0.647757  0.352243  0.943323  1
  In  In5  1  0.351493  0.648507  0.039891  1
  Rh  Rh6  1  0.222323  0.777677  0.750000  1
  Rh  Rh7  1  0.780806  0.219194  0.250000  1
