# generated using pymatgen
data_Ti10C8N
_symmetry_space_group_name_H-M   'P 1'
_cell_length_a   8.09004996
_cell_length_b   8.08961613
_cell_length_c   10.13503258
_cell_angle_alpha   63.03188277
_cell_angle_beta   63.03486244
_cell_angle_gamma   44.57061151
_symmetry_Int_Tables_number   1
_chemical_formula_structural   Ti10C8N
_chemical_formula_sum   'Ti20 C16 N2'
_cell_volume   405.75770223
_cell_formula_units_Z   2
loop_
 _symmetry_equiv_pos_site_id
 _symmetry_equiv_pos_as_xyz
  1  'x, y, z'
loop_
 _atom_site_type_symbol
 _atom_site_label
 _atom_site_symmetry_multiplicity
 _atom_site_fract_x
 _atom_site_fract_y
 _atom_site_fract_z
 _atom_site_occupancy
  Ti  Ti0  1  0.224144  0.480530  0.945186  1
  Ti  Ti1  1  0.721621  0.964397  0.956733  1
  Ti  Ti2  1  0.562962  0.331780  0.648348  1
  Ti  Ti3  1  0.437038  0.668220  0.351652  1
  Ti  Ti4  1  0.278379  0.035603  0.043267  1
  Ti  Ti5  1  0.082375  0.812908  0.643870  1
  Ti  Ti6  1  0.122820  0.372009  0.750398  1
  Ti  Ti7  1  0.917625  0.187092  0.356130  1
  Ti  Ti8  1  0.966299  0.720472  0.456652  1
  Ti  Ti9  1  0.775856  0.519470  0.054814  1
  Ti  Ti10  1  0.628935  0.877060  0.749373  1
  Ti  Ti11  1  0.812378  0.082162  0.143878  1
  Ti  Ti12  1  0.479847  0.222746  0.446262  1
  Ti  Ti13  1  0.668379  0.437787  0.851515  1
  Ti  Ti14  1  0.520153  0.777254  0.553738  1
  Ti  Ti15  1  0.331621  0.562213  0.148485  1
  Ti  Ti16  1  0.371065  0.122940  0.250627  1
  Ti  Ti17  1  0.187622  0.917838  0.856122  1
  Ti  Ti18  1  0.033701  0.279528  0.543348  1
  Ti  Ti19  1  0.877180  0.627991  0.249602  1
  C  C20  1  0.575160  0.825876  0.147968  1
  C  C21  1  0.777247  0.024869  0.550375  1
  C  C22  1  0.424840  0.174124  0.852032  1
  C  C23  1  0.625824  0.375367  0.249258  1
  C  C24  1  0.274074  0.528543  0.550279  1
  C  C25  1  0.472927  0.725179  0.951020  1
  C  C26  1  0.322073  0.075295  0.651012  1
  C  C27  1  0.173632  0.425534  0.350852  1
  C  C28  1  0.974918  0.224069  0.950579  1
  C  C29  1  0.826368  0.574466  0.649148  1
  C  C30  1  0.025082  0.775931  0.049421  1
  C  C31  1  0.677927  0.924705  0.348988  1
  C  C32  1  0.725926  0.471457  0.449721  1
  C  C33  1  0.527073  0.274821  0.048980  1
  C  C34  1  0.374176  0.624633  0.750742  1
  C  C35  1  0.222753  0.975131  0.449625  1
  N  N36  1  0.074858  0.321613  0.149683  1
  N  N37  1  0.925142  0.678387  0.850317  1
