# generated using pymatgen
data_Sc2Nb2InC3
_symmetry_space_group_name_H-M   'P 1'
_cell_length_a   3.23067000
_cell_length_b   3.23066925
_cell_length_c   24.70381700
_cell_angle_alpha   90.00000000
_cell_angle_beta   90.00000000
_cell_angle_gamma   119.99998722
_symmetry_Int_Tables_number   1
_chemical_formula_structural   Sc2Nb2InC3
_chemical_formula_sum   'Sc4 Nb4 In2 C6'
_cell_volume   223.29543559
_cell_formula_units_Z   2
loop_
 _symmetry_equiv_pos_site_id
 _symmetry_equiv_pos_as_xyz
  1  'x, y, z'
loop_
 _atom_site_type_symbol
 _atom_site_label
 _atom_site_symmetry_multiplicity
 _atom_site_fract_x
 _atom_site_fract_y
 _atom_site_fract_z
 _atom_site_occupancy
  Sc  Sc0  1  0.000000  0.000000  0.349370  1
  Sc  Sc1  1  0.000000  0.000000  0.650630  1
  Sc  Sc2  1  0.000000  0.000000  0.849370  1
  Sc  Sc3  1  0.000000  0.000000  0.150630  1
  Nb  Nb4  1  0.333333  0.666667  0.450641  1
  Nb  Nb5  1  0.666667  0.333333  0.549359  1
  Nb  Nb6  1  0.666667  0.333333  0.950641  1
  Nb  Nb7  1  0.333333  0.666667  0.049359  1
  In  In8  1  0.333333  0.666667  0.250000  1
  In  In9  1  0.666667  0.333333  0.750000  1
  C  C10  1  0.000000  0.000000  0.500000  1
  C  C11  1  0.000000  0.000000  0.000000  1
  C  C12  1  0.666667  0.333333  0.397369  1
  C  C13  1  0.333333  0.666667  0.602631  1
  C  C14  1  0.333333  0.666667  0.897369  1
  C  C15  1  0.666667  0.333333  0.102631  1
