# generated using pymatgen
data_Pr2Cr3Tc14C3
_symmetry_space_group_name_H-M   'P 1'
_cell_length_a   6.94564109
_cell_length_b   6.94564209
_cell_length_c   6.94564165
_cell_angle_alpha   82.85447291
_cell_angle_beta   82.85446892
_cell_angle_gamma   82.85447482
_symmetry_Int_Tables_number   1
_chemical_formula_structural   Pr2Cr3Tc14C3
_chemical_formula_sum   'Pr2 Cr3 Tc14 C3'
_cell_volume   327.86178418
_cell_formula_units_Z   1
loop_
 _symmetry_equiv_pos_site_id
 _symmetry_equiv_pos_as_xyz
  1  'x, y, z'
loop_
 _atom_site_type_symbol
 _atom_site_label
 _atom_site_symmetry_multiplicity
 _atom_site_fract_x
 _atom_site_fract_y
 _atom_site_fract_z
 _atom_site_occupancy
  Pr  Pr0  1  0.648059  0.648059  0.648059  1
  Pr  Pr1  1  0.351941  0.351941  0.351941  1
  Cr  Cr2  1  0.000000  0.000000  0.500000  1
  Cr  Cr3  1  0.500000  0.000000  0.000000  1
  Cr  Cr4  1  0.000000  0.500000  0.000000  1
  Tc  Tc5  1  0.722162  0.277838  0.000000  1
  Tc  Tc6  1  0.000000  0.722162  0.277838  1
  Tc  Tc7  1  0.277838  0.000000  0.722162  1
  Tc  Tc8  1  0.000000  0.277838  0.722162  1
  Tc  Tc9  1  0.722162  0.000000  0.277838  1
  Tc  Tc10  1  0.277838  0.722162  0.000000  1
  Tc  Tc11  1  0.342743  0.342743  0.870290  1
  Tc  Tc12  1  0.870290  0.342743  0.342743  1
  Tc  Tc13  1  0.342743  0.870290  0.342743  1
  Tc  Tc14  1  0.657257  0.657257  0.129710  1
  Tc  Tc15  1  0.129710  0.657257  0.657257  1
  Tc  Tc16  1  0.657257  0.129710  0.657257  1
  Tc  Tc17  1  0.902088  0.902088  0.902088  1
  Tc  Tc18  1  0.097912  0.097912  0.097912  1
  C  C19  1  0.500000  0.500000  0.000000  1
  C  C20  1  0.000000  0.500000  0.500000  1
  C  C21  1  0.500000  0.000000  0.500000  1
