# generated using pymatgen
data_PrPuO5
_symmetry_space_group_name_H-M   'P 1'
_cell_length_a   12.54654300
_cell_length_b   5.65589291
_cell_length_c   7.56946276
_cell_angle_alpha   64.30605547
_cell_angle_beta   90.00000000
_cell_angle_gamma   90.00000000
_symmetry_Int_Tables_number   1
_chemical_formula_structural   PrPuO5
_chemical_formula_sum   'Pr4 Pu4 O20'
_cell_volume   484.03226837
_cell_formula_units_Z   4
loop_
 _symmetry_equiv_pos_site_id
 _symmetry_equiv_pos_as_xyz
  1  'x, y, z'
loop_
 _atom_site_type_symbol
 _atom_site_label
 _atom_site_symmetry_multiplicity
 _atom_site_fract_x
 _atom_site_fract_y
 _atom_site_fract_z
 _atom_site_occupancy
  Pr  Pr0  1  0.071279  0.690863  0.664302  1
  Pr  Pr1  1  0.928721  0.309137  0.335698  1
  Pr  Pr2  1  0.571279  0.309137  0.835698  1
  Pr  Pr3  1  0.428721  0.690863  0.164302  1
  Pu  Pu4  1  0.390377  0.984653  0.643127  1
  Pu  Pu5  1  0.609623  0.015347  0.356873  1
  Pu  Pu6  1  0.890377  0.015347  0.856873  1
  Pu  Pu7  1  0.109623  0.984653  0.143127  1
  O  O8  1  0.445501  0.655302  0.839791  1
  O  O9  1  0.554499  0.344698  0.160209  1
  O  O10  1  0.945501  0.344698  0.660209  1
  O  O11  1  0.054499  0.655302  0.339791  1
  O  O12  1  0.905680  0.907017  0.623881  1
  O  O13  1  0.094320  0.092983  0.376119  1
  O  O14  1  0.405680  0.092983  0.876119  1
  O  O15  1  0.594320  0.907017  0.123881  1
  O  O16  1  0.459088  0.860262  0.412051  1
  O  O17  1  0.540912  0.139738  0.587949  1
  O  O18  1  0.959088  0.139738  0.087949  1
  O  O19  1  0.040912  0.860262  0.912051  1
  O  O20  1  0.250380  0.839798  0.698760  1
  O  O21  1  0.749620  0.160202  0.301240  1
  O  O22  1  0.750380  0.160202  0.801240  1
  O  O23  1  0.249620  0.839798  0.198760  1
  O  O24  1  0.656263  0.691141  0.553301  1
  O  O25  1  0.343737  0.308859  0.446699  1
  O  O26  1  0.156263  0.308859  0.946699  1
  O  O27  1  0.843737  0.691141  0.053301  1
