# generated using pymatgen
data_Tm12AlIn(CoNi)2
_symmetry_space_group_name_H-M   'P 1'
_cell_length_a   8.23684274
_cell_length_b   8.23684098
_cell_length_c   8.23684246
_cell_angle_alpha   112.80104513
_cell_angle_beta   109.83803480
_cell_angle_gamma   105.84912607
_symmetry_Int_Tables_number   1
_chemical_formula_structural   Tm12AlIn(CoNi)2
_chemical_formula_sum   'Tm12 Al1 In1 Co2 Ni2'
_cell_volume   428.60397742
_cell_formula_units_Z   1
loop_
 _symmetry_equiv_pos_site_id
 _symmetry_equiv_pos_as_xyz
  1  'x, y, z'
loop_
 _atom_site_type_symbol
 _atom_site_label
 _atom_site_symmetry_multiplicity
 _atom_site_fract_x
 _atom_site_fract_y
 _atom_site_fract_z
 _atom_site_occupancy
  Tm  Tm0  1  0.181903  0.280440  0.462344  1
  Tm  Tm1  1  0.818097  0.719560  0.537656  1
  Tm  Tm2  1  0.181903  0.719560  0.901464  1
  Tm  Tm3  1  0.818097  0.280440  0.098536  1
  Tm  Tm4  1  0.328135  0.639507  0.311371  1
  Tm  Tm5  1  0.671865  0.360493  0.688629  1
  Tm  Tm6  1  0.328135  0.016766  0.688629  1
  Tm  Tm7  1  0.671865  0.983234  0.311371  1
  Tm  Tm8  1  0.433545  0.234744  0.198801  1
  Tm  Tm9  1  0.566455  0.765256  0.801199  1
  Tm  Tm10  1  0.035942  0.234744  0.801199  1
  Tm  Tm11  1  0.964058  0.765256  0.198801  1
  Al  Al12  1  0.000000  0.000000  0.000000  1
  In  In13  1  0.500000  0.500000  0.000000  1
  Co  Co14  1  0.333475  0.000000  0.333475  1
  Co  Co15  1  0.666525  0.000000  0.666525  1
  Ni  Ni16  1  0.119589  0.619589  0.500000  1
  Ni  Ni17  1  0.880411  0.380411  0.500000  1
