# generated using pymatgen
data_Ta8Tl8O23F
_symmetry_space_group_name_H-M   'P 1'
_cell_length_a   7.60943357
_cell_length_b   7.60943363
_cell_length_c   13.17109600
_cell_angle_alpha   73.04655941
_cell_angle_beta   73.04655928
_cell_angle_gamma   60.10842145
_symmetry_Int_Tables_number   1
_chemical_formula_structural   Ta8Tl8O23F
_chemical_formula_sum   'Ta8 Tl8 O23 F1'
_cell_volume   622.54611147
_cell_formula_units_Z   1
loop_
 _symmetry_equiv_pos_site_id
 _symmetry_equiv_pos_as_xyz
  1  'x, y, z'
loop_
 _atom_site_type_symbol
 _atom_site_label
 _atom_site_symmetry_multiplicity
 _atom_site_fract_x
 _atom_site_fract_y
 _atom_site_fract_z
 _atom_site_occupancy
  Ta  Ta0  1  0.502368  0.002229  0.495974  1
  Ta  Ta1  1  0.499749  0.499619  0.500251  1
  Ta  Ta2  1  0.000007  0.999787  0.999452  1
  Ta  Ta3  1  0.999602  0.999484  0.500230  1
  Ta  Ta4  1  0.263771  0.760233  0.743040  1
  Ta  Ta5  1  0.992739  0.492844  0.011946  1
  Ta  Ta6  1  0.744219  0.248622  0.251924  1
  Ta  Ta7  1  0.499866  0.499897  0.999437  1
  Tl  Tl8  1  0.777249  0.708120  0.741217  1
  Tl  Tl9  1  0.000222  0.499164  0.500141  1
  Tl  Tl10  1  0.760800  0.238136  0.749932  1
  Tl  Tl11  1  0.704135  0.778491  0.245405  1
  Tl  Tl12  1  0.500384  0.999931  0.998947  1
  Tl  Tl13  1  0.295292  0.222863  0.753526  1
  Tl  Tl14  1  0.238540  0.760734  0.250109  1
  Tl  Tl15  1  0.221829  0.291524  0.258800  1
  O  O16  1  0.779226  0.911713  0.528021  1
  O  O17  1  0.411821  0.277573  0.530519  1
  O  O18  1  0.461017  0.595228  0.844930  1
  O  O19  1  0.720839  0.220622  0.970134  1
  O  O20  1  0.589591  0.097177  0.343369  1
  O  O21  1  0.276361  0.413097  0.029840  1
  O  O22  1  0.403086  0.538297  0.655401  1
  O  O23  1  0.099034  0.962143  0.843824  1
  O  O24  1  0.778919  0.278529  0.530104  1
  O  O25  1  0.913802  0.777990  0.026462  1
  O  O26  1  0.037899  0.900299  0.656527  1
  O  O27  1  0.086454  0.223444  0.971442  1
  O  O28  1  0.961751  0.096889  0.345479  1
  O  O29  1  0.220322  0.720785  0.471282  1
  O  O30  1  0.902692  0.037938  0.154509  1
  O  O31  1  0.593399  0.461156  0.346387  1
  O  O32  1  0.723939  0.587510  0.969073  1
  O  O33  1  0.279295  0.779762  0.028226  1
  O  O34  1  0.413528  0.903970  0.654985  1
  O  O35  1  0.538566  0.405611  0.153639  1
  O  O36  1  0.587851  0.721962  0.469725  1
  O  O37  1  0.220744  0.087160  0.472935  1
  O  O38  1  0.901161  0.408849  0.158734  1
  F  F39  1  0.097933  0.590620  0.844124  1
