# generated using pymatgen
data_SmLu2Hf3(SnRh)6
_symmetry_space_group_name_H-M   'P 1'
_cell_length_a   7.46404152
_cell_length_b   7.46813870
_cell_length_c   7.49341900
_cell_angle_alpha   90.00000000
_cell_angle_beta   90.00000000
_cell_angle_gamma   120.00820370
_symmetry_Int_Tables_number   1
_chemical_formula_structural   SmLu2Hf3(SnRh)6
_chemical_formula_sum   'Sm1 Lu2 Hf3 Sn6 Rh6'
_cell_volume   361.71053970
_cell_formula_units_Z   1
loop_
 _symmetry_equiv_pos_site_id
 _symmetry_equiv_pos_as_xyz
  1  'x, y, z'
loop_
 _atom_site_type_symbol
 _atom_site_label
 _atom_site_symmetry_multiplicity
 _atom_site_fract_x
 _atom_site_fract_y
 _atom_site_fract_z
 _atom_site_occupancy
  Sm  Sm0  1  0.408308  0.999914  0.250000  1
  Lu  Lu1  1  0.999851  0.404462  0.250000  1
  Lu  Lu2  1  0.595194  0.595664  0.250000  1
  Hf  Hf3  1  0.001758  0.394835  0.750000  1
  Hf  Hf4  1  0.606612  0.605335  0.750000  1
  Hf  Hf5  1  0.392152  0.999829  0.750000  1
  Sn  Sn6  1  0.266728  0.268050  0.504168  1
  Sn  Sn7  1  0.998192  0.731678  0.504179  1
  Sn  Sn8  1  0.998192  0.731678  0.995821  1
  Sn  Sn9  1  0.734266  0.000182  0.509872  1
  Sn  Sn10  1  0.734266  0.000182  0.990128  1
  Sn  Sn11  1  0.266728  0.268050  0.995832  1
  Rh  Rh12  1  0.332726  0.664713  0.537655  1
  Rh  Rh13  1  0.667988  0.335338  0.538159  1
  Rh  Rh14  1  0.332726  0.664713  0.962345  1
  Rh  Rh15  1  0.002605  0.999974  0.750000  1
  Rh  Rh16  1  0.993720  0.000067  0.250000  1
  Rh  Rh17  1  0.667988  0.335338  0.961841  1
