# generated using pymatgen
data_ThCu2Pd2Au
_symmetry_space_group_name_H-M   'P 1'
_cell_length_a   5.14327358
_cell_length_b   5.24740663
_cell_length_c   5.24740629
_cell_angle_alpha   63.26448074
_cell_angle_beta   60.65428455
_cell_angle_gamma   60.65430197
_symmetry_Int_Tables_number   1
_chemical_formula_structural   ThCu2Pd2Au
_chemical_formula_sum   'Th1 Cu2 Pd2 Au1'
_cell_volume   103.42820402
_cell_formula_units_Z   1
loop_
 _symmetry_equiv_pos_site_id
 _symmetry_equiv_pos_as_xyz
  1  'x, y, z'
loop_
 _atom_site_type_symbol
 _atom_site_label
 _atom_site_symmetry_multiplicity
 _atom_site_fract_x
 _atom_site_fract_y
 _atom_site_fract_z
 _atom_site_occupancy
  Th  Th0  1  0.998341  0.001659  0.001659  1
  Cu  Cu1  1  0.128910  0.619308  0.619308  1
  Cu  Cu2  1  0.632476  0.619308  0.619308  1
  Pd  Pd3  1  0.625930  0.623908  0.124232  1
  Pd  Pd4  1  0.625930  0.124232  0.623908  1
  Au  Au5  1  0.238415  0.261585  0.261585  1
