# generated using pymatgen
data_Ho3AgSn3Ir2
_symmetry_space_group_name_H-M   'P 1'
_cell_length_a   7.67712700
_cell_length_b   7.67712624
_cell_length_c   3.86778000
_cell_angle_alpha   90.00000000
_cell_angle_beta   90.00000000
_cell_angle_gamma   119.99999781
_symmetry_Int_Tables_number   1
_chemical_formula_structural   Ho3AgSn3Ir2
_chemical_formula_sum   'Ho3 Ag1 Sn3 Ir2'
_cell_volume   197.41939281
_cell_formula_units_Z   1
loop_
 _symmetry_equiv_pos_site_id
 _symmetry_equiv_pos_as_xyz
  1  'x, y, z'
loop_
 _atom_site_type_symbol
 _atom_site_label
 _atom_site_symmetry_multiplicity
 _atom_site_fract_x
 _atom_site_fract_y
 _atom_site_fract_z
 _atom_site_occupancy
  Ho  Ho0  1  0.385609  0.409844  0.500000  1
  Ho  Ho1  1  0.590156  0.975765  0.500000  1
  Ho  Ho2  1  0.024235  0.614391  0.500000  1
  Ag  Ag3  1  0.666667  0.333333  0.000000  1
  Sn  Sn4  1  0.742960  0.738970  0.000000  1
  Sn  Sn5  1  0.261030  0.003990  0.000000  1
  Sn  Sn6  1  0.996010  0.257040  0.000000  1
  Ir  Ir7  1  0.333333  0.666667  0.000000  1
  Ir  Ir8  1  0.000000  0.000000  0.500000  1
