# generated using pymatgen
data_EuHo(AuO3)2
_symmetry_space_group_name_H-M   'P 1'
_cell_length_a   3.82247000
_cell_length_b   5.59024100
_cell_length_c   12.99595700
_cell_angle_alpha   90.00000000
_cell_angle_beta   90.00000000
_cell_angle_gamma   90.00000000
_symmetry_Int_Tables_number   1
_chemical_formula_structural   EuHo(AuO3)2
_chemical_formula_sum   'Eu2 Ho2 Au4 O12'
_cell_volume   277.70447774
_cell_formula_units_Z   2
loop_
 _symmetry_equiv_pos_site_id
 _symmetry_equiv_pos_as_xyz
  1  'x, y, z'
loop_
 _atom_site_type_symbol
 _atom_site_label
 _atom_site_symmetry_multiplicity
 _atom_site_fract_x
 _atom_site_fract_y
 _atom_site_fract_z
 _atom_site_occupancy
  Eu  Eu0  1  0.741909  0.250000  0.924089  1
  Eu  Eu1  1  0.741909  0.750000  0.575911  1
  Ho  Ho2  1  0.258765  0.750000  0.079225  1
  Ho  Ho3  1  0.258765  0.250000  0.420775  1
  Au  Au4  1  0.063260  0.750000  0.831289  1
  Au  Au5  1  0.063260  0.250000  0.668711  1
  Au  Au6  1  0.937460  0.250000  0.170402  1
  Au  Au7  1  0.937460  0.750000  0.329598  1
  O  O8  1  0.205465  0.500000  0.250000  1
  O  O9  1  0.800689  0.000000  0.750000  1
  O  O10  1  0.800689  0.500000  0.750000  1
  O  O11  1  0.205465  0.000000  0.250000  1
  O  O12  1  0.742343  0.507283  0.079111  1
  O  O13  1  0.742343  0.492717  0.420889  1
  O  O14  1  0.253881  0.993498  0.929166  1
  O  O15  1  0.253881  0.006502  0.570834  1
  O  O16  1  0.742343  0.007283  0.420889  1
  O  O17  1  0.742343  0.992717  0.079111  1
  O  O18  1  0.253881  0.493498  0.570834  1
  O  O19  1  0.253881  0.506502  0.929166  1
