# generated using pymatgen
data_Y5(ZnB4)2
_symmetry_space_group_name_H-M   'P 1'
_cell_length_a   7.21729100
_cell_length_b   7.21729100
_cell_length_c   8.41033300
_cell_angle_alpha   90.00000000
_cell_angle_beta   90.00000000
_cell_angle_gamma   90.00000000
_symmetry_Int_Tables_number   1
_chemical_formula_structural   Y5(ZnB4)2
_chemical_formula_sum   'Y10 Zn4 B16'
_cell_volume   438.08826941
_cell_formula_units_Z   2
loop_
 _symmetry_equiv_pos_site_id
 _symmetry_equiv_pos_as_xyz
  1  'x, y, z'
loop_
 _atom_site_type_symbol
 _atom_site_label
 _atom_site_symmetry_multiplicity
 _atom_site_fract_x
 _atom_site_fract_y
 _atom_site_fract_z
 _atom_site_occupancy
  Y  Y0  1  0.681984  0.181984  0.212810  1
  Y  Y1  1  0.318016  0.818016  0.787190  1
  Y  Y2  1  0.318016  0.818016  0.212810  1
  Y  Y3  1  0.818016  0.681984  0.212810  1
  Y  Y4  1  0.818016  0.681984  0.787190  1
  Y  Y5  1  0.681984  0.181984  0.787190  1
  Y  Y6  1  0.181984  0.318016  0.787190  1
  Y  Y7  1  0.181984  0.318016  0.212810  1
  Y  Y8  1  0.000000  0.000000  0.500000  1
  Y  Y9  1  0.500000  0.500000  0.500000  1
  Zn  Zn10  1  0.117622  0.617622  0.500000  1
  Zn  Zn11  1  0.882378  0.382378  0.500000  1
  Zn  Zn12  1  0.382378  0.117622  0.500000  1
  Zn  Zn13  1  0.617622  0.882378  0.500000  1
  B  B14  1  0.171786  0.040273  0.000000  1
  B  B15  1  0.828214  0.959727  0.000000  1
  B  B16  1  0.959727  0.171786  0.000000  1
  B  B17  1  0.328214  0.540273  0.000000  1
  B  B18  1  0.040273  0.828214  0.000000  1
  B  B19  1  0.671786  0.459727  0.000000  1
  B  B20  1  0.540273  0.671786  0.000000  1
  B  B21  1  0.459727  0.328214  0.000000  1
  B  B22  1  0.090645  0.590645  0.000000  1
  B  B23  1  0.909355  0.409355  0.000000  1
  B  B24  1  0.409355  0.090645  0.000000  1
  B  B25  1  0.590645  0.909355  0.000000  1
  B  B26  1  0.000000  0.000000  0.157453  1
  B  B27  1  0.000000  0.000000  0.842547  1
  B  B28  1  0.500000  0.500000  0.842547  1
  B  B29  1  0.500000  0.500000  0.157453  1
