# generated using pymatgen
data_Na2Al5Ag6
_symmetry_space_group_name_H-M   'P 1'
_cell_length_a   8.99145800
_cell_length_b   8.99145800
_cell_length_c   8.99145800
_cell_angle_alpha   90.00000000
_cell_angle_beta   90.00000000
_cell_angle_gamma   90.00000000
_symmetry_Int_Tables_number   1
_chemical_formula_structural   Na2Al5Ag6
_chemical_formula_sum   'Na6 Al15 Ag18'
_cell_volume   726.92626345
_cell_formula_units_Z   3
loop_
 _symmetry_equiv_pos_site_id
 _symmetry_equiv_pos_as_xyz
  1  'x, y, z'
loop_
 _atom_site_type_symbol
 _atom_site_label
 _atom_site_symmetry_multiplicity
 _atom_site_fract_x
 _atom_site_fract_y
 _atom_site_fract_z
 _atom_site_occupancy
  Na  Na0  1  0.682647  0.000000  0.500000  1
  Na  Na1  1  0.500000  0.317353  0.000000  1
  Na  Na2  1  0.000000  0.500000  0.317353  1
  Na  Na3  1  0.500000  0.682647  0.000000  1
  Na  Na4  1  0.000000  0.500000  0.682647  1
  Na  Na5  1  0.317353  0.000000  0.500000  1
  Al  Al6  1  0.500000  0.000000  0.838236  1
  Al  Al7  1  0.217782  0.217782  0.217782  1
  Al  Al8  1  0.782218  0.782218  0.217782  1
  Al  Al9  1  0.217782  0.782218  0.782218  1
  Al  Al10  1  0.838236  0.500000  0.000000  1
  Al  Al11  1  0.782218  0.782218  0.782218  1
  Al  Al12  1  0.217782  0.217782  0.782218  1
  Al  Al13  1  0.782218  0.217782  0.217782  1
  Al  Al14  1  0.217782  0.782218  0.217782  1
  Al  Al15  1  0.000000  0.838236  0.500000  1
  Al  Al16  1  0.500000  0.000000  0.161764  1
  Al  Al17  1  0.000000  0.161764  0.500000  1
  Al  Al18  1  0.161764  0.500000  0.000000  1
  Al  Al19  1  0.500000  0.500000  0.500000  1
  Al  Al20  1  0.782218  0.217782  0.782218  1
  Ag  Ag21  1  0.500000  0.238827  0.326134  1
  Ag  Ag22  1  0.326134  0.500000  0.238827  1
  Ag  Ag23  1  0.238827  0.326134  0.500000  1
  Ag  Ag24  1  0.761173  0.673866  0.500000  1
  Ag  Ag25  1  0.326134  0.500000  0.761173  1
  Ag  Ag26  1  0.761173  0.326134  0.500000  1
  Ag  Ag27  1  0.673866  0.500000  0.238827  1
  Ag  Ag28  1  0.673866  0.500000  0.761173  1
  Ag  Ag29  1  0.238827  0.673866  0.500000  1
  Ag  Ag30  1  0.500000  0.761173  0.673866  1
  Ag  Ag31  1  0.500000  0.238827  0.673866  1
  Ag  Ag32  1  0.500000  0.761173  0.326134  1
  Ag  Ag33  1  0.761462  0.000000  0.000000  1
  Ag  Ag34  1  0.000000  0.761462  0.000000  1
  Ag  Ag35  1  0.000000  0.000000  0.238538  1
  Ag  Ag36  1  0.000000  0.238538  0.000000  1
  Ag  Ag37  1  0.238538  0.000000  0.000000  1
  Ag  Ag38  1  0.000000  0.000000  0.761462  1
