# generated using pymatgen
data_ErTmB6MoW
_symmetry_space_group_name_H-M   'P 1'
_cell_length_a   3.15444500
_cell_length_b   5.41417901
_cell_length_c   6.79630855
_cell_angle_alpha   78.24757929
_cell_angle_beta   90.00000000
_cell_angle_gamma   90.00000000
_symmetry_Int_Tables_number   1
_chemical_formula_structural   ErTmB6MoW
_chemical_formula_sum   'Er1 Tm1 B6 Mo1 W1'
_cell_volume   113.63907886
_cell_formula_units_Z   1
loop_
 _symmetry_equiv_pos_site_id
 _symmetry_equiv_pos_as_xyz
  1  'x, y, z'
loop_
 _atom_site_type_symbol
 _atom_site_label
 _atom_site_symmetry_multiplicity
 _atom_site_fract_x
 _atom_site_fract_y
 _atom_site_fract_z
 _atom_site_occupancy
  Er  Er0  1  0.750000  0.824012  0.708385  1
  Tm  Tm1  1  0.250000  0.177317  0.289899  1
  B  B2  1  0.250000  0.582120  0.475498  1
  B  B3  1  0.750000  0.415211  0.523092  1
  B  B4  1  0.250000  0.587562  0.995715  1
  B  B5  1  0.750000  0.412668  0.005599  1
  B  B6  1  0.250000  0.916955  0.993121  1
  B  B7  1  0.750000  0.083545  0.008237  1
  Mo  Mo8  1  0.250000  0.311169  0.779362  1
  W  W9  1  0.750000  0.689442  0.221092  1
