# generated using pymatgen
data_Ta6Zn5GaCo12
_symmetry_space_group_name_H-M   'P 1'
_cell_length_a   4.19192401
_cell_length_b   5.93903700
_cell_length_c   12.56536802
_cell_angle_alpha   89.99998068
_cell_angle_beta   89.99440741
_cell_angle_gamma   89.99888006
_symmetry_Int_Tables_number   1
_chemical_formula_structural   Ta6Zn5GaCo12
_chemical_formula_sum   'Ta6 Zn5 Ga1 Co12'
_cell_volume   312.82729713
_cell_formula_units_Z   1
loop_
 _symmetry_equiv_pos_site_id
 _symmetry_equiv_pos_as_xyz
  1  'x, y, z'
loop_
 _atom_site_type_symbol
 _atom_site_label
 _atom_site_symmetry_multiplicity
 _atom_site_fract_x
 _atom_site_fract_y
 _atom_site_fract_z
 _atom_site_occupancy
  Ta  Ta0  1  0.999999  0.999832  0.002064  1
  Ta  Ta1  1  0.500173  0.500089  0.167026  1
  Ta  Ta2  1  0.000178  0.999994  0.333361  1
  Ta  Ta3  1  0.499999  0.500043  0.499711  1
  Ta  Ta4  1  0.999795  0.999890  0.664568  1
  Ta  Ta5  1  0.499871  0.500157  0.833271  1
  Zn  Zn6  1  0.000002  0.500078  0.999733  1
  Zn  Zn7  1  0.500179  0.999976  0.166889  1
  Zn  Zn8  1  0.000198  0.499975  0.333377  1
  Zn  Zn9  1  0.500004  0.999980  0.499825  1
  Zn  Zn10  1  0.999811  0.500098  0.666933  1
  Ga  Ga11  1  0.499810  0.999825  0.833223  1
  Co  Co12  1  0.499980  0.248060  0.000156  1
  Co  Co13  1  0.500024  0.751875  0.000149  1
  Co  Co14  1  0.000225  0.251358  0.167645  1
  Co  Co15  1  0.000166  0.748653  0.167630  1
  Co  Co16  1  0.500195  0.249089  0.333374  1
  Co  Co17  1  0.500205  0.750903  0.333372  1
  Co  Co18  1  0.000051  0.251395  0.499118  1
  Co  Co19  1  0.999945  0.748591  0.499100  1
  Co  Co20  1  0.499780  0.248134  0.666455  1
  Co  Co21  1  0.499747  0.751916  0.666467  1
  Co  Co22  1  0.999864  0.248128  0.833283  1
  Co  Co23  1  0.999799  0.751972  0.833271  1
