# generated using pymatgen
data_La3Pr(MoO6)2
_symmetry_space_group_name_H-M   'P 1'
_cell_length_a   10.34847437
_cell_length_b   10.34847542
_cell_length_c   5.65851105
_cell_angle_alpha   75.33649051
_cell_angle_beta   75.33648341
_cell_angle_gamma   68.78155855
_symmetry_Int_Tables_number   1
_chemical_formula_structural   La3Pr(MoO6)2
_chemical_formula_sum   'La6 Pr2 Mo4 O24'
_cell_volume   537.65875758
_cell_formula_units_Z   2
loop_
 _symmetry_equiv_pos_site_id
 _symmetry_equiv_pos_as_xyz
  1  'x, y, z'
loop_
 _atom_site_type_symbol
 _atom_site_label
 _atom_site_symmetry_multiplicity
 _atom_site_fract_x
 _atom_site_fract_y
 _atom_site_fract_z
 _atom_site_occupancy
  La  La0  1  0.111988  0.888012  0.750000  1
  La  La1  1  0.888012  0.111988  0.250000  1
  La  La2  1  0.711303  0.943872  0.883929  1
  La  La3  1  0.288697  0.056128  0.116071  1
  La  La4  1  0.056128  0.288697  0.616071  1
  La  La5  1  0.943872  0.711303  0.383929  1
  Pr  Pr6  1  0.631498  0.368502  0.750000  1
  Pr  Pr7  1  0.368502  0.631498  0.250000  1
  Mo  Mo8  1  0.507480  0.796960  0.559029  1
  Mo  Mo9  1  0.492520  0.203040  0.440971  1
  Mo  Mo10  1  0.203040  0.492520  0.940971  1
  Mo  Mo11  1  0.796960  0.507480  0.059029  1
  O  O12  1  0.684566  0.164876  0.585843  1
  O  O13  1  0.315434  0.835124  0.414157  1
  O  O14  1  0.835124  0.315434  0.914157  1
  O  O15  1  0.164876  0.684566  0.085843  1
  O  O16  1  0.386332  0.826286  0.857527  1
  O  O17  1  0.613668  0.173714  0.142473  1
  O  O18  1  0.173714  0.613668  0.642473  1
  O  O19  1  0.826286  0.386332  0.357527  1
  O  O20  1  0.672851  0.786905  0.635341  1
  O  O21  1  0.327149  0.213095  0.364659  1
  O  O22  1  0.213095  0.327149  0.864659  1
  O  O23  1  0.786905  0.672851  0.135341  1
  O  O24  1  0.474494  0.071802  0.729460  1
  O  O25  1  0.525506  0.928198  0.270540  1
  O  O26  1  0.928198  0.525506  0.770540  1
  O  O27  1  0.071802  0.474494  0.229460  1
  O  O28  1  0.544793  0.616615  0.519742  1
  O  O29  1  0.455207  0.383385  0.480258  1
  O  O30  1  0.383385  0.455207  0.980258  1
  O  O31  1  0.616615  0.544793  0.019742  1
  O  O32  1  0.892347  0.921832  0.077670  1
  O  O33  1  0.107653  0.078168  0.922330  1
  O  O34  1  0.078168  0.107653  0.422330  1
  O  O35  1  0.921832  0.892347  0.577670  1
