# generated using pymatgen
data_TmHf2Nb3(B2Ru5)2
_symmetry_space_group_name_H-M   'P 1'
_cell_length_a   9.50747714
_cell_length_b   9.50747781
_cell_length_c   3.10546100
_cell_angle_alpha   90.00000000
_cell_angle_beta   90.00000000
_cell_angle_gamma   89.78569730
_symmetry_Int_Tables_number   1
_chemical_formula_structural   TmHf2Nb3(B2Ru5)2
_chemical_formula_sum   'Tm1 Hf2 Nb3 B4 Ru10'
_cell_volume   280.70726439
_cell_formula_units_Z   1
loop_
 _symmetry_equiv_pos_site_id
 _symmetry_equiv_pos_as_xyz
  1  'x, y, z'
loop_
 _atom_site_type_symbol
 _atom_site_label
 _atom_site_symmetry_multiplicity
 _atom_site_fract_x
 _atom_site_fract_y
 _atom_site_fract_z
 _atom_site_occupancy
  Tm  Tm0  1  0.324586  0.824586  0.000000  1
  Hf  Hf1  1  0.825116  0.676360  0.000000  1
  Hf  Hf2  1  0.176360  0.325116  0.000000  1
  Nb  Nb3  1  0.676789  0.176789  0.000000  1
  Nb  Nb4  1  0.498791  0.502827  0.000000  1
  Nb  Nb5  1  0.002827  0.998791  0.000000  1
  B  B6  1  0.624096  0.879960  0.000000  1
  B  B7  1  0.379960  0.124096  0.000000  1
  B  B8  1  0.118571  0.618571  0.000000  1
  B  B9  1  0.876894  0.376894  0.000000  1
  Ru  Ru10  1  0.577753  0.718789  0.500000  1
  Ru  Ru11  1  0.434094  0.282931  0.500000  1
  Ru  Ru12  1  0.062052  0.777289  0.500000  1
  Ru  Ru13  1  0.923496  0.215470  0.500000  1
  Ru  Ru14  1  0.277289  0.562052  0.500000  1
  Ru  Ru15  1  0.715470  0.423496  0.500000  1
  Ru  Ru16  1  0.218789  0.077753  0.500000  1
  Ru  Ru17  1  0.782931  0.934094  0.500000  1
  Ru  Ru18  1  0.508442  0.008442  0.500000  1
  Ru  Ru19  1  0.995692  0.495692  0.500000  1
