# generated using pymatgen
data_BaLiNd(H6Ir)2
_symmetry_space_group_name_H-M   'P 1'
_cell_length_a   5.02189100
_cell_length_b   5.02189059
_cell_length_c   8.55143000
_cell_angle_alpha   90.00000000
_cell_angle_beta   90.00000000
_cell_angle_gamma   119.99999609
_symmetry_Int_Tables_number   1
_chemical_formula_structural   BaLiNd(H6Ir)2
_chemical_formula_sum   'Ba1 Li1 Nd1 H12 Ir2'
_cell_volume   186.76862561
_cell_formula_units_Z   1
loop_
 _symmetry_equiv_pos_site_id
 _symmetry_equiv_pos_as_xyz
  1  'x, y, z'
loop_
 _atom_site_type_symbol
 _atom_site_label
 _atom_site_symmetry_multiplicity
 _atom_site_fract_x
 _atom_site_fract_y
 _atom_site_fract_z
 _atom_site_occupancy
  Ba  Ba0  1  0.000000  0.000000  0.034398  1
  Li  Li1  1  0.666667  0.333333  0.334285  1
  Nd  Nd2  1  0.333333  0.666667  0.615167  1
  H  H3  1  0.170409  0.829591  0.373891  1
  H  H4  1  0.659182  0.829591  0.373891  1
  H  H5  1  0.170409  0.340818  0.373891  1
  H  H6  1  0.826500  0.173500  0.623175  1
  H  H7  1  0.347001  0.173500  0.623175  1
  H  H8  1  0.826500  0.652999  0.623175  1
  H  H9  1  0.512063  0.024126  0.852039  1
  H  H10  1  0.512063  0.487937  0.852039  1
  H  H11  1  0.975874  0.487937  0.852039  1
  H  H12  1  0.491188  0.982377  0.155089  1
  H  H13  1  0.491188  0.508812  0.155089  1
  H  H14  1  0.017623  0.508812  0.155089  1
  Ir  Ir15  1  0.666667  0.333333  0.734505  1
  Ir  Ir16  1  0.333333  0.666667  0.269061  1
