# generated using pymatgen
data_TbGdY6(WO6)4
_symmetry_space_group_name_H-M   'P 1'
_cell_length_a   5.42278700
_cell_length_b   7.73586729
_cell_length_c   11.52385895
_cell_angle_alpha   75.55574094
_cell_angle_beta   90.00000000
_cell_angle_gamma   90.00000000
_symmetry_Int_Tables_number   1
_chemical_formula_structural   TbGdY6(WO6)4
_chemical_formula_sum   'Tb1 Gd1 Y6 W4 O24'
_cell_volume   468.14472235
_cell_formula_units_Z   1
loop_
 _symmetry_equiv_pos_site_id
 _symmetry_equiv_pos_as_xyz
  1  'x, y, z'
loop_
 _atom_site_type_symbol
 _atom_site_label
 _atom_site_symmetry_multiplicity
 _atom_site_fract_x
 _atom_site_fract_y
 _atom_site_fract_z
 _atom_site_occupancy
  Tb  Tb0  1  0.683584  0.500000  0.250000  1
  Gd  Gd1  1  0.315869  0.500000  0.750000  1
  Y  Y2  1  0.185915  0.794708  0.077779  1
  Y  Y3  1  0.260427  0.000000  0.750000  1
  Y  Y4  1  0.739294  0.000000  0.250000  1
  Y  Y5  1  0.185915  0.205292  0.422221  1
  Y  Y6  1  0.813779  0.204612  0.922740  1
  Y  Y7  1  0.813779  0.795388  0.577260  1
  W  W8  1  0.745346  0.724277  0.885591  1
  W  W9  1  0.254604  0.723876  0.384796  1
  W  W10  1  0.745346  0.275723  0.614409  1
  W  W11  1  0.254604  0.276124  0.115204  1
  O  O12  1  0.849434  0.363629  0.452219  1
  O  O13  1  0.468837  0.847944  0.930697  1
  O  O14  1  0.849434  0.636371  0.047781  1
  O  O15  1  0.016608  0.288470  0.728122  1
  O  O16  1  0.981966  0.290284  0.227882  1
  O  O17  1  0.149416  0.363750  0.953498  1
  O  O18  1  0.641352  0.491195  0.886932  1
  O  O19  1  0.530395  0.152061  0.069536  1
  O  O20  1  0.149416  0.636250  0.546502  1
  O  O21  1  0.016608  0.711530  0.771878  1
  O  O22  1  0.458014  0.210146  0.272137  1
  O  O23  1  0.043264  0.939806  0.394827  1
  O  O24  1  0.468837  0.152056  0.569303  1
  O  O25  1  0.981966  0.709716  0.272118  1
  O  O26  1  0.957021  0.060513  0.604477  1
  O  O27  1  0.543124  0.208947  0.771927  1
  O  O28  1  0.543124  0.791053  0.728073  1
  O  O29  1  0.043264  0.060194  0.105173  1
  O  O30  1  0.641352  0.508805  0.613068  1
  O  O31  1  0.361338  0.508705  0.113993  1
  O  O32  1  0.458014  0.789854  0.227863  1
  O  O33  1  0.361338  0.491295  0.386007  1
  O  O34  1  0.530395  0.847939  0.430464  1
  O  O35  1  0.957021  0.939487  0.895523  1
