# generated using pymatgen
data_Y2ErIn3Pd2Rh
_symmetry_space_group_name_H-M   'P 1'
_cell_length_a   7.75433286
_cell_length_b   7.73122739
_cell_length_c   3.79139800
_cell_angle_alpha   90.00000000
_cell_angle_beta   90.00000000
_cell_angle_gamma   120.17851035
_symmetry_Int_Tables_number   1
_chemical_formula_structural   Y2ErIn3Pd2Rh
_chemical_formula_sum   'Y2 Er1 In3 Pd2 Rh1'
_cell_volume   196.48928719
_cell_formula_units_Z   1
loop_
 _symmetry_equiv_pos_site_id
 _symmetry_equiv_pos_as_xyz
  1  'x, y, z'
loop_
 _atom_site_type_symbol
 _atom_site_label
 _atom_site_symmetry_multiplicity
 _atom_site_fract_x
 _atom_site_fract_y
 _atom_site_fract_z
 _atom_site_occupancy
  Y  Y0  1  0.012285  0.599361  0.500000  1
  Y  Y1  1  0.400614  0.413060  0.500000  1
  Er  Er2  1  0.586195  0.986529  0.500000  1
  In  In3  1  0.264010  0.001214  0.000000  1
  In  In4  1  0.737229  0.736746  0.000000  1
  In  In5  1  0.998433  0.262266  0.000000  1
  Pd  Pd6  1  0.666135  0.330526  0.000000  1
  Pd  Pd7  1  0.998804  0.999972  0.500000  1
  Rh  Rh8  1  0.336296  0.670326  0.000000  1
