# generated using pymatgen
data_Sc14Al8Os7Pt
_symmetry_space_group_name_H-M   'P 1'
_cell_length_a   9.15640085
_cell_length_b   9.20144976
_cell_length_c   9.15639993
_cell_angle_alpha   59.83711096
_cell_angle_beta   60.20173545
_cell_angle_gamma   59.83711771
_symmetry_Int_Tables_number   1
_chemical_formula_structural   Sc14Al8Os7Pt
_chemical_formula_sum   'Sc14 Al8 Os7 Pt1'
_cell_volume   544.96879799
_cell_formula_units_Z   1
loop_
 _symmetry_equiv_pos_site_id
 _symmetry_equiv_pos_as_xyz
  1  'x, y, z'
loop_
 _atom_site_type_symbol
 _atom_site_label
 _atom_site_symmetry_multiplicity
 _atom_site_fract_x
 _atom_site_fract_y
 _atom_site_fract_z
 _atom_site_occupancy
  Sc  Sc0  1  0.194516  0.805484  0.194516  1
  Sc  Sc1  1  0.195492  0.796362  0.804508  1
  Sc  Sc2  1  0.804508  0.203638  0.195492  1
  Sc  Sc3  1  0.804508  0.796362  0.195492  1
  Sc  Sc4  1  0.195492  0.203638  0.804508  1
  Sc  Sc5  1  0.805484  0.194516  0.805484  1
  Sc  Sc6  1  0.373032  0.384903  0.373032  1
  Sc  Sc7  1  0.128020  0.624779  0.622422  1
  Sc  Sc8  1  0.626968  0.130970  0.626968  1
  Sc  Sc9  1  0.622422  0.624779  0.128020  1
  Sc  Sc10  1  0.373032  0.869030  0.373032  1
  Sc  Sc11  1  0.377578  0.375221  0.871980  1
  Sc  Sc12  1  0.871980  0.375221  0.377578  1
  Sc  Sc13  1  0.626968  0.615097  0.626968  1
  Al  Al14  1  0.836217  0.834464  0.836217  1
  Al  Al15  1  0.516812  0.160480  0.162226  1
  Al  Al16  1  0.162226  0.160480  0.516812  1
  Al  Al17  1  0.163783  0.506898  0.163783  1
  Al  Al18  1  0.837774  0.839520  0.483188  1
  Al  Al19  1  0.836217  0.493102  0.836217  1
  Al  Al20  1  0.483188  0.839520  0.837774  1
  Al  Al21  1  0.163783  0.165536  0.163783  1
  Os  Os22  1  0.500000  0.500000  0.000000  1
  Os  Os23  1  0.000000  0.000000  0.500000  1
  Os  Os24  1  0.000000  0.500000  0.500000  1
  Os  Os25  1  0.500000  0.000000  0.000000  1
  Os  Os26  1  0.000000  0.500000  0.000000  1
  Os  Os27  1  0.500000  0.500000  0.500000  1
  Os  Os28  1  0.000000  0.000000  0.000000  1
  Pt  Pt29  1  0.500000  0.000000  0.500000  1
