# generated using pymatgen
data_Dy4LuGaNiBi
_symmetry_space_group_name_H-M   'P 1'
_cell_length_a   8.50735116
_cell_length_b   8.50735041
_cell_length_c   8.71653637
_cell_angle_alpha   124.67413453
_cell_angle_beta   124.67413016
_cell_angle_gamma   80.45663504
_symmetry_Int_Tables_number   1
_chemical_formula_structural   Dy4LuGaNiBi
_chemical_formula_sum   'Dy8 Lu2 Ga2 Ni2 Bi2'
_cell_volume   414.89251008
_cell_formula_units_Z   2
loop_
 _symmetry_equiv_pos_site_id
 _symmetry_equiv_pos_as_xyz
  1  'x, y, z'
loop_
 _atom_site_type_symbol
 _atom_site_label
 _atom_site_symmetry_multiplicity
 _atom_site_fract_x
 _atom_site_fract_y
 _atom_site_fract_z
 _atom_site_occupancy
  Dy  Dy0  1  0.781394  0.281394  0.790545  1
  Dy  Dy1  1  0.218606  0.718606  0.209455  1
  Dy  Dy2  1  0.490851  0.990851  0.209455  1
  Dy  Dy3  1  0.303579  0.461592  0.500000  1
  Dy  Dy4  1  0.038408  0.196421  0.500000  1
  Dy  Dy5  1  0.509149  0.009149  0.790545  1
  Dy  Dy6  1  0.696421  0.538408  0.500000  1
  Dy  Dy7  1  0.961592  0.803579  0.500000  1
  Lu  Lu8  1  0.000000  0.000000  0.000000  1
  Lu  Lu9  1  0.500000  0.500000  0.000000  1
  Ga  Ga10  1  0.144108  0.644108  0.788217  1
  Ga  Ga11  1  0.855892  0.355892  0.211783  1
  Ni  Ni12  1  0.627936  0.872064  0.500000  1
  Ni  Ni13  1  0.372064  0.127936  0.500000  1
  Bi  Bi14  1  0.250000  0.250000  0.000000  1
  Bi  Bi15  1  0.750000  0.750000  0.000000  1
