# generated using pymatgen
data_Hf6SiTc6GeAs4
_symmetry_space_group_name_H-M   'P 1'
_cell_length_a   7.79111120
_cell_length_b   7.79143895
_cell_length_c   7.79111247
_cell_angle_alpha   127.23001197
_cell_angle_beta   125.56301972
_cell_angle_gamma   79.24372007
_symmetry_Int_Tables_number   1
_chemical_formula_structural   Hf6SiTc6GeAs4
_chemical_formula_sum   'Hf6 Si1 Tc6 Ge1 As4'
_cell_volume   296.19381135
_cell_formula_units_Z   1
loop_
 _symmetry_equiv_pos_site_id
 _symmetry_equiv_pos_as_xyz
  1  'x, y, z'
loop_
 _atom_site_type_symbol
 _atom_site_label
 _atom_site_symmetry_multiplicity
 _atom_site_fract_x
 _atom_site_fract_y
 _atom_site_fract_z
 _atom_site_occupancy
  Hf  Hf0  1  0.451191  0.654912  0.703721  1
  Hf  Hf1  1  0.548013  0.253463  0.205450  1
  Hf  Hf2  1  0.749966  0.852598  0.602631  1
  Hf  Hf3  1  0.250046  0.848406  0.098359  1
  Hf  Hf4  1  0.049225  0.252631  0.703406  1
  Hf  Hf5  1  0.951630  0.656811  0.205181  1
  Si  Si6  1  0.749670  0.254033  0.004363  1
  Tc  Tc7  1  0.509497  0.503952  0.013493  1
  Tc  Tc8  1  0.990459  0.503952  0.494455  1
  Tc  Tc9  1  0.113760  0.253108  0.117265  1
  Tc  Tc10  1  0.865214  0.003533  0.118399  1
  Tc  Tc11  1  0.385133  0.003533  0.638319  1
  Tc  Tc12  1  0.635843  0.253108  0.639348  1
  Ge  Ge13  1  0.250496  0.252331  0.501836  1
  As  As14  1  0.332799  0.586484  0.252909  1
  As  As15  1  0.666518  0.920132  0.253167  1
  As  As16  1  0.166965  0.920132  0.753614  1
  As  As17  1  0.833574  0.586484  0.753684  1
