# generated using pymatgen
data_Tm5NpTaO12
_symmetry_space_group_name_H-M   'P 1'
_cell_length_a   6.41529086
_cell_length_b   6.39830118
_cell_length_c   6.45308642
_cell_angle_alpha   99.00420716
_cell_angle_beta   98.81954636
_cell_angle_gamma   98.61262570
_symmetry_Int_Tables_number   1
_chemical_formula_structural   Tm5NpTaO12
_chemical_formula_sum   'Tm5 Np1 Ta1 O12'
_cell_volume   254.39263645
_cell_formula_units_Z   1
loop_
 _symmetry_equiv_pos_site_id
 _symmetry_equiv_pos_as_xyz
  1  'x, y, z'
loop_
 _atom_site_type_symbol
 _atom_site_label
 _atom_site_symmetry_multiplicity
 _atom_site_fract_x
 _atom_site_fract_y
 _atom_site_fract_z
 _atom_site_occupancy
  Tm  Tm0  1  0.387906  0.686949  0.857726  1
  Tm  Tm1  1  0.863384  0.393035  0.698049  1
  Tm  Tm2  1  0.306057  0.143059  0.616247  1
  Tm  Tm3  1  0.607998  0.307307  0.131747  1
  Tm  Tm4  1  0.142985  0.605209  0.312260  1
  Np  Np5  1  0.693215  0.862052  0.396798  1
  Ta  Ta6  1  0.003083  0.000180  0.005918  1
  O  O7  1  0.430361  0.587478  0.175652  1
  O  O8  1  0.175356  0.432198  0.584991  1
  O  O9  1  0.588107  0.170234  0.425654  1
  O  O10  1  0.567000  0.409082  0.818371  1
  O  O11  1  0.816208  0.569995  0.414072  1
  O  O12  1  0.412328  0.822514  0.570093  1
  O  O13  1  0.930461  0.050134  0.696623  1
  O  O14  1  0.956410  0.307301  0.079311  1
  O  O15  1  0.305716  0.079329  0.958515  1
  O  O16  1  0.076348  0.955246  0.306153  1
  O  O17  1  0.042359  0.695790  0.919676  1
  O  O18  1  0.694718  0.922907  0.032143  1
