# generated using pymatgen
data_ErScNb2(SbIr)4
_symmetry_space_group_name_H-M   'P 1'
_cell_length_a   4.48510700
_cell_length_b   6.33329870
_cell_length_c   8.95681404
_cell_angle_alpha   90.15365750
_cell_angle_beta   90.00000000
_cell_angle_gamma   90.00000000
_symmetry_Int_Tables_number   1
_chemical_formula_structural   ErScNb2(SbIr)4
_chemical_formula_sum   'Er1 Sc1 Nb2 Sb4 Ir4'
_cell_volume   254.42206641
_cell_formula_units_Z   1
loop_
 _symmetry_equiv_pos_site_id
 _symmetry_equiv_pos_as_xyz
  1  'x, y, z'
loop_
 _atom_site_type_symbol
 _atom_site_label
 _atom_site_symmetry_multiplicity
 _atom_site_fract_x
 _atom_site_fract_y
 _atom_site_fract_z
 _atom_site_occupancy
  Er  Er0  1  0.000000  0.006192  0.375045  1
  Sc  Sc1  1  0.500001  0.506174  0.624844  1
  Nb  Nb2  1  0.500001  0.495901  0.122727  1
  Nb  Nb3  1  0.000000  0.992847  0.876920  1
  Sb  Sb4  1  0.500001  0.989940  0.126450  1
  Sb  Sb5  1  0.000000  0.511079  0.379819  1
  Sb  Sb6  1  0.500001  0.009135  0.624769  1
  Sb  Sb7  1  0.000000  0.485229  0.869160  1
  Ir  Ir8  1  0.000000  0.733176  0.111432  1
  Ir  Ir9  1  0.500001  0.273688  0.361205  1
  Ir  Ir10  1  0.000000  0.761130  0.642356  1
  Ir  Ir11  1  0.500001  0.235512  0.885270  1
