# generated using pymatgen
data_Cs2NaBi2Pb
_symmetry_space_group_name_H-M   'P 1'
_cell_length_a   11.87944898
_cell_length_b   11.87945008
_cell_length_c   7.78215600
_cell_angle_alpha   90.00000000
_cell_angle_beta   90.00000000
_cell_angle_gamma   98.97337463
_symmetry_Int_Tables_number   1
_chemical_formula_structural   Cs2NaBi2Pb
_chemical_formula_sum   'Cs8 Na4 Bi8 Pb4'
_cell_volume   1084.78684385
_cell_formula_units_Z   4
loop_
 _symmetry_equiv_pos_site_id
 _symmetry_equiv_pos_as_xyz
  1  'x, y, z'
loop_
 _atom_site_type_symbol
 _atom_site_label
 _atom_site_symmetry_multiplicity
 _atom_site_fract_x
 _atom_site_fract_y
 _atom_site_fract_z
 _atom_site_occupancy
  Cs  Cs0  1  0.081228  0.418772  0.250000  1
  Cs  Cs1  1  0.418772  0.081228  0.750000  1
  Cs  Cs2  1  0.918772  0.581228  0.750000  1
  Cs  Cs3  1  0.581228  0.918772  0.250000  1
  Cs  Cs4  1  0.669620  0.330380  0.222893  1
  Cs  Cs5  1  0.830380  0.169620  0.722893  1
  Cs  Cs6  1  0.330380  0.669620  0.777107  1
  Cs  Cs7  1  0.169620  0.830380  0.277107  1
  Na  Na8  1  0.379292  0.379292  0.000000  1
  Na  Na9  1  0.120708  0.120708  0.500000  1
  Na  Na10  1  0.620708  0.620708  0.000000  1
  Na  Na11  1  0.879292  0.879292  0.500000  1
  Bi  Bi12  1  0.846233  0.653766  0.250000  1
  Bi  Bi13  1  0.653766  0.846233  0.750000  1
  Bi  Bi14  1  0.153766  0.346233  0.750000  1
  Bi  Bi15  1  0.346233  0.153766  0.250000  1
  Bi  Bi16  1  0.898117  0.101883  0.227664  1
  Bi  Bi17  1  0.601883  0.398117  0.727664  1
  Bi  Bi18  1  0.101883  0.898117  0.772336  1
  Bi  Bi19  1  0.398117  0.601883  0.272336  1
  Pb  Pb20  1  0.127024  0.127024  0.000000  1
  Pb  Pb21  1  0.372976  0.372976  0.500000  1
  Pb  Pb22  1  0.872976  0.872976  0.000000  1
  Pb  Pb23  1  0.627024  0.627024  0.500000  1
