# generated using pymatgen
data_Sm10Si16Pd
_symmetry_space_group_name_H-M   'P 1'
_cell_length_a   11.36016559
_cell_length_b   11.34167513
_cell_length_c   11.36016553
_cell_angle_alpha   144.48883924
_cell_angle_beta   136.91640495
_cell_angle_gamma   57.04905978
_symmetry_Int_Tables_number   1
_chemical_formula_structural   Sm10Si16Pd
_chemical_formula_sum   'Sm10 Si16 Pd1'
_cell_volume   575.99843093
_cell_formula_units_Z   1
loop_
 _symmetry_equiv_pos_site_id
 _symmetry_equiv_pos_as_xyz
  1  'x, y, z'
loop_
 _atom_site_type_symbol
 _atom_site_label
 _atom_site_symmetry_multiplicity
 _atom_site_fract_x
 _atom_site_fract_y
 _atom_site_fract_z
 _atom_site_occupancy
  Sm  Sm0  1  0.755227  0.756690  0.502802  1
  Sm  Sm1  1  0.457239  0.961451  0.011138  1
  Sm  Sm2  1  0.854111  0.360023  0.011503  1
  Sm  Sm3  1  0.950314  0.961451  0.504212  1
  Sm  Sm4  1  0.153149  0.166941  0.514468  1
  Sm  Sm5  1  0.348519  0.360023  0.505912  1
  Sm  Sm6  1  0.253887  0.756690  0.001463  1
  Sm  Sm7  1  0.552734  0.565343  0.507310  1
  Sm  Sm8  1  0.058030  0.565343  0.012609  1
  Sm  Sm9  1  0.652473  0.166941  0.013792  1
  Si  Si10  1  0.202760  0.600343  0.397583  1
  Si  Si11  1  0.997845  0.069210  0.071366  1
  Si  Si12  1  0.701978  0.290087  0.588109  1
  Si  Si13  1  0.805432  0.224993  0.419562  1
  Si  Si14  1  0.904096  0.522713  0.618617  1
  Si  Si15  1  0.413118  0.854099  0.440981  1
  Si  Si16  1  0.104823  0.704868  0.600045  1
  Si  Si17  1  0.303844  0.896878  0.593033  1
  Si  Si18  1  0.592520  0.033231  0.440711  1
  Si  Si19  1  0.002293  0.421030  0.418737  1
  Si  Si20  1  0.813564  0.893477  0.079915  1
  Si  Si21  1  0.403041  0.496340  0.093300  1
  Si  Si22  1  0.114144  0.059543  0.945399  1
  Si  Si23  1  0.294690  0.233726  0.939037  1
  Si  Si24  1  0.502797  0.408935  0.906139  1
  Si  Si25  1  0.602468  0.698768  0.096300  1
  Pd  Pd26  1  0.704905  0.632362  0.927456  1
