# generated using pymatgen
data_Ho5Si8P4Ir19
_symmetry_space_group_name_H-M   'P 1'
_cell_length_a   12.82206503
_cell_length_b   12.78321337
_cell_length_c   3.94477500
_cell_angle_alpha   90.00000000
_cell_angle_beta   90.00000000
_cell_angle_gamma   119.97042074
_symmetry_Int_Tables_number   1
_chemical_formula_structural   Ho5Si8P4Ir19
_chemical_formula_sum   'Ho5 Si8 P4 Ir19'
_cell_volume   560.11893021
_cell_formula_units_Z   1
loop_
 _symmetry_equiv_pos_site_id
 _symmetry_equiv_pos_as_xyz
  1  'x, y, z'
loop_
 _atom_site_type_symbol
 _atom_site_label
 _atom_site_symmetry_multiplicity
 _atom_site_fract_x
 _atom_site_fract_y
 _atom_site_fract_z
 _atom_site_occupancy
  Ho  Ho0  1  0.666915  0.333422  0.000000  1
  Ho  Ho1  1  0.332638  0.667563  0.000000  1
  Ho  Ho2  1  0.814099  0.813909  0.500000  1
  Ho  Ho3  1  0.185663  0.001071  0.500000  1
  Ho  Ho4  1  0.999257  0.183427  0.500000  1
  Si  Si5  1  0.685218  0.165667  0.500000  1
  Si  Si6  1  0.834184  0.519097  0.500000  1
  Si  Si7  1  0.481607  0.315256  0.500000  1
  Si  Si8  1  0.167966  0.687824  0.500000  1
  Si  Si9  1  0.517813  0.829823  0.500000  1
  Si  Si10  1  0.635057  0.634345  0.000000  1
  Si  Si11  1  0.365658  0.999651  0.000000  1
  Si  Si12  1  0.999448  0.364886  0.000000  1
  P  P13  1  0.307984  0.484238  0.500000  1
  P  P14  1  0.178787  0.179846  0.000000  1
  P  P15  1  0.820397  0.997217  0.000000  1
  P  P16  1  0.000385  0.822951  0.000000  1
  Ir  Ir17  1  0.807951  0.177835  0.000000  1
  Ir  Ir18  1  0.821609  0.629110  0.000000  1
  Ir  Ir19  1  0.369695  0.191387  0.000000  1
  Ir  Ir20  1  0.179381  0.806962  0.000000  1
  Ir  Ir21  1  0.624649  0.817480  0.000000  1
  Ir  Ir22  1  0.199195  0.379283  0.000000  1
  Ir  Ir23  1  0.455815  0.443891  0.000000  1
  Ir  Ir24  1  0.553154  0.002243  0.000000  1
  Ir  Ir25  1  0.998972  0.551257  0.000000  1
  Ir  Ir26  1  0.280021  0.284161  0.500000  1
  Ir  Ir27  1  0.720655  0.997702  0.500000  1
  Ir  Ir28  1  0.000390  0.722531  0.500000  1
  Ir  Ir29  1  0.871627  0.357977  0.500000  1
  Ir  Ir30  1  0.643330  0.514081  0.500000  1
  Ir  Ir31  1  0.486853  0.128909  0.500000  1
  Ir  Ir32  1  0.360771  0.872870  0.500000  1
  Ir  Ir33  1  0.505651  0.632902  0.500000  1
  Ir  Ir34  1  0.126249  0.487358  0.500000  1
  Ir  Ir35  1  0.000956  0.001866  0.000000  1
