# generated using pymatgen
data_LaSm(CdSn)2
_symmetry_space_group_name_H-M   'P 1'
_cell_length_a   4.80320100
_cell_length_b   4.80320031
_cell_length_c   16.71297300
_cell_angle_alpha   90.00000000
_cell_angle_beta   90.00000000
_cell_angle_gamma   120.00001164
_symmetry_Int_Tables_number   1
_chemical_formula_structural   LaSm(CdSn)2
_chemical_formula_sum   'La2 Sm2 Cd4 Sn4'
_cell_volume   333.92255283
_cell_formula_units_Z   2
loop_
 _symmetry_equiv_pos_site_id
 _symmetry_equiv_pos_as_xyz
  1  'x, y, z'
loop_
 _atom_site_type_symbol
 _atom_site_label
 _atom_site_symmetry_multiplicity
 _atom_site_fract_x
 _atom_site_fract_y
 _atom_site_fract_z
 _atom_site_occupancy
  La  La0  1  0.000000  0.000000  0.500000  1
  La  La1  1  0.000000  0.000000  0.000000  1
  Sm  Sm2  1  0.000000  0.000000  0.750000  1
  Sm  Sm3  1  0.000000  0.000000  0.250000  1
  Cd  Cd4  1  0.333333  0.666667  0.157108  1
  Cd  Cd5  1  0.666667  0.333333  0.657108  1
  Cd  Cd6  1  0.666667  0.333333  0.842892  1
  Cd  Cd7  1  0.333333  0.666667  0.342892  1
  Sn  Sn8  1  0.666667  0.333333  0.387933  1
  Sn  Sn9  1  0.666667  0.333333  0.112067  1
  Sn  Sn10  1  0.333333  0.666667  0.887933  1
  Sn  Sn11  1  0.333333  0.666667  0.612067  1
