# generated using pymatgen
data_Nd17Y3Si15Se
_symmetry_space_group_name_H-M   'P 1'
_cell_length_a   7.76513485
_cell_length_b   7.84960286
_cell_length_c   15.02828800
_cell_angle_alpha   90.33861161
_cell_angle_beta   95.18292816
_cell_angle_gamma   89.67598961
_symmetry_Int_Tables_number   1
_chemical_formula_structural   Nd17Y3Si15Se
_chemical_formula_sum   'Nd17 Y3 Si15 Se1'
_cell_volume   912.24933531
_cell_formula_units_Z   1
loop_
 _symmetry_equiv_pos_site_id
 _symmetry_equiv_pos_as_xyz
  1  'x, y, z'
loop_
 _atom_site_type_symbol
 _atom_site_label
 _atom_site_symmetry_multiplicity
 _atom_site_fract_x
 _atom_site_fract_y
 _atom_site_fract_z
 _atom_site_occupancy
  Nd  Nd0  1  0.635549  0.161172  0.614995  1
  Nd  Nd1  1  0.178481  0.322345  0.880154  1
  Nd  Nd2  1  0.320290  0.824674  0.121372  1
  Nd  Nd3  1  0.864749  0.662062  0.382450  1
  Nd  Nd4  1  0.360940  0.836444  0.385407  1
  Nd  Nd5  1  0.820700  0.678849  0.122161  1
  Nd  Nd6  1  0.677598  0.178165  0.879834  1
  Nd  Nd7  1  0.136566  0.335498  0.615721  1
  Nd  Nd8  1  0.487436  0.671476  0.604534  1
  Nd  Nd9  1  0.033879  0.810148  0.896650  1
  Nd  Nd10  1  0.466438  0.314986  0.103527  1
  Nd  Nd11  1  0.013848  0.185204  0.397929  1
  Nd  Nd12  1  0.507400  0.324405  0.396261  1
  Nd  Nd13  1  0.967705  0.187138  0.102958  1
  Nd  Nd14  1  0.535865  0.688064  0.897352  1
  Nd  Nd15  1  0.996745  0.811848  0.603705  1
  Nd  Nd16  1  0.833213  0.504554  0.745292  1
  Y  Y17  1  0.330439  0.992930  0.747373  1
  Y  Y18  1  0.170523  0.495754  0.252751  1
  Y  Y19  1  0.669214  0.008781  0.247757  1
  Si  Si20  1  0.135126  0.524111  0.045927  1
  Si  Si21  1  0.362489  0.024453  0.956518  1
  Si  Si22  1  0.783647  0.468089  0.541174  1
  Si  Si23  1  0.285411  0.023427  0.549025  1
  Si  Si24  1  0.863820  0.474722  0.958209  1
  Si  Si25  1  0.635083  0.978110  0.045268  1
  Si  Si26  1  0.210055  0.529064  0.452578  1
  Si  Si27  1  0.453635  0.392574  0.751440  1
  Si  Si28  1  0.954379  0.101825  0.750871  1
  Si  Si29  1  0.543495  0.605529  0.250305  1
  Si  Si30  1  0.044364  0.897242  0.251565  1
  Si  Si31  1  0.719248  0.878150  0.751894  1
  Si  Si32  1  0.225794  0.625140  0.751769  1
  Si  Si33  1  0.280123  0.127568  0.249658  1
  Si  Si34  1  0.780741  0.374355  0.249316  1
  Se  Se35  1  0.715008  0.981146  0.446299  1
