# generated using pymatgen
data_SrLaMn(Si3Pd10)2
_symmetry_space_group_name_H-M   'P 1'
_cell_length_a   8.74237762
_cell_length_b   8.74237706
_cell_length_c   8.74237800
_cell_angle_alpha   59.99999644
_cell_angle_beta   59.99999857
_cell_angle_gamma   60.00000347
_symmetry_Int_Tables_number   1
_chemical_formula_structural   SrLaMn(Si3Pd10)2
_chemical_formula_sum   'Sr1 La1 Mn1 Si6 Pd20'
_cell_volume   472.46938563
_cell_formula_units_Z   1
loop_
 _symmetry_equiv_pos_site_id
 _symmetry_equiv_pos_as_xyz
  1  'x, y, z'
loop_
 _atom_site_type_symbol
 _atom_site_label
 _atom_site_symmetry_multiplicity
 _atom_site_fract_x
 _atom_site_fract_y
 _atom_site_fract_z
 _atom_site_occupancy
  Sr  Sr0  1  0.750000  0.750000  0.750000  1
  La  La1  1  0.250000  0.250000  0.250000  1
  Mn  Mn2  1  0.000000  0.000000  0.000000  1
  Si  Si3  1  0.733983  0.733983  0.266017  1
  Si  Si4  1  0.266017  0.266017  0.733983  1
  Si  Si5  1  0.733983  0.266017  0.733983  1
  Si  Si6  1  0.266017  0.733983  0.266017  1
  Si  Si7  1  0.266017  0.733983  0.733983  1
  Si  Si8  1  0.733983  0.266017  0.266017  1
  Pd  Pd9  1  0.613106  0.613106  0.613106  1
  Pd  Pd10  1  0.384727  0.384727  0.384727  1
  Pd  Pd11  1  0.160681  0.613106  0.613106  1
  Pd  Pd12  1  0.613106  0.160681  0.613106  1
  Pd  Pd13  1  0.845821  0.384727  0.384727  1
  Pd  Pd14  1  0.384727  0.845821  0.384727  1
  Pd  Pd15  1  0.613106  0.613106  0.160681  1
  Pd  Pd16  1  0.384727  0.384727  0.845821  1
  Pd  Pd17  1  0.001315  0.001315  0.656797  1
  Pd  Pd18  1  0.001315  0.001315  0.340574  1
  Pd  Pd19  1  0.340574  0.656797  0.001315  1
  Pd  Pd20  1  0.656797  0.340574  0.001315  1
  Pd  Pd21  1  0.001315  0.656797  0.001315  1
  Pd  Pd22  1  0.656797  0.001315  0.340574  1
  Pd  Pd23  1  0.001315  0.340574  0.001315  1
  Pd  Pd24  1  0.340574  0.001315  0.656797  1
  Pd  Pd25  1  0.656797  0.001315  0.001315  1
  Pd  Pd26  1  0.340574  0.001315  0.001315  1
  Pd  Pd27  1  0.001315  0.656797  0.340574  1
  Pd  Pd28  1  0.001315  0.340574  0.656797  1
