# generated using pymatgen
data_Ca2PrEr(Ru2O7)2
_symmetry_space_group_name_H-M   'P 1'
_cell_length_a   7.30971448
_cell_length_b   7.29346823
_cell_length_c   7.29735356
_cell_angle_alpha   60.01759983
_cell_angle_beta   60.13068444
_cell_angle_gamma   60.07348699
_symmetry_Int_Tables_number   1
_chemical_formula_structural   Ca2PrEr(Ru2O7)2
_chemical_formula_sum   'Ca2 Pr1 Er1 Ru4 O14'
_cell_volume   275.55671619
_cell_formula_units_Z   1
loop_
 _symmetry_equiv_pos_site_id
 _symmetry_equiv_pos_as_xyz
  1  'x, y, z'
loop_
 _atom_site_type_symbol
 _atom_site_label
 _atom_site_symmetry_multiplicity
 _atom_site_fract_x
 _atom_site_fract_y
 _atom_site_fract_z
 _atom_site_occupancy
  Ca  Ca0  1  0.625000  0.125000  0.625000  1
  Ca  Ca1  1  0.625000  0.625000  0.625000  1
  Pr  Pr2  1  0.125000  0.625000  0.625000  1
  Er  Er3  1  0.625000  0.625000  0.125000  1
  Ru  Ru4  1  0.625000  0.125000  0.125000  1
  Ru  Ru5  1  0.125000  0.625000  0.125000  1
  Ru  Ru6  1  0.125000  0.125000  0.625000  1
  Ru  Ru7  1  0.125000  0.125000  0.125000  1
  O  O8  1  0.201899  0.198239  0.801271  1
  O  O9  1  0.214160  0.792616  0.200608  1
  O  O10  1  0.448495  0.046442  0.054960  1
  O  O11  1  0.201899  0.798591  0.801271  1
  O  O12  1  0.048101  0.451409  0.448729  1
  O  O13  1  0.801505  0.799898  0.195040  1
  O  O14  1  0.448495  0.450102  0.054960  1
  O  O15  1  0.510941  0.501710  0.485640  1
  O  O16  1  0.048101  0.051761  0.448729  1
  O  O17  1  0.443727  0.056503  0.443267  1
  O  O18  1  0.035840  0.457384  0.049392  1
  O  O19  1  0.739059  0.748290  0.764360  1
  O  O20  1  0.806273  0.193497  0.806733  1
  O  O21  1  0.801505  0.203558  0.195040  1
