# generated using pymatgen
data_Dy5Th3(Pt2Pb)4
_symmetry_space_group_name_H-M   'P 1'
_cell_length_a   8.08195336
_cell_length_b   8.08195401
_cell_length_c   7.23957600
_cell_angle_alpha   90.00000000
_cell_angle_beta   90.00000000
_cell_angle_gamma   90.20371854
_symmetry_Int_Tables_number   1
_chemical_formula_structural   Dy5Th3(Pt2Pb)4
_chemical_formula_sum   'Dy5 Th3 Pt8 Pb4'
_cell_volume   472.87145784
_cell_formula_units_Z   1
loop_
 _symmetry_equiv_pos_site_id
 _symmetry_equiv_pos_as_xyz
  1  'x, y, z'
loop_
 _atom_site_type_symbol
 _atom_site_label
 _atom_site_symmetry_multiplicity
 _atom_site_fract_x
 _atom_site_fract_y
 _atom_site_fract_z
 _atom_site_occupancy
  Dy  Dy0  1  0.338498  0.341622  0.500000  1
  Dy  Dy1  1  0.658378  0.661502  0.500000  1
  Dy  Dy2  1  0.172384  0.827616  0.500000  1
  Dy  Dy3  1  0.840668  0.159332  0.000000  1
  Dy  Dy4  1  0.161191  0.838809  0.000000  1
  Th  Th5  1  0.674373  0.673587  0.000000  1
  Th  Th6  1  0.827949  0.172051  0.500000  1
  Th  Th7  1  0.326413  0.325627  0.000000  1
  Pt  Pt8  1  0.871481  0.871742  0.737169  1
  Pt  Pt9  1  0.128258  0.128519  0.737169  1
  Pt  Pt10  1  0.629366  0.370634  0.761714  1
  Pt  Pt11  1  0.629366  0.370634  0.238286  1
  Pt  Pt12  1  0.372837  0.627163  0.238052  1
  Pt  Pt13  1  0.128258  0.128519  0.262831  1
  Pt  Pt14  1  0.871481  0.871742  0.262831  1
  Pt  Pt15  1  0.372837  0.627163  0.761948  1
  Pb  Pb16  1  0.494757  0.996626  0.745274  1
  Pb  Pb17  1  0.494757  0.996626  0.254726  1
  Pb  Pb18  1  0.003374  0.505243  0.745274  1
  Pb  Pb19  1  0.003374  0.505243  0.254726  1
