# generated using pymatgen
data_Yb3Sm(Ga12Cu)2
_symmetry_space_group_name_H-M   'P 1'
_cell_length_a   6.15115973
_cell_length_b   6.15115973
_cell_length_c   15.25833100
_cell_angle_alpha   90.00000000
_cell_angle_beta   90.00000000
_cell_angle_gamma   90.57607506
_symmetry_Int_Tables_number   1
_chemical_formula_structural   Yb3Sm(Ga12Cu)2
_chemical_formula_sum   'Yb3 Sm1 Ga24 Cu2'
_cell_volume   577.29671863
_cell_formula_units_Z   1
loop_
 _symmetry_equiv_pos_site_id
 _symmetry_equiv_pos_as_xyz
  1  'x, y, z'
loop_
 _atom_site_type_symbol
 _atom_site_label
 _atom_site_symmetry_multiplicity
 _atom_site_fract_x
 _atom_site_fract_y
 _atom_site_fract_z
 _atom_site_occupancy
  Yb  Yb0  1  0.500000  0.000000  0.757094  1
  Yb  Yb1  1  0.000000  0.500000  0.242459  1
  Yb  Yb2  1  0.500000  0.000000  0.241795  1
  Sm  Sm3  1  0.000000  0.500000  0.758439  1
  Ga  Ga4  1  0.669181  0.169181  0.429131  1
  Ga  Ga5  1  0.668089  0.831911  0.570262  1
  Ga  Ga6  1  0.168952  0.668952  0.569943  1
  Ga  Ga7  1  0.831048  0.331048  0.569943  1
  Ga  Ga8  1  0.500000  0.500000  0.181669  1
  Ga  Ga9  1  0.500000  0.500000  0.818312  1
  Ga  Ga10  1  0.000000  0.000000  0.818312  1
  Ga  Ga11  1  0.000000  0.000000  0.181669  1
  Ga  Ga12  1  0.500000  0.500000  0.342986  1
  Ga  Ga13  1  0.500000  0.500000  0.656896  1
  Ga  Ga14  1  0.000000  0.000000  0.656896  1
  Ga  Ga15  1  0.000000  0.000000  0.342986  1
  Ga  Ga16  1  0.251996  0.751996  0.913977  1
  Ga  Ga17  1  0.251963  0.248037  0.914297  1
  Ga  Ga18  1  0.748037  0.751963  0.914297  1
  Ga  Ga19  1  0.249153  0.250847  0.086399  1
  Ga  Ga20  1  0.750847  0.749153  0.086399  1
  Ga  Ga21  1  0.748004  0.248004  0.913977  1
  Ga  Ga22  1  0.750771  0.250771  0.086956  1
  Ga  Ga23  1  0.249229  0.749229  0.086956  1
  Ga  Ga24  1  0.330819  0.830819  0.429131  1
  Ga  Ga25  1  0.168396  0.331604  0.429872  1
  Ga  Ga26  1  0.831604  0.668396  0.429872  1
  Ga  Ga27  1  0.331911  0.168089  0.570262  1
  Cu  Cu28  1  0.500000  0.000000  0.000318  1
  Cu  Cu29  1  0.000000  0.500000  0.998494  1
