# generated using pymatgen
data_Nb4GeB2Mo
_symmetry_space_group_name_H-M   'P 1'
_cell_length_a   7.33751390
_cell_length_b   7.33751481
_cell_length_c   7.33751437
_cell_angle_alpha   129.70906836
_cell_angle_beta   129.70907179
_cell_angle_gamma   73.87229166
_symmetry_Int_Tables_number   1
_chemical_formula_structural   Nb4GeB2Mo
_chemical_formula_sum   'Nb8 Ge2 B4 Mo2'
_cell_volume   228.04985188
_cell_formula_units_Z   2
loop_
 _symmetry_equiv_pos_site_id
 _symmetry_equiv_pos_as_xyz
  1  'x, y, z'
loop_
 _atom_site_type_symbol
 _atom_site_label
 _atom_site_symmetry_multiplicity
 _atom_site_fract_x
 _atom_site_fract_y
 _atom_site_fract_z
 _atom_site_occupancy
  Nb  Nb0  1  0.530573  0.696585  0.500000  1
  Nb  Nb1  1  0.196585  0.030573  0.500000  1
  Nb  Nb2  1  0.030573  0.530573  0.833988  1
  Nb  Nb3  1  0.696585  0.196585  0.166012  1
  Nb  Nb4  1  0.469427  0.303415  0.500000  1
  Nb  Nb5  1  0.803415  0.969427  0.500000  1
  Nb  Nb6  1  0.969427  0.469427  0.166012  1
  Nb  Nb7  1  0.303415  0.803415  0.833988  1
  Ge  Ge8  1  0.250000  0.250000  0.000000  1
  Ge  Ge9  1  0.750000  0.750000  0.000000  1
  B  B10  1  0.879522  0.620478  0.500000  1
  B  B11  1  0.120478  0.379522  0.500000  1
  B  B12  1  0.379522  0.879522  0.259044  1
  B  B13  1  0.620478  0.120478  0.740956  1
  Mo  Mo14  1  0.500000  0.500000  0.000000  1
  Mo  Mo15  1  0.000000  0.000000  0.000000  1
