# generated using pymatgen
data_Tb2Pa2Zn4Ir3Rh
_symmetry_space_group_name_H-M   'P 1'
_cell_length_a   3.86240400
_cell_length_b   7.16979564
_cell_length_c   8.38241167
_cell_angle_alpha   90.94788906
_cell_angle_beta   90.00000000
_cell_angle_gamma   90.00000000
_symmetry_Int_Tables_number   1
_chemical_formula_structural   Tb2Pa2Zn4Ir3Rh
_chemical_formula_sum   'Tb2 Pa2 Zn4 Ir3 Rh1'
_cell_volume   232.09940452
_cell_formula_units_Z   1
loop_
 _symmetry_equiv_pos_site_id
 _symmetry_equiv_pos_as_xyz
  1  'x, y, z'
loop_
 _atom_site_type_symbol
 _atom_site_label
 _atom_site_symmetry_multiplicity
 _atom_site_fract_x
 _atom_site_fract_y
 _atom_site_fract_z
 _atom_site_occupancy
  Tb  Tb0  1  0.250000  0.057104  0.313974  1
  Tb  Tb1  1  0.750000  0.944632  0.684982  1
  Pa  Pa2  1  0.250000  0.552201  0.189648  1
  Pa  Pa3  1  0.750000  0.447193  0.810424  1
  Zn  Zn4  1  0.250000  0.117356  0.938823  1
  Zn  Zn5  1  0.750000  0.882339  0.060360  1
  Zn  Zn6  1  0.250000  0.631476  0.559196  1
  Zn  Zn7  1  0.750000  0.369419  0.441098  1
  Ir  Ir8  1  0.750000  0.748764  0.358295  1
  Ir  Ir9  1  0.250000  0.252218  0.641908  1
  Ir  Ir10  1  0.750000  0.280029  0.121698  1
  Rh  Rh11  1  0.250000  0.717269  0.879593  1
