# generated using pymatgen
data_TbScNi9Sn
_symmetry_space_group_name_H-M   'P 1'
_cell_length_a   4.86584702
_cell_length_b   4.86584719
_cell_length_c   8.39863784
_cell_angle_alpha   73.16115668
_cell_angle_beta   73.16116034
_cell_angle_gamma   60.00000677
_symmetry_Int_Tables_number   1
_chemical_formula_structural   TbScNi9Sn
_chemical_formula_sum   'Tb1 Sc1 Ni9 Sn1'
_cell_volume   162.28958673
_cell_formula_units_Z   1
loop_
 _symmetry_equiv_pos_site_id
 _symmetry_equiv_pos_as_xyz
  1  'x, y, z'
loop_
 _atom_site_type_symbol
 _atom_site_label
 _atom_site_symmetry_multiplicity
 _atom_site_fract_x
 _atom_site_fract_y
 _atom_site_fract_z
 _atom_site_occupancy
  Tb  Tb0  1  0.003764  0.003764  0.988709  1
  Sc  Sc1  1  0.857797  0.857797  0.426607  1
  Ni  Ni2  1  0.081621  0.585476  0.747426  1
  Ni  Ni3  1  0.585476  0.585476  0.747426  1
  Ni  Ni4  1  0.585476  0.081621  0.747426  1
  Ni  Ni5  1  0.918367  0.413955  0.253724  1
  Ni  Ni6  1  0.413955  0.413955  0.253724  1
  Ni  Ni7  1  0.413955  0.918367  0.253724  1
  Ni  Ni8  1  0.332337  0.332337  0.002988  1
  Ni  Ni9  1  0.665453  0.665453  0.003643  1
  Ni  Ni10  1  0.499995  0.499995  0.500014  1
  Sn  Sn11  1  0.141805  0.141805  0.574588  1
