# generated using pymatgen
data_Tb2Ta3Ni9P7
_symmetry_space_group_name_H-M   'P 1'
_cell_length_a   9.32516600
_cell_length_b   9.32516594
_cell_length_c   3.72137000
_cell_angle_alpha   90.00000000
_cell_angle_beta   90.00000000
_cell_angle_gamma   120.00000732
_symmetry_Int_Tables_number   1
_chemical_formula_structural   Tb2Ta3Ni9P7
_chemical_formula_sum   'Tb2 Ta3 Ni9 P7'
_cell_volume   280.25062644
_cell_formula_units_Z   1
loop_
 _symmetry_equiv_pos_site_id
 _symmetry_equiv_pos_as_xyz
  1  'x, y, z'
loop_
 _atom_site_type_symbol
 _atom_site_label
 _atom_site_symmetry_multiplicity
 _atom_site_fract_x
 _atom_site_fract_y
 _atom_site_fract_z
 _atom_site_occupancy
  Tb  Tb0  1  0.333333  0.666667  0.000000  1
  Tb  Tb1  1  0.666667  0.333333  0.500000  1
  Ta  Ta2  1  0.225065  0.119260  0.500000  1
  Ta  Ta3  1  0.880740  0.105805  0.500000  1
  Ta  Ta4  1  0.894195  0.774935  0.500000  1
  Ni  Ni5  1  0.128345  0.283130  0.000000  1
  Ni  Ni6  1  0.716870  0.845215  0.000000  1
  Ni  Ni7  1  0.154785  0.871655  0.000000  1
  Ni  Ni8  1  0.431884  0.368271  0.000000  1
  Ni  Ni9  1  0.631729  0.063614  0.000000  1
  Ni  Ni10  1  0.936386  0.568116  0.000000  1
  Ni  Ni11  1  0.058173  0.442973  0.500000  1
  Ni  Ni12  1  0.557027  0.615199  0.500000  1
  Ni  Ni13  1  0.384801  0.941827  0.500000  1
  P  P14  1  0.291341  0.410283  0.500000  1
  P  P15  1  0.589717  0.881059  0.500000  1
  P  P16  1  0.118941  0.708659  0.500000  1
  P  P17  1  0.415161  0.110620  0.000000  1
  P  P18  1  0.889380  0.304542  0.000000  1
  P  P19  1  0.695458  0.584839  0.000000  1
  P  P20  1  0.000000  0.000000  0.000000  1
