# generated using pymatgen
data_Dy3Hf(NiP)4
_symmetry_space_group_name_H-M   'P 1'
_cell_length_a   3.87571300
_cell_length_b   3.87571282
_cell_length_c   15.08289300
_cell_angle_alpha   90.00000000
_cell_angle_beta   90.00000000
_cell_angle_gamma   119.99999298
_symmetry_Int_Tables_number   1
_chemical_formula_structural   Dy3Hf(NiP)4
_chemical_formula_sum   'Dy3 Hf1 Ni4 P4'
_cell_volume   196.20881373
_cell_formula_units_Z   1
loop_
 _symmetry_equiv_pos_site_id
 _symmetry_equiv_pos_as_xyz
  1  'x, y, z'
loop_
 _atom_site_type_symbol
 _atom_site_label
 _atom_site_symmetry_multiplicity
 _atom_site_fract_x
 _atom_site_fract_y
 _atom_site_fract_z
 _atom_site_occupancy
  Dy  Dy0  1  0.000000  0.000000  0.492583  1
  Dy  Dy1  1  0.000000  0.000000  0.007417  1
  Dy  Dy2  1  0.000000  0.000000  0.750000  1
  Hf  Hf3  1  0.000000  0.000000  0.250000  1
  Ni  Ni4  1  0.333333  0.666667  0.345212  1
  Ni  Ni5  1  0.666667  0.333333  0.623561  1
  Ni  Ni6  1  0.666667  0.333333  0.876439  1
  Ni  Ni7  1  0.333333  0.666667  0.154788  1
  P  P8  1  0.333333  0.666667  0.880669  1
  P  P9  1  0.666667  0.333333  0.127364  1
  P  P10  1  0.666667  0.333333  0.372636  1
  P  P11  1  0.333333  0.666667  0.619331  1
