# generated using pymatgen
data_Ac2MnNiO6
_symmetry_space_group_name_H-M   'P 1'
_cell_length_a   5.64545972
_cell_length_b   5.60008600
_cell_length_c   7.93321337
_cell_angle_alpha   90.00033454
_cell_angle_beta   90.05370409
_cell_angle_gamma   90.00075409
_symmetry_Int_Tables_number   1
_chemical_formula_structural   Ac2MnNiO6
_chemical_formula_sum   'Ac4 Mn2 Ni2 O12'
_cell_volume   250.80890610
_cell_formula_units_Z   2
loop_
 _symmetry_equiv_pos_site_id
 _symmetry_equiv_pos_as_xyz
  1  'x, y, z'
loop_
 _atom_site_type_symbol
 _atom_site_label
 _atom_site_symmetry_multiplicity
 _atom_site_fract_x
 _atom_site_fract_y
 _atom_site_fract_z
 _atom_site_occupancy
  Ac  Ac0  1  0.001527  0.009926  0.250004  1
  Ac  Ac1  1  0.498460  0.509835  0.249996  1
  Ac  Ac2  1  0.501753  0.490046  0.750082  1
  Ac  Ac3  1  0.998224  0.990143  0.749916  1
  Mn  Mn4  1  0.500014  0.999977  0.500040  1
  Mn  Mn5  1  0.000089  0.500022  0.000013  1
  Ni  Ni6  1  0.000162  0.500043  0.499978  1
  Ni  Ni7  1  0.500013  0.999981  0.000036  1
  O  O8  1  0.772577  0.242142  0.975606  1
  O  O9  1  0.756200  0.228480  0.524233  1
  O  O10  1  0.953676  0.496906  0.242402  1
  O  O11  1  0.227546  0.757994  0.024407  1
  O  O12  1  0.453450  0.003083  0.742446  1
  O  O13  1  0.727355  0.742042  0.524394  1
  O  O14  1  0.743775  0.728582  0.975752  1
  O  O15  1  0.243493  0.771408  0.475802  1
  O  O16  1  0.546289  0.996827  0.257588  1
  O  O17  1  0.272405  0.257902  0.475589  1
  O  O18  1  0.256494  0.271499  0.024170  1
  O  O19  1  0.046497  0.503160  0.757544  1
