# generated using pymatgen
data_Y3Ni8P6Rh
_symmetry_space_group_name_H-M   'P 1'
_cell_length_a   3.80331400
_cell_length_b   10.55488100
_cell_length_c   12.42254500
_cell_angle_alpha   90.00000000
_cell_angle_beta   90.00000000
_cell_angle_gamma   90.00000000
_symmetry_Int_Tables_number   1
_chemical_formula_structural   Y3Ni8P6Rh
_chemical_formula_sum   'Y6 Ni16 P12 Rh2'
_cell_volume   498.68476659
_cell_formula_units_Z   2
loop_
 _symmetry_equiv_pos_site_id
 _symmetry_equiv_pos_as_xyz
  1  'x, y, z'
loop_
 _atom_site_type_symbol
 _atom_site_label
 _atom_site_symmetry_multiplicity
 _atom_site_fract_x
 _atom_site_fract_y
 _atom_site_fract_z
 _atom_site_occupancy
  Y  Y0  1  0.000000  0.500000  0.523733  1
  Y  Y1  1  0.500000  0.000000  0.476267  1
  Y  Y2  1  0.500000  0.815935  0.207031  1
  Y  Y3  1  0.500000  0.184065  0.207031  1
  Y  Y4  1  0.000000  0.684065  0.792969  1
  Y  Y5  1  0.000000  0.315935  0.792969  1
  Ni  Ni6  1  0.500000  0.500000  0.700518  1
  Ni  Ni7  1  0.000000  0.000000  0.299482  1
  Ni  Ni8  1  0.000000  0.500000  0.984212  1
  Ni  Ni9  1  0.500000  0.000000  0.015788  1
  Ni  Ni10  1  0.500000  0.331671  0.991193  1
  Ni  Ni11  1  0.500000  0.668329  0.991193  1
  Ni  Ni12  1  0.000000  0.168329  0.008807  1
  Ni  Ni13  1  0.000000  0.831671  0.008807  1
  Ni  Ni14  1  0.500000  0.301758  0.429274  1
  Ni  Ni15  1  0.500000  0.698242  0.429274  1
  Ni  Ni16  1  0.000000  0.198242  0.570726  1
  Ni  Ni17  1  0.000000  0.801758  0.570726  1
  Ni  Ni18  1  0.500000  0.878559  0.709188  1
  Ni  Ni19  1  0.500000  0.121441  0.709188  1
  Ni  Ni20  1  0.000000  0.621441  0.290812  1
  Ni  Ni21  1  0.000000  0.378559  0.290812  1
  P  P22  1  0.500000  0.500000  0.876328  1
  P  P23  1  0.000000  0.000000  0.123672  1
  P  P24  1  0.500000  0.500000  0.349758  1
  P  P25  1  0.000000  0.000000  0.650242  1
  P  P26  1  0.500000  0.313330  0.614341  1
  P  P27  1  0.500000  0.686670  0.614341  1
  P  P28  1  0.000000  0.186670  0.385659  1
  P  P29  1  0.000000  0.813330  0.385659  1
  P  P30  1  0.500000  0.847606  0.893256  1
  P  P31  1  0.500000  0.152394  0.893256  1
  P  P32  1  0.000000  0.652394  0.106744  1
  P  P33  1  0.000000  0.347606  0.106744  1
  Rh  Rh34  1  0.500000  0.500000  0.159222  1
  Rh  Rh35  1  0.000000  0.000000  0.840778  1
