# generated using pymatgen
data_HoErCo2(P3Ir4)2
_symmetry_space_group_name_H-M   'P 1'
_cell_length_a   3.92257100
_cell_length_b   10.71700300
_cell_length_c   12.37763400
_cell_angle_alpha   90.00000000
_cell_angle_beta   90.00000000
_cell_angle_gamma   90.00000000
_symmetry_Int_Tables_number   1
_chemical_formula_structural   HoErCo2(P3Ir4)2
_chemical_formula_sum   'Ho2 Er2 Co4 P12 Ir16'
_cell_volume   520.33351767
_cell_formula_units_Z   2
loop_
 _symmetry_equiv_pos_site_id
 _symmetry_equiv_pos_as_xyz
  1  'x, y, z'
loop_
 _atom_site_type_symbol
 _atom_site_label
 _atom_site_symmetry_multiplicity
 _atom_site_fract_x
 _atom_site_fract_y
 _atom_site_fract_z
 _atom_site_occupancy
  Ho  Ho0  1  0.750000  0.414386  0.290308  1
  Ho  Ho1  1  0.750000  0.085614  0.790308  1
  Er  Er2  1  0.250000  0.585768  0.709671  1
  Er  Er3  1  0.250000  0.914232  0.209671  1
  Co  Co4  1  0.250000  0.461926  0.933781  1
  Co  Co5  1  0.250000  0.038074  0.433781  1
  Co  Co6  1  0.750000  0.538367  0.065974  1
  Co  Co7  1  0.750000  0.961633  0.565974  1
  P  P8  1  0.250000  0.426188  0.105546  1
  P  P9  1  0.250000  0.073812  0.605546  1
  P  P10  1  0.750000  0.573882  0.894234  1
  P  P11  1  0.750000  0.926118  0.394234  1
  P  P12  1  0.250000  0.271031  0.871549  1
  P  P13  1  0.250000  0.228969  0.371549  1
  P  P14  1  0.750000  0.729130  0.128748  1
  P  P15  1  0.750000  0.770870  0.628748  1
  P  P16  1  0.250000  0.594436  0.384732  1
  P  P17  1  0.250000  0.905564  0.884732  1
  P  P18  1  0.750000  0.405729  0.615306  1
  P  P19  1  0.750000  0.094271  0.115306  1
  Ir  Ir20  1  0.250000  0.721469  0.981334  1
  Ir  Ir21  1  0.250000  0.778531  0.481334  1
  Ir  Ir22  1  0.750000  0.278445  0.018594  1
  Ir  Ir23  1  0.750000  0.221555  0.518594  1
  Ir  Ir24  1  0.250000  0.407798  0.478035  1
  Ir  Ir25  1  0.250000  0.092202  0.978035  1
  Ir  Ir26  1  0.750000  0.592330  0.522510  1
  Ir  Ir27  1  0.750000  0.907670  0.022510  1
  Ir  Ir28  1  0.250000  0.232219  0.179802  1
  Ir  Ir29  1  0.250000  0.267781  0.679802  1
  Ir  Ir30  1  0.750000  0.767606  0.820176  1
  Ir  Ir31  1  0.750000  0.732394  0.320176  1
  Ir  Ir32  1  0.250000  0.886491  0.699022  1
  Ir  Ir33  1  0.250000  0.613509  0.199022  1
  Ir  Ir34  1  0.750000  0.113040  0.300678  1
  Ir  Ir35  1  0.750000  0.386960  0.800678  1
