# generated using pymatgen
data_CaTb3(Sc3Sn4)2
_symmetry_space_group_name_H-M   'P 1'
_cell_length_a   7.68692020
_cell_length_b   7.99182009
_cell_length_c   14.93617300
_cell_angle_alpha   90.13387252
_cell_angle_beta   89.37236593
_cell_angle_gamma   90.23479958
_symmetry_Int_Tables_number   1
_chemical_formula_structural   CaTb3(Sc3Sn4)2
_chemical_formula_sum   'Ca2 Tb6 Sc12 Sn16'
_cell_volume   917.50103272
_cell_formula_units_Z   2
loop_
 _symmetry_equiv_pos_site_id
 _symmetry_equiv_pos_as_xyz
  1  'x, y, z'
loop_
 _atom_site_type_symbol
 _atom_site_label
 _atom_site_symmetry_multiplicity
 _atom_site_fract_x
 _atom_site_fract_y
 _atom_site_fract_z
 _atom_site_occupancy
  Ca  Ca0  1  0.992378  0.176544  0.091966  1
  Ca  Ca1  1  0.007622  0.823456  0.908034  1
  Tb  Tb2  1  0.504827  0.677472  0.903350  1
  Tb  Tb3  1  0.003792  0.821544  0.592772  1
  Tb  Tb4  1  0.495173  0.322528  0.096650  1
  Tb  Tb5  1  0.996208  0.178456  0.407228  1
  Tb  Tb6  1  0.494163  0.323124  0.406912  1
  Tb  Tb7  1  0.505837  0.676876  0.593088  1
  Sc  Sc8  1  0.167002  0.497210  0.748117  1
  Sc  Sc9  1  0.832998  0.502790  0.251883  1
  Sc  Sc10  1  0.333572  0.996524  0.251453  1
  Sc  Sc11  1  0.666428  0.003476  0.748547  1
  Sc  Sc12  1  0.337994  0.160721  0.627773  1
  Sc  Sc13  1  0.662006  0.839279  0.372227  1
  Sc  Sc14  1  0.161840  0.660316  0.374027  1
  Sc  Sc15  1  0.667415  0.840178  0.129034  1
  Sc  Sc16  1  0.838160  0.339684  0.625973  1
  Sc  Sc17  1  0.332585  0.159822  0.870966  1
  Sc  Sc18  1  0.831959  0.340426  0.872497  1
  Sc  Sc19  1  0.168041  0.659574  0.127503  1
  Sn  Sn20  1  0.027142  0.126279  0.749255  1
  Sn  Sn21  1  0.972858  0.873721  0.250745  1
  Sn  Sn22  1  0.470576  0.625080  0.249997  1
  Sn  Sn23  1  0.529424  0.374920  0.750003  1
  Sn  Sn24  1  0.308515  0.850542  0.747240  1
  Sn  Sn25  1  0.691485  0.149458  0.252760  1
  Sn  Sn26  1  0.191487  0.350203  0.251311  1
  Sn  Sn27  1  0.808513  0.649797  0.748689  1
  Sn  Sn28  1  0.183198  0.454583  0.542005  1
  Sn  Sn29  1  0.816802  0.545417  0.457995  1
  Sn  Sn30  1  0.319598  0.955933  0.458319  1
  Sn  Sn31  1  0.821156  0.543640  0.043758  1
  Sn  Sn32  1  0.680402  0.044067  0.541681  1
  Sn  Sn33  1  0.178844  0.456360  0.956242  1
  Sn  Sn34  1  0.668945  0.041382  0.956224  1
  Sn  Sn35  1  0.331055  0.958618  0.043776  1
