# generated using pymatgen
data_MnV2SeO7
_symmetry_space_group_name_H-M   'P 1'
_cell_length_a   6.76151023
_cell_length_b   7.05922929
_cell_length_c   7.92883345
_cell_angle_alpha   95.11249211
_cell_angle_beta   113.03967933
_cell_angle_gamma   114.56921720
_symmetry_Int_Tables_number   1
_chemical_formula_structural   MnV2SeO7
_chemical_formula_sum   'Mn2 V4 Se2 O14'
_cell_volume   302.05194961
_cell_formula_units_Z   2
loop_
 _symmetry_equiv_pos_site_id
 _symmetry_equiv_pos_as_xyz
  1  'x, y, z'
loop_
 _atom_site_type_symbol
 _atom_site_label
 _atom_site_symmetry_multiplicity
 _atom_site_fract_x
 _atom_site_fract_y
 _atom_site_fract_z
 _atom_site_occupancy
  Mn  Mn0  1  0.441421  0.066976  0.173292  1
  Mn  Mn1  1  0.558579  0.933024  0.826708  1
  V  V2  1  0.022297  0.887605  0.659530  1
  V  V3  1  0.506964  0.566009  0.327447  1
  V  V4  1  0.493036  0.433991  0.672553  1
  V  V5  1  0.977703  0.112395  0.340470  1
  Se  Se6  1  0.088269  0.719112  0.297409  1
  Se  Se7  1  0.911731  0.280888  0.702591  1
  O  O8  1  0.147858  0.978461  0.257871  1
  O  O9  1  0.450099  0.363807  0.154472  1
  O  O10  1  0.186059  0.176867  0.627831  1
  O  O11  1  0.337115  0.743160  0.256314  1
  O  O12  1  0.215698  0.782036  0.544548  1
  O  O13  1  0.662885  0.256840  0.743686  1
  O  O14  1  0.813941  0.823133  0.372169  1
  O  O15  1  0.749755  0.094951  0.125351  1
  O  O16  1  0.852142  0.021539  0.742129  1
  O  O17  1  0.266836  0.404782  0.415787  1
  O  O18  1  0.549901  0.636193  0.845528  1
  O  O19  1  0.784302  0.217964  0.455452  1
  O  O20  1  0.250245  0.905049  0.874649  1
  O  O21  1  0.733164  0.595218  0.584213  1
