# generated using pymatgen
data_Pr3Cu4(P2O)2
_symmetry_space_group_name_H-M   'P 1'
_cell_length_a   4.01124232
_cell_length_b   4.01124227
_cell_length_c   13.76180980
_cell_angle_alpha   98.38003702
_cell_angle_beta   98.38003645
_cell_angle_gamma   90.00000526
_symmetry_Int_Tables_number   1
_chemical_formula_structural   Pr3Cu4(P2O)2
_chemical_formula_sum   'Pr3 Cu4 P4 O2'
_cell_volume   216.67431042
_cell_formula_units_Z   1
loop_
 _symmetry_equiv_pos_site_id
 _symmetry_equiv_pos_as_xyz
  1  'x, y, z'
loop_
 _atom_site_type_symbol
 _atom_site_label
 _atom_site_symmetry_multiplicity
 _atom_site_fract_x
 _atom_site_fract_y
 _atom_site_fract_z
 _atom_site_occupancy
  Pr  Pr0  1  0.000000  0.000000  0.000000  1
  Pr  Pr1  1  0.704468  0.704468  0.408935  1
  Pr  Pr2  1  0.295532  0.295532  0.591065  1
  Cu  Cu3  1  0.593997  0.093997  0.187993  1
  Cu  Cu4  1  0.093997  0.593997  0.187993  1
  Cu  Cu5  1  0.906004  0.406003  0.812007  1
  Cu  Cu6  1  0.406003  0.906004  0.812007  1
  P  P7  1  0.541667  0.541667  0.083332  1
  P  P8  1  0.139593  0.139593  0.279186  1
  P  P9  1  0.860408  0.860408  0.720813  1
  P  P10  1  0.458334  0.458334  0.916669  1
  O  O11  1  0.750001  0.250000  0.500000  1
  O  O12  1  0.250000  0.750001  0.500000  1
