# generated using pymatgen
data_Y5Hg3(IO6)4
_symmetry_space_group_name_H-M   'P 1'
_cell_length_a   5.42848683
_cell_length_b   7.81960538
_cell_length_c   11.84900287
_cell_angle_alpha   77.97267049
_cell_angle_beta   90.03035103
_cell_angle_gamma   90.26225840
_symmetry_Int_Tables_number   1
_chemical_formula_structural   Y5Hg3(IO6)4
_chemical_formula_sum   'Y5 Hg3 I4 O24'
_cell_volume   491.92755439
_cell_formula_units_Z   1
loop_
 _symmetry_equiv_pos_site_id
 _symmetry_equiv_pos_as_xyz
  1  'x, y, z'
loop_
 _atom_site_type_symbol
 _atom_site_label
 _atom_site_symmetry_multiplicity
 _atom_site_fract_x
 _atom_site_fract_y
 _atom_site_fract_z
 _atom_site_occupancy
  Y  Y0  1  0.254906  0.991531  0.746175  1
  Y  Y1  1  0.745620  0.004032  0.253171  1
  Y  Y2  1  0.320640  0.506002  0.747750  1
  Y  Y3  1  0.687654  0.504888  0.242454  1
  Y  Y4  1  0.804432  0.781001  0.579320  1
  Hg  Hg5  1  0.199954  0.788431  0.072157  1
  Hg  Hg6  1  0.204651  0.226720  0.424518  1
  Hg  Hg7  1  0.797987  0.209379  0.925425  1
  I  I8  1  0.740318  0.733714  0.886227  1
  I  I9  1  0.256399  0.735122  0.380978  1
  I  I10  1  0.749471  0.263625  0.618866  1
  I  I11  1  0.253211  0.263113  0.121045  1
  O  O12  1  0.848117  0.339648  0.462961  1
  O  O13  1  0.457498  0.858143  0.920035  1
  O  O14  1  0.827759  0.662886  0.048489  1
  O  O15  1  0.040693  0.303747  0.701508  1
  O  O16  1  0.965743  0.304106  0.211179  1
  O  O17  1  0.145689  0.341778  0.966822  1
  O  O18  1  0.607018  0.505304  0.887953  1
  O  O19  1  0.539224  0.150410  0.079407  1
  O  O20  1  0.150204  0.648185  0.533756  1
  O  O21  1  0.033208  0.708623  0.756651  1
  O  O22  1  0.446678  0.208892  0.271664  1
  O  O23  1  0.062129  0.941668  0.392275  1
  O  O24  1  0.463363  0.151183  0.574557  1
  O  O25  1  0.968597  0.695044  0.293135  1
  O  O26  1  0.915099  0.042612  0.622801  1
  O  O27  1  0.564657  0.204420  0.765988  1
  O  O28  1  0.527788  0.782318  0.719523  1
  O  O29  1  0.076309  0.047331  0.130464  1
  O  O30  1  0.631370  0.493807  0.616231  1
  O  O31  1  0.378360  0.488592  0.116997  1
  O  O32  1  0.441237  0.802255  0.232376  1
  O  O33  1  0.397264  0.517379  0.380607  1
  O  O34  1  0.541459  0.846339  0.429731  1
  O  O35  1  0.955294  0.947773  0.886806  1
