# generated using pymatgen
data_Pr5Zn2IrRh2
_symmetry_space_group_name_H-M   'P 1'
_cell_length_a   8.67100943
_cell_length_b   8.63838629
_cell_length_c   8.64262000
_cell_angle_alpha   109.40927423
_cell_angle_beta   109.70642794
_cell_angle_gamma   109.54769885
_symmetry_Int_Tables_number   1
_chemical_formula_structural   Pr5Zn2IrRh2
_chemical_formula_sum   'Pr10 Zn4 Ir2 Rh4'
_cell_volume   496.79568353
_cell_formula_units_Z   2
loop_
 _symmetry_equiv_pos_site_id
 _symmetry_equiv_pos_as_xyz
  1  'x, y, z'
loop_
 _atom_site_type_symbol
 _atom_site_label
 _atom_site_symmetry_multiplicity
 _atom_site_fract_x
 _atom_site_fract_y
 _atom_site_fract_z
 _atom_site_occupancy
  Pr  Pr0  1  0.252513  0.685240  0.433168  1
  Pr  Pr1  1  0.748571  0.814100  0.068288  1
  Pr  Pr2  1  0.433774  0.253445  0.685546  1
  Pr  Pr3  1  0.683415  0.433317  0.249226  1
  Pr  Pr4  1  0.066744  0.748025  0.812958  1
  Pr  Pr5  1  0.814839  0.065659  0.750571  1
  Pr  Pr6  1  0.222664  0.222358  0.222873  1
  Pr  Pr7  1  0.500184  0.000152  0.277116  1
  Pr  Pr8  1  0.276772  0.500396  0.000091  1
  Pr  Pr9  1  0.000271  0.276970  0.499961  1
  Zn  Zn10  1  0.499682  0.998167  0.906132  1
  Zn  Zn11  1  0.593161  0.594312  0.592825  1
  Zn  Zn12  1  0.906811  0.500135  0.999291  1
  Zn  Zn13  1  0.999191  0.906786  0.501234  1
  Ir  Ir14  1  0.621176  0.750664  0.370581  1
  Ir  Ir15  1  0.369963  0.618885  0.748855  1
  Rh  Rh16  1  0.251356  0.129215  0.880669  1
  Rh  Rh17  1  0.749478  0.371085  0.620267  1
  Rh  Rh18  1  0.879601  0.250351  0.129263  1
  Rh  Rh19  1  0.129835  0.880740  0.251087  1
