# generated using pymatgen
data_Tb3YHo4(B6Ru)4
_symmetry_space_group_name_H-M   'P 1'
_cell_length_a   3.65923000
_cell_length_b   9.13934701
_cell_length_c   11.51885801
_cell_angle_alpha   90.00422171
_cell_angle_beta   90.00000000
_cell_angle_gamma   90.00000000
_symmetry_Int_Tables_number   1
_chemical_formula_structural   Tb3YHo4(B6Ru)4
_chemical_formula_sum   'Tb3 Y1 Ho4 B24 Ru4'
_cell_volume   385.22485337
_cell_formula_units_Z   1
loop_
 _symmetry_equiv_pos_site_id
 _symmetry_equiv_pos_as_xyz
  1  'x, y, z'
loop_
 _atom_site_type_symbol
 _atom_site_label
 _atom_site_symmetry_multiplicity
 _atom_site_fract_x
 _atom_site_fract_y
 _atom_site_fract_z
 _atom_site_occupancy
  Tb  Tb0  1  0.000000  0.322818  0.414054  1
  Tb  Tb1  1  0.000000  0.677169  0.585968  1
  Tb  Tb2  1  0.000000  0.822845  0.085921  1
  Y  Y3  1  0.000000  0.177537  0.914156  1
  Ho  Ho4  1  0.000000  0.943709  0.372129  1
  Ho  Ho5  1  0.000000  0.056296  0.627875  1
  Ho  Ho6  1  0.000000  0.443692  0.127815  1
  Ho  Ho7  1  0.000000  0.556246  0.872181  1
  B  B8  1  0.500000  0.554414  0.432691  1
  B  B9  1  0.500000  0.445559  0.567311  1
  B  B10  1  0.500000  0.054380  0.067214  1
  B  B11  1  0.500000  0.945635  0.932767  1
  B  B12  1  0.500000  0.748233  0.419416  1
  B  B13  1  0.500000  0.251752  0.580592  1
  B  B14  1  0.500000  0.248196  0.080494  1
  B  B15  1  0.500000  0.751785  0.919408  1
  B  B16  1  0.500000  0.791116  0.266357  1
  B  B17  1  0.500000  0.208768  0.733709  1
  B  B18  1  0.500000  0.291125  0.233606  1
  B  B19  1  0.500000  0.708879  0.766359  1
  B  B20  1  0.500000  0.631680  0.185108  1
  B  B21  1  0.500000  0.368250  0.814901  1
  B  B22  1  0.500000  0.131708  0.314869  1
  B  B23  1  0.500000  0.868305  0.685134  1
  B  B24  1  0.500000  0.983863  0.213082  1
  B  B25  1  0.500000  0.016292  0.786920  1
  B  B26  1  0.500000  0.483851  0.286882  1
  B  B27  1  0.500000  0.516120  0.713136  1
  B  B28  1  0.500000  0.607217  0.029584  1
  B  B29  1  0.500000  0.392512  0.970355  1
  B  B30  1  0.500000  0.107183  0.470440  1
  B  B31  1  0.500000  0.892815  0.529563  1
  Ru  Ru32  1  0.000000  0.638069  0.320895  1
  Ru  Ru33  1  0.000000  0.361897  0.679100  1
  Ru  Ru34  1  0.000000  0.138059  0.179058  1
  Ru  Ru35  1  0.000000  0.862024  0.820950  1
