# generated using pymatgen
data_YEr(SiTc2)4
_symmetry_space_group_name_H-M   'P 1'
_cell_length_a   7.35128752
_cell_length_b   7.35128785
_cell_length_c   4.14473000
_cell_angle_alpha   90.00000000
_cell_angle_beta   90.00000000
_cell_angle_gamma   90.86113423
_symmetry_Int_Tables_number   1
_chemical_formula_structural   YEr(SiTc2)4
_chemical_formula_sum   'Y1 Er1 Si4 Tc8'
_cell_volume   223.96184108
_cell_formula_units_Z   1
loop_
 _symmetry_equiv_pos_site_id
 _symmetry_equiv_pos_as_xyz
  1  'x, y, z'
loop_
 _atom_site_type_symbol
 _atom_site_label
 _atom_site_symmetry_multiplicity
 _atom_site_fract_x
 _atom_site_fract_y
 _atom_site_fract_z
 _atom_site_occupancy
  Y  Y0  1  0.000000  0.000000  0.500000  1
  Er  Er1  1  0.500000  0.500000  0.000000  1
  Si  Si2  1  0.210021  0.789979  0.000000  1
  Si  Si3  1  0.789979  0.210021  0.000000  1
  Si  Si4  1  0.707151  0.707151  0.500000  1
  Si  Si5  1  0.292849  0.292849  0.500000  1
  Tc  Tc6  1  0.651823  0.902472  0.000000  1
  Tc  Tc7  1  0.158906  0.591668  0.500000  1
  Tc  Tc8  1  0.097528  0.348177  0.000000  1
  Tc  Tc9  1  0.902472  0.651823  0.000000  1
  Tc  Tc10  1  0.408332  0.841094  0.500000  1
  Tc  Tc11  1  0.591668  0.158906  0.500000  1
  Tc  Tc12  1  0.348177  0.097528  0.000000  1
  Tc  Tc13  1  0.841094  0.408332  0.500000  1
