# generated using pymatgen
data_La2Ce(Zn3Co2)3
_symmetry_space_group_name_H-M   'P 1'
_cell_length_a   8.93251000
_cell_length_b   8.93250900
_cell_length_c   4.20753000
_cell_angle_alpha   90.00000000
_cell_angle_beta   90.00000000
_cell_angle_gamma   119.99999630
_symmetry_Int_Tables_number   1
_chemical_formula_structural   La2Ce(Zn3Co2)3
_chemical_formula_sum   'La2 Ce1 Zn9 Co6'
_cell_volume   290.74003776
_cell_formula_units_Z   1
loop_
 _symmetry_equiv_pos_site_id
 _symmetry_equiv_pos_as_xyz
  1  'x, y, z'
loop_
 _atom_site_type_symbol
 _atom_site_label
 _atom_site_symmetry_multiplicity
 _atom_site_fract_x
 _atom_site_fract_y
 _atom_site_fract_z
 _atom_site_occupancy
  La  La0  1  0.333333  0.666667  0.000000  1
  La  La1  1  0.666667  0.333333  0.000000  1
  Ce  Ce2  1  0.000000  0.000000  0.500000  1
  Zn  Zn3  1  0.500000  0.000000  0.500000  1
  Zn  Zn4  1  0.500000  0.500000  0.500000  1
  Zn  Zn5  1  0.000000  0.500000  0.500000  1
  Zn  Zn6  1  0.291313  0.000000  0.000000  1
  Zn  Zn7  1  0.291313  0.291313  0.000000  1
  Zn  Zn8  1  0.000000  0.708687  0.000000  1
  Zn  Zn9  1  0.000000  0.291313  0.000000  1
  Zn  Zn10  1  0.708687  0.708687  0.000000  1
  Zn  Zn11  1  0.708687  0.000000  0.000000  1
  Co  Co12  1  0.170697  0.341394  0.500000  1
  Co  Co13  1  0.829303  0.170697  0.500000  1
  Co  Co14  1  0.341394  0.170697  0.500000  1
  Co  Co15  1  0.658606  0.829303  0.500000  1
  Co  Co16  1  0.170697  0.829303  0.500000  1
  Co  Co17  1  0.829303  0.658606  0.500000  1
