# generated using pymatgen
data_Lu4Ti5Ge8Mo
_symmetry_space_group_name_H-M   'P 1'
_cell_length_a   6.91543900
_cell_length_b   7.06059700
_cell_length_c   13.33749800
_cell_angle_alpha   90.00000000
_cell_angle_beta   90.00000000
_cell_angle_gamma   90.00000000
_symmetry_Int_Tables_number   1
_chemical_formula_structural   Lu4Ti5Ge8Mo
_chemical_formula_sum   'Lu8 Ti10 Ge16 Mo2'
_cell_volume   651.23172014
_cell_formula_units_Z   2
loop_
 _symmetry_equiv_pos_site_id
 _symmetry_equiv_pos_as_xyz
  1  'x, y, z'
loop_
 _atom_site_type_symbol
 _atom_site_label
 _atom_site_symmetry_multiplicity
 _atom_site_fract_x
 _atom_site_fract_y
 _atom_site_fract_z
 _atom_site_occupancy
  Lu  Lu0  1  0.494828  0.323621  0.096686  1
  Lu  Lu1  1  0.994828  0.176379  0.403314  1
  Lu  Lu2  1  0.504325  0.674379  0.593022  1
  Lu  Lu3  1  0.004325  0.825621  0.906978  1
  Lu  Lu4  1  0.504325  0.674379  0.906978  1
  Lu  Lu5  1  0.004325  0.825621  0.593022  1
  Lu  Lu6  1  0.494828  0.323621  0.403314  1
  Lu  Lu7  1  0.994828  0.176379  0.096686  1
  Ti  Ti8  1  0.839350  0.330482  0.626825  1
  Ti  Ti9  1  0.339350  0.169518  0.873175  1
  Ti  Ti10  1  0.162005  0.668487  0.127344  1
  Ti  Ti11  1  0.662005  0.831513  0.372656  1
  Ti  Ti12  1  0.162005  0.668487  0.372656  1
  Ti  Ti13  1  0.662005  0.831513  0.127344  1
  Ti  Ti14  1  0.839350  0.330482  0.873175  1
  Ti  Ti15  1  0.339350  0.169518  0.626825  1
  Ti  Ti16  1  0.666884  0.009438  0.750000  1
  Ti  Ti17  1  0.166884  0.490562  0.750000  1
  Ge  Ge18  1  0.674496  0.040642  0.541025  1
  Ge  Ge19  1  0.174496  0.459358  0.958975  1
  Ge  Ge20  1  0.323738  0.959209  0.043622  1
  Ge  Ge21  1  0.823738  0.540791  0.456378  1
  Ge  Ge22  1  0.323738  0.959209  0.456378  1
  Ge  Ge23  1  0.823738  0.540791  0.043622  1
  Ge  Ge24  1  0.674496  0.040642  0.958975  1
  Ge  Ge25  1  0.174496  0.459358  0.541025  1
  Ge  Ge26  1  0.537077  0.374172  0.750000  1
  Ge  Ge27  1  0.037077  0.125828  0.750000  1
  Ge  Ge28  1  0.463310  0.624733  0.250000  1
  Ge  Ge29  1  0.963310  0.875267  0.250000  1
  Ge  Ge30  1  0.807872  0.641259  0.750000  1
  Ge  Ge31  1  0.307872  0.858741  0.750000  1
  Ge  Ge32  1  0.193534  0.361814  0.250000  1
  Ge  Ge33  1  0.693534  0.138186  0.250000  1
  Mo  Mo34  1  0.333837  0.988574  0.250000  1
  Mo  Mo35  1  0.833837  0.511426  0.250000  1
