# generated using pymatgen
data_HoLu11Tc3Ir
_symmetry_space_group_name_H-M   'P 1'
_cell_length_a   6.16066424
_cell_length_b   7.29682922
_cell_length_c   8.89534100
_cell_angle_alpha   90.00000000
_cell_angle_beta   90.00000000
_cell_angle_gamma   89.95530269
_symmetry_Int_Tables_number   1
_chemical_formula_structural   HoLu11Tc3Ir
_chemical_formula_sum   'Ho1 Lu11 Tc3 Ir1'
_cell_volume   399.87494296
_cell_formula_units_Z   1
loop_
 _symmetry_equiv_pos_site_id
 _symmetry_equiv_pos_as_xyz
  1  'x, y, z'
loop_
 _atom_site_type_symbol
 _atom_site_label
 _atom_site_symmetry_multiplicity
 _atom_site_fract_x
 _atom_site_fract_y
 _atom_site_fract_z
 _atom_site_occupancy
  Ho  Ho0  1  0.128165  0.459033  0.750000  1
  Lu  Lu1  1  0.334103  0.676206  0.063700  1
  Lu  Lu2  1  0.162145  0.174566  0.437344  1
  Lu  Lu3  1  0.662660  0.323313  0.560294  1
  Lu  Lu4  1  0.836598  0.825684  0.939288  1
  Lu  Lu5  1  0.662660  0.323313  0.939706  1
  Lu  Lu6  1  0.836598  0.825684  0.560712  1
  Lu  Lu7  1  0.334103  0.676206  0.436300  1
  Lu  Lu8  1  0.162145  0.174566  0.062656  1
  Lu  Lu9  1  0.875738  0.539052  0.250000  1
  Lu  Lu10  1  0.624247  0.037656  0.250000  1
  Lu  Lu11  1  0.374378  0.961644  0.750000  1
  Tc  Tc12  1  0.040662  0.882986  0.250000  1
  Tc  Tc13  1  0.461418  0.384875  0.250000  1
  Tc  Tc14  1  0.959397  0.116560  0.750000  1
  Ir  Ir15  1  0.544984  0.618657  0.750000  1
