# generated using pymatgen
data_Sm5(PtO6)2
_symmetry_space_group_name_H-M   'P 1'
_cell_length_a   7.04922357
_cell_length_b   7.04922229
_cell_length_c   7.42805016
_cell_angle_alpha   74.59533333
_cell_angle_beta   74.59533532
_cell_angle_gamma   51.17632983
_symmetry_Int_Tables_number   1
_chemical_formula_structural   Sm5(PtO6)2
_chemical_formula_sum   'Sm5 Pt2 O12'
_cell_volume   274.81186107
_cell_formula_units_Z   1
loop_
 _symmetry_equiv_pos_site_id
 _symmetry_equiv_pos_as_xyz
  1  'x, y, z'
loop_
 _atom_site_type_symbol
 _atom_site_label
 _atom_site_symmetry_multiplicity
 _atom_site_fract_x
 _atom_site_fract_y
 _atom_site_fract_z
 _atom_site_occupancy
  Sm  Sm0  1  0.300224  0.300224  0.359940  1
  Sm  Sm1  1  0.699776  0.699776  0.640060  1
  Sm  Sm2  1  0.695486  0.695486  0.164904  1
  Sm  Sm3  1  0.304514  0.304514  0.835096  1
  Sm  Sm4  1  0.000000  0.000000  0.500000  1
  Pt  Pt5  1  0.752571  0.247429  0.000000  1
  Pt  Pt6  1  0.247429  0.752571  0.000000  1
  O  O7  1  0.096542  0.599484  0.574160  1
  O  O8  1  0.999627  0.999627  0.178093  1
  O  O9  1  0.400516  0.903458  0.425840  1
  O  O10  1  0.500080  0.500080  0.181126  1
  O  O11  1  0.099190  0.569940  0.083214  1
  O  O12  1  0.903458  0.400516  0.425840  1
  O  O13  1  0.000373  0.000373  0.821907  1
  O  O14  1  0.599484  0.096541  0.574160  1
  O  O15  1  0.499920  0.499920  0.818874  1
  O  O16  1  0.569940  0.099190  0.083214  1
  O  O17  1  0.430060  0.900810  0.916786  1
  O  O18  1  0.900810  0.430060  0.916786  1
