# generated using pymatgen
data_Pr5(AuC)2
_symmetry_space_group_name_H-M   'P 1'
_cell_length_a   8.71527300
_cell_length_b   13.45085400
_cell_length_c   3.93294200
_cell_angle_alpha   90.00000000
_cell_angle_beta   90.00000000
_cell_angle_gamma   90.00000000
_symmetry_Int_Tables_number   1
_chemical_formula_structural   Pr5(AuC)2
_chemical_formula_sum   'Pr10 Au4 C4'
_cell_volume   461.05039262
_cell_formula_units_Z   2
loop_
 _symmetry_equiv_pos_site_id
 _symmetry_equiv_pos_as_xyz
  1  'x, y, z'
loop_
 _atom_site_type_symbol
 _atom_site_label
 _atom_site_symmetry_multiplicity
 _atom_site_fract_x
 _atom_site_fract_y
 _atom_site_fract_z
 _atom_site_occupancy
  Pr  Pr0  1  0.500000  0.000000  0.000000  1
  Pr  Pr1  1  0.172006  0.201206  0.000000  1
  Pr  Pr2  1  0.672007  0.298794  0.000000  1
  Pr  Pr3  1  0.000000  0.500000  0.000000  1
  Pr  Pr4  1  0.327994  0.701206  0.000000  1
  Pr  Pr5  1  0.827994  0.798794  0.000000  1
  Pr  Pr6  1  0.838557  0.070173  0.499998  1
  Pr  Pr7  1  0.338557  0.429827  0.499998  1
  Pr  Pr8  1  0.661444  0.570173  0.499998  1
  Pr  Pr9  1  0.161444  0.929827  0.499998  1
  Au  Au10  1  0.458859  0.175908  0.499998  1
  Au  Au11  1  0.958859  0.324092  0.499998  1
  Au  Au12  1  0.041140  0.675908  0.499998  1
  Au  Au13  1  0.541142  0.824092  0.499998  1
  C  C14  1  0.037030  0.044722  0.000000  1
  C  C15  1  0.537029  0.455278  0.000000  1
  C  C16  1  0.462970  0.544722  0.000000  1
  C  C17  1  0.962971  0.955278  0.000000  1
