# generated using pymatgen
data_Cu3SiTe4
_symmetry_space_group_name_H-M   'P 1'
_cell_length_a   7.24613003
_cell_length_b   7.24613063
_cell_length_c   7.24613012
_cell_angle_alpha   131.55511486
_cell_angle_beta   131.55511374
_cell_angle_gamma   70.93258785
_symmetry_Int_Tables_number   1
_chemical_formula_structural   Cu3SiTe4
_chemical_formula_sum   'Cu3 Si1 Te4'
_cell_volume   208.64493584
_cell_formula_units_Z   1
loop_
 _symmetry_equiv_pos_site_id
 _symmetry_equiv_pos_as_xyz
  1  'x, y, z'
loop_
 _atom_site_type_symbol
 _atom_site_label
 _atom_site_symmetry_multiplicity
 _atom_site_fract_x
 _atom_site_fract_y
 _atom_site_fract_z
 _atom_site_occupancy
  Cu  Cu0  1  0.000000  0.000000  0.000000  1
  Cu  Cu1  1  0.750000  0.250000  0.500000  1
  Cu  Cu2  1  0.250000  0.750000  0.500000  1
  Si  Si3  1  0.500000  0.500000  0.000000  1
  Te  Te4  1  0.376842  0.876450  0.000000  1
  Te  Te5  1  0.876450  0.376842  0.000000  1
  Te  Te6  1  0.623158  0.623158  0.499609  1
  Te  Te7  1  0.123550  0.123550  0.500391  1
