# generated using pymatgen
data_Sc2Cu4Ni3
_symmetry_space_group_name_H-M   'P 1'
_cell_length_a   4.75417856
_cell_length_b   4.75417870
_cell_length_c   6.33698800
_cell_angle_alpha   82.30917281
_cell_angle_beta   82.30917258
_cell_angle_gamma   119.77765629
_symmetry_Int_Tables_number   1
_chemical_formula_structural   Sc2Cu4Ni3
_chemical_formula_sum   'Sc2 Cu4 Ni3'
_cell_volume   119.81289032
_cell_formula_units_Z   1
loop_
 _symmetry_equiv_pos_site_id
 _symmetry_equiv_pos_as_xyz
  1  'x, y, z'
loop_
 _atom_site_type_symbol
 _atom_site_label
 _atom_site_symmetry_multiplicity
 _atom_site_fract_x
 _atom_site_fract_y
 _atom_site_fract_z
 _atom_site_occupancy
  Sc  Sc0  1  0.095519  0.095519  0.245190  1
  Sc  Sc1  1  0.904481  0.904481  0.754810  1
  Cu  Cu2  1  0.459982  0.787247  0.155227  1
  Cu  Cu3  1  0.540018  0.212753  0.844773  1
  Cu  Cu4  1  0.212753  0.540018  0.844773  1
  Cu  Cu5  1  0.787247  0.459982  0.155227  1
  Ni  Ni6  1  0.000000  0.500000  0.500000  1
  Ni  Ni7  1  0.500000  0.000000  0.500000  1
  Ni  Ni8  1  0.500000  0.500000  0.500000  1
