# generated using pymatgen
data_Ti17Nb2Si16Tc
_symmetry_space_group_name_H-M   'P 1'
_cell_length_a   6.69625756
_cell_length_b   6.69625655
_cell_length_c   12.22076672
_cell_angle_alpha   89.87691958
_cell_angle_beta   90.12308055
_cell_angle_gamma   89.96023891
_symmetry_Int_Tables_number   1
_chemical_formula_structural   Ti17Nb2Si16Tc
_chemical_formula_sum   'Ti17 Nb2 Si16 Tc1'
_cell_volume   547.97478886
_cell_formula_units_Z   1
loop_
 _symmetry_equiv_pos_site_id
 _symmetry_equiv_pos_as_xyz
  1  'x, y, z'
loop_
 _atom_site_type_symbol
 _atom_site_label
 _atom_site_symmetry_multiplicity
 _atom_site_fract_x
 _atom_site_fract_y
 _atom_site_fract_z
 _atom_site_occupancy
  Ti  Ti0  1  0.995841  0.148865  0.623778  1
  Ti  Ti1  1  0.352400  0.498138  0.870948  1
  Ti  Ti2  1  0.648897  0.504661  0.371499  1
  Ti  Ti3  1  0.498138  0.352400  0.129052  1
  Ti  Ti4  1  0.504661  0.648897  0.628501  1
  Ti  Ti5  1  0.005746  0.848909  0.120641  1
  Ti  Ti6  1  0.148865  0.995841  0.376222  1
  Ti  Ti7  1  0.848909  0.005746  0.879359  1
  Ti  Ti8  1  0.001258  0.344236  0.222210  1
  Ti  Ti9  1  0.156739  0.501511  0.469271  1
  Ti  Ti10  1  0.838219  0.500896  0.971117  1
  Ti  Ti11  1  0.501511  0.156739  0.530729  1
  Ti  Ti12  1  0.500896  0.838219  0.028883  1
  Ti  Ti13  1  0.998518  0.658042  0.721556  1
  Ti  Ti14  1  0.344236  0.001258  0.777790  1
  Ti  Ti15  1  0.658042  0.998518  0.278444  1
  Ti  Ti16  1  0.829812  0.829812  0.500000  1
  Nb  Nb17  1  0.328218  0.671207  0.248558  1
  Nb  Nb18  1  0.671207  0.328218  0.751442  1
  Si  Si19  1  0.048908  0.300529  0.816305  1
  Si  Si20  1  0.195251  0.537286  0.061374  1
  Si  Si21  1  0.804305  0.457150  0.562601  1
  Si  Si22  1  0.537286  0.195251  0.938626  1
  Si  Si23  1  0.457150  0.804305  0.437399  1
  Si  Si24  1  0.953049  0.699161  0.315015  1
  Si  Si25  1  0.300529  0.048908  0.183695  1
  Si  Si26  1  0.699161  0.953049  0.684985  1
  Si  Si27  1  0.291794  0.358946  0.672530  1
  Si  Si28  1  0.141505  0.795593  0.921824  1
  Si  Si29  1  0.857889  0.204943  0.424296  1
  Si  Si30  1  0.795593  0.141505  0.078176  1
  Si  Si31  1  0.204943  0.857889  0.575704  1
  Si  Si32  1  0.708474  0.642278  0.173225  1
  Si  Si33  1  0.358946  0.291794  0.327470  1
  Si  Si34  1  0.642278  0.708474  0.826775  1
  Tc  Tc35  1  0.170826  0.170826  0.000000  1
