# generated using pymatgen
data_Tm6Lu4Si5Sn
_symmetry_space_group_name_H-M   'P 1'
_cell_length_a   8.36610500
_cell_length_b   8.38452069
_cell_length_c   6.23066900
_cell_angle_alpha   90.00000000
_cell_angle_beta   90.00000000
_cell_angle_gamma   119.92737446
_symmetry_Int_Tables_number   1
_chemical_formula_structural   Tm6Lu4Si5Sn
_chemical_formula_sum   'Tm6 Lu4 Si5 Sn1'
_cell_volume   378.77754542
_cell_formula_units_Z   1
loop_
 _symmetry_equiv_pos_site_id
 _symmetry_equiv_pos_as_xyz
  1  'x, y, z'
loop_
 _atom_site_type_symbol
 _atom_site_label
 _atom_site_symmetry_multiplicity
 _atom_site_fract_x
 _atom_site_fract_y
 _atom_site_fract_z
 _atom_site_occupancy
  Tm  Tm0  1  0.765789  0.000000  0.750000  1
  Tm  Tm1  1  0.756904  0.757987  0.250000  1
  Tm  Tm2  1  0.998916  0.242013  0.250000  1
  Tm  Tm3  1  0.989469  0.749900  0.750000  1
  Tm  Tm4  1  0.239568  0.250100  0.750000  1
  Tm  Tm5  1  0.240210  0.000000  0.250000  1
  Lu  Lu6  1  0.673475  0.341794  0.003007  1
  Lu  Lu7  1  0.331679  0.658206  0.496993  1
  Lu  Lu8  1  0.331679  0.658206  0.003007  1
  Lu  Lu9  1  0.673475  0.341794  0.496993  1
  Si  Si10  1  0.394334  0.393222  0.250000  1
  Si  Si11  1  0.001112  0.606778  0.250000  1
  Si  Si12  1  0.998842  0.394961  0.750000  1
  Si  Si13  1  0.603882  0.605039  0.750000  1
  Si  Si14  1  0.605195  0.000000  0.250000  1
  Sn  Sn15  1  0.395473  0.000000  0.750000  1
