# generated using pymatgen
data_Tb9ErAlBi5
_symmetry_space_group_name_H-M   'P 1'
_cell_length_a   9.14200248
_cell_length_b   9.14359128
_cell_length_c   6.43806339
_cell_angle_alpha   89.99543181
_cell_angle_beta   90.03671436
_cell_angle_gamma   119.80785432
_symmetry_Int_Tables_number   1
_chemical_formula_structural   Tb9ErAlBi5
_chemical_formula_sum   'Tb9 Er1 Al1 Bi5'
_cell_volume   466.96199674
_cell_formula_units_Z   1
loop_
 _symmetry_equiv_pos_site_id
 _symmetry_equiv_pos_as_xyz
  1  'x, y, z'
loop_
 _atom_site_type_symbol
 _atom_site_label
 _atom_site_symmetry_multiplicity
 _atom_site_fract_x
 _atom_site_fract_y
 _atom_site_fract_z
 _atom_site_occupancy
  Tb  Tb0  1  0.335450  0.659874  0.997036  1
  Tb  Tb1  1  0.335577  0.659589  0.503095  1
  Tb  Tb2  1  0.659463  0.335572  0.503339  1
  Tb  Tb3  1  0.750159  0.750058  0.750183  1
  Tb  Tb4  1  0.243916  0.012709  0.750194  1
  Tb  Tb5  1  0.012818  0.243867  0.750190  1
  Tb  Tb6  1  0.239964  0.239884  0.249672  1
  Tb  Tb7  1  0.758191  0.000229  0.249886  1
  Tb  Tb8  1  0.000753  0.758261  0.249822  1
  Er  Er9  1  0.659010  0.335399  0.996521  1
  Al  Al10  1  0.396676  0.395703  0.750916  1
  Bi  Bi11  1  0.611713  0.003574  0.750700  1
  Bi  Bi12  1  0.001798  0.610703  0.750709  1
  Bi  Bi13  1  0.608124  0.607201  0.249011  1
  Bi  Bi14  1  0.391249  0.996929  0.249376  1
  Bi  Bi15  1  0.995139  0.390447  0.249349  1
