# generated using pymatgen
data_Rb4Na2ErAlSb4
_symmetry_space_group_name_H-M   'P 1'
_cell_length_a   9.90218455
_cell_length_b   9.90218413
_cell_length_c   9.90218392
_cell_angle_alpha   136.00012234
_cell_angle_beta   62.79615056
_cell_angle_gamma   137.54573823
_symmetry_Int_Tables_number   1
_chemical_formula_structural   Rb4Na2ErAlSb4
_chemical_formula_sum   'Rb4 Na2 Er1 Al1 Sb4'
_cell_volume   449.62794183
_cell_formula_units_Z   1
loop_
 _symmetry_equiv_pos_site_id
 _symmetry_equiv_pos_as_xyz
  1  'x, y, z'
loop_
 _atom_site_type_symbol
 _atom_site_label
 _atom_site_symmetry_multiplicity
 _atom_site_fract_x
 _atom_site_fract_y
 _atom_site_fract_z
 _atom_site_occupancy
  Rb  Rb0  1  0.328559  0.771995  0.095770  1
  Rb  Rb1  1  0.171441  0.267211  0.443436  1
  Rb  Rb2  1  0.823775  0.728006  0.556565  1
  Rb  Rb3  1  0.676225  0.232790  0.904231  1
  Na  Na4  1  0.750000  0.250000  0.500000  1
  Na  Na5  1  0.250000  0.750001  0.500001  1
  Er  Er6  1  0.250000  0.250000  0.000000  1
  Al  Al7  1  0.750000  0.750000  0.000000  1
  Sb  Sb8  1  0.885574  0.198215  0.117259  1
  Sb  Sb9  1  0.614426  0.731687  0.312642  1
  Sb  Sb10  1  0.419044  0.301785  0.687359  1
  Sb  Sb11  1  0.080956  0.768314  0.882742  1
