# generated using pymatgen
data_Dy3Ho5(ErGa5)4
_symmetry_space_group_name_H-M   'P 1'
_cell_length_a   6.07721203
_cell_length_b   9.62023501
_cell_length_c   11.46616807
_cell_angle_alpha   89.99573305
_cell_angle_beta   89.98816780
_cell_angle_gamma   89.99729962
_symmetry_Int_Tables_number   1
_chemical_formula_structural   Dy3Ho5(ErGa5)4
_chemical_formula_sum   'Dy3 Ho5 Er4 Ga20'
_cell_volume   670.36041771
_cell_formula_units_Z   1
loop_
 _symmetry_equiv_pos_site_id
 _symmetry_equiv_pos_as_xyz
  1  'x, y, z'
loop_
 _atom_site_type_symbol
 _atom_site_label
 _atom_site_symmetry_multiplicity
 _atom_site_fract_x
 _atom_site_fract_y
 _atom_site_fract_z
 _atom_site_occupancy
  Dy  Dy0  1  0.890432  0.509802  0.351737  1
  Dy  Dy1  1  0.609577  0.990180  0.851837  1
  Dy  Dy2  1  0.109583  0.009785  0.648162  1
  Ho  Ho3  1  0.390456  0.490185  0.148219  1
  Ho  Ho4  1  0.109537  0.490205  0.648383  1
  Ho  Ho5  1  0.390471  0.009789  0.148396  1
  Ho  Ho6  1  0.890483  0.990216  0.351600  1
  Ho  Ho7  1  0.609483  0.509783  0.851729  1
  Er  Er8  1  0.848522  0.749964  0.074209  1
  Er  Er9  1  0.651374  0.750023  0.574164  1
  Er  Er10  1  0.151385  0.250016  0.925851  1
  Er  Er11  1  0.348672  0.250064  0.425789  1
  Ga  Ga12  1  0.874764  0.052799  0.090479  1
  Ga  Ga13  1  0.625249  0.447220  0.590478  1
  Ga  Ga14  1  0.125257  0.552758  0.909582  1
  Ga  Ga15  1  0.374815  0.947216  0.409533  1
  Ga  Ga16  1  0.125067  0.947127  0.909762  1
  Ga  Ga17  1  0.374935  0.552822  0.409614  1
  Ga  Ga18  1  0.874744  0.447187  0.090274  1
  Ga  Ga19  1  0.625068  0.052868  0.590234  1
  Ga  Ga20  1  0.173346  0.750081  0.251396  1
  Ga  Ga21  1  0.326780  0.749766  0.751506  1
  Ga  Ga22  1  0.826760  0.250230  0.748513  1
  Ga  Ga23  1  0.673130  0.249884  0.248458  1
  Ga  Ga24  1  0.372593  0.749933  0.005307  1
  Ga  Ga25  1  0.127428  0.749885  0.505123  1
  Ga  Ga26  1  0.627355  0.250157  0.994874  1
  Ga  Ga27  1  0.872546  0.249901  0.494858  1
  Ga  Ga28  1  0.603126  0.750188  0.299329  1
  Ga  Ga29  1  0.896849  0.749803  0.799346  1
  Ga  Ga30  1  0.396861  0.250198  0.700646  1
  Ga  Ga31  1  0.103355  0.249965  0.200612  1
