# generated using pymatgen
data_Ag5P4HO14
_symmetry_space_group_name_H-M   'P 1'
_cell_length_a   5.48036950
_cell_length_b   5.35997945
_cell_length_c   13.49916986
_cell_angle_alpha   77.99930590
_cell_angle_beta   98.78115554
_cell_angle_gamma   117.39765620
_symmetry_Int_Tables_number   1
_chemical_formula_structural   Ag5P4HO14
_chemical_formula_sum   'Ag5 P4 H1 O14'
_cell_volume   343.61987313
_cell_formula_units_Z   1
loop_
 _symmetry_equiv_pos_site_id
 _symmetry_equiv_pos_as_xyz
  1  'x, y, z'
loop_
 _atom_site_type_symbol
 _atom_site_label
 _atom_site_symmetry_multiplicity
 _atom_site_fract_x
 _atom_site_fract_y
 _atom_site_fract_z
 _atom_site_occupancy
  Ag  Ag0  1  0.967506  0.201247  0.231888  1
  Ag  Ag1  1  0.032415  0.798309  0.768021  1
  Ag  Ag2  1  0.242667  0.881866  0.037940  1
  Ag  Ag3  1  0.000006  0.000053  0.500007  1
  Ag  Ag4  1  0.757298  0.118139  0.962050  1
  P  P5  1  0.594431  0.526968  0.149627  1
  P  P6  1  0.573522  0.308101  0.370008  1
  P  P7  1  0.426439  0.691818  0.630041  1
  P  P8  1  0.405531  0.473063  0.850347  1
  H  H9  1  0.500148  0.499956  0.499947  1
  O  O10  1  0.816201  0.807663  0.098125  1
  O  O11  1  0.299534  0.498576  0.119848  1
  O  O12  1  0.614946  0.259035  0.136950  1
  O  O13  1  0.657267  0.555918  0.270096  1
  O  O14  1  0.257041  0.130022  0.359561  1
  O  O15  1  0.737787  0.139738  0.371124  1
  O  O16  1  0.664886  0.469888  0.460473  1
  O  O17  1  0.335067  0.530226  0.539556  1
  O  O18  1  0.262208  0.860351  0.628974  1
  O  O19  1  0.743072  0.869943  0.640540  1
  O  O20  1  0.342689  0.444014  0.729913  1
  O  O21  1  0.384892  0.741056  0.862990  1
  O  O22  1  0.700599  0.501667  0.880089  1
  O  O23  1  0.183849  0.192384  0.901884  1
