# generated using pymatgen
data_Li4TbTm3O8
_symmetry_space_group_name_H-M   'P 1'
_cell_length_a   3.35169800
_cell_length_b   5.28140532
_cell_length_c   11.10405101
_cell_angle_alpha   90.10813798
_cell_angle_beta   90.00000000
_cell_angle_gamma   90.00000000
_symmetry_Int_Tables_number   1
_chemical_formula_structural   Li4TbTm3O8
_chemical_formula_sum   'Li4 Tb1 Tm3 O8'
_cell_volume   196.55995929
_cell_formula_units_Z   1
loop_
 _symmetry_equiv_pos_site_id
 _symmetry_equiv_pos_as_xyz
  1  'x, y, z'
loop_
 _atom_site_type_symbol
 _atom_site_label
 _atom_site_symmetry_multiplicity
 _atom_site_fract_x
 _atom_site_fract_y
 _atom_site_fract_z
 _atom_site_occupancy
  Li  Li0  1  0.250000  0.098185  0.564934  1
  Li  Li1  1  0.750000  0.904422  0.430933  1
  Li  Li2  1  0.750000  0.596213  0.934455  1
  Li  Li3  1  0.250000  0.403367  0.070885  1
  Tb  Tb4  1  0.250000  0.046976  0.858811  1
  Tm  Tm5  1  0.250000  0.456088  0.359150  1
  Tm  Tm6  1  0.750000  0.545668  0.637381  1
  Tm  Tm7  1  0.750000  0.954846  0.142045  1
  O  O8  1  0.250000  0.312468  0.703304  1
  O  O9  1  0.750000  0.688526  0.292096  1
  O  O10  1  0.750000  0.801572  0.792247  1
  O  O11  1  0.250000  0.187284  0.209593  1
  O  O12  1  0.250000  0.759569  0.029780  1
  O  O13  1  0.750000  0.241661  0.977178  1
  O  O14  1  0.750000  0.262149  0.471647  1
  O  O15  1  0.250000  0.741006  0.525562  1
