# generated using pymatgen
data_Tm4Co16Si5Mo4P7
_symmetry_space_group_name_H-M   'P 1'
_cell_length_a   3.70150400
_cell_length_b   10.41810418
_cell_length_c   11.91739520
_cell_angle_alpha   90.02114388
_cell_angle_beta   90.00000000
_cell_angle_gamma   90.00000000
_symmetry_Int_Tables_number   1
_chemical_formula_structural   Tm4Co16Si5Mo4P7
_chemical_formula_sum   'Tm4 Co16 Si5 Mo4 P7'
_cell_volume   459.56635989
_cell_formula_units_Z   1
loop_
 _symmetry_equiv_pos_site_id
 _symmetry_equiv_pos_as_xyz
  1  'x, y, z'
loop_
 _atom_site_type_symbol
 _atom_site_label
 _atom_site_symmetry_multiplicity
 _atom_site_fract_x
 _atom_site_fract_y
 _atom_site_fract_z
 _atom_site_occupancy
  Tm  Tm0  1  0.250000  0.580839  0.702997  1
  Tm  Tm1  1  0.250000  0.918242  0.203157  1
  Tm  Tm2  1  0.750000  0.418591  0.297061  1
  Tm  Tm3  1  0.750000  0.078114  0.797409  1
  Co  Co4  1  0.250000  0.408192  0.485328  1
  Co  Co5  1  0.250000  0.088760  0.990237  1
  Co  Co6  1  0.750000  0.592408  0.512229  1
  Co  Co7  1  0.750000  0.906265  0.013073  1
  Co  Co8  1  0.250000  0.215057  0.177845  1
  Co  Co9  1  0.250000  0.287223  0.672064  1
  Co  Co10  1  0.750000  0.784607  0.823010  1
  Co  Co11  1  0.750000  0.715583  0.323381  1
  Co  Co12  1  0.250000  0.882573  0.701602  1
  Co  Co13  1  0.250000  0.617588  0.202058  1
  Co  Co14  1  0.750000  0.116469  0.298012  1
  Co  Co15  1  0.750000  0.384578  0.797223  1
  Co  Co16  1  0.250000  0.467261  0.933059  1
  Co  Co17  1  0.250000  0.036099  0.431928  1
  Co  Co18  1  0.750000  0.537099  0.069405  1
  Co  Co19  1  0.750000  0.964292  0.568599  1
  Si  Si20  1  0.250000  0.420117  0.116549  1
  Si  Si21  1  0.250000  0.080915  0.617071  1
  Si  Si22  1  0.750000  0.579929  0.883847  1
  Si  Si23  1  0.750000  0.920067  0.383814  1
  Si  Si24  1  0.250000  0.267718  0.862006  1
  Mo  Mo25  1  0.250000  0.706892  0.990801  1
  Mo  Mo26  1  0.250000  0.792809  0.490015  1
  Mo  Mo27  1  0.750000  0.294165  0.010835  1
  Mo  Mo28  1  0.750000  0.206900  0.508823  1
  P  P29  1  0.250000  0.231489  0.362869  1
  P  P30  1  0.750000  0.731890  0.137566  1
  P  P31  1  0.750000  0.768359  0.636936  1
  P  P32  1  0.250000  0.595795  0.390049  1
  P  P33  1  0.250000  0.903771  0.890615  1
  P  P34  1  0.750000  0.404551  0.609106  1
  P  P35  1  0.750000  0.094795  0.109422  1
