# generated using pymatgen
data_Ho2Ta3Co9As7
_symmetry_space_group_name_H-M   'P 1'
_cell_length_a   3.80871800
_cell_length_b   9.53527132
_cell_length_c   9.53527200
_cell_angle_alpha   120.00000236
_cell_angle_beta   90.00000000
_cell_angle_gamma   90.00000000
_symmetry_Int_Tables_number   1
_chemical_formula_structural   Ho2Ta3Co9As7
_chemical_formula_sum   'Ho2 Ta3 Co9 As7'
_cell_volume   299.89938908
_cell_formula_units_Z   1
loop_
 _symmetry_equiv_pos_site_id
 _symmetry_equiv_pos_as_xyz
  1  'x, y, z'
loop_
 _atom_site_type_symbol
 _atom_site_label
 _atom_site_symmetry_multiplicity
 _atom_site_fract_x
 _atom_site_fract_y
 _atom_site_fract_z
 _atom_site_occupancy
  Ho  Ho0  1  0.000000  0.666667  0.333333  1
  Ho  Ho1  1  0.500000  0.333333  0.666667  1
  Ta  Ta2  1  0.500000  0.775165  0.896208  1
  Ta  Ta3  1  0.500000  0.121043  0.224835  1
  Ta  Ta4  1  0.500000  0.103792  0.878957  1
  Co  Co5  1  0.000000  0.572065  0.936218  1
  Co  Co6  1  0.000000  0.364153  0.427935  1
  Co  Co7  1  0.000000  0.063782  0.635847  1
  Co  Co8  1  0.000000  0.878241  0.159421  1
  Co  Co9  1  0.000000  0.281180  0.121759  1
  Co  Co10  1  0.000000  0.840579  0.718820  1
  Co  Co11  1  0.500000  0.948124  0.384217  1
  Co  Co12  1  0.500000  0.436092  0.051876  1
  Co  Co13  1  0.500000  0.615783  0.563908  1
  As  As14  1  0.000000  0.000000  0.000000  1
  As  As15  1  0.500000  0.708051  0.125222  1
  As  As16  1  0.500000  0.417172  0.291949  1
  As  As17  1  0.500000  0.874778  0.582828  1
  As  As18  1  0.000000  0.579123  0.690769  1
  As  As19  1  0.000000  0.111647  0.420877  1
  As  As20  1  0.000000  0.309231  0.888353  1
