# generated using pymatgen
data_Sr8Li4Si11P
_symmetry_space_group_name_H-M   'P 1'
_cell_length_a   11.77956845
_cell_length_b   10.11513998
_cell_length_c   8.51792006
_cell_angle_alpha   77.90220966
_cell_angle_beta   57.07891319
_cell_angle_gamma   44.92666089
_symmetry_Int_Tables_number   1
_chemical_formula_structural   Sr8Li4Si11P
_chemical_formula_sum   'Sr8 Li4 Si11 P1'
_cell_volume   574.76770056
_cell_formula_units_Z   1
loop_
 _symmetry_equiv_pos_site_id
 _symmetry_equiv_pos_as_xyz
  1  'x, y, z'
loop_
 _atom_site_type_symbol
 _atom_site_label
 _atom_site_symmetry_multiplicity
 _atom_site_fract_x
 _atom_site_fract_y
 _atom_site_fract_z
 _atom_site_occupancy
  Sr  Sr0  1  0.122567  0.122458  0.877609  1
  Sr  Sr1  1  0.875976  0.878484  0.123779  1
  Sr  Sr2  1  0.125490  0.124517  0.375658  1
  Sr  Sr3  1  0.374485  0.374938  0.126681  1
  Sr  Sr4  1  0.621305  0.624137  0.378247  1
  Sr  Sr5  1  0.377279  0.377211  0.622601  1
  Sr  Sr6  1  0.627142  0.624705  0.872237  1
  Sr  Sr7  1  0.874821  0.872696  0.623916  1
  Li  Li8  1  0.080082  0.420006  0.087650  1
  Li  Li9  1  0.833571  0.167515  0.832416  1
  Li  Li10  1  0.168169  0.833425  0.166092  1
  Li  Li11  1  0.418833  0.081480  0.414744  1
  Si  Si12  1  0.071096  0.423183  0.589937  1
  Si  Si13  1  0.426916  0.068522  0.912631  1
  Si  Si14  1  0.590897  0.913240  0.070842  1
  Si  Si15  1  0.334992  0.658823  0.826912  1
  Si  Si16  1  0.659514  0.336005  0.178564  1
  Si  Si17  1  0.824889  0.180282  0.336101  1
  Si  Si18  1  0.179268  0.824507  0.659418  1
  Si  Si19  1  0.911256  0.589029  0.912135  1
  Si  Si20  1  0.588978  0.911540  0.584665  1
  Si  Si21  1  0.337577  0.661926  0.337446  1
  Si  Si22  1  0.662136  0.338414  0.662732  1
  P  P23  1  0.912767  0.592964  0.426983  1
