# generated using pymatgen
data_Ta13Co8Re2MoN4
_symmetry_space_group_name_H-M   'P 1'
_cell_length_a   8.15373918
_cell_length_b   8.08983729
_cell_length_c   8.15384383
_cell_angle_alpha   60.01018464
_cell_angle_beta   60.24895112
_cell_angle_gamma   60.00993489
_symmetry_Int_Tables_number   1
_chemical_formula_structural   Ta13Co8Re2MoN4
_chemical_formula_sum   'Ta13 Co8 Re2 Mo1 N4'
_cell_volume   381.08399380
_cell_formula_units_Z   1
loop_
 _symmetry_equiv_pos_site_id
 _symmetry_equiv_pos_as_xyz
  1  'x, y, z'
loop_
 _atom_site_type_symbol
 _atom_site_label
 _atom_site_symmetry_multiplicity
 _atom_site_fract_x
 _atom_site_fract_y
 _atom_site_fract_z
 _atom_site_occupancy
  Ta  Ta0  1  0.625000  0.125000  0.625000  1
  Ta  Ta1  1  0.808208  0.807914  0.190834  1
  Ta  Ta2  1  0.186821  0.192093  0.810571  1
  Ta  Ta3  1  0.812440  0.189179  0.812435  1
  Ta  Ta4  1  0.193479  0.806451  0.193483  1
  Ta  Ta5  1  0.190836  0.807907  0.808199  1
  Ta  Ta6  1  0.810567  0.192096  0.186828  1
  Ta  Ta7  1  0.441792  0.442086  0.059166  1
  Ta  Ta8  1  0.063179  0.057907  0.439429  1
  Ta  Ta9  1  0.437560  0.060821  0.437565  1
  Ta  Ta10  1  0.056521  0.443549  0.056517  1
  Ta  Ta11  1  0.059164  0.442093  0.441801  1
  Ta  Ta12  1  0.439433  0.057904  0.063172  1
  Co  Co13  1  0.738264  0.424042  0.418156  1
  Co  Co14  1  0.422733  0.730649  0.422733  1
  Co  Co15  1  0.418155  0.424034  0.738283  1
  Co  Co16  1  0.419527  0.424691  0.419523  1
  Co  Co17  1  0.511736  0.825958  0.831844  1
  Co  Co18  1  0.827267  0.519351  0.827267  1
  Co  Co19  1  0.831845  0.825966  0.511717  1
  Co  Co20  1  0.830473  0.825309  0.830477  1
  Re  Re21  1  0.125000  0.625000  0.625000  1
  Re  Re22  1  0.625000  0.625000  0.125000  1
  Mo  Mo23  1  0.625000  0.625000  0.625000  1
  N  N24  1  0.625000  0.125000  0.125000  1
  N  N25  1  0.125000  0.625000  0.125000  1
  N  N26  1  0.125000  0.125000  0.625000  1
  N  N27  1  0.125000  0.125000  0.125000  1
