# generated using pymatgen
data_Mn7CrRe4
_symmetry_space_group_name_H-M   'P 1'
_cell_length_a   4.65789683
_cell_length_b   4.67722252
_cell_length_c   7.70176000
_cell_angle_alpha   90.00000000
_cell_angle_beta   90.00000000
_cell_angle_gamma   120.13733144
_symmetry_Int_Tables_number   1
_chemical_formula_structural   Mn7CrRe4
_chemical_formula_sum   'Mn7 Cr1 Re4'
_cell_volume   145.10950146
_cell_formula_units_Z   1
loop_
 _symmetry_equiv_pos_site_id
 _symmetry_equiv_pos_as_xyz
  1  'x, y, z'
loop_
 _atom_site_type_symbol
 _atom_site_label
 _atom_site_symmetry_multiplicity
 _atom_site_fract_x
 _atom_site_fract_y
 _atom_site_fract_z
 _atom_site_occupancy
  Mn  Mn0  1  0.346649  0.173324  0.250000  1
  Mn  Mn1  1  0.825088  0.173633  0.250000  1
  Mn  Mn2  1  0.171644  0.344730  0.750000  1
  Mn  Mn3  1  0.171644  0.826913  0.750000  1
  Mn  Mn4  1  0.825088  0.651455  0.250000  1
  Mn  Mn5  1  0.002926  0.001463  0.496238  1
  Mn  Mn6  1  0.002926  0.001463  0.003762  1
  Cr  Cr7  1  0.656072  0.828036  0.750000  1
  Re  Re8  1  0.332837  0.666419  0.431962  1
  Re  Re9  1  0.666145  0.333073  0.933643  1
  Re  Re10  1  0.666145  0.333073  0.566357  1
  Re  Re11  1  0.332837  0.666419  0.068038  1
