# generated using pymatgen
data_Er7TmRe2(B12Ru)2
_symmetry_space_group_name_H-M   'P 1'
_cell_length_a   3.64301300
_cell_length_b   9.10590628
_cell_length_c   11.48636000
_cell_angle_alpha   89.80777252
_cell_angle_beta   90.00000000
_cell_angle_gamma   90.00000000
_symmetry_Int_Tables_number   1
_chemical_formula_structural   Er7TmRe2(B12Ru)2
_chemical_formula_sum   'Er7 Tm1 Re2 B24 Ru2'
_cell_volume   381.03412856
_cell_formula_units_Z   1
loop_
 _symmetry_equiv_pos_site_id
 _symmetry_equiv_pos_as_xyz
  1  'x, y, z'
loop_
 _atom_site_type_symbol
 _atom_site_label
 _atom_site_symmetry_multiplicity
 _atom_site_fract_x
 _atom_site_fract_y
 _atom_site_fract_z
 _atom_site_occupancy
  Er  Er0  1  0.000000  0.324551  0.415498  1
  Er  Er1  1  0.000000  0.675404  0.584569  1
  Er  Er2  1  0.000000  0.820766  0.087636  1
  Er  Er3  1  0.000000  0.179276  0.912292  1
  Er  Er4  1  0.000000  0.943091  0.370956  1
  Er  Er5  1  0.000000  0.056956  0.629057  1
  Er  Er6  1  0.000000  0.442854  0.129047  1
  Tm  Tm7  1  0.000000  0.557135  0.870773  1
  Re  Re8  1  0.000000  0.638378  0.320248  1
  Re  Re9  1  0.000000  0.361803  0.679890  1
  B  B10  1  0.500000  0.552900  0.433358  1
  B  B11  1  0.500000  0.447103  0.566693  1
  B  B12  1  0.500000  0.053675  0.066684  1
  B  B13  1  0.500000  0.946270  0.933296  1
  B  B14  1  0.500000  0.749204  0.419421  1
  B  B15  1  0.500000  0.250829  0.580589  1
  B  B16  1  0.500000  0.248735  0.080643  1
  B  B17  1  0.500000  0.751024  0.919325  1
  B  B18  1  0.500000  0.792237  0.265094  1
  B  B19  1  0.500000  0.207832  0.734919  1
  B  B20  1  0.500000  0.290965  0.234189  1
  B  B21  1  0.500000  0.708814  0.765894  1
  B  B22  1  0.500000  0.631276  0.184718  1
  B  B23  1  0.500000  0.368920  0.815373  1
  B  B24  1  0.500000  0.131094  0.314315  1
  B  B25  1  0.500000  0.868880  0.685720  1
  B  B26  1  0.500000  0.982843  0.211971  1
  B  B27  1  0.500000  0.017131  0.788039  1
  B  B28  1  0.500000  0.481897  0.287380  1
  B  B29  1  0.500000  0.518233  0.712801  1
  B  B30  1  0.500000  0.603598  0.028284  1
  B  B31  1  0.500000  0.396593  0.971303  1
  B  B32  1  0.500000  0.103451  0.471211  1
  B  B33  1  0.500000  0.896553  0.528799  1
  Ru  Ru34  1  0.000000  0.137796  0.178416  1
  Ru  Ru35  1  0.000000  0.861936  0.821600  1
