# generated using pymatgen
data_Ca2TbLu(Ga2Ag)4
_symmetry_space_group_name_H-M   'P 1'
_cell_length_a   4.34928200
_cell_length_b   6.99568896
_cell_length_c   10.44600435
_cell_angle_alpha   90.19382249
_cell_angle_beta   90.00000000
_cell_angle_gamma   90.00000000
_symmetry_Int_Tables_number   1
_chemical_formula_structural   Ca2TbLu(Ga2Ag)4
_chemical_formula_sum   'Ca2 Tb1 Lu1 Ga8 Ag4'
_cell_volume   317.83065022
_cell_formula_units_Z   1
loop_
 _symmetry_equiv_pos_site_id
 _symmetry_equiv_pos_as_xyz
  1  'x, y, z'
loop_
 _atom_site_type_symbol
 _atom_site_label
 _atom_site_symmetry_multiplicity
 _atom_site_fract_x
 _atom_site_fract_y
 _atom_site_fract_z
 _atom_site_occupancy
  Ca  Ca0  1  0.750000  0.226606  0.174969  1
  Ca  Ca1  1  0.750000  0.726528  0.324549  1
  Tb  Tb2  1  0.250000  0.277601  0.674491  1
  Lu  Lu3  1  0.250000  0.776269  0.828437  1
  Ga  Ga4  1  0.250000  0.926734  0.149180  1
  Ga  Ga5  1  0.750000  0.068481  0.841911  1
  Ga  Ga6  1  0.750000  0.575629  0.658387  1
  Ga  Ga7  1  0.250000  0.427638  0.351606  1
  Ga  Ga8  1  0.250000  0.704058  0.537832  1
  Ga  Ga9  1  0.750000  0.298965  0.468942  1
  Ga  Ga10  1  0.750000  0.798516  0.029759  1
  Ga  Ga11  1  0.250000  0.196553  0.964107  1
  Ag  Ag12  1  0.250000  0.543482  0.094352  1
  Ag  Ag13  1  0.750000  0.454703  0.901139  1
  Ag  Ag14  1  0.750000  0.954587  0.597668  1
  Ag  Ag15  1  0.250000  0.043649  0.402670  1
