# generated using pymatgen
data_SmPdF7
_symmetry_space_group_name_H-M   'P 1'
_cell_length_a   5.59177300
_cell_length_b   9.01742319
_cell_length_c   12.10954715
_cell_angle_alpha   62.13153378
_cell_angle_beta   90.00000000
_cell_angle_gamma   90.00000000
_symmetry_Int_Tables_number   1
_chemical_formula_structural   SmPdF7
_chemical_formula_sum   'Sm4 Pd4 F28'
_cell_volume   539.78829894
_cell_formula_units_Z   4
loop_
 _symmetry_equiv_pos_site_id
 _symmetry_equiv_pos_as_xyz
  1  'x, y, z'
loop_
 _atom_site_type_symbol
 _atom_site_label
 _atom_site_symmetry_multiplicity
 _atom_site_fract_x
 _atom_site_fract_y
 _atom_site_fract_z
 _atom_site_occupancy
  Sm  Sm0  1  0.760810  0.811724  0.764532  1
  Sm  Sm1  1  0.260810  0.188276  0.735468  1
  Sm  Sm2  1  0.239190  0.188276  0.235468  1
  Sm  Sm3  1  0.739190  0.811724  0.264532  1
  Pd  Pd4  1  0.757188  0.272857  0.957470  1
  Pd  Pd5  1  0.257188  0.727143  0.542530  1
  Pd  Pd6  1  0.242812  0.727143  0.042530  1
  Pd  Pd7  1  0.742812  0.272857  0.457470  1
  F  F8  1  0.433006  0.704564  0.916516  1
  F  F9  1  0.933006  0.295436  0.583484  1
  F  F10  1  0.566994  0.295436  0.083484  1
  F  F11  1  0.066994  0.704564  0.416516  1
  F  F12  1  0.446585  0.281474  0.539585  1
  F  F13  1  0.946585  0.718526  0.960415  1
  F  F14  1  0.553415  0.718526  0.460415  1
  F  F15  1  0.053415  0.281474  0.039585  1
  F  F16  1  0.769568  0.516254  0.860372  1
  F  F17  1  0.269568  0.483746  0.639628  1
  F  F18  1  0.230432  0.483746  0.139628  1
  F  F19  1  0.730432  0.516254  0.360372  1
  F  F20  1  0.756084  0.028964  0.048552  1
  F  F21  1  0.256084  0.971036  0.451448  1
  F  F22  1  0.243916  0.971036  0.951448  1
  F  F23  1  0.743916  0.028964  0.548552  1
  F  F24  1  0.967535  0.726415  0.631892  1
  F  F25  1  0.467535  0.273585  0.868108  1
  F  F26  1  0.032465  0.273585  0.368108  1
  F  F27  1  0.532465  0.726415  0.131892  1
  F  F28  1  0.057529  0.743115  0.172874  1
  F  F29  1  0.557529  0.256885  0.327126  1
  F  F30  1  0.942471  0.256885  0.827126  1
  F  F31  1  0.442471  0.743115  0.672874  1
  F  F32  1  0.408347  0.967408  0.231212  1
  F  F33  1  0.908347  0.032592  0.268788  1
  F  F34  1  0.591653  0.032592  0.768788  1
  F  F35  1  0.091653  0.967408  0.731212  1
