# generated using pymatgen
data_Dy10Y6Cd4Ir3Os
_symmetry_space_group_name_H-M   'P 1'
_cell_length_a   9.69750131
_cell_length_b   9.69598029
_cell_length_c   9.69765314
_cell_angle_alpha   59.46415707
_cell_angle_beta   59.47958466
_cell_angle_gamma   59.46511436
_symmetry_Int_Tables_number   1
_chemical_formula_structural   Dy10Y6Cd4Ir3Os
_chemical_formula_sum   'Dy10 Y6 Cd4 Ir3 Os1'
_cell_volume   636.98878202
_cell_formula_units_Z   1
loop_
 _symmetry_equiv_pos_site_id
 _symmetry_equiv_pos_as_xyz
  1  'x, y, z'
loop_
 _atom_site_type_symbol
 _atom_site_label
 _atom_site_symmetry_multiplicity
 _atom_site_fract_x
 _atom_site_fract_y
 _atom_site_fract_z
 _atom_site_occupancy
  Dy  Dy0  1  0.348975  0.349019  0.348985  1
  Dy  Dy1  1  0.348308  0.348200  0.958295  1
  Dy  Dy2  1  0.348201  0.958413  0.348198  1
  Dy  Dy3  1  0.958301  0.348213  0.348317  1
  Dy  Dy4  1  0.811619  0.188749  0.188772  1
  Dy  Dy5  1  0.187105  0.809475  0.809436  1
  Dy  Dy6  1  0.188762  0.811642  0.188759  1
  Dy  Dy7  1  0.809457  0.187040  0.809443  1
  Dy  Dy8  1  0.188774  0.188743  0.811628  1
  Dy  Dy9  1  0.809447  0.809479  0.187091  1
  Y  Y10  1  0.938974  0.561302  0.561261  1
  Y  Y11  1  0.557723  0.939040  0.938987  1
  Y  Y12  1  0.561316  0.938998  0.561313  1
  Y  Y13  1  0.939075  0.557659  0.939082  1
  Y  Y14  1  0.561254  0.561290  0.938973  1
  Y  Y15  1  0.938991  0.939047  0.557711  1
  Cd  Cd16  1  0.579517  0.579407  0.579522  1
  Cd  Cd17  1  0.580274  0.580253  0.256981  1
  Cd  Cd18  1  0.580212  0.257049  0.580221  1
  Cd  Cd19  1  0.256969  0.580252  0.580283  1
  Ir  Ir20  1  0.143556  0.143550  0.577853  1
  Ir  Ir21  1  0.143548  0.577835  0.143535  1
  Ir  Ir22  1  0.577844  0.143564  0.143556  1
  Os  Os23  1  0.141797  0.141782  0.141800  1
