# generated using pymatgen
data_W(S4Br3)2
_symmetry_space_group_name_H-M   'P 1'
_cell_length_a   8.71468905
_cell_length_b   8.72368312
_cell_length_c   15.06045335
_cell_angle_alpha   95.48399471
_cell_angle_beta   99.07606700
_cell_angle_gamma   90.06999819
_symmetry_Int_Tables_number   1
_chemical_formula_structural   W(S4Br3)2
_chemical_formula_sum   'W2 S16 Br12'
_cell_volume   1125.29394004
_cell_formula_units_Z   2
loop_
 _symmetry_equiv_pos_site_id
 _symmetry_equiv_pos_as_xyz
  1  'x, y, z'
loop_
 _atom_site_type_symbol
 _atom_site_label
 _atom_site_symmetry_multiplicity
 _atom_site_fract_x
 _atom_site_fract_y
 _atom_site_fract_z
 _atom_site_occupancy
  W  W0  1  0.712636  0.223458  0.892441  1
  W  W1  1  0.287364  0.776542  0.107559  1
  S  S2  1  0.420406  0.748979  0.656049  1
  S  S3  1  0.579594  0.251021  0.343951  1
  S  S4  1  0.265576  0.893133  0.588297  1
  S  S5  1  0.734424  0.106867  0.411703  1
  S  S6  1  0.093722  0.951076  0.664651  1
  S  S7  1  0.906278  0.048924  0.335349  1
  S  S8  1  0.902277  0.809235  0.619414  1
  S  S9  1  0.097723  0.190765  0.380586  1
  S  S10  1  0.906743  0.629981  0.699891  1
  S  S11  1  0.093257  0.370019  0.300109  1
  S  S12  1  0.000817  0.439884  0.637496  1
  S  S13  1  0.999183  0.560116  0.362504  1
  S  S14  1  0.232737  0.428208  0.690924  1
  S  S15  1  0.767263  0.571792  0.309076  1
  S  S16  1  0.635945  0.476076  0.393148  1
  S  S17  1  0.364055  0.523924  0.606852  1
  Br  Br18  1  0.753199  0.250652  0.059591  1
  Br  Br19  1  0.246801  0.749348  0.940409  1
  Br  Br20  1  0.671946  0.195722  0.725360  1
  Br  Br21  1  0.328054  0.804278  0.274640  1
  Br  Br22  1  0.438168  0.143402  0.889395  1
  Br  Br23  1  0.561832  0.856598  0.110605  1
  Br  Br24  1  0.632858  0.496685  0.891892  1
  Br  Br25  1  0.367142  0.503315  0.108108  1
  Br  Br26  1  0.986854  0.304349  0.895758  1
  Br  Br27  1  0.013146  0.695651  0.104242  1
  Br  Br28  1  0.792480  0.950384  0.893027  1
  Br  Br29  1  0.207520  0.049616  0.106973  1
