# generated using pymatgen
data_Li2AcLa2Al7
_symmetry_space_group_name_H-M   'P 1'
_cell_length_a   9.59202403
_cell_length_b   9.59202547
_cell_length_c   9.59202439
_cell_angle_alpha   34.77880617
_cell_angle_beta   34.77880123
_cell_angle_gamma   34.77880084
_symmetry_Int_Tables_number   1
_chemical_formula_structural   Li2AcLa2Al7
_chemical_formula_sum   'Li2 Ac1 La2 Al7'
_cell_volume   256.29165900
_cell_formula_units_Z   1
loop_
 _symmetry_equiv_pos_site_id
 _symmetry_equiv_pos_as_xyz
  1  'x, y, z'
loop_
 _atom_site_type_symbol
 _atom_site_label
 _atom_site_symmetry_multiplicity
 _atom_site_fract_x
 _atom_site_fract_y
 _atom_site_fract_z
 _atom_site_occupancy
  Li  Li0  1  0.664731  0.664731  0.664731  1
  Li  Li1  1  0.335269  0.335269  0.335269  1
  Ac  Ac2  1  0.000000  0.000000  0.000000  1
  La  La3  1  0.141361  0.141361  0.141361  1
  La  La4  1  0.858639  0.858639  0.858639  1
  Al  Al5  1  0.414993  0.414993  0.924804  1
  Al  Al6  1  0.924804  0.414993  0.414993  1
  Al  Al7  1  0.500000  0.500000  0.500000  1
  Al  Al8  1  0.585007  0.585007  0.075196  1
  Al  Al9  1  0.414993  0.924804  0.414993  1
  Al  Al10  1  0.075196  0.585007  0.585007  1
  Al  Al11  1  0.585007  0.075196  0.585007  1
