# generated using pymatgen
data_NdTm7(LuSb)12
_symmetry_space_group_name_H-M   'P 1'
_cell_length_a   8.05599904
_cell_length_b   9.13940700
_cell_length_c   11.70402006
_cell_angle_alpha   90.00000000
_cell_angle_beta   90.01154058
_cell_angle_gamma   90.00000000
_symmetry_Int_Tables_number   1
_chemical_formula_structural   NdTm7(LuSb)12
_chemical_formula_sum   'Nd1 Tm7 Lu12 Sb12'
_cell_volume   861.73249975
_cell_formula_units_Z   1
loop_
 _symmetry_equiv_pos_site_id
 _symmetry_equiv_pos_as_xyz
  1  'x, y, z'
loop_
 _atom_site_type_symbol
 _atom_site_label
 _atom_site_symmetry_multiplicity
 _atom_site_fract_x
 _atom_site_fract_y
 _atom_site_fract_z
 _atom_site_occupancy
  Nd  Nd0  1  0.175719  0.750000  0.228391  1
  Tm  Tm1  1  0.675719  0.250000  0.272224  1
  Tm  Tm2  1  0.823986  0.250000  0.771074  1
  Tm  Tm3  1  0.323843  0.750000  0.729448  1
  Tm  Tm4  1  0.660996  0.750000  0.291768  1
  Tm  Tm5  1  0.159047  0.250000  0.209331  1
  Tm  Tm6  1  0.340823  0.250000  0.709253  1
  Tm  Tm7  1  0.838826  0.750000  0.789526  1
  Lu  Lu8  1  0.811125  0.937681  0.065743  1
  Lu  Lu9  1  0.309050  0.061965  0.434676  1
  Lu  Lu10  1  0.191264  0.438391  0.934409  1
  Lu  Lu11  1  0.690457  0.560848  0.566550  1
  Lu  Lu12  1  0.191264  0.061609  0.934409  1
  Lu  Lu13  1  0.690457  0.939152  0.566550  1
  Lu  Lu14  1  0.811125  0.562319  0.065743  1
  Lu  Lu15  1  0.309050  0.438035  0.434676  1
  Lu  Lu16  1  0.526197  0.250000  0.994082  1
  Lu  Lu17  1  0.023660  0.750000  0.505068  1
  Lu  Lu18  1  0.475751  0.750000  0.004108  1
  Lu  Lu19  1  0.974407  0.250000  0.496562  1
  Sb  Sb20  1  0.930729  0.994510  0.328492  1
  Sb  Sb21  1  0.441525  0.011904  0.172862  1
  Sb  Sb22  1  0.063118  0.490616  0.673726  1
  Sb  Sb23  1  0.562937  0.509001  0.825485  1
  Sb  Sb24  1  0.063118  0.009384  0.673726  1
  Sb  Sb25  1  0.562937  0.990999  0.825485  1
  Sb  Sb26  1  0.930729  0.505490  0.328492  1
  Sb  Sb27  1  0.441525  0.488096  0.172862  1
  Sb  Sb28  1  0.902089  0.250000  0.024936  1
  Sb  Sb29  1  0.402891  0.750000  0.476184  1
  Sb  Sb30  1  0.098102  0.750000  0.968194  1
  Sb  Sb31  1  0.597535  0.250000  0.525966  1
