# generated using pymatgen
data_Nd3Th(B10Ir)2
_symmetry_space_group_name_H-M   'P 1'
_cell_length_a   4.22063400
_cell_length_b   5.74423874
_cell_length_c   11.47195679
_cell_angle_alpha   89.97661547
_cell_angle_beta   90.00000000
_cell_angle_gamma   90.00000000
_symmetry_Int_Tables_number   1
_chemical_formula_structural   Nd3Th(B10Ir)2
_chemical_formula_sum   'Nd3 Th1 B20 Ir2'
_cell_volume   278.12987544
_cell_formula_units_Z   1
loop_
 _symmetry_equiv_pos_site_id
 _symmetry_equiv_pos_as_xyz
  1  'x, y, z'
loop_
 _atom_site_type_symbol
 _atom_site_label
 _atom_site_symmetry_multiplicity
 _atom_site_fract_x
 _atom_site_fract_y
 _atom_site_fract_z
 _atom_site_occupancy
  Nd  Nd0  1  0.500000  0.702530  0.136138  1
  Nd  Nd1  1  0.500000  0.794169  0.633887  1
  Nd  Nd2  1  0.500000  0.205191  0.366034  1
  Th  Th3  1  0.500000  0.294417  0.865623  1
  B  B4  1  0.000000  0.118922  0.543313  1
  B  B5  1  0.000000  0.881380  0.456529  1
  B  B6  1  0.000000  0.619609  0.957168  1
  B  B7  1  0.000000  0.383231  0.043325  1
  B  B8  1  0.000000  0.137472  0.696957  1
  B  B9  1  0.000000  0.861318  0.302683  1
  B  B10  1  0.300801  0.218912  0.118682  1
  B  B11  1  0.301112  0.783309  0.880328  1
  B  B12  1  0.699696  0.718055  0.381524  1
  B  B13  1  0.699442  0.282109  0.618899  1
  B  B14  1  0.698888  0.783309  0.880328  1
  B  B15  1  0.699199  0.218912  0.118682  1
  B  B16  1  0.300558  0.282109  0.618899  1
  B  B17  1  0.300304  0.718055  0.381524  1
  B  B18  1  0.000000  0.054128  0.192228  1
  B  B19  1  0.000000  0.944631  0.806372  1
  B  B20  1  0.000000  0.554701  0.307539  1
  B  B21  1  0.000000  0.443593  0.693463  1
  B  B22  1  0.000000  0.361347  0.197461  1
  B  B23  1  0.000000  0.635566  0.803561  1
  Ir  Ir24  1  0.000000  0.499894  0.500008  1
  Ir  Ir25  1  0.000000  0.003134  0.998846  1
