# generated using pymatgen
data_Lu5Pb3O
_symmetry_space_group_name_H-M   'P 1'
_cell_length_a   8.91436373
_cell_length_b   8.91436398
_cell_length_c   8.91436409
_cell_angle_alpha   125.52931817
_cell_angle_beta   125.52931302
_cell_angle_gamma   80.66312746
_symmetry_Int_Tables_number   1
_chemical_formula_structural   Lu5Pb3O
_chemical_formula_sum   'Lu10 Pb6 O2'
_cell_volume   452.40146147
_cell_formula_units_Z   2
loop_
 _symmetry_equiv_pos_site_id
 _symmetry_equiv_pos_as_xyz
  1  'x, y, z'
loop_
 _atom_site_type_symbol
 _atom_site_label
 _atom_site_symmetry_multiplicity
 _atom_site_fract_x
 _atom_site_fract_y
 _atom_site_fract_z
 _atom_site_occupancy
  Lu  Lu0  1  0.504202  0.301076  0.500000  1
  Lu  Lu1  1  0.801076  0.004202  0.500000  1
  Lu  Lu2  1  0.004202  0.504202  0.203126  1
  Lu  Lu3  1  0.301076  0.801076  0.796874  1
  Lu  Lu4  1  0.498366  0.701529  0.500000  1
  Lu  Lu5  1  0.201529  0.998366  0.500000  1
  Lu  Lu6  1  0.998366  0.498366  0.796837  1
  Lu  Lu7  1  0.701529  0.201529  0.203163  1
  Lu  Lu8  1  0.501589  0.501589  0.000000  1
  Lu  Lu9  1  0.001589  0.001589  0.000000  1
  Pb  Pb10  1  0.151115  0.351177  0.500000  1
  Pb  Pb11  1  0.851177  0.651115  0.500000  1
  Pb  Pb12  1  0.651115  0.151115  0.799937  1
  Pb  Pb13  1  0.351177  0.851177  0.200063  1
  Pb  Pb14  1  0.750943  0.750943  0.000000  1
  Pb  Pb15  1  0.250943  0.250943  0.000000  1
  O  O16  1  0.751422  0.251422  0.500000  1
  O  O17  1  0.251422  0.751422  0.500000  1
