# generated using pymatgen
data_Sc4Ni2IrOs
_symmetry_space_group_name_H-M   'P 1'
_cell_length_a   6.55445913
_cell_length_b   4.45699800
_cell_length_c   8.96079217
_cell_angle_alpha   90.00000000
_cell_angle_beta   90.02273452
_cell_angle_gamma   90.00000000
_symmetry_Int_Tables_number   1
_chemical_formula_structural   Sc4Ni2IrOs
_chemical_formula_sum   'Sc8 Ni4 Ir2 Os2'
_cell_volume   261.77349402
_cell_formula_units_Z   2
loop_
 _symmetry_equiv_pos_site_id
 _symmetry_equiv_pos_as_xyz
  1  'x, y, z'
loop_
 _atom_site_type_symbol
 _atom_site_label
 _atom_site_symmetry_multiplicity
 _atom_site_fract_x
 _atom_site_fract_y
 _atom_site_fract_z
 _atom_site_occupancy
  Sc  Sc0  1  0.501234  0.749999  0.123789  1
  Sc  Sc1  1  0.998844  0.749999  0.123701  1
  Sc  Sc2  1  0.498830  0.249999  0.376245  1
  Sc  Sc3  1  0.001127  0.249999  0.376245  1
  Sc  Sc4  1  0.000730  0.749999  0.626234  1
  Sc  Sc5  1  0.499350  0.749999  0.626201  1
  Sc  Sc6  1  0.999297  0.249999  0.873823  1
  Sc  Sc7  1  0.500865  0.249999  0.873804  1
  Ni  Ni8  1  0.749979  0.249999  0.124502  1
  Ni  Ni9  1  0.249655  0.749999  0.375500  1
  Ni  Ni10  1  0.749951  0.249999  0.625826  1
  Ni  Ni11  1  0.249860  0.749999  0.874187  1
  Ir  Ir12  1  0.250074  0.249999  0.126404  1
  Ir  Ir13  1  0.750093  0.749999  0.373507  1
  Os  Os14  1  0.250043  0.249999  0.623440  1
  Os  Os15  1  0.750064  0.749999  0.876594  1
