# generated using pymatgen
data_Lu2Al9RePt2
_symmetry_space_group_name_H-M   'P 1'
_cell_length_a   7.58748300
_cell_length_b   7.58748222
_cell_length_c   9.47577300
_cell_angle_alpha   90.00000000
_cell_angle_beta   90.00000000
_cell_angle_gamma   118.62151312
_symmetry_Int_Tables_number   1
_chemical_formula_structural   Lu2Al9RePt2
_chemical_formula_sum   'Lu4 Al18 Re2 Pt4'
_cell_volume   478.85851475
_cell_formula_units_Z   2
loop_
 _symmetry_equiv_pos_site_id
 _symmetry_equiv_pos_as_xyz
  1  'x, y, z'
loop_
 _atom_site_type_symbol
 _atom_site_label
 _atom_site_symmetry_multiplicity
 _atom_site_fract_x
 _atom_site_fract_y
 _atom_site_fract_z
 _atom_site_occupancy
  Lu  Lu0  1  0.993365  0.683774  0.750000  1
  Lu  Lu1  1  0.006635  0.316226  0.250000  1
  Lu  Lu2  1  0.683774  0.993365  0.750000  1
  Lu  Lu3  1  0.316226  0.006635  0.250000  1
  Al  Al4  1  0.131248  0.131248  0.750000  1
  Al  Al5  1  0.868752  0.868752  0.250000  1
  Al  Al6  1  0.000631  0.335025  0.577144  1
  Al  Al7  1  0.999369  0.664975  0.422856  1
  Al  Al8  1  0.999369  0.664975  0.077144  1
  Al  Al9  1  0.335025  0.000631  0.922856  1
  Al  Al10  1  0.000631  0.335025  0.922856  1
  Al  Al11  1  0.664975  0.999369  0.077144  1
  Al  Al12  1  0.664975  0.999369  0.422856  1
  Al  Al13  1  0.335025  0.000631  0.577144  1
  Al  Al14  1  0.328612  0.328612  0.050831  1
  Al  Al15  1  0.671388  0.671388  0.949169  1
  Al  Al16  1  0.671388  0.671388  0.550831  1
  Al  Al17  1  0.328612  0.328612  0.449169  1
  Al  Al18  1  0.343514  0.552169  0.750000  1
  Al  Al19  1  0.656486  0.447831  0.250000  1
  Al  Al20  1  0.552169  0.343514  0.750000  1
  Al  Al21  1  0.447831  0.656486  0.250000  1
  Re  Re22  1  0.000000  0.000000  0.500000  1
  Re  Re23  1  0.000000  0.000000  0.000000  1
  Pt  Pt24  1  0.671533  0.328467  0.500000  1
  Pt  Pt25  1  0.328467  0.671533  0.500000  1
  Pt  Pt26  1  0.328467  0.671533  0.000000  1
  Pt  Pt27  1  0.671533  0.328467  0.000000  1
