# generated using pymatgen
data_Pr3NdFe4(CoO5)4
_symmetry_space_group_name_H-M   'P 1'
_cell_length_a   5.80621100
_cell_length_b   7.57254667
_cell_length_c   8.69230178
_cell_angle_alpha   90.04832809
_cell_angle_beta   90.00000000
_cell_angle_gamma   90.00000000
_symmetry_Int_Tables_number   1
_chemical_formula_structural   Pr3NdFe4(CoO5)4
_chemical_formula_sum   'Pr3 Nd1 Fe4 Co4 O20'
_cell_volume   382.18128292
_cell_formula_units_Z   1
loop_
 _symmetry_equiv_pos_site_id
 _symmetry_equiv_pos_as_xyz
  1  'x, y, z'
loop_
 _atom_site_type_symbol
 _atom_site_label
 _atom_site_symmetry_multiplicity
 _atom_site_fract_x
 _atom_site_fract_y
 _atom_site_fract_z
 _atom_site_occupancy
  Pr  Pr0  1  0.500000  0.360750  0.327878  1
  Pr  Pr1  1  0.500000  0.639496  0.672012  1
  Pr  Pr2  1  0.500000  0.139012  0.828340  1
  Nd  Nd3  1  0.500000  0.860576  0.171959  1
  Fe  Fe4  1  0.000000  0.112770  0.143650  1
  Fe  Fe5  1  0.000000  0.886637  0.856825  1
  Fe  Fe6  1  0.000000  0.386605  0.643398  1
  Fe  Fe7  1  0.000000  0.613631  0.356211  1
  Co  Co8  1  0.246864  0.999757  0.499667  1
  Co  Co9  1  0.753136  0.999757  0.499667  1
  Co  Co10  1  0.753183  0.500504  0.000233  1
  Co  Co11  1  0.246817  0.500504  0.000233  1
  O  O12  1  0.226832  0.998827  0.000827  1
  O  O13  1  0.773168  0.998827  0.000827  1
  O  O14  1  0.774119  0.499965  0.499796  1
  O  O15  1  0.225881  0.499965  0.499796  1
  O  O16  1  0.000000  0.350687  0.063197  1
  O  O17  1  0.000000  0.649062  0.937424  1
  O  O18  1  0.000000  0.149412  0.562420  1
  O  O19  1  0.000000  0.850934  0.437538  1
  O  O20  1  0.251558  0.095139  0.297120  1
  O  O21  1  0.749336  0.903810  0.702403  1
  O  O22  1  0.250664  0.903810  0.702403  1
  O  O23  1  0.749145  0.403833  0.797649  1
  O  O24  1  0.748442  0.095139  0.297120  1
  O  O25  1  0.251376  0.597960  0.202323  1
  O  O26  1  0.748624  0.597960  0.202323  1
  O  O27  1  0.250855  0.403833  0.797649  1
  O  O28  1  0.500000  0.348644  0.050563  1
  O  O29  1  0.500000  0.652949  0.949975  1
  O  O30  1  0.500000  0.151632  0.550357  1
  O  O31  1  0.500000  0.847615  0.448217  1
