# generated using pymatgen
data_Yb2Er2Mn3CrB16
_symmetry_space_group_name_H-M   'P 1'
_cell_length_a   3.38754400
_cell_length_b   5.90111738
_cell_length_c   11.40338005
_cell_angle_alpha   89.98492836
_cell_angle_beta   90.00000000
_cell_angle_gamma   90.00000000
_symmetry_Int_Tables_number   1
_chemical_formula_structural   Yb2Er2Mn3CrB16
_chemical_formula_sum   'Yb2 Er2 Mn3 Cr1 B16'
_cell_volume   227.95692057
_cell_formula_units_Z   1
loop_
 _symmetry_equiv_pos_site_id
 _symmetry_equiv_pos_as_xyz
  1  'x, y, z'
loop_
 _atom_site_type_symbol
 _atom_site_label
 _atom_site_symmetry_multiplicity
 _atom_site_fract_x
 _atom_site_fract_y
 _atom_site_fract_z
 _atom_site_occupancy
  Yb  Yb0  1  0.000000  0.624804  0.350713  1
  Yb  Yb1  1  0.000000  0.374985  0.649780  1
  Er  Er2  1  0.000000  0.125773  0.152550  1
  Er  Er3  1  0.000000  0.874655  0.847660  1
  Mn  Mn4  1  0.000000  0.376623  0.918561  1
  Mn  Mn5  1  0.000000  0.123841  0.420489  1
  Mn  Mn6  1  0.000000  0.876796  0.580479  1
  Cr  Cr7  1  0.000000  0.622953  0.080757  1
  B  B8  1  0.500000  0.781523  0.184667  1
  B  B9  1  0.500000  0.220848  0.816295  1
  B  B10  1  0.500000  0.279325  0.317716  1
  B  B11  1  0.500000  0.719728  0.682883  1
  B  B12  1  0.500000  0.863355  0.031793  1
  B  B13  1  0.500000  0.138133  0.966869  1
  B  B14  1  0.500000  0.361755  0.467509  1
  B  B15  1  0.500000  0.637861  0.532663  1
  B  B16  1  0.500000  0.886785  0.453580  1
  B  B17  1  0.500000  0.113646  0.546660  1
  B  B18  1  0.500000  0.385357  0.046034  1
  B  B19  1  0.500000  0.611707  0.951786  1
  B  B20  1  0.500000  0.976309  0.309644  1
  B  B21  1  0.500000  0.024603  0.690919  1
  B  B22  1  0.500000  0.474378  0.191873  1
  B  B23  1  0.500000  0.524260  0.808120  1
