# generated using pymatgen
data_Yb20PdAu15
_symmetry_space_group_name_H-M   'P 1'
_cell_length_a   7.77476593
_cell_length_b   7.86468500
_cell_length_c   14.98159400
_cell_angle_alpha   90.00000000
_cell_angle_beta   90.00000000
_cell_angle_gamma   89.94311721
_symmetry_Int_Tables_number   1
_chemical_formula_structural   Yb20PdAu15
_chemical_formula_sum   'Yb20 Pd1 Au15'
_cell_volume   916.06536825
_cell_formula_units_Z   1
loop_
 _symmetry_equiv_pos_site_id
 _symmetry_equiv_pos_as_xyz
  1  'x, y, z'
loop_
 _atom_site_type_symbol
 _atom_site_label
 _atom_site_symmetry_multiplicity
 _atom_site_fract_x
 _atom_site_fract_y
 _atom_site_fract_z
 _atom_site_occupancy
  Yb  Yb0  1  0.998717  0.184542  0.400323  1
  Yb  Yb1  1  0.843841  0.659855  0.376012  1
  Yb  Yb2  1  0.507767  0.323517  0.099962  1
  Yb  Yb3  1  0.154721  0.334620  0.621218  1
  Yb  Yb4  1  0.345601  0.836490  0.376676  1
  Yb  Yb5  1  0.154721  0.334620  0.878782  1
  Yb  Yb6  1  0.345601  0.836490  0.123324  1
  Yb  Yb7  1  0.176688  0.494607  0.250000  1
  Yb  Yb8  1  0.507767  0.323517  0.400038  1
  Yb  Yb9  1  0.818964  0.506559  0.750000  1
  Yb  Yb10  1  0.997740  0.819382  0.904726  1
  Yb  Yb11  1  0.997740  0.819382  0.595274  1
  Yb  Yb12  1  0.497610  0.678803  0.596122  1
  Yb  Yb13  1  0.654173  0.163988  0.621424  1
  Yb  Yb14  1  0.318713  0.991003  0.750000  1
  Yb  Yb15  1  0.654173  0.163988  0.878576  1
  Yb  Yb16  1  0.681495  0.013914  0.250000  1
  Yb  Yb17  1  0.843841  0.659855  0.123988  1
  Yb  Yb18  1  0.497610  0.678803  0.903878  1
  Yb  Yb19  1  0.998717  0.184542  0.099677  1
  Pd  Pd20  1  0.810733  0.360471  0.250000  1
  Au  Au21  1  0.455018  0.380522  0.750000  1
  Au  Au22  1  0.690406  0.861127  0.750000  1
  Au  Au23  1  0.818206  0.469602  0.543894  1
  Au  Au24  1  0.682440  0.968342  0.044931  1
  Au  Au25  1  0.818206  0.469602  0.956106  1
  Au  Au26  1  0.184068  0.531721  0.455594  1
  Au  Au27  1  0.184068  0.531721  0.044406  1
  Au  Au28  1  0.188283  0.637966  0.750000  1
  Au  Au29  1  0.308869  0.140853  0.250000  1
  Au  Au30  1  0.544813  0.612079  0.250000  1
  Au  Au31  1  0.042935  0.883376  0.250000  1
  Au  Au32  1  0.319405  0.028517  0.955966  1
  Au  Au33  1  0.954506  0.118765  0.750000  1
  Au  Au34  1  0.682440  0.968342  0.455069  1
  Au  Au35  1  0.319405  0.028517  0.544034  1
