# generated using pymatgen
data_Dy6Ho2Ti11Si16Pt
_symmetry_space_group_name_H-M   'P 1'
_cell_length_a   7.04404675
_cell_length_b   7.04345537
_cell_length_c   12.85407444
_cell_angle_alpha   89.82704231
_cell_angle_beta   90.17121213
_cell_angle_gamma   89.71188523
_symmetry_Int_Tables_number   1
_chemical_formula_structural   Dy6Ho2Ti11Si16Pt
_chemical_formula_sum   'Dy6 Ho2 Ti11 Si16 Pt1'
_cell_volume   637.73371660
_cell_formula_units_Z   1
loop_
 _symmetry_equiv_pos_site_id
 _symmetry_equiv_pos_as_xyz
  1  'x, y, z'
loop_
 _atom_site_type_symbol
 _atom_site_label
 _atom_site_symmetry_multiplicity
 _atom_site_fract_x
 _atom_site_fract_y
 _atom_site_fract_z
 _atom_site_occupancy
  Dy  Dy0  1  0.659911  0.996139  0.967064  1
  Dy  Dy1  1  0.158584  0.503254  0.782131  1
  Dy  Dy2  1  0.842091  0.498833  0.285509  1
  Dy  Dy3  1  0.503241  0.158681  0.217834  1
  Dy  Dy4  1  0.498859  0.841991  0.714405  1
  Dy  Dy5  1  0.343389  0.001346  0.468590  1
  Ho  Ho6  1  0.996619  0.659652  0.033076  1
  Ho  Ho7  1  0.001074  0.343533  0.531469  1
  Ti  Ti8  1  0.345219  0.505640  0.375668  1
  Ti  Ti9  1  0.851171  0.994932  0.377206  1
  Ti  Ti10  1  0.006841  0.150533  0.125214  1
  Ti  Ti11  1  0.994992  0.851157  0.622826  1
  Ti  Ti12  1  0.505749  0.345388  0.624354  1
  Ti  Ti13  1  0.150460  0.006887  0.874813  1
  Ti  Ti14  1  0.824294  0.173726  0.748650  1
  Ti  Ti15  1  0.173591  0.824149  0.251348  1
  Ti  Ti16  1  0.326820  0.327008  0.000008  1
  Ti  Ti17  1  0.492589  0.649975  0.127442  1
  Ti  Ti18  1  0.650021  0.492773  0.872540  1
  Si  Si19  1  0.055576  0.713880  0.435385  1
  Si  Si20  1  0.952140  0.291727  0.934642  1
  Si  Si21  1  0.714601  0.056121  0.564718  1
  Si  Si22  1  0.208266  0.452934  0.184763  1
  Si  Si23  1  0.790370  0.549623  0.684497  1
  Si  Si24  1  0.452626  0.208477  0.815128  1
  Si  Si25  1  0.549806  0.790117  0.315315  1
  Si  Si26  1  0.291130  0.951807  0.065461  1
  Si  Si27  1  0.798770  0.867371  0.185582  1
  Si  Si28  1  0.290741  0.626389  0.567489  1
  Si  Si29  1  0.705191  0.369596  0.066174  1
  Si  Si30  1  0.627083  0.291380  0.432624  1
  Si  Si31  1  0.368907  0.704864  0.933896  1
  Si  Si32  1  0.131505  0.202728  0.316468  1
  Si  Si33  1  0.202373  0.131854  0.683449  1
  Si  Si34  1  0.867661  0.798361  0.814333  1
  Pt  Pt35  1  0.667732  0.667167  0.499931  1
