# generated using pymatgen
data_Yb2ErAl3Si2Ni
_symmetry_space_group_name_H-M   'P 1'
_cell_length_a   6.83476881
_cell_length_b   6.83476803
_cell_length_c   4.23872100
_cell_angle_alpha   90.00000000
_cell_angle_beta   90.00000000
_cell_angle_gamma   120.21300379
_symmetry_Int_Tables_number   1
_chemical_formula_structural   Yb2ErAl3Si2Ni
_chemical_formula_sum   'Yb2 Er1 Al3 Si2 Ni1'
_cell_volume   171.11059784
_cell_formula_units_Z   1
loop_
 _symmetry_equiv_pos_site_id
 _symmetry_equiv_pos_as_xyz
  1  'x, y, z'
loop_
 _atom_site_type_symbol
 _atom_site_label
 _atom_site_symmetry_multiplicity
 _atom_site_fract_x
 _atom_site_fract_y
 _atom_site_fract_z
 _atom_site_occupancy
  Yb  Yb0  1  0.412137  0.000010  0.000000  1
  Yb  Yb1  1  0.000010  0.412137  0.000000  1
  Er  Er2  1  0.588539  0.588539  0.000000  1
  Al  Al3  1  0.765623  0.998350  0.500000  1
  Al  Al4  1  0.235370  0.235370  0.500000  1
  Al  Al5  1  0.998350  0.765623  0.500000  1
  Si  Si6  1  0.664698  0.338675  0.500000  1
  Si  Si7  1  0.338675  0.664699  0.500000  1
  Ni  Ni8  1  0.996599  0.996599  0.000000  1
