# generated using pymatgen
data_Y3Ho2(Th3Ir2)3
_symmetry_space_group_name_H-M   'P 1'
_cell_length_a   9.92949362
_cell_length_b   10.05099603
_cell_length_c   6.35023726
_cell_angle_alpha   90.29726498
_cell_angle_beta   89.88720252
_cell_angle_gamma   120.54557505
_symmetry_Int_Tables_number   1
_chemical_formula_structural   Y3Ho2(Th3Ir2)3
_chemical_formula_sum   'Y3 Ho2 Th9 Ir6'
_cell_volume   545.80422744
_cell_formula_units_Z   1
loop_
 _symmetry_equiv_pos_site_id
 _symmetry_equiv_pos_as_xyz
  1  'x, y, z'
loop_
 _atom_site_type_symbol
 _atom_site_label
 _atom_site_symmetry_multiplicity
 _atom_site_fract_x
 _atom_site_fract_y
 _atom_site_fract_z
 _atom_site_occupancy
  Y  Y0  1  0.925059  0.462517  0.798973  1
  Y  Y1  1  0.255090  0.128236  0.499157  1
  Y  Y2  1  0.539780  0.077053  0.794519  1
  Ho  Ho3  1  0.458542  0.536384  0.301407  1
  Ho  Ho4  1  0.074125  0.535686  0.302267  1
  Th  Th5  1  0.745937  0.875433  0.004597  1
  Th  Th6  1  0.665264  0.331465  0.279128  1
  Th  Th7  1  0.130293  0.873187  0.998849  1
  Th  Th8  1  0.456088  0.916872  0.298655  1
  Th  Th9  1  0.538451  0.460684  0.800466  1
  Th  Th10  1  0.877727  0.131983  0.503497  1
  Th  Th11  1  0.126447  0.253382  0.998742  1
  Th  Th12  1  0.873012  0.743449  0.501031  1
  Th  Th13  1  0.334788  0.667355  0.783489  1
  Ir  Ir14  1  0.810938  0.625754  0.052994  1
  Ir  Ir15  1  0.814557  0.188394  0.058638  1
  Ir  Ir16  1  0.627536  0.816731  0.548787  1
  Ir  Ir17  1  0.375340  0.189988  0.043374  1
  Ir  Ir18  1  0.184671  0.377367  0.559585  1
  Ir  Ir19  1  0.186354  0.808078  0.555843  1
