# generated using pymatgen
data_Eu10Si5SbF
_symmetry_space_group_name_H-M   'P 1'
_cell_length_a   9.36057185
_cell_length_b   9.36057167
_cell_length_c   9.36057261
_cell_angle_alpha   129.67375617
_cell_angle_beta   129.71041383
_cell_angle_gamma   73.89950204
_symmetry_Int_Tables_number   1
_chemical_formula_structural   Eu10Si5SbF
_chemical_formula_sum   'Eu10 Si5 Sb1 F1'
_cell_volume   473.68178207
_cell_formula_units_Z   1
loop_
 _symmetry_equiv_pos_site_id
 _symmetry_equiv_pos_as_xyz
  1  'x, y, z'
loop_
 _atom_site_type_symbol
 _atom_site_label
 _atom_site_symmetry_multiplicity
 _atom_site_fract_x
 _atom_site_fract_y
 _atom_site_fract_z
 _atom_site_occupancy
  Eu  Eu0  1  0.768184  0.425659  0.983546  1
  Eu  Eu1  1  0.442113  0.784639  0.016454  1
  Eu  Eu2  1  0.927860  0.943590  0.652191  1
  Eu  Eu3  1  0.291399  0.275669  0.347809  1
  Eu  Eu4  1  0.708601  0.056410  0.984270  1
  Eu  Eu5  1  0.072140  0.724331  0.015730  1
  Eu  Eu6  1  0.557887  0.574341  0.342525  1
  Eu  Eu7  1  0.231815  0.215361  0.657475  1
  Eu  Eu8  1  0.244090  0.744090  0.500000  1
  Eu  Eu9  1  0.755910  0.255910  0.500000  1
  Si  Si10  1  0.500000  0.000000  0.500000  1
  Si  Si11  1  0.138546  0.360577  0.000428  1
  Si  Si12  1  0.360149  0.138118  0.999572  1
  Si  Si13  1  0.861454  0.861882  0.222031  1
  Si  Si14  1  0.639851  0.639423  0.777969  1
  Sb  Sb15  1  0.000000  0.500000  0.500000  1
  F  F16  1  0.500000  0.500000  0.000000  1
