# generated using pymatgen
data_HfZr5(InPd)6
_symmetry_space_group_name_H-M   'P 1'
_cell_length_a   7.56782900
_cell_length_b   7.58400405
_cell_length_c   7.17312900
_cell_angle_alpha   90.00000000
_cell_angle_beta   90.00000000
_cell_angle_gamma   120.13047821
_symmetry_Int_Tables_number   1
_chemical_formula_structural   HfZr5(InPd)6
_chemical_formula_sum   'Hf1 Zr5 In6 Pd6'
_cell_volume   356.07102322
_cell_formula_units_Z   1
loop_
 _symmetry_equiv_pos_site_id
 _symmetry_equiv_pos_as_xyz
  1  'x, y, z'
loop_
 _atom_site_type_symbol
 _atom_site_label
 _atom_site_symmetry_multiplicity
 _atom_site_fract_x
 _atom_site_fract_y
 _atom_site_fract_z
 _atom_site_occupancy
  Hf  Hf0  1  0.982418  0.389657  0.250000  1
  Zr  Zr1  1  0.610457  0.593874  0.250000  1
  Zr  Zr2  1  0.019600  0.408461  0.750000  1
  Zr  Zr3  1  0.406848  0.017797  0.250000  1
  Zr  Zr4  1  0.389460  0.982445  0.750000  1
  Zr  Zr5  1  0.594064  0.609641  0.750000  1
  In  In6  1  0.272673  0.271213  0.500560  1
  In  In7  1  0.726859  0.997923  0.500280  1
  In  In8  1  0.000196  0.730955  0.499006  1
  In  In9  1  0.726859  0.997923  0.999720  1
  In  In10  1  0.272673  0.271213  0.999440  1
  In  In11  1  0.000196  0.730955  0.000994  1
  Pd  Pd12  1  0.329491  0.663634  0.463776  1
  Pd  Pd13  1  0.999951  0.000174  0.750000  1
  Pd  Pd14  1  0.999858  0.003694  0.250000  1
  Pd  Pd15  1  0.329491  0.663634  0.036224  1
  Pd  Pd16  1  0.669454  0.333404  0.531485  1
  Pd  Pd17  1  0.669454  0.333404  0.968515  1
