# generated using pymatgen
data_Ca2(P2Pd7)3
_symmetry_space_group_name_H-M   'P 1'
_cell_length_a   8.64798724
_cell_length_b   8.64798695
_cell_length_c   8.64798600
_cell_angle_alpha   60.00000365
_cell_angle_beta   60.00000475
_cell_angle_gamma   60.00000207
_symmetry_Int_Tables_number   1
_chemical_formula_structural   Ca2(P2Pd7)3
_chemical_formula_sum   'Ca2 P6 Pd21'
_cell_volume   457.33040972
_cell_formula_units_Z   1
loop_
 _symmetry_equiv_pos_site_id
 _symmetry_equiv_pos_as_xyz
  1  'x, y, z'
loop_
 _atom_site_type_symbol
 _atom_site_label
 _atom_site_symmetry_multiplicity
 _atom_site_fract_x
 _atom_site_fract_y
 _atom_site_fract_z
 _atom_site_occupancy
  Ca  Ca0  1  0.750000  0.750000  0.750000  1
  Ca  Ca1  1  0.250000  0.250000  0.250000  1
  P  P2  1  0.737909  0.737909  0.262091  1
  P  P3  1  0.262091  0.737909  0.262091  1
  P  P4  1  0.737909  0.262091  0.262091  1
  P  P5  1  0.262091  0.262091  0.737909  1
  P  P6  1  0.737909  0.262091  0.737909  1
  P  P7  1  0.262091  0.737909  0.737909  1
  Pd  Pd8  1  0.000000  0.000000  0.000000  1
  Pd  Pd9  1  0.614196  0.614196  0.157414  1
  Pd  Pd10  1  0.614196  0.157414  0.614196  1
  Pd  Pd11  1  0.157414  0.614196  0.614196  1
  Pd  Pd12  1  0.614196  0.614196  0.614196  1
  Pd  Pd13  1  0.385804  0.385804  0.842586  1
  Pd  Pd14  1  0.385804  0.842586  0.385804  1
  Pd  Pd15  1  0.842586  0.385804  0.385804  1
  Pd  Pd16  1  0.385804  0.385804  0.385804  1
  Pd  Pd17  1  0.000000  0.000000  0.343315  1
  Pd  Pd18  1  0.656685  0.000000  0.343315  1
  Pd  Pd19  1  0.000000  0.656685  0.343315  1
  Pd  Pd20  1  0.656685  0.343315  0.000000  1
  Pd  Pd21  1  0.000000  0.343315  0.000000  1
  Pd  Pd22  1  0.000000  0.343315  0.656685  1
  Pd  Pd23  1  0.343315  0.656685  0.000000  1
  Pd  Pd24  1  0.343315  0.000000  0.656685  1
  Pd  Pd25  1  0.343315  0.000000  0.000000  1
  Pd  Pd26  1  0.000000  0.000000  0.656685  1
  Pd  Pd27  1  0.000000  0.656685  0.000000  1
  Pd  Pd28  1  0.656685  0.000000  0.000000  1
