# generated using pymatgen
data_Zr4P4Os3Pd
_symmetry_space_group_name_H-M   'P 1'
_cell_length_a   3.88792500
_cell_length_b   6.54649452
_cell_length_c   7.41811657
_cell_angle_alpha   89.48502584
_cell_angle_beta   90.00000000
_cell_angle_gamma   90.00000000
_symmetry_Int_Tables_number   1
_chemical_formula_structural   Zr4P4Os3Pd
_chemical_formula_sum   'Zr4 P4 Os3 Pd1'
_cell_volume   188.80035169
_cell_formula_units_Z   1
loop_
 _symmetry_equiv_pos_site_id
 _symmetry_equiv_pos_as_xyz
  1  'x, y, z'
loop_
 _atom_site_type_symbol
 _atom_site_label
 _atom_site_symmetry_multiplicity
 _atom_site_fract_x
 _atom_site_fract_y
 _atom_site_fract_z
 _atom_site_occupancy
  Zr  Zr0  1  0.250000  0.018687  0.825041  1
  Zr  Zr1  1  0.250000  0.523610  0.680058  1
  Zr  Zr2  1  0.750000  0.971595  0.175398  1
  Zr  Zr3  1  0.750000  0.478749  0.321772  1
  P  P4  1  0.250000  0.761552  0.379782  1
  P  P5  1  0.250000  0.271461  0.110392  1
  P  P6  1  0.750000  0.228166  0.636913  1
  P  P7  1  0.750000  0.725494  0.876796  1
  Os  Os8  1  0.250000  0.653549  0.059264  1
  Os  Os9  1  0.750000  0.856743  0.557209  1
  Os  Os10  1  0.750000  0.356587  0.944646  1
  Pd  Pd11  1  0.250000  0.153806  0.432729  1
