# generated using pymatgen
data_La2ThCu6Ni7B2
_symmetry_space_group_name_H-M   'P 1'
_cell_length_a   5.13754499
_cell_length_b   5.13754677
_cell_length_c   11.01262600
_cell_angle_alpha   90.00000000
_cell_angle_beta   90.00000000
_cell_angle_gamma   119.83529675
_symmetry_Int_Tables_number   1
_chemical_formula_structural   La2ThCu6Ni7B2
_chemical_formula_sum   'La2 Th1 Cu6 Ni7 B2'
_cell_volume   252.14556857
_cell_formula_units_Z   1
loop_
 _symmetry_equiv_pos_site_id
 _symmetry_equiv_pos_as_xyz
  1  'x, y, z'
loop_
 _atom_site_type_symbol
 _atom_site_label
 _atom_site_symmetry_multiplicity
 _atom_site_fract_x
 _atom_site_fract_y
 _atom_site_fract_z
 _atom_site_occupancy
  La  La0  1  0.000000  0.000000  0.677078  1
  La  La1  1  0.000000  0.000000  0.322922  1
  Th  Th2  1  0.000000  0.000000  0.000000  1
  Cu  Cu3  1  0.500000  0.000000  0.500000  1
  Cu  Cu4  1  0.000000  0.500000  0.500000  1
  Cu  Cu5  1  0.664855  0.335145  0.685644  1
  Cu  Cu6  1  0.335145  0.664855  0.685644  1
  Cu  Cu7  1  0.335145  0.664855  0.314356  1
  Cu  Cu8  1  0.664855  0.335145  0.314356  1
  Ni  Ni9  1  0.500000  0.500000  0.500000  1
  Ni  Ni10  1  0.500000  0.500000  0.872083  1
  Ni  Ni11  1  0.500000  0.000000  0.871916  1
  Ni  Ni12  1  0.000000  0.500000  0.871916  1
  Ni  Ni13  1  0.500000  0.500000  0.127917  1
  Ni  Ni14  1  0.500000  0.000000  0.128084  1
  Ni  Ni15  1  0.000000  0.500000  0.128084  1
  B  B16  1  0.667037  0.332963  0.000000  1
  B  B17  1  0.332963  0.667037  0.000000  1
