# generated using pymatgen
data_Er11Tm9Pb16
_symmetry_space_group_name_H-M   'P 1'
_cell_length_a   8.16001117
_cell_length_b   8.19159202
_cell_length_c   15.53286935
_cell_angle_alpha   90.00691562
_cell_angle_beta   89.97673814
_cell_angle_gamma   90.00364475
_symmetry_Int_Tables_number   1
_chemical_formula_structural   Er11Tm9Pb16
_chemical_formula_sum   'Er11 Tm9 Pb16'
_cell_volume   1038.27098358
_cell_formula_units_Z   1
loop_
 _symmetry_equiv_pos_site_id
 _symmetry_equiv_pos_as_xyz
  1  'x, y, z'
loop_
 _atom_site_type_symbol
 _atom_site_label
 _atom_site_symmetry_multiplicity
 _atom_site_fract_x
 _atom_site_fract_y
 _atom_site_fract_z
 _atom_site_occupancy
  Er  Er0  1  0.122964  0.342360  0.378030  1
  Er  Er1  1  0.377198  0.842387  0.621999  1
  Er  Er2  1  0.876932  0.657524  0.878322  1
  Er  Er3  1  0.538923  0.324082  0.900581  1
  Er  Er4  1  0.039241  0.175399  0.599877  1
  Er  Er5  1  0.460779  0.675306  0.400099  1
  Er  Er6  1  0.960946  0.824810  0.099801  1
  Er  Er7  1  0.461691  0.675673  0.099590  1
  Er  Er8  1  0.961384  0.824518  0.400232  1
  Er  Er9  1  0.538686  0.324362  0.599682  1
  Er  Er10  1  0.038848  0.175681  0.900346  1
  Tm  Tm11  1  0.376335  0.842782  0.877887  1
  Tm  Tm12  1  0.876386  0.657131  0.622019  1
  Tm  Tm13  1  0.623483  0.157253  0.377840  1
  Tm  Tm14  1  0.123554  0.342968  0.121911  1
  Tm  Tm15  1  0.623270  0.157280  0.122201  1
  Tm  Tm16  1  0.208926  0.504100  0.750169  1
  Tm  Tm17  1  0.708995  0.995973  0.749982  1
  Tm  Tm18  1  0.790726  0.495794  0.249969  1
  Tm  Tm19  1  0.290976  0.004055  0.249811  1
  Pb  Pb20  1  0.282844  0.033417  0.042586  1
  Pb  Pb21  1  0.781771  0.466889  0.457300  1
  Pb  Pb22  1  0.718712  0.966934  0.542226  1
  Pb  Pb23  1  0.218478  0.533510  0.957663  1
  Pb  Pb24  1  0.717104  0.967287  0.957515  1
  Pb  Pb25  1  0.217505  0.532808  0.542855  1
  Pb  Pb26  1  0.282846  0.032983  0.457170  1
  Pb  Pb27  1  0.782611  0.466120  0.042798  1
  Pb  Pb28  1  0.570064  0.625792  0.750127  1
  Pb  Pb29  1  0.070037  0.874391  0.749901  1
  Pb  Pb30  1  0.429315  0.373859  0.249887  1
  Pb  Pb31  1  0.929287  0.126160  0.249621  1
  Pb  Pb32  1  0.351612  0.155348  0.750183  1
  Pb  Pb33  1  0.851872  0.344833  0.750020  1
  Pb  Pb34  1  0.648078  0.844775  0.250097  1
  Pb  Pb35  1  0.147622  0.655454  0.249704  1
