# generated using pymatgen
data_Yb8Y2Ir3Ru
_symmetry_space_group_name_H-M   'P 1'
_cell_length_a   6.50071760
_cell_length_b   7.35174603
_cell_length_c   8.50411681
_cell_angle_alpha   97.13997029
_cell_angle_beta   112.38762672
_cell_angle_gamma   89.98770160
_symmetry_Int_Tables_number   1
_chemical_formula_structural   Yb8Y2Ir3Ru
_chemical_formula_sum   'Yb8 Y2 Ir3 Ru1'
_cell_volume   372.38626411
_cell_formula_units_Z   1
loop_
 _symmetry_equiv_pos_site_id
 _symmetry_equiv_pos_as_xyz
  1  'x, y, z'
loop_
 _atom_site_type_symbol
 _atom_site_label
 _atom_site_symmetry_multiplicity
 _atom_site_fract_x
 _atom_site_fract_y
 _atom_site_fract_z
 _atom_site_occupancy
  Yb  Yb0  1  0.973237  0.919150  0.172165  1
  Yb  Yb1  1  0.802202  0.579536  0.828353  1
  Yb  Yb2  1  0.025846  0.079898  0.828592  1
  Yb  Yb3  1  0.196400  0.420834  0.172054  1
  Yb  Yb4  1  0.642309  0.820371  0.436518  1
  Yb  Yb5  1  0.204942  0.679367  0.563134  1
  Yb  Yb6  1  0.357249  0.178869  0.562677  1
  Yb  Yb7  1  0.794647  0.322075  0.435822  1
  Y  Y8  1  0.438122  0.748783  0.001156  1
  Y  Y9  1  0.564089  0.251397  0.000776  1
  Ir  Ir10  1  0.603409  0.925402  0.786631  1
  Ir  Ir11  1  0.184409  0.424069  0.786722  1
  Ir  Ir12  1  0.396146  0.075513  0.212938  1
  Ru  Ru13  1  0.816993  0.574735  0.212462  1
