# generated using pymatgen
data_ErLu(GaRh)2
_symmetry_space_group_name_H-M   'P 1'
_cell_length_a   4.22672800
_cell_length_b   6.77959900
_cell_length_c   7.80597400
_cell_angle_alpha   90.00000000
_cell_angle_beta   90.00000000
_cell_angle_gamma   90.00000000
_symmetry_Int_Tables_number   1
_chemical_formula_structural   ErLu(GaRh)2
_chemical_formula_sum   'Er2 Lu2 Ga4 Rh4'
_cell_volume   223.68425127
_cell_formula_units_Z   2
loop_
 _symmetry_equiv_pos_site_id
 _symmetry_equiv_pos_as_xyz
  1  'x, y, z'
loop_
 _atom_site_type_symbol
 _atom_site_label
 _atom_site_symmetry_multiplicity
 _atom_site_fract_x
 _atom_site_fract_y
 _atom_site_fract_z
 _atom_site_occupancy
  Er  Er0  1  0.750000  0.029710  0.686432  1
  Er  Er1  1  0.750000  0.529710  0.813568  1
  Lu  Lu2  1  0.250000  0.969990  0.311714  1
  Lu  Lu3  1  0.250000  0.469990  0.188286  1
  Ga  Ga4  1  0.250000  0.348908  0.566238  1
  Ga  Ga5  1  0.250000  0.848908  0.933762  1
  Ga  Ga6  1  0.750000  0.650144  0.432485  1
  Ga  Ga7  1  0.750000  0.150144  0.067515  1
  Rh  Rh8  1  0.250000  0.238062  0.888296  1
  Rh  Rh9  1  0.250000  0.738062  0.611704  1
  Rh  Rh10  1  0.750000  0.763187  0.114925  1
  Rh  Rh11  1  0.750000  0.263187  0.385075  1
