# generated using pymatgen
data_Rb3Pu(PO4)2
_symmetry_space_group_name_H-M   'P 1'
_cell_length_a   5.88707900
_cell_length_b   5.88707841
_cell_length_c   8.19656600
_cell_angle_alpha   90.00000000
_cell_angle_beta   90.00000000
_cell_angle_gamma   120.00000893
_symmetry_Int_Tables_number   1
_chemical_formula_structural   Rb3Pu(PO4)2
_chemical_formula_sum   'Rb3 Pu1 P2 O8'
_cell_volume   246.01535647
_cell_formula_units_Z   1
loop_
 _symmetry_equiv_pos_site_id
 _symmetry_equiv_pos_as_xyz
  1  'x, y, z'
loop_
 _atom_site_type_symbol
 _atom_site_label
 _atom_site_symmetry_multiplicity
 _atom_site_fract_x
 _atom_site_fract_y
 _atom_site_fract_z
 _atom_site_occupancy
  Rb  Rb0  1  0.333333  0.666667  0.744509  1
  Rb  Rb1  1  0.666667  0.333333  0.255491  1
  Rb  Rb2  1  0.000000  0.000000  0.000000  1
  Pu  Pu3  1  0.000000  0.000000  0.500000  1
  P  P4  1  0.333333  0.666667  0.266913  1
  P  P5  1  0.666667  0.333333  0.733087  1
  O  O6  1  0.333333  0.666667  0.080869  1
  O  O7  1  0.666667  0.333333  0.919131  1
  O  O8  1  0.188725  0.811275  0.334195  1
  O  O9  1  0.811275  0.188725  0.665805  1
  O  O10  1  0.188725  0.377450  0.334195  1
  O  O11  1  0.811275  0.622550  0.665805  1
  O  O12  1  0.622550  0.811275  0.334195  1
  O  O13  1  0.377450  0.188725  0.665805  1
