# generated using pymatgen
data_Ac2Cd3In
_symmetry_space_group_name_H-M   'P 1'
_cell_length_a   6.46456183
_cell_length_b   6.51064627
_cell_length_c   6.51064548
_cell_angle_alpha   133.39137733
_cell_angle_beta   102.15899453
_cell_angle_gamma   96.00572956
_symmetry_Int_Tables_number   1
_chemical_formula_structural   Ac2Cd3In
_chemical_formula_sum   'Ac2 Cd3 In1'
_cell_volume   182.27643028
_cell_formula_units_Z   1
loop_
 _symmetry_equiv_pos_site_id
 _symmetry_equiv_pos_as_xyz
  1  'x, y, z'
loop_
 _atom_site_type_symbol
 _atom_site_label
 _atom_site_symmetry_multiplicity
 _atom_site_fract_x
 _atom_site_fract_y
 _atom_site_fract_z
 _atom_site_occupancy
  Ac  Ac0  1  0.721187  0.969289  0.751898  1
  Ac  Ac1  1  0.280571  0.031741  0.248829  1
  Cd  Cd2  1  0.882548  0.335721  0.546826  1
  Cd  Cd3  1  0.287085  0.333800  0.953285  1
  Cd  Cd4  1  0.116423  0.665555  0.450869  1
  In  In5  1  0.712186  0.663894  0.048293  1
