# generated using pymatgen
data_RbSm5Er(CBr6)2
_symmetry_space_group_name_H-M   'P 1'
_cell_length_a   9.02191011
_cell_length_b   9.02577262
_cell_length_c   9.51727392
_cell_angle_alpha   72.34382662
_cell_angle_beta   71.01096765
_cell_angle_gamma   72.87278273
_symmetry_Int_Tables_number   1
_chemical_formula_structural   RbSm5Er(CBr6)2
_chemical_formula_sum   'Rb1 Sm5 Er1 C2 Br12'
_cell_volume   681.60737399
_cell_formula_units_Z   1
loop_
 _symmetry_equiv_pos_site_id
 _symmetry_equiv_pos_as_xyz
  1  'x, y, z'
loop_
 _atom_site_type_symbol
 _atom_site_label
 _atom_site_symmetry_multiplicity
 _atom_site_fract_x
 _atom_site_fract_y
 _atom_site_fract_z
 _atom_site_occupancy
  Rb  Rb0  1  0.998720  0.500525  0.000370  1
  Sm  Sm1  1  0.474510  0.116411  0.181105  1
  Sm  Sm2  1  0.780704  0.032809  0.406698  1
  Sm  Sm3  1  0.594225  0.721310  0.473713  1
  Sm  Sm4  1  0.405321  0.278259  0.525346  1
  Sm  Sm5  1  0.219157  0.966624  0.595331  1
  Er  Er6  1  0.527108  0.884981  0.812843  1
  C  C7  1  0.492964  0.025235  0.424781  1
  C  C8  1  0.507122  0.973200  0.577218  1
  Br  Br9  1  0.798813  0.161548  0.081501  1
  Br  Br10  1  0.584477  0.785771  0.134055  1
  Br  Br11  1  0.349541  0.434145  0.224057  1
  Br  Br12  1  0.134992  0.071542  0.294623  1
  Br  Br13  1  0.925002  0.721361  0.352402  1
  Br  Br14  1  0.716389  0.366869  0.430228  1
  Br  Br15  1  0.282825  0.633275  0.571736  1
  Br  Br16  1  0.074074  0.278337  0.647878  1
  Br  Br17  1  0.857525  0.926748  0.711251  1
  Br  Br18  1  0.646552  0.574275  0.779294  1
  Br  Br19  1  0.418178  0.206808  0.856984  1
  Br  Br20  1  0.211806  0.839966  0.918585  1
