# generated using pymatgen
data_Ba2YbAs2
_symmetry_space_group_name_H-M   'P 1'
_cell_length_a   4.79747127
_cell_length_b   8.38812900
_cell_length_c   9.36152009
_cell_angle_alpha   90.00000000
_cell_angle_beta   75.15331749
_cell_angle_gamma   90.00000000
_symmetry_Int_Tables_number   1
_chemical_formula_structural   Ba2YbAs2
_chemical_formula_sum   'Ba4 Yb2 As4'
_cell_volume   364.14752291
_cell_formula_units_Z   2
loop_
 _symmetry_equiv_pos_site_id
 _symmetry_equiv_pos_as_xyz
  1  'x, y, z'
loop_
 _atom_site_type_symbol
 _atom_site_label
 _atom_site_symmetry_multiplicity
 _atom_site_fract_x
 _atom_site_fract_y
 _atom_site_fract_z
 _atom_site_occupancy
  Ba  Ba0  1  0.457420  0.270188  0.085160  1
  Ba  Ba1  1  0.295817  0.611756  0.408367  1
  Ba  Ba2  1  0.704183  0.111757  0.591633  1
  Ba  Ba3  1  0.542579  0.770188  0.914839  1
  Yb  Yb4  1  0.906989  0.914737  0.186022  1
  Yb  Yb5  1  0.093010  0.414737  0.813978  1
  As  As6  1  0.941864  0.567358  0.116271  1
  As  As7  1  0.326791  0.001940  0.346417  1
  As  As8  1  0.673208  0.501940  0.653583  1
  As  As9  1  0.058135  0.067358  0.883729  1
