# generated using pymatgen
data_K4Ba2SnSbAs3
_symmetry_space_group_name_H-M   'P 1'
_cell_length_a   10.74203693
_cell_length_b   10.74203738
_cell_length_c   8.26720782
_cell_angle_alpha   88.81600154
_cell_angle_beta   88.81599553
_cell_angle_gamma   119.79589197
_symmetry_Int_Tables_number   1
_chemical_formula_structural   K4Ba2SnSbAs3
_chemical_formula_sum   'K8 Ba4 Sn2 Sb2 As6'
_cell_volume   827.14842213
_cell_formula_units_Z   2
loop_
 _symmetry_equiv_pos_site_id
 _symmetry_equiv_pos_as_xyz
  1  'x, y, z'
loop_
 _atom_site_type_symbol
 _atom_site_label
 _atom_site_symmetry_multiplicity
 _atom_site_fract_x
 _atom_site_fract_y
 _atom_site_fract_z
 _atom_site_occupancy
  K  K0  1  0.478431  0.952808  0.373188  1
  K  K1  1  0.952808  0.478431  0.873188  1
  K  K2  1  0.866238  0.725518  0.179171  1
  K  K3  1  0.276899  0.130027  0.230685  1
  K  K4  1  0.850813  0.138336  0.204802  1
  K  K5  1  0.130027  0.276899  0.730685  1
  K  K6  1  0.725518  0.866238  0.679171  1
  K  K7  1  0.138336  0.850813  0.704802  1
  Ba  Ba8  1  0.044747  0.524233  0.373964  1
  Ba  Ba9  1  0.483736  0.526974  0.364675  1
  Ba  Ba10  1  0.524233  0.044747  0.873964  1
  Ba  Ba11  1  0.526974  0.483736  0.864675  1
  Sn  Sn12  1  0.663065  0.330264  0.515334  1
  Sn  Sn13  1  0.330264  0.663065  0.015334  1
  Sb  Sb14  1  0.660234  0.335461  0.162747  1
  Sb  Sb15  1  0.335461  0.660234  0.662747  1
  As  As16  1  0.200938  0.389455  0.126779  1
  As  As17  1  0.611614  0.801714  0.083848  1
  As  As18  1  0.200559  0.807745  0.102473  1
  As  As19  1  0.801714  0.611614  0.583848  1
  As  As20  1  0.389455  0.200938  0.626779  1
  As  As21  1  0.807745  0.200559  0.602473  1
