# generated using pymatgen
data_Dy8ZnGeI12
_symmetry_space_group_name_H-M   'P 1'
_cell_length_a   4.21027700
_cell_length_b   14.01007306
_cell_length_c   14.78804100
_cell_angle_alpha   90.00550053
_cell_angle_beta   90.00000000
_cell_angle_gamma   90.00000000
_symmetry_Int_Tables_number   1
_chemical_formula_structural   Dy8ZnGeI12
_chemical_formula_sum   'Dy8 Zn1 Ge1 I12'
_cell_volume   872.29164716
_cell_formula_units_Z   1
loop_
 _symmetry_equiv_pos_site_id
 _symmetry_equiv_pos_as_xyz
  1  'x, y, z'
loop_
 _atom_site_type_symbol
 _atom_site_label
 _atom_site_symmetry_multiplicity
 _atom_site_fract_x
 _atom_site_fract_y
 _atom_site_fract_z
 _atom_site_occupancy
  Dy  Dy0  1  0.500000  0.114876  0.346677  1
  Dy  Dy1  1  0.500000  0.885124  0.653323  1
  Dy  Dy2  1  0.500000  0.614729  0.153661  1
  Dy  Dy3  1  0.500000  0.385271  0.846339  1
  Dy  Dy4  1  0.000000  0.114154  0.576885  1
  Dy  Dy5  1  0.000000  0.885846  0.423115  1
  Dy  Dy6  1  0.000000  0.611745  0.924841  1
  Dy  Dy7  1  0.000000  0.388255  0.075159  1
  Zn  Zn8  1  0.500000  0.000000  0.500000  1
  Ge  Ge9  1  0.500000  0.500000  0.000000  1
  I  I10  1  0.500000  0.246503  0.162593  1
  I  I11  1  0.500000  0.753497  0.837407  1
  I  I12  1  0.500000  0.745385  0.335819  1
  I  I13  1  0.500000  0.254615  0.664181  1
  I  I14  1  0.000000  0.261576  0.414249  1
  I  I15  1  0.000000  0.738424  0.585751  1
  I  I16  1  0.000000  0.758558  0.084881  1
  I  I17  1  0.000000  0.241442  0.915119  1
  I  I18  1  0.000000  0.998960  0.237158  1
  I  I19  1  0.000000  0.001040  0.762842  1
  I  I20  1  0.000000  0.498855  0.259471  1
  I  I21  1  0.000000  0.501145  0.740529  1
