# generated using pymatgen
data_Pr2Y3HgPb3
_symmetry_space_group_name_H-M   'P 1'
_cell_length_a   7.96907300
_cell_length_b   8.46663000
_cell_length_c   15.66574300
_cell_angle_alpha   90.00000000
_cell_angle_beta   90.00000000
_cell_angle_gamma   90.00000000
_symmetry_Int_Tables_number   1
_chemical_formula_structural   Pr2Y3HgPb3
_chemical_formula_sum   'Pr8 Y12 Hg4 Pb12'
_cell_volume   1056.98636214
_cell_formula_units_Z   4
loop_
 _symmetry_equiv_pos_site_id
 _symmetry_equiv_pos_as_xyz
  1  'x, y, z'
loop_
 _atom_site_type_symbol
 _atom_site_label
 _atom_site_symmetry_multiplicity
 _atom_site_fract_x
 _atom_site_fract_y
 _atom_site_fract_z
 _atom_site_occupancy
  Pr  Pr0  1  0.502716  0.317646  0.907714  1
  Pr  Pr1  1  0.002716  0.182354  0.592286  1
  Pr  Pr2  1  0.497284  0.682354  0.407714  1
  Pr  Pr3  1  0.997284  0.817646  0.092286  1
  Pr  Pr4  1  0.497284  0.682354  0.092286  1
  Pr  Pr5  1  0.997284  0.817646  0.407714  1
  Pr  Pr6  1  0.502716  0.317646  0.592286  1
  Pr  Pr7  1  0.002716  0.182354  0.907714  1
  Y  Y8  1  0.336972  0.832067  0.873465  1
  Y  Y9  1  0.836972  0.667933  0.626535  1
  Y  Y10  1  0.663028  0.167933  0.373465  1
  Y  Y11  1  0.163028  0.332067  0.126535  1
  Y  Y12  1  0.663028  0.167933  0.126535  1
  Y  Y13  1  0.163028  0.332067  0.373465  1
  Y  Y14  1  0.336972  0.832067  0.626535  1
  Y  Y15  1  0.836972  0.667933  0.873465  1
  Y  Y16  1  0.181275  0.496378  0.750000  1
  Y  Y17  1  0.681275  0.003622  0.750000  1
  Y  Y18  1  0.818725  0.503622  0.250000  1
  Y  Y19  1  0.318725  0.996378  0.250000  1
  Hg  Hg20  1  0.536166  0.621992  0.750000  1
  Hg  Hg21  1  0.036166  0.878008  0.750000  1
  Hg  Hg22  1  0.463834  0.378008  0.250000  1
  Hg  Hg23  1  0.963834  0.121992  0.250000  1
  Pb  Pb24  1  0.315629  0.038004  0.041573  1
  Pb  Pb25  1  0.815629  0.461996  0.458427  1
  Pb  Pb26  1  0.684371  0.961996  0.541573  1
  Pb  Pb27  1  0.184371  0.538004  0.958427  1
  Pb  Pb28  1  0.684371  0.961996  0.958427  1
  Pb  Pb29  1  0.184371  0.538004  0.541573  1
  Pb  Pb30  1  0.315629  0.038004  0.458427  1
  Pb  Pb31  1  0.815629  0.461996  0.041573  1
  Pb  Pb32  1  0.302040  0.138428  0.750000  1
  Pb  Pb33  1  0.802040  0.361572  0.750000  1
  Pb  Pb34  1  0.697960  0.861572  0.250000  1
  Pb  Pb35  1  0.197960  0.638428  0.250000  1
