# generated using pymatgen
data_NaLiLu2F8
_symmetry_space_group_name_H-M   'P 1'
_cell_length_a   6.60523243
_cell_length_b   6.60523196
_cell_length_c   6.95948500
_cell_angle_alpha   90.00000000
_cell_angle_beta   90.00000000
_cell_angle_gamma   103.27902976
_symmetry_Int_Tables_number   1
_chemical_formula_structural   NaLiLu2F8
_chemical_formula_sum   'Na2 Li2 Lu4 F16'
_cell_volume   295.51769959
_cell_formula_units_Z   2
loop_
 _symmetry_equiv_pos_site_id
 _symmetry_equiv_pos_as_xyz
  1  'x, y, z'
loop_
 _atom_site_type_symbol
 _atom_site_label
 _atom_site_symmetry_multiplicity
 _atom_site_fract_x
 _atom_site_fract_y
 _atom_site_fract_z
 _atom_site_occupancy
  Na  Na0  1  0.658110  0.658110  0.250000  1
  Na  Na1  1  0.341890  0.341890  0.750000  1
  Li  Li2  1  0.000000  0.000000  0.000000  1
  Li  Li3  1  0.000000  0.000000  0.500000  1
  Lu  Lu4  1  0.924021  0.549598  0.750000  1
  Lu  Lu5  1  0.549598  0.924021  0.750000  1
  Lu  Lu6  1  0.075979  0.450402  0.250000  1
  Lu  Lu7  1  0.450402  0.075979  0.250000  1
  F  F8  1  0.253626  0.693631  0.750000  1
  F  F9  1  0.306369  0.746374  0.250000  1
  F  F10  1  0.063094  0.340938  0.549462  1
  F  F11  1  0.936906  0.659062  0.450538  1
  F  F12  1  0.746374  0.306369  0.250000  1
  F  F13  1  0.340938  0.063094  0.549462  1
  F  F14  1  0.936906  0.659062  0.049462  1
  F  F15  1  0.693631  0.253626  0.750000  1
  F  F16  1  0.087599  0.087599  0.250000  1
  F  F17  1  0.611625  0.611625  0.750000  1
  F  F18  1  0.340938  0.063094  0.950538  1
  F  F19  1  0.912401  0.912401  0.750000  1
  F  F20  1  0.659062  0.936906  0.450538  1
  F  F21  1  0.388375  0.388375  0.250000  1
  F  F22  1  0.063094  0.340938  0.950538  1
  F  F23  1  0.659062  0.936906  0.049462  1
