# generated using pymatgen
data_HoCuPd5O8
_symmetry_space_group_name_H-M   'P 1'
_cell_length_a   6.82966025
_cell_length_b   6.82966037
_cell_length_c   6.79383900
_cell_angle_alpha   60.17334628
_cell_angle_beta   60.17334568
_cell_angle_gamma   59.23554239
_symmetry_Int_Tables_number   1
_chemical_formula_structural   HoCuPd5O8
_chemical_formula_sum   'Ho1 Cu1 Pd5 O8'
_cell_volume   223.32970654
_cell_formula_units_Z   1
loop_
 _symmetry_equiv_pos_site_id
 _symmetry_equiv_pos_as_xyz
  1  'x, y, z'
loop_
 _atom_site_type_symbol
 _atom_site_label
 _atom_site_symmetry_multiplicity
 _atom_site_fract_x
 _atom_site_fract_y
 _atom_site_fract_z
 _atom_site_occupancy
  Ho  Ho0  1  0.000000  0.000000  0.000000  1
  Cu  Cu1  1  0.000000  0.000000  0.500000  1
  Pd  Pd2  1  0.500000  0.000000  0.000000  1
  Pd  Pd3  1  0.000000  0.500000  0.000000  1
  Pd  Pd4  1  0.500000  0.500000  0.000000  1
  Pd  Pd5  1  0.000000  0.500000  0.500000  1
  Pd  Pd6  1  0.500000  0.000000  0.500000  1
  O  O7  1  0.134488  0.134488  0.573195  1
  O  O8  1  0.137632  0.583827  0.139270  1
  O  O9  1  0.583827  0.137632  0.139270  1
  O  O10  1  0.862368  0.416173  0.860730  1
  O  O11  1  0.134488  0.134488  0.157829  1
  O  O12  1  0.865512  0.865512  0.842171  1
  O  O13  1  0.865512  0.865512  0.426805  1
  O  O14  1  0.416173  0.862368  0.860730  1
