# generated using pymatgen
data_Ba2LiTm(AsPt)4
_symmetry_space_group_name_H-M   'P 1'
_cell_length_a   4.37860300
_cell_length_b   4.37860151
_cell_length_c   15.92449700
_cell_angle_alpha   90.00000000
_cell_angle_beta   90.00000000
_cell_angle_gamma   120.00000370
_symmetry_Int_Tables_number   1
_chemical_formula_structural   Ba2LiTm(AsPt)4
_chemical_formula_sum   'Ba2 Li1 Tm1 As4 Pt4'
_cell_volume   264.40358034
_cell_formula_units_Z   1
loop_
 _symmetry_equiv_pos_site_id
 _symmetry_equiv_pos_as_xyz
  1  'x, y, z'
loop_
 _atom_site_type_symbol
 _atom_site_label
 _atom_site_symmetry_multiplicity
 _atom_site_fract_x
 _atom_site_fract_y
 _atom_site_fract_z
 _atom_site_occupancy
  Ba  Ba0  1  0.000000  0.000000  0.258425  1
  Ba  Ba1  1  0.000000  0.000000  0.741575  1
  Li  Li2  1  0.000000  0.000000  0.500000  1
  Tm  Tm3  1  0.000000  0.000000  0.000000  1
  As  As4  1  0.333333  0.666667  0.880477  1
  As  As5  1  0.666667  0.333333  0.119523  1
  As  As6  1  0.666667  0.333333  0.408778  1
  As  As7  1  0.333333  0.666667  0.591222  1
  Pt  Pt8  1  0.333333  0.666667  0.424274  1
  Pt  Pt9  1  0.666667  0.333333  0.575726  1
  Pt  Pt10  1  0.666667  0.333333  0.897584  1
  Pt  Pt11  1  0.333333  0.666667  0.102416  1
