# generated using pymatgen
data_Er3B7Ru
_symmetry_space_group_name_H-M   'P 1'
_cell_length_a   7.99005708
_cell_length_b   7.99005717
_cell_length_c   9.27250300
_cell_angle_alpha   90.00000000
_cell_angle_beta   90.00000000
_cell_angle_gamma   154.76624717
_symmetry_Int_Tables_number   1
_chemical_formula_structural   Er3B7Ru
_chemical_formula_sum   'Er6 B14 Ru2'
_cell_volume   252.36234992
_cell_formula_units_Z   2
loop_
 _symmetry_equiv_pos_site_id
 _symmetry_equiv_pos_as_xyz
  1  'x, y, z'
loop_
 _atom_site_type_symbol
 _atom_site_label
 _atom_site_symmetry_multiplicity
 _atom_site_fract_x
 _atom_site_fract_y
 _atom_site_fract_z
 _atom_site_occupancy
  Er  Er0  1  0.893920  0.106080  0.439889  1
  Er  Er1  1  0.106080  0.893920  0.560111  1
  Er  Er2  1  0.893920  0.106080  0.060111  1
  Er  Er3  1  0.106080  0.893920  0.939889  1
  Er  Er4  1  0.244137  0.755863  0.250000  1
  Er  Er5  1  0.755863  0.244137  0.750000  1
  B  B6  1  0.727354  0.272646  0.465983  1
  B  B7  1  0.272646  0.727354  0.534017  1
  B  B8  1  0.727354  0.272646  0.034017  1
  B  B9  1  0.272646  0.727354  0.965983  1
  B  B10  1  0.631982  0.368018  0.150547  1
  B  B11  1  0.368018  0.631982  0.849453  1
  B  B12  1  0.631982  0.368018  0.349453  1
  B  B13  1  0.368018  0.631982  0.650547  1
  B  B14  1  0.520334  0.479666  0.095647  1
  B  B15  1  0.479666  0.520334  0.904353  1
  B  B16  1  0.520334  0.479666  0.404353  1
  B  B17  1  0.479666  0.520334  0.595647  1
  B  B18  1  0.455900  0.544100  0.250000  1
  B  B19  1  0.544100  0.455900  0.750000  1
  Ru  Ru20  1  0.053590  0.946410  0.250000  1
  Ru  Ru21  1  0.946410  0.053590  0.750000  1
