# generated using pymatgen
data_ScNb3Fe2(B2Ru5)2
_symmetry_space_group_name_H-M   'P 1'
_cell_length_a   9.30888830
_cell_length_b   9.30888830
_cell_length_c   3.00086900
_cell_angle_alpha   90.00000000
_cell_angle_beta   90.00000000
_cell_angle_gamma   89.85650336
_symmetry_Int_Tables_number   1
_chemical_formula_structural   ScNb3Fe2(B2Ru5)2
_chemical_formula_sum   'Sc1 Nb3 Fe2 B4 Ru10'
_cell_volume   260.04069207
_cell_formula_units_Z   1
loop_
 _symmetry_equiv_pos_site_id
 _symmetry_equiv_pos_as_xyz
  1  'x, y, z'
loop_
 _atom_site_type_symbol
 _atom_site_label
 _atom_site_symmetry_multiplicity
 _atom_site_fract_x
 _atom_site_fract_y
 _atom_site_fract_z
 _atom_site_occupancy
  Sc  Sc0  1  0.823901  0.676099  0.000000  1
  Nb  Nb1  1  0.176185  0.323815  0.000000  1
  Nb  Nb2  1  0.324124  0.822331  0.000000  1
  Nb  Nb3  1  0.677669  0.175876  0.000000  1
  Fe  Fe4  1  0.501645  0.501062  0.000000  1
  Fe  Fe5  1  0.998938  0.998355  0.000000  1
  B  B6  1  0.625464  0.874536  0.000000  1
  B  B7  1  0.374962  0.125038  0.000000  1
  B  B8  1  0.123199  0.624367  0.000000  1
  B  B9  1  0.875633  0.376801  0.000000  1
  Ru  Ru10  1  0.564810  0.715244  0.500000  1
  Ru  Ru11  1  0.428564  0.287107  0.500000  1
  Ru  Ru12  1  0.076898  0.788632  0.500000  1
  Ru  Ru13  1  0.930454  0.213072  0.500000  1
  Ru  Ru14  1  0.286928  0.569546  0.500000  1
  Ru  Ru15  1  0.711368  0.423102  0.500000  1
  Ru  Ru16  1  0.212893  0.071436  0.500000  1
  Ru  Ru17  1  0.784756  0.935190  0.500000  1
  Ru  Ru18  1  0.499241  0.000759  0.500000  1
  Ru  Ru19  1  0.002368  0.497632  0.500000  1
