# generated using pymatgen
data_LiY16Cd3Ir4
_symmetry_space_group_name_H-M   'P 1'
_cell_length_a   9.71658886
_cell_length_b   9.71658842
_cell_length_c   9.71658766
_cell_angle_alpha   59.67613255
_cell_angle_beta   59.67613579
_cell_angle_gamma   59.67613699
_symmetry_Int_Tables_number   1
_chemical_formula_structural   LiY16Cd3Ir4
_chemical_formula_sum   'Li1 Y16 Cd3 Ir4'
_cell_volume   643.90117028
_cell_formula_units_Z   1
loop_
 _symmetry_equiv_pos_site_id
 _symmetry_equiv_pos_as_xyz
  1  'x, y, z'
loop_
 _atom_site_type_symbol
 _atom_site_label
 _atom_site_symmetry_multiplicity
 _atom_site_fract_x
 _atom_site_fract_y
 _atom_site_fract_z
 _atom_site_occupancy
  Li  Li0  1  0.820948  0.820948  0.820948  1
  Y  Y1  1  0.600141  0.600141  0.600141  1
  Y  Y2  1  0.598079  0.598079  0.207096  1
  Y  Y3  1  0.598079  0.207096  0.598079  1
  Y  Y4  1  0.207096  0.598079  0.598079  1
  Y  Y5  1  0.059545  0.440344  0.440344  1
  Y  Y6  1  0.435336  0.061881  0.061881  1
  Y  Y7  1  0.440344  0.059545  0.440344  1
  Y  Y8  1  0.061881  0.435336  0.061881  1
  Y  Y9  1  0.440344  0.440344  0.059545  1
  Y  Y10  1  0.061881  0.061881  0.435336  1
  Y  Y11  1  0.190523  0.810981  0.810981  1
  Y  Y12  1  0.813013  0.186449  0.186449  1
  Y  Y13  1  0.810981  0.190523  0.810981  1
  Y  Y14  1  0.186449  0.813013  0.186449  1
  Y  Y15  1  0.810981  0.810981  0.190523  1
  Y  Y16  1  0.186449  0.186449  0.813013  1
  Cd  Cd17  1  0.832489  0.832489  0.506412  1
  Cd  Cd18  1  0.832489  0.506412  0.832489  1
  Cd  Cd19  1  0.506412  0.832489  0.832489  1
  Ir  Ir20  1  0.391720  0.391720  0.391720  1
  Ir  Ir21  1  0.394201  0.394201  0.826420  1
  Ir  Ir22  1  0.394201  0.826420  0.394201  1
  Ir  Ir23  1  0.826420  0.394201  0.394201  1
