# generated using pymatgen
data_Ti6Si2Ge3POs6
_symmetry_space_group_name_H-M   'P 1'
_cell_length_a   6.57567026
_cell_length_b   7.13650860
_cell_length_c   7.44654539
_cell_angle_alpha   118.42186031
_cell_angle_beta   116.26726273
_cell_angle_gamma   90.19385218
_symmetry_Int_Tables_number   1
_chemical_formula_structural   Ti6Si2Ge3POs6
_chemical_formula_sum   'Ti6 Si2 Ge3 P1 Os6'
_cell_volume   265.24969718
_cell_formula_units_Z   1
loop_
 _symmetry_equiv_pos_site_id
 _symmetry_equiv_pos_as_xyz
  1  'x, y, z'
loop_
 _atom_site_type_symbol
 _atom_site_label
 _atom_site_symmetry_multiplicity
 _atom_site_fract_x
 _atom_site_fract_y
 _atom_site_fract_z
 _atom_site_occupancy
  Ti  Ti0  1  0.251284  0.488653  0.447086  1
  Ti  Ti1  1  0.793154  0.538814  0.556306  1
  Ti  Ti2  1  0.651933  0.750461  0.987349  1
  Ti  Ti3  1  0.665447  0.248222  0.998488  1
  Ti  Ti4  1  0.846779  0.058095  0.618825  1
  Ti  Ti5  1  0.252530  0.949285  0.400362  1
  Si  Si6  1  0.264775  0.270737  0.055622  1
  Si  Si7  1  0.233937  0.707025  0.927884  1
  Ge  Ge8  1  0.918048  0.168047  0.338628  1
  Ge  Ge9  1  0.908446  0.677432  0.330448  1
  Ge  Ge10  1  0.578054  0.333357  0.663196  1
  P  P11  1  0.582247  0.846212  0.671005  1
  Os  Os12  1  0.993623  0.964581  0.989282  1
  Os  Os13  1  0.001470  0.517093  0.001838  1
  Os  Os14  1  0.494469  0.658100  0.261911  1
  Os  Os15  1  0.254216  0.333642  0.758211  1
  Os  Os16  1  0.256809  0.906931  0.749131  1
  Os  Os17  1  0.493179  0.083315  0.244428  1
