# generated using pymatgen
data_Ca3Ni6B2Pd
_symmetry_space_group_name_H-M   'P 1'
_cell_length_a   7.85240244
_cell_length_b   7.85240247
_cell_length_c   7.85240181
_cell_angle_alpha   38.18891635
_cell_angle_beta   38.18891611
_cell_angle_gamma   38.18891694
_symmetry_Int_Tables_number   1
_chemical_formula_structural   Ca3Ni6B2Pd
_chemical_formula_sum   'Ca3 Ni6 B2 Pd1'
_cell_volume   166.18835143
_cell_formula_units_Z   1
loop_
 _symmetry_equiv_pos_site_id
 _symmetry_equiv_pos_as_xyz
  1  'x, y, z'
loop_
 _atom_site_type_symbol
 _atom_site_label
 _atom_site_symmetry_multiplicity
 _atom_site_fract_x
 _atom_site_fract_y
 _atom_site_fract_z
 _atom_site_occupancy
  Ca  Ca0  1  0.643588  0.643588  0.643588  1
  Ca  Ca1  1  0.356412  0.356412  0.356412  1
  Ca  Ca2  1  0.500000  0.500000  0.500000  1
  Ni  Ni3  1  0.566965  0.060717  0.060717  1
  Ni  Ni4  1  0.060717  0.060717  0.566965  1
  Ni  Ni5  1  0.060717  0.566965  0.060717  1
  Ni  Ni6  1  0.939283  0.433035  0.939283  1
  Ni  Ni7  1  0.939283  0.939283  0.433035  1
  Ni  Ni8  1  0.433035  0.939283  0.939283  1
  B  B9  1  0.831614  0.831614  0.831614  1
  B  B10  1  0.168386  0.168386  0.168386  1
  Pd  Pd11  1  0.000000  0.000000  0.000000  1
