# generated using pymatgen
data_Gd2Dy4ReO12
_symmetry_space_group_name_H-M   'P 1'
_cell_length_a   6.51942585
_cell_length_b   6.48650877
_cell_length_c   6.53136806
_cell_angle_alpha   98.79393328
_cell_angle_beta   98.72464197
_cell_angle_gamma   98.45309988
_symmetry_Int_Tables_number   1
_chemical_formula_structural   Gd2Dy4ReO12
_chemical_formula_sum   'Gd2 Dy4 Re1 O12'
_cell_volume   265.66873002
_cell_formula_units_Z   1
loop_
 _symmetry_equiv_pos_site_id
 _symmetry_equiv_pos_as_xyz
  1  'x, y, z'
loop_
 _atom_site_type_symbol
 _atom_site_label
 _atom_site_symmetry_multiplicity
 _atom_site_fract_x
 _atom_site_fract_y
 _atom_site_fract_z
 _atom_site_occupancy
  Gd  Gd0  1  0.855768  0.388563  0.683697  1
  Gd  Gd1  1  0.605972  0.310914  0.141256  1
  Dy  Dy2  1  0.312071  0.143466  0.609452  1
  Dy  Dy3  1  0.684750  0.855612  0.389595  1
  Dy  Dy4  1  0.390855  0.690367  0.857153  1
  Dy  Dy5  1  0.146211  0.615232  0.318419  1
  Re  Re6  1  0.000525  0.998942  0.000638  1
  O  O7  1  0.924933  0.032443  0.704152  1
  O  O8  1  0.971850  0.289937  0.076019  1
  O  O9  1  0.587421  0.176228  0.433610  1
  O  O10  1  0.823587  0.567010  0.406150  1
  O  O11  1  0.295347  0.069188  0.956882  1
  O  O12  1  0.564834  0.411613  0.821752  1
  O  O13  1  0.430252  0.594783  0.176165  1
  O  O14  1  0.705160  0.923969  0.038897  1
  O  O15  1  0.179128  0.436839  0.590842  1
  O  O16  1  0.409584  0.822672  0.567002  1
  O  O17  1  0.036708  0.708356  0.930569  1
  O  O18  1  0.075044  0.963868  0.297749  1
