# generated using pymatgen
data_Cs6YHoBr12
_symmetry_space_group_name_H-M   'P 1'
_cell_length_a   9.99876000
_cell_length_b   10.00106008
_cell_length_c   8.30133300
_cell_angle_alpha   90.00000000
_cell_angle_beta   90.00000000
_cell_angle_gamma   89.99286170
_symmetry_Int_Tables_number   1
_chemical_formula_structural   Cs6YHoBr12
_chemical_formula_sum   'Cs6 Y1 Ho1 Br12'
_cell_volume   830.11834669
_cell_formula_units_Z   1
loop_
 _symmetry_equiv_pos_site_id
 _symmetry_equiv_pos_as_xyz
  1  'x, y, z'
loop_
 _atom_site_type_symbol
 _atom_site_label
 _atom_site_symmetry_multiplicity
 _atom_site_fract_x
 _atom_site_fract_y
 _atom_site_fract_z
 _atom_site_occupancy
  Cs  Cs0  1  0.000000  0.000000  0.500000  1
  Cs  Cs1  1  0.000000  0.000000  0.000000  1
  Cs  Cs2  1  0.234864  0.584414  0.500000  1
  Cs  Cs3  1  0.765136  0.415586  0.500000  1
  Cs  Cs4  1  0.415602  0.234890  0.000000  1
  Cs  Cs5  1  0.584398  0.765110  0.000000  1
  Y  Y6  1  0.000000  0.500000  0.000000  1
  Ho  Ho7  1  0.500000  0.000000  0.500000  1
  Br  Br8  1  0.691225  0.058061  0.739719  1
  Br  Br9  1  0.308775  0.941939  0.739719  1
  Br  Br10  1  0.941737  0.691919  0.240613  1
  Br  Br11  1  0.058263  0.308081  0.240613  1
  Br  Br12  1  0.308775  0.941939  0.260281  1
  Br  Br13  1  0.691225  0.058061  0.260281  1
  Br  Br14  1  0.058263  0.308081  0.759387  1
  Br  Br15  1  0.941737  0.691919  0.759387  1
  Br  Br16  1  0.571171  0.730146  0.500000  1
  Br  Br17  1  0.428829  0.269854  0.500000  1
  Br  Br18  1  0.270939  0.571497  0.000000  1
  Br  Br19  1  0.729061  0.428503  0.000000  1
