# generated using pymatgen
data_Y2Si7Pt11Rh
_symmetry_space_group_name_H-M   'P 1'
_cell_length_a   9.94837154
_cell_length_b   9.95486264
_cell_length_c   3.94261777
_cell_angle_alpha   89.81450817
_cell_angle_beta   90.20596280
_cell_angle_gamma   120.01655926
_symmetry_Int_Tables_number   1
_chemical_formula_structural   Y2Si7Pt11Rh
_chemical_formula_sum   'Y2 Si7 Pt11 Rh1'
_cell_volume   338.08560330
_cell_formula_units_Z   1
loop_
 _symmetry_equiv_pos_site_id
 _symmetry_equiv_pos_as_xyz
  1  'x, y, z'
loop_
 _atom_site_type_symbol
 _atom_site_label
 _atom_site_symmetry_multiplicity
 _atom_site_fract_x
 _atom_site_fract_y
 _atom_site_fract_z
 _atom_site_occupancy
  Y  Y0  1  0.333408  0.666792  0.750287  1
  Y  Y1  1  0.667430  0.332147  0.249380  1
  Si  Si2  1  0.998536  0.002434  0.496887  1
  Si  Si3  1  0.404353  0.288156  0.749121  1
  Si  Si4  1  0.715674  0.116521  0.750550  1
  Si  Si5  1  0.883612  0.595273  0.748920  1
  Si  Si6  1  0.595809  0.712387  0.250926  1
  Si  Si7  1  0.288029  0.883582  0.250385  1
  Si  Si8  1  0.111683  0.400031  0.251146  1
  Pt  Pt9  1  0.455199  0.074689  0.749340  1
  Pt  Pt10  1  0.927323  0.379238  0.750331  1
  Pt  Pt11  1  0.619925  0.546321  0.749324  1
  Pt  Pt12  1  0.546882  0.926831  0.250089  1
  Pt  Pt13  1  0.073485  0.619615  0.249211  1
  Pt  Pt14  1  0.379035  0.454097  0.248925  1
  Pt  Pt15  1  0.146803  0.262677  0.755257  1
  Pt  Pt16  1  0.739705  0.885925  0.755626  1
  Pt  Pt17  1  0.113740  0.853949  0.753298  1
  Pt  Pt18  1  0.853902  0.739681  0.243843  1
  Pt  Pt19  1  0.261087  0.114087  0.244773  1
  Rh  Rh20  1  0.884379  0.145569  0.252381  1
