# generated using pymatgen
data_Dy5V3P12Ir9Rh7
_symmetry_space_group_name_H-M   'P 1'
_cell_length_a   12.69981128
_cell_length_b   12.68500552
_cell_length_c   3.92879700
_cell_angle_alpha   90.00000000
_cell_angle_beta   90.00000000
_cell_angle_gamma   120.01465608
_symmetry_Int_Tables_number   1
_chemical_formula_structural   Dy5V3P12Ir9Rh7
_chemical_formula_sum   'Dy5 V3 P12 Ir9 Rh7'
_cell_volume   548.04218823
_cell_formula_units_Z   1
loop_
 _symmetry_equiv_pos_site_id
 _symmetry_equiv_pos_as_xyz
  1  'x, y, z'
loop_
 _atom_site_type_symbol
 _atom_site_label
 _atom_site_symmetry_multiplicity
 _atom_site_fract_x
 _atom_site_fract_y
 _atom_site_fract_z
 _atom_site_occupancy
  Dy  Dy0  1  0.333276  0.666439  0.500000  1
  Dy  Dy1  1  0.666295  0.333083  0.500000  1
  Dy  Dy2  1  0.000378  0.810179  0.000000  1
  Dy  Dy3  1  0.189447  0.189374  0.000000  1
  Dy  Dy4  1  0.810274  0.000206  0.000000  1
  V  V5  1  0.000351  0.449306  0.500000  1
  V  V6  1  0.549594  0.549925  0.500000  1
  V  V7  1  0.449371  0.000243  0.500000  1
  P  P8  1  0.999605  0.633544  0.500000  1
  P  P9  1  0.366042  0.366067  0.500000  1
  P  P10  1  0.635044  0.000579  0.500000  1
  P  P11  1  0.517502  0.683235  0.000000  1
  P  P12  1  0.317260  0.833964  0.000000  1
  P  P13  1  0.166367  0.483526  0.000000  1
  P  P14  1  0.482320  0.165741  0.000000  1
  P  P15  1  0.683215  0.517487  0.000000  1
  P  P16  1  0.834311  0.317293  0.000000  1
  P  P17  1  0.999636  0.176712  0.500000  1
  P  P18  1  0.822075  0.822672  0.500000  1
  P  P19  1  0.177065  0.999214  0.500000  1
  Ir  Ir20  1  0.357777  0.488753  0.000000  1
  Ir  Ir21  1  0.489408  0.357612  0.000000  1
  Ir  Ir22  1  0.868580  0.510943  0.000000  1
  Ir  Ir23  1  0.642234  0.132489  0.000000  1
  Ir  Ir24  1  0.000585  0.284035  0.000000  1
  Ir  Ir25  1  0.716717  0.716872  0.000000  1
  Ir  Ir26  1  0.283479  0.999849  0.000000  1
  Ir  Ir27  1  0.821640  0.197547  0.500000  1
  Ir  Ir28  1  0.999960  0.999539  0.500000  1
  Rh  Rh29  1  0.511916  0.869387  0.000000  1
  Rh  Rh30  1  0.130496  0.642404  0.000000  1
  Rh  Rh31  1  0.623407  0.802597  0.500000  1
  Rh  Rh32  1  0.198052  0.820992  0.500000  1
  Rh  Rh33  1  0.178727  0.375284  0.500000  1
  Rh  Rh34  1  0.374980  0.178688  0.500000  1
  Rh  Rh35  1  0.802614  0.624222  0.500000  1
