# generated using pymatgen
data_Lu4Zr3PtF28
_symmetry_space_group_name_H-M   'P 1'
_cell_length_a   5.60678132
_cell_length_b   8.89387521
_cell_length_c   12.00432994
_cell_angle_alpha   62.67529966
_cell_angle_beta   89.91870905
_cell_angle_gamma   89.96999490
_symmetry_Int_Tables_number   1
_chemical_formula_structural   Lu4Zr3PtF28
_chemical_formula_sum   'Lu4 Zr3 Pt1 F28'
_cell_volume   531.81450396
_cell_formula_units_Z   1
loop_
 _symmetry_equiv_pos_site_id
 _symmetry_equiv_pos_as_xyz
  1  'x, y, z'
loop_
 _atom_site_type_symbol
 _atom_site_label
 _atom_site_symmetry_multiplicity
 _atom_site_fract_x
 _atom_site_fract_y
 _atom_site_fract_z
 _atom_site_occupancy
  Lu  Lu0  1  0.757843  0.818891  0.764738  1
  Lu  Lu1  1  0.258396  0.182097  0.732578  1
  Lu  Lu2  1  0.241425  0.181447  0.239632  1
  Lu  Lu3  1  0.744199  0.815615  0.267004  1
  Zr  Zr4  1  0.756616  0.273603  0.956346  1
  Zr  Zr5  1  0.256369  0.724808  0.544342  1
  Zr  Zr6  1  0.244504  0.724336  0.045624  1
  Pt  Pt7  1  0.739295  0.272161  0.455707  1
  F  F8  1  0.464638  0.709293  0.916671  1
  F  F9  1  0.940932  0.295602  0.581120  1
  F  F10  1  0.534408  0.289276  0.084375  1
  F  F11  1  0.036802  0.710424  0.415817  1
  F  F12  1  0.444760  0.278936  0.544596  1
  F  F13  1  0.941691  0.726877  0.948280  1
  F  F14  1  0.559990  0.721623  0.450097  1
  F  F15  1  0.058104  0.272463  0.053707  1
  F  F16  1  0.776971  0.529646  0.858131  1
  F  F17  1  0.268898  0.467997  0.640795  1
  F  F18  1  0.221898  0.468330  0.144688  1
  F  F19  1  0.727798  0.520710  0.356813  1
  F  F20  1  0.758399  0.017779  0.060976  1
  F  F21  1  0.260062  0.981038  0.441604  1
  F  F22  1  0.242584  0.980103  0.938468  1
  F  F23  1  0.742771  0.023341  0.550622  1
  F  F24  1  0.974532  0.734081  0.648412  1
  F  F25  1  0.478449  0.267058  0.849176  1
  F  F26  1  0.025281  0.272695  0.359903  1
  F  F27  1  0.524366  0.732203  0.150562  1
  F  F28  1  0.035213  0.749205  0.176335  1
  F  F29  1  0.543295  0.256902  0.323994  1
  F  F30  1  0.969400  0.251121  0.824579  1
  F  F31  1  0.468413  0.747649  0.675505  1
  F  F32  1  0.427128  0.973285  0.236697  1
  F  F33  1  0.926432  0.026861  0.267568  1
  F  F34  1  0.573784  0.028368  0.763472  1
  F  F35  1  0.074355  0.974177  0.731068  1
