# generated using pymatgen
data_TbHoAs4O9
_symmetry_space_group_name_H-M   'P 1'
_cell_length_a   6.74858183
_cell_length_b   7.55465740
_cell_length_c   9.82759313
_cell_angle_alpha   94.86129201
_cell_angle_beta   104.10398245
_cell_angle_gamma   104.78410173
_symmetry_Int_Tables_number   1
_chemical_formula_structural   TbHoAs4O9
_chemical_formula_sum   'Tb2 Ho2 As8 O18'
_cell_volume   464.04820994
_cell_formula_units_Z   2
loop_
 _symmetry_equiv_pos_site_id
 _symmetry_equiv_pos_as_xyz
  1  'x, y, z'
loop_
 _atom_site_type_symbol
 _atom_site_label
 _atom_site_symmetry_multiplicity
 _atom_site_fract_x
 _atom_site_fract_y
 _atom_site_fract_z
 _atom_site_occupancy
  Tb  Tb0  1  0.244072  0.939474  0.615417  1
  Tb  Tb1  1  0.755928  0.060526  0.384583  1
  Ho  Ho2  1  0.720767  0.529680  0.409420  1
  Ho  Ho3  1  0.279233  0.470320  0.590580  1
  As  As4  1  0.681720  0.774342  0.077903  1
  As  As5  1  0.318280  0.225658  0.922097  1
  As  As6  1  0.171546  0.752291  0.912586  1
  As  As7  1  0.828454  0.247709  0.087414  1
  As  As8  1  0.744391  0.915088  0.709468  1
  As  As9  1  0.255609  0.084912  0.290532  1
  As  As10  1  0.809513  0.351410  0.701368  1
  As  As11  1  0.190487  0.648590  0.298632  1
  O  O12  1  0.723067  0.748199  0.258417  1
  O  O13  1  0.276933  0.251801  0.741583  1
  O  O14  1  0.316229  0.978928  0.870704  1
  O  O15  1  0.683771  0.021072  0.129296  1
  O  O16  1  0.608015  0.324723  0.985373  1
  O  O17  1  0.391985  0.675277  0.014627  1
  O  O18  1  0.128444  0.646268  0.737783  1
  O  O19  1  0.871556  0.353732  0.262217  1
  O  O20  1  0.846653  0.873536  0.559228  1
  O  O21  1  0.153347  0.126464  0.440772  1
  O  O22  1  0.484120  0.767092  0.666424  1
  O  O23  1  0.515880  0.232908  0.333576  1
  O  O24  1  0.373155  0.534027  0.380187  1
  O  O25  1  0.626845  0.465973  0.619813  1
  O  O26  1  0.088386  0.667873  0.453280  1
  O  O27  1  0.911614  0.332127  0.546720  1
  O  O28  1  0.375469  0.899246  0.359243  1
  O  O29  1  0.624531  0.100754  0.640757  1
