# generated using pymatgen
data_Sr(In3Te5)2
_symmetry_space_group_name_H-M   'P 1'
_cell_length_a   11.11143914
_cell_length_b   11.11143780
_cell_length_c   10.99539538
_cell_angle_alpha   90.07160942
_cell_angle_beta   90.07160826
_cell_angle_gamma   89.07054159
_symmetry_Int_Tables_number   1
_chemical_formula_structural   Sr(In3Te5)2
_chemical_formula_sum   'Sr2 In12 Te20'
_cell_volume   1357.35550436
_cell_formula_units_Z   2
loop_
 _symmetry_equiv_pos_site_id
 _symmetry_equiv_pos_as_xyz
  1  'x, y, z'
loop_
 _atom_site_type_symbol
 _atom_site_label
 _atom_site_symmetry_multiplicity
 _atom_site_fract_x
 _atom_site_fract_y
 _atom_site_fract_z
 _atom_site_occupancy
  Sr  Sr0  1  0.996265  0.741958  0.745013  1
  Sr  Sr1  1  0.258042  0.003735  0.254987  1
  In  In2  1  0.907645  0.998422  0.167846  1
  In  In3  1  0.823772  0.615254  0.159432  1
  In  In4  1  0.683039  0.903656  0.876220  1
  In  In5  1  0.596948  0.913129  0.254311  1
  In  In6  1  0.508694  0.575581  0.334078  1
  In  In7  1  0.424419  0.491306  0.665922  1
  In  In8  1  0.417152  0.870668  0.575189  1
  In  In9  1  0.384746  0.176228  0.840568  1
  In  In10  1  0.129332  0.582848  0.424811  1
  In  In11  1  0.096344  0.316961  0.123780  1
  In  In12  1  0.086871  0.403052  0.745689  1
  In  In13  1  0.001578  0.092355  0.832154  1
  Te  Te14  1  0.934494  0.502562  0.565968  1
  Te  Te15  1  0.922039  0.317494  0.930657  1
  Te  Te16  1  0.824577  0.814150  0.329709  1
  Te  Te17  1  0.825629  0.990088  0.682285  1
  Te  Te18  1  0.756135  0.661959  0.914291  1
  Te  Te19  1  0.694645  0.426052  0.255053  1
  Te  Te20  1  0.682506  0.077961  0.069343  1
  Te  Te21  1  0.582108  0.673129  0.569400  1
  Te  Te22  1  0.573948  0.305355  0.744947  1
  Te  Te23  1  0.497438  0.065506  0.434032  1
  Te  Te24  1  0.425752  0.916835  0.832335  1
  Te  Te25  1  0.425436  0.752087  0.166565  1
  Te  Te26  1  0.338041  0.243865  0.085709  1
  Te  Te27  1  0.326871  0.417892  0.430600  1
  Te  Te28  1  0.247913  0.574564  0.833435  1
  Te  Te29  1  0.185850  0.175423  0.670291  1
  Te  Te30  1  0.172512  0.827488  0.500000  1
  Te  Te31  1  0.085373  0.914627  0.000000  1
  Te  Te32  1  0.083165  0.574248  0.167665  1
  Te  Te33  1  0.009912  0.174371  0.317715  1
