# generated using pymatgen
data_Ce2HoIn(GaRu)2
_symmetry_space_group_name_H-M   'P 1'
_cell_length_a   8.16073530
_cell_length_b   8.16073425
_cell_length_c   4.96831901
_cell_angle_alpha   81.87837248
_cell_angle_beta   81.87836972
_cell_angle_gamma   32.76004832
_symmetry_Int_Tables_number   1
_chemical_formula_structural   Ce2HoIn(GaRu)2
_chemical_formula_sum   'Ce2 Ho1 In1 Ga2 Ru2'
_cell_volume   177.09363681
_cell_formula_units_Z   1
loop_
 _symmetry_equiv_pos_site_id
 _symmetry_equiv_pos_as_xyz
  1  'x, y, z'
loop_
 _atom_site_type_symbol
 _atom_site_label
 _atom_site_symmetry_multiplicity
 _atom_site_fract_x
 _atom_site_fract_y
 _atom_site_fract_z
 _atom_site_occupancy
  Ce  Ce0  1  0.830540  0.830540  0.575665  1
  Ce  Ce1  1  0.169460  0.169460  0.424335  1
  Ho  Ho2  1  0.000000  0.000000  0.000000  1
  In  In3  1  0.500000  0.500000  0.500000  1
  Ga  Ga4  1  0.366110  0.366110  0.044669  1
  Ga  Ga5  1  0.633890  0.633890  0.955331  1
  Ru  Ru6  1  0.793721  0.793721  0.112365  1
  Ru  Ru7  1  0.206279  0.206279  0.887635  1
