# generated using pymatgen
data_Pr3Dy3(WO7)2
_symmetry_space_group_name_H-M   'P 1'
_cell_length_a   6.57446023
_cell_length_b   6.57786366
_cell_length_c   7.66578309
_cell_angle_alpha   90.00078617
_cell_angle_beta   89.98313235
_cell_angle_gamma   109.13802206
_symmetry_Int_Tables_number   1
_chemical_formula_structural   Pr3Dy3(WO7)2
_chemical_formula_sum   'Pr3 Dy3 W2 O14'
_cell_volume   313.19145095
_cell_formula_units_Z   1
loop_
 _symmetry_equiv_pos_site_id
 _symmetry_equiv_pos_as_xyz
  1  'x, y, z'
loop_
 _atom_site_type_symbol
 _atom_site_label
 _atom_site_symmetry_multiplicity
 _atom_site_fract_x
 _atom_site_fract_y
 _atom_site_fract_z
 _atom_site_occupancy
  Pr  Pr0  1  0.508391  0.509246  0.247498  1
  Pr  Pr1  1  0.500956  0.499233  0.752071  1
  Pr  Pr2  1  0.001571  0.466627  0.498785  1
  Dy  Dy3  1  0.531735  0.002740  0.501469  1
  Dy  Dy4  1  0.001976  0.532316  0.998584  1
  Dy  Dy5  1  0.467004  0.999051  0.001503  1
  W  W6  1  0.999718  0.999342  0.247422  1
  W  W7  1  0.999430  0.999344  0.752536  1
  O  O8  1  0.073266  0.315682  0.213300  1
  O  O9  1  0.682286  0.937066  0.782234  1
  O  O10  1  0.920556  0.679147  0.730174  1
  O  O11  1  0.314870  0.061746  0.281781  1
  O  O12  1  0.679738  0.932077  0.220051  1
  O  O13  1  0.075893  0.317939  0.784403  1
  O  O14  1  0.317319  0.066980  0.720492  1
  O  O15  1  0.919560  0.677773  0.267881  1
  O  O16  1  0.376836  0.645914  0.500801  1
  O  O17  1  0.638711  0.360716  0.000444  1
  O  O18  1  0.357227  0.644642  0.999598  1
  O  O19  1  0.630950  0.357306  0.499163  1
  O  O20  1  0.927264  0.063217  0.499949  1
  O  O21  1  0.074744  0.931897  0.999860  1
