# generated using pymatgen
data_La8Co3Si12Pd
_symmetry_space_group_name_H-M   'P 1'
_cell_length_a   8.19353200
_cell_length_b   8.19353399
_cell_length_c   8.69280300
_cell_angle_alpha   90.00000000
_cell_angle_beta   90.00000000
_cell_angle_gamma   120.00000812
_symmetry_Int_Tables_number   1
_chemical_formula_structural   La8Co3Si12Pd
_chemical_formula_sum   'La8 Co3 Si12 Pd1'
_cell_volume   505.39721861
_cell_formula_units_Z   1
loop_
 _symmetry_equiv_pos_site_id
 _symmetry_equiv_pos_as_xyz
  1  'x, y, z'
loop_
 _atom_site_type_symbol
 _atom_site_label
 _atom_site_symmetry_multiplicity
 _atom_site_fract_x
 _atom_site_fract_y
 _atom_site_fract_z
 _atom_site_occupancy
  La  La0  1  0.498137  0.501863  0.752945  1
  La  La1  1  0.497815  0.502185  0.247048  1
  La  La2  1  0.003725  0.501863  0.752945  1
  La  La3  1  0.004370  0.502185  0.247048  1
  La  La4  1  0.498137  0.996275  0.752945  1
  La  La5  1  0.497815  0.995630  0.247048  1
  La  La6  1  0.000000  0.000000  0.750821  1
  La  La7  1  0.000000  0.000000  0.249006  1
  Co  Co8  1  0.666667  0.333333  0.996302  1
  Co  Co9  1  0.333333  0.666667  0.003277  1
  Co  Co10  1  0.333333  0.666667  0.500739  1
  Si  Si11  1  0.828890  0.171110  0.000895  1
  Si  Si12  1  0.170189  0.829811  0.999155  1
  Si  Si13  1  0.342220  0.171110  0.000895  1
  Si  Si14  1  0.171452  0.828548  0.500599  1
  Si  Si15  1  0.659620  0.829811  0.999155  1
  Si  Si16  1  0.836809  0.163191  0.499448  1
  Si  Si17  1  0.828890  0.657780  0.000895  1
  Si  Si18  1  0.657098  0.828548  0.500599  1
  Si  Si19  1  0.170189  0.340380  0.999155  1
  Si  Si20  1  0.326382  0.163191  0.499448  1
  Si  Si21  1  0.171452  0.342902  0.500599  1
  Si  Si22  1  0.836809  0.673618  0.499448  1
  Pd  Pd23  1  0.666667  0.333333  0.499589  1
