# generated using pymatgen
data_La4ZrGa3
_symmetry_space_group_name_H-M   'P 1'
_cell_length_a   9.10398634
_cell_length_b   9.10403301
_cell_length_c   9.10400630
_cell_angle_alpha   95.76757800
_cell_angle_beta   95.76794941
_cell_angle_gamma   143.03550708
_symmetry_Int_Tables_number   1
_chemical_formula_structural   La4ZrGa3
_chemical_formula_sum   'La8 Zr2 Ga6'
_cell_volume   430.33320759
_cell_formula_units_Z   2
loop_
 _symmetry_equiv_pos_site_id
 _symmetry_equiv_pos_as_xyz
  1  'x, y, z'
loop_
 _atom_site_type_symbol
 _atom_site_label
 _atom_site_symmetry_multiplicity
 _atom_site_fract_x
 _atom_site_fract_y
 _atom_site_fract_z
 _atom_site_occupancy
  La  La0  1  0.911487  0.225524  0.137038  1
  La  La1  1  0.225565  0.088487  0.314048  1
  La  La2  1  0.774435  0.911513  0.685952  1
  La  La3  1  0.088513  0.774476  0.862962  1
  La  La4  1  0.725564  0.411524  0.137066  1
  La  La5  1  0.274436  0.588476  0.862934  1
  La  La6  1  0.588487  0.725537  0.314045  1
  La  La7  1  0.411513  0.274463  0.685955  1
  Zr  Zr8  1  0.749986  0.249985  0.500000  1
  Zr  Zr9  1  0.250014  0.750015  0.500000  1
  Ga  Ga10  1  0.750011  0.749992  0.000003  1
  Ga  Ga11  1  0.249989  0.250008  0.999997  1
  Ga  Ga12  1  0.850000  0.649988  0.499989  1
  Ga  Ga13  1  0.650019  0.150004  0.800010  1
  Ga  Ga14  1  0.349981  0.849996  0.199990  1
  Ga  Ga15  1  0.150000  0.350012  0.500011  1
