# generated using pymatgen
data_Cs2MgI4
_symmetry_space_group_name_H-M   'P 1'
_cell_length_a   8.19147180
_cell_length_b   8.64533500
_cell_length_c   11.04381400
_cell_angle_alpha   90.00000000
_cell_angle_beta   109.72931016
_cell_angle_gamma   90.00000000
_symmetry_Int_Tables_number   1
_chemical_formula_structural   Cs2MgI4
_chemical_formula_sum   'Cs4 Mg2 I8'
_cell_volume   736.19010555
_cell_formula_units_Z   2
loop_
 _symmetry_equiv_pos_site_id
 _symmetry_equiv_pos_as_xyz
  1  'x, y, z'
loop_
 _atom_site_type_symbol
 _atom_site_label
 _atom_site_symmetry_multiplicity
 _atom_site_fract_x
 _atom_site_fract_y
 _atom_site_fract_z
 _atom_site_occupancy
  Cs  Cs0  1  0.304901  0.749513  0.963748  1
  Cs  Cs1  1  0.695099  0.249513  0.036252  1
  Cs  Cs2  1  0.202972  0.749250  0.414434  1
  Cs  Cs3  1  0.797028  0.249250  0.585566  1
  Mg  Mg4  1  0.698766  0.752590  0.784338  1
  Mg  Mg5  1  0.301234  0.252590  0.215662  1
  I  I6  1  0.484317  0.499754  0.723115  1
  I  I7  1  0.515683  0.999754  0.276885  1
  I  I8  1  0.520326  0.501989  0.278441  1
  I  I9  1  0.479674  0.001989  0.721559  1
  I  I10  1  0.865379  0.761717  0.047042  1
  I  I11  1  0.134621  0.261717  0.952958  1
  I  I12  1  0.919122  0.759787  0.645583  1
  I  I13  1  0.080878  0.259787  0.354417  1
