# generated using pymatgen
data_Ho2Tm6B24MoRu3
_symmetry_space_group_name_H-M   'P 1'
_cell_length_a   3.62617700
_cell_length_b   9.10613915
_cell_length_c   11.48932102
_cell_angle_alpha   89.87136673
_cell_angle_beta   90.00000000
_cell_angle_gamma   90.00000000
_symmetry_Int_Tables_number   1
_chemical_formula_structural   Ho2Tm6B24MoRu3
_chemical_formula_sum   'Ho2 Tm6 B24 Mo1 Ru3'
_cell_volume   379.38185076
_cell_formula_units_Z   1
loop_
 _symmetry_equiv_pos_site_id
 _symmetry_equiv_pos_as_xyz
  1  'x, y, z'
loop_
 _atom_site_type_symbol
 _atom_site_label
 _atom_site_symmetry_multiplicity
 _atom_site_fract_x
 _atom_site_fract_y
 _atom_site_fract_z
 _atom_site_occupancy
  Ho  Ho0  1  0.000000  0.321835  0.413493  1
  Ho  Ho1  1  0.000000  0.677850  0.584711  1
  Tm  Tm2  1  0.000000  0.820068  0.087069  1
  Tm  Tm3  1  0.000000  0.177538  0.915062  1
  Tm  Tm4  1  0.000000  0.945287  0.372116  1
  Tm  Tm5  1  0.000000  0.058164  0.629447  1
  Tm  Tm6  1  0.000000  0.442603  0.126600  1
  Tm  Tm7  1  0.000000  0.557167  0.870764  1
  B  B8  1  0.500000  0.551226  0.435457  1
  B  B9  1  0.500000  0.445959  0.568287  1
  B  B10  1  0.500000  0.053183  0.066525  1
  B  B11  1  0.500000  0.946243  0.933729  1
  B  B12  1  0.500000  0.751584  0.421233  1
  B  B13  1  0.500000  0.251535  0.581680  1
  B  B14  1  0.500000  0.248278  0.079824  1
  B  B15  1  0.500000  0.751180  0.919325  1
  B  B16  1  0.500000  0.794695  0.263673  1
  B  B17  1  0.500000  0.208502  0.735565  1
  B  B18  1  0.500000  0.290446  0.232865  1
  B  B19  1  0.500000  0.709581  0.765670  1
  B  B20  1  0.500000  0.631269  0.182264  1
  B  B21  1  0.500000  0.368452  0.815771  1
  B  B22  1  0.500000  0.130708  0.314012  1
  B  B23  1  0.500000  0.870290  0.685547  1
  B  B24  1  0.500000  0.982572  0.212153  1
  B  B25  1  0.500000  0.018101  0.788661  1
  B  B26  1  0.500000  0.477872  0.286169  1
  B  B27  1  0.500000  0.516870  0.713213  1
  B  B28  1  0.500000  0.604780  0.027320  1
  B  B29  1  0.500000  0.394269  0.970028  1
  B  B30  1  0.500000  0.105109  0.471762  1
  B  B31  1  0.500000  0.898150  0.529831  1
  Mo  Mo32  1  0.000000  0.637737  0.320538  1
  Ru  Ru33  1  0.000000  0.360696  0.681152  1
  Ru  Ru34  1  0.000000  0.137392  0.177403  1
  Ru  Ru35  1  0.000000  0.862807  0.821076  1
