# generated using pymatgen
data_Ac6Ir11Rh7
_symmetry_space_group_name_H-M   'P 1'
_cell_length_a   5.44923500
_cell_length_b   5.46175780
_cell_length_c   18.07741972
_cell_angle_alpha   90.07133290
_cell_angle_beta   90.00000000
_cell_angle_gamma   119.92416508
_symmetry_Int_Tables_number   1
_chemical_formula_structural   Ac6Ir11Rh7
_chemical_formula_sum   'Ac6 Ir11 Rh7'
_cell_volume   466.30058994
_cell_formula_units_Z   1
loop_
 _symmetry_equiv_pos_site_id
 _symmetry_equiv_pos_as_xyz
  1  'x, y, z'
loop_
 _atom_site_type_symbol
 _atom_site_label
 _atom_site_symmetry_multiplicity
 _atom_site_fract_x
 _atom_site_fract_y
 _atom_site_fract_z
 _atom_site_occupancy
  Ac  Ac0  1  0.333245  0.666492  0.541410  1
  Ac  Ac1  1  0.666578  0.333154  0.041506  1
  Ac  Ac2  1  0.666202  0.332402  0.457594  1
  Ac  Ac3  1  0.333454  0.666907  0.958236  1
  Ac  Ac4  1  0.333340  0.666682  0.750114  1
  Ac  Ac5  1  0.666688  0.333376  0.249984  1
  Ir  Ir6  1  0.166136  0.332273  0.130488  1
  Ir  Ir7  1  0.833439  0.666878  0.629833  1
  Ir  Ir8  1  0.666919  0.833508  0.130005  1
  Ir  Ir9  1  0.166589  0.833508  0.130005  1
  Ir  Ir10  1  0.833930  0.166932  0.629856  1
  Ir  Ir11  1  0.333001  0.166932  0.629856  1
  Ir  Ir12  1  0.833777  0.667554  0.869838  1
  Ir  Ir13  1  0.833328  0.166418  0.870101  1
  Ir  Ir14  1  0.333090  0.166418  0.870101  1
  Ir  Ir15  1  0.668386  0.835443  0.370191  1
  Ir  Ir16  1  0.167057  0.835443  0.370191  1
  Rh  Rh17  1  0.167311  0.334623  0.370765  1
  Rh  Rh18  1  0.999085  0.998170  0.250027  1
  Rh  Rh19  1  0.000179  0.000358  0.749965  1
  Rh  Rh20  1  0.334029  0.668059  0.250057  1
  Rh  Rh21  1  0.666216  0.332431  0.749912  1
  Rh  Rh22  1  0.000240  0.000480  0.999900  1
  Rh  Rh23  1  0.997780  0.995561  0.500063  1
