# generated using pymatgen
data_K4BaU5O15
_symmetry_space_group_name_H-M   'P 1'
_cell_length_a   9.74556344
_cell_length_b   9.74554855
_cell_length_c   7.55267434
_cell_angle_alpha   75.00664590
_cell_angle_beta   75.00681860
_cell_angle_gamma   36.88930731
_symmetry_Int_Tables_number   1
_chemical_formula_structural   K4BaU5O15
_chemical_formula_sum   'K4 Ba1 U5 O15'
_cell_volume   414.26595497
_cell_formula_units_Z   1
loop_
 _symmetry_equiv_pos_site_id
 _symmetry_equiv_pos_as_xyz
  1  'x, y, z'
loop_
 _atom_site_type_symbol
 _atom_site_label
 _atom_site_symmetry_multiplicity
 _atom_site_fract_x
 _atom_site_fract_y
 _atom_site_fract_z
 _atom_site_occupancy
  K  K0  1  0.600481  0.600481  0.599134  1
  K  K1  1  0.200599  0.200599  0.200453  1
  K  K2  1  0.799401  0.799401  0.799547  1
  K  K3  1  0.399519  0.399519  0.400866  1
  Ba  Ba4  1  0.000000  0.000000  0.000000  1
  U  U5  1  0.200722  0.200723  0.698450  1
  U  U6  1  0.799278  0.799277  0.301550  1
  U  U7  1  0.399015  0.399015  0.900128  1
  U  U8  1  0.000000  0.000000  0.500000  1
  U  U9  1  0.600985  0.600985  0.099872  1
  O  O10  1  0.391057  0.902629  0.901718  1
  O  O11  1  0.000000  0.500000  0.500000  1
  O  O12  1  0.608943  0.097371  0.098282  1
  O  O13  1  0.195666  0.706308  0.707174  1
  O  O14  1  0.804334  0.293692  0.292826  1
  O  O15  1  0.299979  0.299980  0.799699  1
  O  O16  1  0.902447  0.902447  0.391049  1
  O  O17  1  0.500000  0.500000  0.000000  1
  O  O18  1  0.097553  0.097553  0.608951  1
  O  O19  1  0.700021  0.700020  0.200301  1
  O  O20  1  0.500000  0.000000  0.500000  1
  O  O21  1  0.097371  0.608942  0.098282  1
  O  O22  1  0.706308  0.195665  0.707174  1
  O  O23  1  0.293692  0.804335  0.292826  1
  O  O24  1  0.902629  0.391058  0.901718  1
