# generated using pymatgen
data_Sc22Tc5Ag2Os
_symmetry_space_group_name_H-M   'P 1'
_cell_length_a   9.54919199
_cell_length_b   9.65078760
_cell_length_c   9.65078622
_cell_angle_alpha   59.30473944
_cell_angle_beta   60.34763170
_cell_angle_gamma   60.34763166
_symmetry_Int_Tables_number   1
_chemical_formula_structural   Sc22Tc5Ag2Os
_chemical_formula_sum   'Sc22 Tc5 Ag2 Os1'
_cell_volume   628.75553374
_cell_formula_units_Z   1
loop_
 _symmetry_equiv_pos_site_id
 _symmetry_equiv_pos_as_xyz
  1  'x, y, z'
loop_
 _atom_site_type_symbol
 _atom_site_label
 _atom_site_symmetry_multiplicity
 _atom_site_fract_x
 _atom_site_fract_y
 _atom_site_fract_z
 _atom_site_occupancy
  Sc  Sc0  1  0.855364  0.836954  0.836954  1
  Sc  Sc1  1  0.529271  0.163046  0.163046  1
  Sc  Sc2  1  0.163046  0.144636  0.529271  1
  Sc  Sc3  1  0.163046  0.529271  0.144636  1
  Sc  Sc4  1  0.836954  0.855364  0.470729  1
  Sc  Sc5  1  0.836954  0.470729  0.855364  1
  Sc  Sc6  1  0.470729  0.836954  0.836954  1
  Sc  Sc7  1  0.144636  0.163046  0.163046  1
  Sc  Sc8  1  0.195225  0.804775  0.195225  1
  Sc  Sc9  1  0.197123  0.802877  0.802877  1
  Sc  Sc10  1  0.802877  0.197123  0.197123  1
  Sc  Sc11  1  0.804775  0.804775  0.195225  1
  Sc  Sc12  1  0.195225  0.195225  0.804775  1
  Sc  Sc13  1  0.804775  0.195225  0.804775  1
  Sc  Sc14  1  0.391724  0.380862  0.380862  1
  Sc  Sc15  1  0.153450  0.619138  0.619138  1
  Sc  Sc16  1  0.619138  0.153450  0.608276  1
  Sc  Sc17  1  0.619138  0.608276  0.153450  1
  Sc  Sc18  1  0.380862  0.846550  0.391724  1
  Sc  Sc19  1  0.380862  0.391724  0.846550  1
  Sc  Sc20  1  0.846550  0.380862  0.380862  1
  Sc  Sc21  1  0.608276  0.619138  0.619138  1
  Tc  Tc22  1  0.500000  0.500000  0.000000  1
  Tc  Tc23  1  0.000000  0.000000  0.500000  1
  Tc  Tc24  1  0.500000  0.000000  0.500000  1
  Tc  Tc25  1  0.000000  0.500000  0.000000  1
  Tc  Tc26  1  0.000000  0.000000  0.000000  1
  Ag  Ag27  1  0.000000  0.500000  0.500000  1
  Ag  Ag28  1  0.500000  0.000000  0.000000  1
  Os  Os29  1  0.500000  0.500000  0.500000  1
