# generated using pymatgen
data_Er3NbIn2Ir3
_symmetry_space_group_name_H-M   'P 1'
_cell_length_a   7.30699565
_cell_length_b   7.05076796
_cell_length_c   4.23953500
_cell_angle_alpha   90.00000000
_cell_angle_beta   90.00000000
_cell_angle_gamma   118.84664184
_symmetry_Int_Tables_number   1
_chemical_formula_structural   Er3NbIn2Ir3
_chemical_formula_sum   'Er3 Nb1 In2 Ir3'
_cell_volume   191.31766488
_cell_formula_units_Z   1
loop_
 _symmetry_equiv_pos_site_id
 _symmetry_equiv_pos_as_xyz
  1  'x, y, z'
loop_
 _atom_site_type_symbol
 _atom_site_label
 _atom_site_symmetry_multiplicity
 _atom_site_fract_x
 _atom_site_fract_y
 _atom_site_fract_z
 _atom_site_occupancy
  Er  Er0  1  0.587863  0.586078  0.000000  1
  Er  Er1  1  0.412137  0.998215  0.000000  1
  Er  Er2  1  0.000000  0.402852  0.000000  1
  Nb  Nb3  1  0.000000  0.752900  0.500000  1
  In  In4  1  0.250643  0.251740  0.500000  1
  In  In5  1  0.749357  0.001096  0.500000  1
  Ir  Ir6  1  0.000000  0.964269  0.000000  1
  Ir  Ir7  1  0.686057  0.364453  0.500000  1
  Ir  Ir8  1  0.313943  0.678397  0.500000  1
