# generated using pymatgen
data_Li2TaMn2NbO8
_symmetry_space_group_name_H-M   'P 1'
_cell_length_a   6.26468149
_cell_length_b   8.65194653
_cell_length_c   6.26478056
_cell_angle_alpha   89.96260774
_cell_angle_beta   90.00768261
_cell_angle_gamma   90.03725117
_symmetry_Int_Tables_number   1
_chemical_formula_structural   Li2TaMn2NbO8
_chemical_formula_sum   'Li4 Ta2 Mn4 Nb2 O16'
_cell_volume   339.56154229
_cell_formula_units_Z   2
loop_
 _symmetry_equiv_pos_site_id
 _symmetry_equiv_pos_as_xyz
  1  'x, y, z'
loop_
 _atom_site_type_symbol
 _atom_site_label
 _atom_site_symmetry_multiplicity
 _atom_site_fract_x
 _atom_site_fract_y
 _atom_site_fract_z
 _atom_site_occupancy
  Li  Li0  1  0.220488  0.001578  0.000199  1
  Li  Li1  1  0.776757  0.498431  0.000209  1
  Li  Li2  1  0.000199  0.248433  0.220461  1
  Li  Li3  1  0.000259  0.751548  0.776755  1
  Ta  Ta4  1  0.499880  0.250788  0.226790  1
  Ta  Ta5  1  0.226766  0.999201  0.499885  1
  Mn  Mn6  1  0.253079  0.624999  0.253088  1
  Mn  Mn7  1  0.253031  0.373161  0.748583  1
  Mn  Mn8  1  0.748590  0.876841  0.253032  1
  Mn  Mn9  1  0.748490  0.125004  0.748496  1
  Nb  Nb10  1  0.778674  0.500927  0.499715  1
  Nb  Nb11  1  0.499736  0.749083  0.778685  1
  O  O12  1  0.266260  0.253121  0.031974  1
  O  O13  1  0.733261  0.246185  0.031887  1
  O  O14  1  0.031968  0.996903  0.266260  1
  O  O15  1  0.969597  0.503299  0.263769  1
  O  O16  1  0.031876  0.003797  0.733260  1
  O  O17  1  0.969623  0.495969  0.735739  1
  O  O18  1  0.263779  0.746696  0.969612  1
  O  O19  1  0.735775  0.754048  0.969617  1
  O  O20  1  0.482763  0.020380  0.271428  1
  O  O21  1  0.514590  0.479214  0.268817  1
  O  O22  1  0.271449  0.229595  0.482776  1
  O  O23  1  0.727196  0.269662  0.482962  1
  O  O24  1  0.268815  0.770786  0.514614  1
  O  O25  1  0.729870  0.729848  0.514252  1
  O  O26  1  0.514273  0.520143  0.729929  1
  O  O27  1  0.482954  0.980361  0.727210  1
