# generated using pymatgen
data_YbEr19(CoBi5)2
_symmetry_space_group_name_H-M   'P 1'
_cell_length_a   7.99215335
_cell_length_b   9.35192500
_cell_length_c   12.02680252
_cell_angle_alpha   90.00000000
_cell_angle_beta   90.03396493
_cell_angle_gamma   90.00000000
_symmetry_Int_Tables_number   1
_chemical_formula_structural   YbEr19(CoBi5)2
_chemical_formula_sum   'Yb1 Er19 Co2 Bi10'
_cell_volume   898.90734186
_cell_formula_units_Z   1
loop_
 _symmetry_equiv_pos_site_id
 _symmetry_equiv_pos_as_xyz
  1  'x, y, z'
loop_
 _atom_site_type_symbol
 _atom_site_label
 _atom_site_symmetry_multiplicity
 _atom_site_fract_x
 _atom_site_fract_y
 _atom_site_fract_z
 _atom_site_occupancy
  Yb  Yb0  1  0.572851  0.500000  0.771326  1
  Er  Er1  1  0.428565  0.177066  0.562932  1
  Er  Er2  1  0.570667  0.823541  0.063372  1
  Er  Er3  1  0.070405  0.729580  0.436190  1
  Er  Er4  1  0.929595  0.270100  0.936558  1
  Er  Er5  1  0.070405  0.270420  0.436190  1
  Er  Er6  1  0.929595  0.729900  0.936558  1
  Er  Er7  1  0.428565  0.822934  0.562932  1
  Er  Er8  1  0.570667  0.176459  0.063372  1
  Er  Er9  1  0.427214  0.500000  0.272209  1
  Er  Er10  1  0.908761  0.000000  0.201432  1
  Er  Er11  1  0.092011  0.000000  0.701305  1
  Er  Er12  1  0.261121  0.500000  0.994279  1
  Er  Er13  1  0.740894  0.500000  0.493767  1
  Er  Er14  1  0.198340  0.000000  0.996283  1
  Er  Er15  1  0.802194  0.000000  0.496608  1
  Er  Er16  1  0.091021  0.500000  0.718257  1
  Er  Er17  1  0.910696  0.500000  0.219408  1
  Er  Er18  1  0.371238  0.000000  0.308729  1
  Er  Er19  1  0.628518  0.000000  0.808090  1
  Co  Co20  1  0.173246  0.000000  0.488154  1
  Co  Co21  1  0.828278  0.000000  0.988266  1
  Bi  Bi22  1  0.815747  0.742833  0.671039  1
  Bi  Bi23  1  0.185641  0.259052  0.171934  1
  Bi  Bi24  1  0.679841  0.241860  0.325411  1
  Bi  Bi25  1  0.317190  0.759414  0.826148  1
  Bi  Bi26  1  0.679841  0.758140  0.325411  1
  Bi  Bi27  1  0.317190  0.240586  0.826148  1
  Bi  Bi28  1  0.815747  0.257167  0.671039  1
  Bi  Bi29  1  0.185641  0.740948  0.171934  1
  Bi  Bi30  1  0.344524  0.500000  0.525276  1
  Bi  Bi31  1  0.653789  0.500000  0.029447  1
