# generated using pymatgen
data_Er4Al24Pd2Pt7
_symmetry_space_group_name_H-M   'P 1'
_cell_length_a   7.52458946
_cell_length_b   7.52882609
_cell_length_c   13.15728766
_cell_angle_alpha   84.60028581
_cell_angle_beta   100.93416412
_cell_angle_gamma   119.83376296
_symmetry_Int_Tables_number   1
_chemical_formula_structural   Er4Al24Pd2Pt7
_chemical_formula_sum   'Er4 Al24 Pd2 Pt7'
_cell_volume   634.85624318
_cell_formula_units_Z   1
loop_
 _symmetry_equiv_pos_site_id
 _symmetry_equiv_pos_as_xyz
  1  'x, y, z'
loop_
 _atom_site_type_symbol
 _atom_site_label
 _atom_site_symmetry_multiplicity
 _atom_site_fract_x
 _atom_site_fract_y
 _atom_site_fract_z
 _atom_site_occupancy
  Er  Er0  1  0.732754  0.998887  0.192333  1
  Er  Er1  1  0.267273  0.001057  0.807637  1
  Er  Er2  1  0.062322  0.668288  0.192274  1
  Er  Er3  1  0.937766  0.331653  0.807748  1
  Al  Al4  1  0.807672  0.869213  0.815593  1
  Al  Al5  1  0.192288  0.130825  0.184401  1
  Al  Al6  1  0.982241  0.666174  0.944003  1
  Al  Al7  1  0.018108  0.333971  0.055992  1
  Al  Al8  1  0.397848  0.663760  0.816853  1
  Al  Al9  1  0.601988  0.336282  0.183253  1
  Al  Al10  1  0.882709  0.665243  0.671028  1
  Al  Al11  1  0.117346  0.334759  0.328986  1
  Al  Al12  1  0.602807  0.457965  0.816202  1
  Al  Al13  1  0.397093  0.542225  0.183691  1
  Al  Al14  1  0.229994  0.339685  0.669687  1
  Al  Al15  1  0.770021  0.660319  0.330316  1
  Al  Al16  1  0.853098  0.333074  0.558800  1
  Al  Al17  1  0.185595  0.999063  0.558824  1
  Al  Al18  1  0.814382  0.000895  0.441182  1
  Al  Al19  1  0.352468  0.998923  0.056047  1
  Al  Al20  1  0.647403  0.000733  0.943967  1
  Al  Al21  1  0.556078  0.993644  0.671254  1
  Al  Al22  1  0.443926  0.006291  0.328730  1
  Al  Al23  1  0.520848  0.667273  0.561739  1
  Al  Al24  1  0.479156  0.332741  0.438273  1
  Al  Al25  1  0.683762  0.668392  0.047375  1
  Al  Al26  1  0.316084  0.331765  0.952615  1
  Al  Al27  1  0.146942  0.666942  0.441194  1
  Pd  Pd28  1  0.328423  0.671434  0.000062  1
  Pd  Pd29  1  0.000011  0.999990  0.000001  1
  Pt  Pt30  1  0.545805  0.324554  0.637454  1
  Pt  Pt31  1  0.454234  0.675390  0.362654  1
  Pt  Pt32  1  0.888070  0.008435  0.638934  1
  Pt  Pt33  1  0.111944  0.991567  0.361073  1
  Pt  Pt34  1  0.671540  0.328593  0.999942  1
  Pt  Pt35  1  0.203993  0.666633  0.638942  1
  Pt  Pt36  1  0.796007  0.333361  0.360940  1
