# generated using pymatgen
data_ScTi3MnPt11
_symmetry_space_group_name_H-M   'P 1'
_cell_length_a   5.62123200
_cell_length_b   5.59579733
_cell_length_c   9.15001900
_cell_angle_alpha   90.00000000
_cell_angle_beta   90.00000000
_cell_angle_gamma   120.15047212
_symmetry_Int_Tables_number   1
_chemical_formula_structural   ScTi3MnPt11
_chemical_formula_sum   'Sc1 Ti3 Mn1 Pt11'
_cell_volume   248.87748709
_cell_formula_units_Z   1
loop_
 _symmetry_equiv_pos_site_id
 _symmetry_equiv_pos_as_xyz
  1  'x, y, z'
loop_
 _atom_site_type_symbol
 _atom_site_label
 _atom_site_symmetry_multiplicity
 _atom_site_fract_x
 _atom_site_fract_y
 _atom_site_fract_z
 _atom_site_occupancy
  Sc  Sc0  1  0.333212  0.666426  0.250000  1
  Ti  Ti1  1  0.994601  0.989202  0.490810  1
  Ti  Ti2  1  0.994601  0.989202  0.009190  1
  Ti  Ti3  1  0.667580  0.335159  0.750000  1
  Mn  Mn4  1  0.175962  0.351923  0.750000  1
  Pt  Pt5  1  0.495290  0.490835  0.509620  1
  Pt  Pt6  1  0.500051  0.000103  0.503583  1
  Pt  Pt7  1  0.995543  0.490835  0.509620  1
  Pt  Pt8  1  0.495290  0.490835  0.990380  1
  Pt  Pt9  1  0.500051  0.000103  0.996417  1
  Pt  Pt10  1  0.995543  0.490835  0.990380  1
  Pt  Pt11  1  0.834007  0.668015  0.250000  1
  Pt  Pt12  1  0.337236  0.169908  0.250000  1
  Pt  Pt13  1  0.832672  0.169908  0.250000  1
  Pt  Pt14  1  0.677645  0.848357  0.750000  1
  Pt  Pt15  1  0.170713  0.848357  0.750000  1
