# generated using pymatgen
data_Ce3Al12(TcPd)2
_symmetry_space_group_name_H-M   'P 1'
_cell_length_a   8.97060978
_cell_length_b   8.97060826
_cell_length_c   9.60551287
_cell_angle_alpha   89.62071067
_cell_angle_beta   89.62070718
_cell_angle_gamma   119.69567112
_symmetry_Int_Tables_number   1
_chemical_formula_structural   Ce3Al12(TcPd)2
_chemical_formula_sum   'Ce6 Al24 Tc4 Pd4'
_cell_volume   671.39946634
_cell_formula_units_Z   2
loop_
 _symmetry_equiv_pos_site_id
 _symmetry_equiv_pos_as_xyz
  1  'x, y, z'
loop_
 _atom_site_type_symbol
 _atom_site_label
 _atom_site_symmetry_multiplicity
 _atom_site_fract_x
 _atom_site_fract_y
 _atom_site_fract_z
 _atom_site_occupancy
  Ce  Ce0  1  0.815410  0.618531  0.748085  1
  Ce  Ce1  1  0.192679  0.807321  0.250000  1
  Ce  Ce2  1  0.618531  0.815410  0.248085  1
  Ce  Ce3  1  0.381469  0.184590  0.751915  1
  Ce  Ce4  1  0.807321  0.192679  0.750000  1
  Ce  Ce5  1  0.184590  0.381469  0.251915  1
  Al  Al6  1  0.330173  0.664134  0.476933  1
  Al  Al7  1  0.664134  0.330173  0.976933  1
  Al  Al8  1  0.669827  0.335866  0.523067  1
  Al  Al9  1  0.335866  0.669827  0.023067  1
  Al  Al10  1  0.156970  0.321608  0.578866  1
  Al  Al11  1  0.678702  0.838327  0.577764  1
  Al  Al12  1  0.158984  0.834093  0.577581  1
  Al  Al13  1  0.834093  0.158984  0.077581  1
  Al  Al14  1  0.841016  0.165907  0.422419  1
  Al  Al15  1  0.838327  0.678702  0.077764  1
  Al  Al16  1  0.321608  0.156970  0.078866  1
  Al  Al17  1  0.678392  0.843030  0.921134  1
  Al  Al18  1  0.161673  0.321298  0.922236  1
  Al  Al19  1  0.843030  0.678392  0.421134  1
  Al  Al20  1  0.000079  0.999921  0.250000  1
  Al  Al21  1  0.999921  0.000079  0.750000  1
  Al  Al22  1  0.562927  0.129561  0.246826  1
  Al  Al23  1  0.438016  0.561984  0.750000  1
  Al  Al24  1  0.129561  0.562927  0.746826  1
  Al  Al25  1  0.870439  0.437073  0.253174  1
  Al  Al26  1  0.561984  0.438016  0.250000  1
  Al  Al27  1  0.437073  0.870439  0.753174  1
  Al  Al28  1  0.165907  0.841016  0.922419  1
  Al  Al29  1  0.321298  0.161673  0.422236  1
  Tc  Tc30  1  0.000000  0.000000  0.500000  1
  Tc  Tc31  1  0.000000  0.000000  0.000000  1
  Tc  Tc32  1  0.000000  0.500000  0.500000  1
  Tc  Tc33  1  0.500000  0.000000  0.000000  1
  Pd  Pd34  1  0.500000  0.000000  0.500000  1
  Pd  Pd35  1  0.500000  0.500000  0.000000  1
  Pd  Pd36  1  0.000000  0.500000  0.000000  1
  Pd  Pd37  1  0.500000  0.500000  0.500000  1
