# generated using pymatgen
data_Y2Ga9Ru2Pt
_symmetry_space_group_name_H-M   'P 1'
_cell_length_a   7.58074113
_cell_length_b   7.58074062
_cell_length_c   9.62531300
_cell_angle_alpha   90.00000000
_cell_angle_beta   90.00000000
_cell_angle_gamma   119.87600359
_symmetry_Int_Tables_number   1
_chemical_formula_structural   Y2Ga9Ru2Pt
_chemical_formula_sum   'Y4 Ga18 Ru4 Pt2'
_cell_volume   479.63413039
_cell_formula_units_Z   2
loop_
 _symmetry_equiv_pos_site_id
 _symmetry_equiv_pos_as_xyz
  1  'x, y, z'
loop_
 _atom_site_type_symbol
 _atom_site_label
 _atom_site_symmetry_multiplicity
 _atom_site_fract_x
 _atom_site_fract_y
 _atom_site_fract_z
 _atom_site_occupancy
  Y  Y0  1  0.996607  0.671325  0.250000  1
  Y  Y1  1  0.003393  0.328675  0.750000  1
  Y  Y2  1  0.671325  0.996607  0.250000  1
  Y  Y3  1  0.328675  0.003393  0.750000  1
  Ga  Ga4  1  0.136250  0.136250  0.250000  1
  Ga  Ga5  1  0.863750  0.863750  0.750000  1
  Ga  Ga6  1  0.001672  0.339794  0.077941  1
  Ga  Ga7  1  0.998328  0.660206  0.922059  1
  Ga  Ga8  1  0.998328  0.660206  0.577941  1
  Ga  Ga9  1  0.339794  0.001672  0.422059  1
  Ga  Ga10  1  0.001672  0.339794  0.422059  1
  Ga  Ga11  1  0.660206  0.998328  0.577941  1
  Ga  Ga12  1  0.660206  0.998328  0.922059  1
  Ga  Ga13  1  0.339794  0.001672  0.077941  1
  Ga  Ga14  1  0.341627  0.341627  0.565568  1
  Ga  Ga15  1  0.658373  0.658373  0.434432  1
  Ga  Ga16  1  0.658373  0.658373  0.065568  1
  Ga  Ga17  1  0.341627  0.341627  0.934432  1
  Ga  Ga18  1  0.334158  0.549490  0.250000  1
  Ga  Ga19  1  0.665842  0.450510  0.750000  1
  Ga  Ga20  1  0.549490  0.334158  0.250000  1
  Ga  Ga21  1  0.450510  0.665842  0.750000  1
  Ru  Ru22  1  0.672435  0.327565  0.000000  1
  Ru  Ru23  1  0.327565  0.672435  0.000000  1
  Ru  Ru24  1  0.327565  0.672435  0.500000  1
  Ru  Ru25  1  0.672435  0.327565  0.500000  1
  Pt  Pt26  1  0.000000  0.000000  0.000000  1
  Pt  Pt27  1  0.000000  0.000000  0.500000  1
