# generated using pymatgen
data_LaNdSc2(NiSn)4
_symmetry_space_group_name_H-M   'P 1'
_cell_length_a   4.47148500
_cell_length_b   7.24065640
_cell_length_c   7.74557858
_cell_angle_alpha   89.85344636
_cell_angle_beta   90.00000000
_cell_angle_gamma   90.00000000
_symmetry_Int_Tables_number   1
_chemical_formula_structural   LaNdSc2(NiSn)4
_chemical_formula_sum   'La1 Nd1 Sc2 Ni4 Sn4'
_cell_volume   250.77379975
_cell_formula_units_Z   1
loop_
 _symmetry_equiv_pos_site_id
 _symmetry_equiv_pos_as_xyz
  1  'x, y, z'
loop_
 _atom_site_type_symbol
 _atom_site_label
 _atom_site_symmetry_multiplicity
 _atom_site_fract_x
 _atom_site_fract_y
 _atom_site_fract_z
 _atom_site_occupancy
  La  La0  1  0.250000  0.000200  0.250583  1
  Nd  Nd1  1  0.750000  0.000062  0.750054  1
  Sc  Sc2  1  0.750000  0.499933  0.750079  1
  Sc  Sc3  1  0.250000  0.500200  0.250056  1
  Ni  Ni4  1  0.750000  0.674785  0.416835  1
  Ni  Ni5  1  0.250000  0.329968  0.583698  1
  Ni  Ni6  1  0.750000  0.325709  0.082460  1
  Ni  Ni7  1  0.250000  0.669520  0.916292  1
  Sn  Sn8  1  0.750000  0.714944  0.081778  1
  Sn  Sn9  1  0.250000  0.282005  0.915568  1
  Sn  Sn10  1  0.750000  0.285300  0.418022  1
  Sn  Sn11  1  0.250000  0.717375  0.584575  1
