# generated using pymatgen
data_Rb2SmHoB24
_symmetry_space_group_name_H-M   'P 1'
_cell_length_a   4.15509400
_cell_length_b   4.15509400
_cell_length_c   16.66969700
_cell_angle_alpha   90.00000000
_cell_angle_beta   90.00000000
_cell_angle_gamma   90.00000000
_symmetry_Int_Tables_number   1
_chemical_formula_structural   Rb2SmHoB24
_chemical_formula_sum   'Rb2 Sm1 Ho1 B24'
_cell_volume   287.79908726
_cell_formula_units_Z   1
loop_
 _symmetry_equiv_pos_site_id
 _symmetry_equiv_pos_as_xyz
  1  'x, y, z'
loop_
 _atom_site_type_symbol
 _atom_site_label
 _atom_site_symmetry_multiplicity
 _atom_site_fract_x
 _atom_site_fract_y
 _atom_site_fract_z
 _atom_site_occupancy
  Rb  Rb0  1  0.000000  0.000000  0.249626  1
  Rb  Rb1  1  0.000000  0.000000  0.750374  1
  Sm  Sm2  1  0.000000  0.000000  0.500000  1
  Ho  Ho3  1  0.000000  0.000000  0.000000  1
  B  B4  1  0.201522  0.500000  0.121030  1
  B  B5  1  0.201815  0.500000  0.377968  1
  B  B6  1  0.201815  0.500000  0.622032  1
  B  B7  1  0.201522  0.500000  0.878970  1
  B  B8  1  0.500000  0.500000  0.197133  1
  B  B9  1  0.500000  0.500000  0.451001  1
  B  B10  1  0.500000  0.500000  0.698016  1
  B  B11  1  0.500000  0.500000  0.951468  1
  B  B12  1  0.500000  0.201522  0.121030  1
  B  B13  1  0.500000  0.201815  0.377968  1
  B  B14  1  0.500000  0.201815  0.622032  1
  B  B15  1  0.500000  0.201522  0.878970  1
  B  B16  1  0.500000  0.500000  0.048532  1
  B  B17  1  0.500000  0.500000  0.301984  1
  B  B18  1  0.500000  0.500000  0.548999  1
  B  B19  1  0.500000  0.500000  0.802867  1
  B  B20  1  0.500000  0.798478  0.121030  1
  B  B21  1  0.500000  0.798185  0.377968  1
  B  B22  1  0.500000  0.798185  0.622032  1
  B  B23  1  0.500000  0.798478  0.878970  1
  B  B24  1  0.798478  0.500000  0.121030  1
  B  B25  1  0.798185  0.500000  0.377968  1
  B  B26  1  0.798185  0.500000  0.622032  1
  B  B27  1  0.798478  0.500000  0.878970  1
