# generated using pymatgen
data_Sc8Al(B8Ir)3
_symmetry_space_group_name_H-M   'P 1'
_cell_length_a   3.46492700
_cell_length_b   8.91879704
_cell_length_c   11.22667704
_cell_angle_alpha   89.98980324
_cell_angle_beta   90.00000000
_cell_angle_gamma   90.00000000
_symmetry_Int_Tables_number   1
_chemical_formula_structural   Sc8Al(B8Ir)3
_chemical_formula_sum   'Sc8 Al1 B24 Ir3'
_cell_volume   346.93777803
_cell_formula_units_Z   1
loop_
 _symmetry_equiv_pos_site_id
 _symmetry_equiv_pos_as_xyz
  1  'x, y, z'
loop_
 _atom_site_type_symbol
 _atom_site_label
 _atom_site_symmetry_multiplicity
 _atom_site_fract_x
 _atom_site_fract_y
 _atom_site_fract_z
 _atom_site_occupancy
  Sc  Sc0  1  0.500000  0.314470  0.409435  1
  Sc  Sc1  1  0.500000  0.682015  0.584629  1
  Sc  Sc2  1  0.500000  0.181771  0.917933  1
  Sc  Sc3  1  0.500000  0.822319  0.088649  1
  Sc  Sc4  1  0.500000  0.443633  0.126059  1
  Sc  Sc5  1  0.500000  0.556334  0.874406  1
  Sc  Sc6  1  0.500000  0.055126  0.626395  1
  Sc  Sc7  1  0.500000  0.946785  0.373774  1
  Al  Al8  1  0.500000  0.139191  0.179515  1
  B  B9  1  0.000000  0.102362  0.472334  1
  B  B10  1  0.000000  0.898218  0.527849  1
  B  B11  1  0.000000  0.397600  0.971948  1
  B  B12  1  0.000000  0.602138  0.028081  1
  B  B13  1  0.000000  0.131303  0.319052  1
  B  B14  1  0.000000  0.868356  0.680455  1
  B  B15  1  0.000000  0.368017  0.819479  1
  B  B16  1  0.000000  0.631113  0.182270  1
  B  B17  1  0.000000  0.052549  0.063180  1
  B  B18  1  0.000000  0.946889  0.936235  1
  B  B19  1  0.000000  0.446258  0.563927  1
  B  B20  1  0.000000  0.552573  0.435154  1
  B  B21  1  0.000000  0.478772  0.287087  1
  B  B22  1  0.000000  0.520042  0.713172  1
  B  B23  1  0.000000  0.019599  0.787372  1
  B  B24  1  0.000000  0.978599  0.212578  1
  B  B25  1  0.000000  0.252538  0.077170  1
  B  B26  1  0.000000  0.748614  0.923196  1
  B  B27  1  0.000000  0.247061  0.577063  1
  B  B28  1  0.000000  0.754285  0.421399  1
  B  B29  1  0.000000  0.297545  0.237134  1
  B  B30  1  0.000000  0.704237  0.762433  1
  B  B31  1  0.000000  0.204355  0.736842  1
  B  B32  1  0.000000  0.796685  0.263454  1
  Ir  Ir33  1  0.500000  0.857675  0.818506  1
  Ir  Ir34  1  0.500000  0.360283  0.679913  1
  Ir  Ir35  1  0.500000  0.640689  0.321922  1
