# generated using pymatgen
data_Tb8ZrSc11Ga16
_symmetry_space_group_name_H-M   'P 1'
_cell_length_a   7.30664359
_cell_length_b   7.56084217
_cell_length_c   14.55245140
_cell_angle_alpha   89.97783589
_cell_angle_beta   90.04503095
_cell_angle_gamma   90.00984698
_symmetry_Int_Tables_number   1
_chemical_formula_structural   Tb8ZrSc11Ga16
_chemical_formula_sum   'Tb8 Zr1 Sc11 Ga16'
_cell_volume   803.94081971
_cell_formula_units_Z   1
loop_
 _symmetry_equiv_pos_site_id
 _symmetry_equiv_pos_as_xyz
  1  'x, y, z'
loop_
 _atom_site_type_symbol
 _atom_site_label
 _atom_site_symmetry_multiplicity
 _atom_site_fract_x
 _atom_site_fract_y
 _atom_site_fract_z
 _atom_site_occupancy
  Tb  Tb0  1  0.011895  0.177257  0.095859  1
  Tb  Tb1  1  0.988297  0.822647  0.904468  1
  Tb  Tb2  1  0.488216  0.677053  0.904409  1
  Tb  Tb3  1  0.988324  0.822778  0.595617  1
  Tb  Tb4  1  0.511645  0.322720  0.095792  1
  Tb  Tb5  1  0.011944  0.177241  0.404394  1
  Tb  Tb6  1  0.512063  0.323022  0.404078  1
  Tb  Tb7  1  0.488425  0.676986  0.595826  1
  Zr  Zr8  1  0.330107  0.174956  0.624385  1
  Sc  Sc9  1  0.162026  0.502735  0.750053  1
  Sc  Sc10  1  0.838089  0.497446  0.249892  1
  Sc  Sc11  1  0.338001  0.002657  0.250025  1
  Sc  Sc12  1  0.661738  0.997229  0.750082  1
  Sc  Sc13  1  0.670090  0.825558  0.375578  1
  Sc  Sc14  1  0.170129  0.674121  0.375663  1
  Sc  Sc15  1  0.669975  0.825602  0.124261  1
  Sc  Sc16  1  0.829737  0.325384  0.623798  1
  Sc  Sc17  1  0.330129  0.174070  0.875852  1
  Sc  Sc18  1  0.829842  0.325894  0.876127  1
  Sc  Sc19  1  0.169925  0.674309  0.124248  1
  Ga  Ga20  1  0.032431  0.118647  0.749614  1
  Ga  Ga21  1  0.967972  0.881240  0.250048  1
  Ga  Ga22  1  0.468112  0.618629  0.249991  1
  Ga  Ga23  1  0.531514  0.380956  0.749697  1
  Ga  Ga24  1  0.284995  0.874416  0.749617  1
  Ga  Ga25  1  0.715128  0.126030  0.250036  1
  Ga  Ga26  1  0.215068  0.373824  0.250087  1
  Ga  Ga27  1  0.784858  0.626289  0.749957  1
  Ga  Ga28  1  0.159799  0.463804  0.540356  1
  Ga  Ga29  1  0.840500  0.535138  0.459922  1
  Ga  Ga30  1  0.340509  0.965319  0.460315  1
  Ga  Ga31  1  0.840528  0.535271  0.040010  1
  Ga  Ga32  1  0.658792  0.035838  0.540197  1
  Ga  Ga33  1  0.159562  0.464878  0.959856  1
  Ga  Ga34  1  0.659146  0.035231  0.959820  1
  Ga  Ga35  1  0.340489  0.964823  0.040071  1
