# generated using pymatgen
data_Tl2ZnCd(NO3)8
_symmetry_space_group_name_H-M   'P 1'
_cell_length_a   8.11125623
_cell_length_b   8.22554726
_cell_length_c   7.96655014
_cell_angle_alpha   91.43554112
_cell_angle_beta   87.93883698
_cell_angle_gamma   88.32990770
_symmetry_Int_Tables_number   1
_chemical_formula_structural   Tl2ZnCd(NO3)8
_chemical_formula_sum   'Tl2 Zn1 Cd1 N8 O24'
_cell_volume   530.77360535
_cell_formula_units_Z   1
loop_
 _symmetry_equiv_pos_site_id
 _symmetry_equiv_pos_as_xyz
  1  'x, y, z'
loop_
 _atom_site_type_symbol
 _atom_site_label
 _atom_site_symmetry_multiplicity
 _atom_site_fract_x
 _atom_site_fract_y
 _atom_site_fract_z
 _atom_site_occupancy
  Tl  Tl0  1  0.500000  0.500000  0.500000  1
  Tl  Tl1  1  0.500000  0.000000  0.000000  1
  Zn  Zn2  1  0.000000  0.000000  0.500000  1
  Cd  Cd3  1  0.000000  0.500000  0.000000  1
  N  N4  1  0.681238  0.120665  0.308039  1
  N  N5  1  0.692345  0.323433  0.871020  1
  N  N6  1  0.838013  0.823781  0.813580  1
  N  N7  1  0.858706  0.705270  0.345233  1
  N  N8  1  0.161987  0.176219  0.186420  1
  N  N9  1  0.141294  0.294730  0.654767  1
  N  N10  1  0.307655  0.676567  0.128980  1
  N  N11  1  0.318762  0.879335  0.691961  1
  O  O12  1  0.572651  0.226058  0.841524  1
  O  O13  1  0.565941  0.220130  0.286160  1
  O  O14  1  0.707895  0.443408  0.780826  1
  O  O15  1  0.703136  0.996359  0.205348  1
  O  O16  1  0.749492  0.730062  0.456901  1
  O  O17  1  0.722460  0.805089  0.925025  1
  O  O18  1  0.788529  0.295046  0.988631  1
  O  O19  1  0.778142  0.136867  0.427364  1
  O  O20  1  0.834580  0.946504  0.722051  1
  O  O21  1  0.844688  0.590351  0.236222  1
  O  O22  1  0.952376  0.717201  0.799001  1
  O  O23  1  0.986340  0.793850  0.337319  1
  O  O24  1  0.013660  0.206150  0.662681  1
  O  O25  1  0.047624  0.282799  0.200999  1
  O  O26  1  0.155312  0.409649  0.763778  1
  O  O27  1  0.165420  0.053496  0.277949  1
  O  O28  1  0.211471  0.704954  0.011369  1
  O  O29  1  0.221858  0.863133  0.572636  1
  O  O30  1  0.277540  0.194911  0.074975  1
  O  O31  1  0.250508  0.269938  0.543099  1
  O  O32  1  0.292105  0.556592  0.219174  1
  O  O33  1  0.296864  0.003641  0.794652  1
  O  O34  1  0.434059  0.779870  0.713840  1
  O  O35  1  0.427349  0.773942  0.158476  1
