# generated using pymatgen
data_Ac6PrHo13Sn16
_symmetry_space_group_name_H-M   'P 1'
_cell_length_a   8.25347434
_cell_length_b   8.40651094
_cell_length_c   15.86002139
_cell_angle_alpha   90.04620364
_cell_angle_beta   90.31305330
_cell_angle_gamma   89.73229483
_symmetry_Int_Tables_number   1
_chemical_formula_structural   Ac6PrHo13Sn16
_chemical_formula_sum   'Ac6 Pr1 Ho13 Sn16'
_cell_volume   1100.38585910
_cell_formula_units_Z   1
loop_
 _symmetry_equiv_pos_site_id
 _symmetry_equiv_pos_as_xyz
  1  'x, y, z'
loop_
 _atom_site_type_symbol
 _atom_site_label
 _atom_site_symmetry_multiplicity
 _atom_site_fract_x
 _atom_site_fract_y
 _atom_site_fract_z
 _atom_site_occupancy
  Ac  Ac0  1  0.013401  0.176807  0.599223  1
  Ac  Ac1  1  0.487525  0.675401  0.405395  1
  Ac  Ac2  1  0.988640  0.824258  0.091727  1
  Ac  Ac3  1  0.487096  0.674045  0.091915  1
  Ac  Ac4  1  0.987284  0.825130  0.405349  1
  Ac  Ac5  1  0.511832  0.324935  0.596903  1
  Pr  Pr6  1  0.014964  0.179893  0.902023  1
  Ho  Ho7  1  0.357475  0.837188  0.876501  1
  Ho  Ho8  1  0.855384  0.662368  0.627489  1
  Ho  Ho9  1  0.643896  0.162711  0.375468  1
  Ho  Ho10  1  0.137903  0.337927  0.120605  1
  Ho  Ho11  1  0.639188  0.163086  0.121420  1
  Ho  Ho12  1  0.143363  0.336861  0.375898  1
  Ho  Ho13  1  0.356620  0.838356  0.628632  1
  Ho  Ho14  1  0.858866  0.661203  0.877658  1
  Ho  Ho15  1  0.519605  0.320191  0.901150  1
  Ho  Ho16  1  0.193947  0.501867  0.753594  1
  Ho  Ho17  1  0.691797  0.997257  0.753455  1
  Ho  Ho18  1  0.805427  0.495589  0.248359  1
  Ho  Ho19  1  0.306274  0.004893  0.248120  1
  Sn  Sn20  1  0.309699  0.052208  0.037963  1
  Sn  Sn21  1  0.814868  0.453195  0.456752  1
  Sn  Sn22  1  0.685297  0.954007  0.545725  1
  Sn  Sn23  1  0.200409  0.530259  0.952293  1
  Sn  Sn24  1  0.690122  0.967938  0.953223  1
  Sn  Sn25  1  0.184538  0.548190  0.545746  1
  Sn  Sn26  1  0.314714  0.046047  0.457202  1
  Sn  Sn27  1  0.803055  0.446477  0.036857  1
  Sn  Sn28  1  0.556374  0.628003  0.753338  1
  Sn  Sn29  1  0.055106  0.869420  0.753168  1
  Sn  Sn30  1  0.442356  0.367024  0.248451  1
  Sn  Sn31  1  0.943396  0.133843  0.248218  1
  Sn  Sn32  1  0.326662  0.144039  0.757068  1
  Sn  Sn33  1  0.818594  0.360440  0.755279  1
  Sn  Sn34  1  0.676915  0.863358  0.248790  1
  Sn  Sn35  1  0.177410  0.635587  0.249044  1
