# generated using pymatgen
data_HfZr(Cu2Si)4
_symmetry_space_group_name_H-M   'P 1'
_cell_length_a   7.10673108
_cell_length_b   7.10673204
_cell_length_c   3.79657700
_cell_angle_alpha   90.00000000
_cell_angle_beta   90.00000000
_cell_angle_gamma   89.79913044
_symmetry_Int_Tables_number   1
_chemical_formula_structural   HfZr(Cu2Si)4
_chemical_formula_sum   'Hf1 Zr1 Cu8 Si4'
_cell_volume   191.74734787
_cell_formula_units_Z   1
loop_
 _symmetry_equiv_pos_site_id
 _symmetry_equiv_pos_as_xyz
  1  'x, y, z'
loop_
 _atom_site_type_symbol
 _atom_site_label
 _atom_site_symmetry_multiplicity
 _atom_site_fract_x
 _atom_site_fract_y
 _atom_site_fract_z
 _atom_site_occupancy
  Hf  Hf0  1  0.000000  0.000000  0.500000  1
  Zr  Zr1  1  0.500000  0.500000  0.000000  1
  Cu  Cu2  1  0.592849  0.157280  0.500000  1
  Cu  Cu3  1  0.407151  0.842720  0.500000  1
  Cu  Cu4  1  0.091807  0.341889  0.000000  1
  Cu  Cu5  1  0.908193  0.658111  0.000000  1
  Cu  Cu6  1  0.157280  0.592849  0.500000  1
  Cu  Cu7  1  0.842720  0.407151  0.500000  1
  Cu  Cu8  1  0.341889  0.091807  0.000000  1
  Cu  Cu9  1  0.658111  0.908193  0.000000  1
  Si  Si10  1  0.715691  0.715691  0.500000  1
  Si  Si11  1  0.284309  0.284309  0.500000  1
  Si  Si12  1  0.213577  0.786423  0.000000  1
  Si  Si13  1  0.786423  0.213577  0.000000  1
