# generated using pymatgen
data_Y3Ho3Co10(P3Ir2)4
_symmetry_space_group_name_H-M   'P 1'
_cell_length_a   3.80122100
_cell_length_b   10.84467770
_cell_length_c   12.56036481
_cell_angle_alpha   89.95873352
_cell_angle_beta   90.00000000
_cell_angle_gamma   90.00000000
_symmetry_Int_Tables_number   1
_chemical_formula_structural   Y3Ho3Co10(P3Ir2)4
_chemical_formula_sum   'Y3 Ho3 Co10 P12 Ir8'
_cell_volume   517.77599325
_cell_formula_units_Z   1
loop_
 _symmetry_equiv_pos_site_id
 _symmetry_equiv_pos_as_xyz
  1  'x, y, z'
loop_
 _atom_site_type_symbol
 _atom_site_label
 _atom_site_symmetry_multiplicity
 _atom_site_fract_x
 _atom_site_fract_y
 _atom_site_fract_z
 _atom_site_occupancy
  Y  Y0  1  0.000000  0.500085  0.520842  1
  Y  Y1  1  0.500000  0.000235  0.479374  1
  Y  Y2  1  0.500000  0.815088  0.196769  1
  Ho  Ho3  1  0.500000  0.184365  0.197022  1
  Ho  Ho4  1  0.000000  0.684545  0.803073  1
  Ho  Ho5  1  0.000000  0.315443  0.802833  1
  Co  Co6  1  0.000000  0.499427  0.991705  1
  Co  Co7  1  0.500000  0.000182  0.007771  1
  Co  Co8  1  0.500000  0.879176  0.717023  1
  Co  Co9  1  0.500000  0.120971  0.716781  1
  Co  Co10  1  0.000000  0.620339  0.283758  1
  Co  Co11  1  0.000000  0.378957  0.283005  1
  Co  Co12  1  0.500000  0.332791  0.995514  1
  Co  Co13  1  0.500000  0.666618  0.995217  1
  Co  Co14  1  0.000000  0.167303  0.004246  1
  Co  Co15  1  0.000000  0.832846  0.003992  1
  P  P16  1  0.500000  0.309761  0.625690  1
  P  P17  1  0.500000  0.690264  0.625967  1
  P  P18  1  0.000000  0.190614  0.374202  1
  P  P19  1  0.000000  0.810192  0.374833  1
  P  P20  1  0.500000  0.499712  0.894498  1
  P  P21  1  0.000000  0.000251  0.105191  1
  P  P22  1  0.500000  0.842634  0.897483  1
  P  P23  1  0.500000  0.157336  0.897197  1
  P  P24  1  0.000000  0.656478  0.102308  1
  P  P25  1  0.000000  0.342637  0.102667  1
  P  P26  1  0.500000  0.500304  0.343673  1
  P  P27  1  0.000000  0.000158  0.656359  1
  Ir  Ir28  1  0.500000  0.298165  0.425655  1
  Ir  Ir29  1  0.500000  0.702183  0.426102  1
  Ir  Ir30  1  0.000000  0.202174  0.574516  1
  Ir  Ir31  1  0.000000  0.798169  0.574735  1
  Ir  Ir32  1  0.500000  0.499759  0.159159  1
  Ir  Ir33  1  0.000000  0.000264  0.840597  1
  Ir  Ir34  1  0.500000  0.499949  0.709492  1
  Ir  Ir35  1  0.000000  0.000627  0.290748  1
