# generated using pymatgen
data_Dy3Ho5Re2(OsC4)2
_symmetry_space_group_name_H-M   'P 1'
_cell_length_a   5.10072400
_cell_length_b   6.52763732
_cell_length_c   9.79510748
_cell_angle_alpha   89.96430307
_cell_angle_beta   90.00000000
_cell_angle_gamma   90.00000000
_symmetry_Int_Tables_number   1
_chemical_formula_structural   Dy3Ho5Re2(OsC4)2
_chemical_formula_sum   'Dy3 Ho5 Re2 Os2 C8'
_cell_volume   326.13466477
_cell_formula_units_Z   1
loop_
 _symmetry_equiv_pos_site_id
 _symmetry_equiv_pos_as_xyz
  1  'x, y, z'
loop_
 _atom_site_type_symbol
 _atom_site_label
 _atom_site_symmetry_multiplicity
 _atom_site_fract_x
 _atom_site_fract_y
 _atom_site_fract_z
 _atom_site_occupancy
  Dy  Dy0  1  0.250000  0.467906  0.785471  1
  Dy  Dy1  1  0.750000  0.032144  0.285328  1
  Dy  Dy2  1  0.250000  0.969888  0.713357  1
  Ho  Ho3  1  0.750000  0.530287  0.213814  1
  Ho  Ho4  1  0.250000  0.822946  0.055039  1
  Ho  Ho5  1  0.750000  0.676881  0.554986  1
  Ho  Ho6  1  0.250000  0.320614  0.444055  1
  Ho  Ho7  1  0.750000  0.179530  0.944245  1
  Re  Re8  1  0.250000  0.777391  0.365063  1
  Re  Re9  1  0.750000  0.722441  0.865360  1
  Os  Os10  1  0.250000  0.277457  0.134482  1
  Os  Os11  1  0.750000  0.222880  0.634345  1
  C  C12  1  0.250000  0.175273  0.949527  1
  C  C13  1  0.750000  0.823237  0.051957  1
  C  C14  1  0.250000  0.675783  0.551541  1
  C  C15  1  0.750000  0.325162  0.449225  1
  C  C16  1  0.250000  0.044443  0.259887  1
  C  C17  1  0.750000  0.455673  0.759926  1
  C  C18  1  0.250000  0.543610  0.241072  1
  C  C19  1  0.750000  0.956454  0.741320  1
