# generated using pymatgen
data_Er5Nb3(Co4As3)4
_symmetry_space_group_name_H-M   'P 1'
_cell_length_a   12.59872000
_cell_length_b   12.59872037
_cell_length_c   3.80828100
_cell_angle_alpha   90.00000000
_cell_angle_beta   90.00000000
_cell_angle_gamma   119.99999903
_symmetry_Int_Tables_number   1
_chemical_formula_structural   Er5Nb3(Co4As3)4
_chemical_formula_sum   'Er5 Nb3 Co16 As12'
_cell_volume   523.49493339
_cell_formula_units_Z   1
loop_
 _symmetry_equiv_pos_site_id
 _symmetry_equiv_pos_as_xyz
  1  'x, y, z'
loop_
 _atom_site_type_symbol
 _atom_site_label
 _atom_site_symmetry_multiplicity
 _atom_site_fract_x
 _atom_site_fract_y
 _atom_site_fract_z
 _atom_site_occupancy
  Er  Er0  1  0.817096  0.000000  0.500000  1
  Er  Er1  1  0.000000  0.817096  0.500000  1
  Er  Er2  1  0.182904  0.182904  0.500000  1
  Er  Er3  1  0.333333  0.666667  0.000000  1
  Er  Er4  1  0.666667  0.333333  0.000000  1
  Nb  Nb5  1  0.442387  0.000000  0.000000  1
  Nb  Nb6  1  0.000000  0.442387  0.000000  1
  Nb  Nb7  1  0.557613  0.557613  0.000000  1
  Co  Co8  1  0.281783  0.000000  0.500000  1
  Co  Co9  1  0.000000  0.281783  0.500000  1
  Co  Co10  1  0.718217  0.718217  0.500000  1
  Co  Co11  1  0.625575  0.801829  0.000000  1
  Co  Co12  1  0.198171  0.823746  0.000000  1
  Co  Co13  1  0.176254  0.374425  0.000000  1
  Co  Co14  1  0.374425  0.176254  0.000000  1
  Co  Co15  1  0.801829  0.625575  0.000000  1
  Co  Co16  1  0.823746  0.198171  0.000000  1
  Co  Co17  1  0.520306  0.874830  0.500000  1
  Co  Co18  1  0.125170  0.645477  0.500000  1
  Co  Co19  1  0.354523  0.479694  0.500000  1
  Co  Co20  1  0.479694  0.354523  0.500000  1
  Co  Co21  1  0.874830  0.520306  0.500000  1
  Co  Co22  1  0.645477  0.125170  0.500000  1
  Co  Co23  1  0.000000  0.000000  0.000000  1
  As  As24  1  0.177249  0.000000  0.000000  1
  As  As25  1  0.000000  0.177249  0.000000  1
  As  As26  1  0.822751  0.822751  0.000000  1
  As  As27  1  0.516774  0.686513  0.500000  1
  As  As28  1  0.313487  0.830260  0.500000  1
  As  As29  1  0.169740  0.483226  0.500000  1
  As  As30  1  0.483226  0.169740  0.500000  1
  As  As31  1  0.686513  0.516774  0.500000  1
  As  As32  1  0.830260  0.313487  0.500000  1
  As  As33  1  0.645312  0.000000  0.000000  1
  As  As34  1  0.000000  0.645312  0.000000  1
  As  As35  1  0.354688  0.354688  0.000000  1
