# generated using pymatgen
data_Ga2Co(TeO3)4
_symmetry_space_group_name_H-M   'P 1'
_cell_length_a   9.33886452
_cell_length_b   9.33886434
_cell_length_c   9.33886470
_cell_angle_alpha   109.83532519
_cell_angle_beta   109.83532472
_cell_angle_gamma   108.74543953
_symmetry_Int_Tables_number   1
_chemical_formula_structural   Ga2Co(TeO3)4
_chemical_formula_sum   'Ga4 Co2 Te8 O24'
_cell_volume   626.91426566
_cell_formula_units_Z   2
loop_
 _symmetry_equiv_pos_site_id
 _symmetry_equiv_pos_as_xyz
  1  'x, y, z'
loop_
 _atom_site_type_symbol
 _atom_site_label
 _atom_site_symmetry_multiplicity
 _atom_site_fract_x
 _atom_site_fract_y
 _atom_site_fract_z
 _atom_site_occupancy
  Ga  Ga0  1  0.993795  0.625000  0.868795  1
  Ga  Ga1  1  0.756205  0.125000  0.131205  1
  Ga  Ga2  1  0.875000  0.006205  0.631205  1
  Ga  Ga3  1  0.375000  0.243795  0.368795  1
  Co  Co4  1  0.500000  0.500000  0.000000  1
  Co  Co5  1  0.250000  0.750000  0.500000  1
  Te  Te6  1  0.906095  0.872984  0.260467  1
  Te  Te7  1  0.843905  0.604372  0.466889  1
  Te  Te8  1  0.137485  0.377016  0.533111  1
  Te  Te9  1  0.612515  0.645628  0.739533  1
  Te  Te10  1  0.395628  0.862515  0.239533  1
  Te  Te11  1  0.354372  0.093905  0.966889  1
  Te  Te12  1  0.622984  0.156095  0.760467  1
  Te  Te13  1  0.127016  0.387485  0.033111  1
  O  O14  1  0.714368  0.682731  0.223829  1
  O  O15  1  0.035632  0.759461  0.468363  1
  O  O16  1  0.291097  0.567269  0.531637  1
  O  O17  1  0.458903  0.490539  0.776171  1
  O  O18  1  0.208617  0.829241  0.037327  1
  O  O19  1  0.541383  0.078710  0.120622  1
  O  O20  1  0.791914  0.171290  0.962673  1
  O  O21  1  0.958086  0.420759  0.879378  1
  O  O22  1  0.930047  0.331945  0.339798  1
  O  O23  1  0.992147  0.590250  0.660202  1
  O  O24  1  0.819953  0.659750  0.901897  1
  O  O25  1  0.757853  0.918055  0.098103  1
  O  O26  1  0.081945  0.180047  0.839798  1
  O  O27  1  0.340250  0.242147  0.160202  1
  O  O28  1  0.409750  0.069953  0.401897  1
  O  O29  1  0.668055  0.007853  0.598103  1
  O  O30  1  0.579241  0.458617  0.537327  1
  O  O31  1  0.828710  0.791383  0.620622  1
  O  O32  1  0.921290  0.041914  0.462673  1
  O  O33  1  0.170759  0.208086  0.379378  1
  O  O34  1  0.432731  0.964368  0.723829  1
  O  O35  1  0.509461  0.285632  0.968363  1
  O  O36  1  0.317269  0.541097  0.031637  1
  O  O37  1  0.240539  0.708903  0.276171  1
