# generated using pymatgen
data_NaTb4Sm2RhI12
_symmetry_space_group_name_H-M   'P 1'
_cell_length_a   9.90457907
_cell_length_b   9.82816722
_cell_length_c   9.83713645
_cell_angle_alpha   106.73137520
_cell_angle_beta   107.17931617
_cell_angle_gamma   106.74429205
_symmetry_Int_Tables_number   1
_chemical_formula_structural   NaTb4Sm2RhI12
_chemical_formula_sum   'Na1 Tb4 Sm2 Rh1 I12'
_cell_volume   799.96222018
_cell_formula_units_Z   1
loop_
 _symmetry_equiv_pos_site_id
 _symmetry_equiv_pos_as_xyz
  1  'x, y, z'
loop_
 _atom_site_type_symbol
 _atom_site_label
 _atom_site_symmetry_multiplicity
 _atom_site_fract_x
 _atom_site_fract_y
 _atom_site_fract_z
 _atom_site_occupancy
  Na  Na0  1  0.500249  0.500220  0.500260  1
  Tb  Tb1  1  0.688469  0.897695  0.971702  1
  Tb  Tb2  1  0.098456  0.028173  0.299521  1
  Tb  Tb3  1  0.027744  0.298500  0.099872  1
  Tb  Tb4  1  0.312118  0.103751  0.028718  1
  Sm  Sm5  1  0.900646  0.971769  0.697227  1
  Sm  Sm6  1  0.972684  0.698687  0.900841  1
  Rh  Rh7  1  0.000504  0.000332  0.000034  1
  I  I8  1  0.546624  0.856755  0.628391  1
  I  I9  1  0.855452  0.623966  0.544496  1
  I  I10  1  0.625909  0.549387  0.857930  1
  I  I11  1  0.449023  0.141505  0.371918  1
  I  I12  1  0.142461  0.372003  0.450961  1
  I  I13  1  0.370081  0.450735  0.142138  1
  I  I14  1  0.681156  0.224756  0.074202  1
  I  I15  1  0.226243  0.074624  0.680134  1
  I  I16  1  0.075323  0.681673  0.228461  1
  I  I17  1  0.322896  0.777954  0.927014  1
  I  I18  1  0.777421  0.926577  0.318293  1
  I  I19  1  0.926541  0.320938  0.777886  1
