# generated using pymatgen
data_La3BrO4
_symmetry_space_group_name_H-M   'P 1'
_cell_length_a   6.65223039
_cell_length_b   6.65223013
_cell_length_c   12.43850400
_cell_angle_alpha   90.00000000
_cell_angle_beta   90.00000000
_cell_angle_gamma   142.31629131
_symmetry_Int_Tables_number   1
_chemical_formula_structural   La3BrO4
_chemical_formula_sum   'La6 Br2 O8'
_cell_volume   336.47944820
_cell_formula_units_Z   2
loop_
 _symmetry_equiv_pos_site_id
 _symmetry_equiv_pos_as_xyz
  1  'x, y, z'
loop_
 _atom_site_type_symbol
 _atom_site_label
 _atom_site_symmetry_multiplicity
 _atom_site_fract_x
 _atom_site_fract_y
 _atom_site_fract_z
 _atom_site_occupancy
  La  La0  1  0.820086  0.179914  0.398359  1
  La  La1  1  0.179914  0.820086  0.601641  1
  La  La2  1  0.179914  0.820086  0.898359  1
  La  La3  1  0.820086  0.179914  0.101641  1
  La  La4  1  0.880011  0.119989  0.750000  1
  La  La5  1  0.119989  0.880011  0.250000  1
  Br  Br6  1  0.500000  0.500000  0.000000  1
  Br  Br7  1  0.500000  0.500000  0.500000  1
  O  O8  1  0.301221  0.698779  0.750000  1
  O  O9  1  0.698779  0.301221  0.250000  1
  O  O10  1  0.064085  0.935915  0.750000  1
  O  O11  1  0.935915  0.064085  0.250000  1
  O  O12  1  0.767204  0.232796  0.910011  1
  O  O13  1  0.232796  0.767204  0.089989  1
  O  O14  1  0.232796  0.767204  0.410011  1
  O  O15  1  0.767204  0.232796  0.589989  1
