# generated using pymatgen
data_ErLu15(In3Pt)2
_symmetry_space_group_name_H-M   'P 1'
_cell_length_a   10.29811800
_cell_length_b   10.30160002
_cell_length_c   6.83860111
_cell_angle_alpha   90.02110172
_cell_angle_beta   90.00000000
_cell_angle_gamma   119.98881941
_symmetry_Int_Tables_number   1
_chemical_formula_structural   ErLu15(In3Pt)2
_chemical_formula_sum   'Er1 Lu15 In6 Pt2'
_cell_volume   628.36115653
_cell_formula_units_Z   1
loop_
 _symmetry_equiv_pos_site_id
 _symmetry_equiv_pos_as_xyz
  1  'x, y, z'
loop_
 _atom_site_type_symbol
 _atom_site_label
 _atom_site_symmetry_multiplicity
 _atom_site_fract_x
 _atom_site_fract_y
 _atom_site_fract_z
 _atom_site_occupancy
  Er  Er0  1  0.529737  0.059473  0.524767  1
  Lu  Lu1  1  0.939344  0.469448  0.525394  1
  Lu  Lu2  1  0.530104  0.469448  0.525394  1
  Lu  Lu3  1  0.469417  0.938833  0.024711  1
  Lu  Lu4  1  0.060667  0.530444  0.025369  1
  Lu  Lu5  1  0.469778  0.530444  0.025369  1
  Lu  Lu6  1  0.175844  0.351688  0.733700  1
  Lu  Lu7  1  0.649345  0.823654  0.733667  1
  Lu  Lu8  1  0.174310  0.823654  0.733667  1
  Lu  Lu9  1  0.824800  0.649600  0.233682  1
  Lu  Lu10  1  0.351282  0.176069  0.232042  1
  Lu  Lu11  1  0.824786  0.176069  0.232042  1
  Lu  Lu12  1  0.666982  0.333962  0.899130  1
  Lu  Lu13  1  0.332774  0.665548  0.399098  1
  Lu  Lu14  1  0.000093  0.000186  0.505396  1
  Lu  Lu15  1  0.999996  0.999993  0.005655  1
  In  In16  1  0.837194  0.674387  0.767268  1
  In  In17  1  0.324229  0.162136  0.766404  1
  In  In18  1  0.837905  0.162136  0.766404  1
  In  In19  1  0.162425  0.324849  0.267366  1
  In  In20  1  0.674839  0.837786  0.266905  1
  In  In21  1  0.162947  0.837786  0.266905  1
  Pt  Pt22  1  0.667561  0.335122  0.297323  1
  Pt  Pt23  1  0.333642  0.667285  0.798018  1
