# generated using pymatgen
data_LiYbNi4
_symmetry_space_group_name_H-M   'P 1'
_cell_length_a   4.83380258
_cell_length_b   4.83380285
_cell_length_c   4.83380300
_cell_angle_alpha   60.00000580
_cell_angle_beta   60.00000398
_cell_angle_gamma   60.00001237
_symmetry_Int_Tables_number   1
_chemical_formula_structural   LiYbNi4
_chemical_formula_sum   'Li1 Yb1 Ni4'
_cell_volume   79.86414824
_cell_formula_units_Z   1
loop_
 _symmetry_equiv_pos_site_id
 _symmetry_equiv_pos_as_xyz
  1  'x, y, z'
loop_
 _atom_site_type_symbol
 _atom_site_label
 _atom_site_symmetry_multiplicity
 _atom_site_fract_x
 _atom_site_fract_y
 _atom_site_fract_z
 _atom_site_occupancy
  Li  Li0  1  0.000001  0.000001  0.999999  1
  Yb  Yb1  1  0.750000  0.749999  0.750003  1
  Ni  Ni2  1  0.875420  0.374861  0.374859  1
  Ni  Ni3  1  0.374861  0.875420  0.374859  1
  Ni  Ni4  1  0.374859  0.374860  0.374857  1
  Ni  Ni5  1  0.374859  0.374859  0.875424  1
