# generated using pymatgen
data_Li8La8AlBi7
_symmetry_space_group_name_H-M   'P 1'
_cell_length_a   9.81117700
_cell_length_b   9.81117666
_cell_length_c   7.61646500
_cell_angle_alpha   90.00000000
_cell_angle_beta   90.00000000
_cell_angle_gamma   119.99999102
_symmetry_Int_Tables_number   1
_chemical_formula_structural   Li8La8AlBi7
_chemical_formula_sum   'Li8 La8 Al1 Bi7'
_cell_volume   634.93070261
_cell_formula_units_Z   1
loop_
 _symmetry_equiv_pos_site_id
 _symmetry_equiv_pos_as_xyz
  1  'x, y, z'
loop_
 _atom_site_type_symbol
 _atom_site_label
 _atom_site_symmetry_multiplicity
 _atom_site_fract_x
 _atom_site_fract_y
 _atom_site_fract_z
 _atom_site_occupancy
  Li  Li0  1  0.167481  0.334965  0.268868  1
  Li  Li1  1  0.167481  0.832519  0.268868  1
  Li  Li2  1  0.665035  0.832519  0.268868  1
  Li  Li3  1  0.831013  0.662026  0.769098  1
  Li  Li4  1  0.831013  0.168987  0.769098  1
  Li  Li5  1  0.337974  0.168987  0.769098  1
  Li  Li6  1  0.333333  0.666667  0.691491  1
  Li  Li7  1  0.666667  0.333333  0.197645  1
  La  La8  1  0.512235  0.024470  0.500486  1
  La  La9  1  0.512235  0.487765  0.500486  1
  La  La10  1  0.975530  0.487765  0.500486  1
  La  La11  1  0.497462  0.994922  0.991679  1
  La  La12  1  0.497462  0.502538  0.991679  1
  La  La13  1  0.005078  0.502538  0.991679  1
  La  La14  1  0.000000  0.000000  0.501360  1
  La  La15  1  0.000000  0.000000  0.999962  1
  Al  Al16  1  0.666667  0.333333  0.760725  1
  Bi  Bi17  1  0.166298  0.332596  0.740378  1
  Bi  Bi18  1  0.166298  0.833702  0.740378  1
  Bi  Bi19  1  0.667404  0.833702  0.740378  1
  Bi  Bi20  1  0.833780  0.667560  0.239474  1
  Bi  Bi21  1  0.833780  0.166220  0.239474  1
  Bi  Bi22  1  0.332440  0.166220  0.239474  1
  Bi  Bi23  1  0.333333  0.666667  0.260840  1
