# generated using pymatgen
data_Mg4TaRe13Tc11
_symmetry_space_group_name_H-M   'P 1'
_cell_length_a   8.37150556
_cell_length_b   8.37373194
_cell_length_c   8.37142600
_cell_angle_alpha   109.49390167
_cell_angle_beta   109.48563206
_cell_angle_gamma   109.49377157
_symmetry_Int_Tables_number   1
_chemical_formula_structural   Mg4TaRe13Tc11
_chemical_formula_sum   'Mg4 Ta1 Re13 Tc11'
_cell_volume   451.41926204
_cell_formula_units_Z   1
loop_
 _symmetry_equiv_pos_site_id
 _symmetry_equiv_pos_as_xyz
  1  'x, y, z'
loop_
 _atom_site_type_symbol
 _atom_site_label
 _atom_site_symmetry_multiplicity
 _atom_site_fract_x
 _atom_site_fract_y
 _atom_site_fract_z
 _atom_site_occupancy
  Mg  Mg0  1  0.997835  0.997471  0.997803  1
  Mg  Mg1  1  0.639935  0.999769  0.999866  1
  Mg  Mg2  1  0.000129  0.640322  0.000208  1
  Mg  Mg3  1  0.999919  0.999713  0.639939  1
  Ta  Ta4  1  0.362105  0.363240  0.362082  1
  Re  Re5  1  0.600978  0.282547  0.601002  1
  Re  Re6  1  0.377555  0.193090  0.999482  1
  Re  Re7  1  0.187375  0.809024  0.809131  1
  Re  Re8  1  0.378065  0.000496  0.193561  1
  Re  Re9  1  0.193226  0.377865  0.999678  1
  Re  Re10  1  0.999681  0.377896  0.193201  1
  Re  Re11  1  0.809207  0.186400  0.809236  1
  Re  Re12  1  0.809064  0.808930  0.187342  1
  Re  Re13  1  0.999504  0.193130  0.377641  1
  Re  Re14  1  0.193620  0.000476  0.378095  1
  Re  Re15  1  0.623676  0.623611  0.816694  1
  Re  Re16  1  0.816665  0.623611  0.623644  1
  Re  Re17  1  0.623673  0.816415  0.623686  1
  Tc  Tc18  1  0.395804  0.676428  0.997524  1
  Tc  Tc19  1  0.720734  0.323100  0.322701  1
  Tc  Tc20  1  0.396078  0.997358  0.675933  1
  Tc  Tc21  1  0.676002  0.395631  0.997121  1
  Tc  Tc22  1  0.997115  0.395631  0.675986  1
  Tc  Tc23  1  0.322866  0.720300  0.322904  1
  Tc  Tc24  1  0.322694  0.323062  0.720724  1
  Tc  Tc25  1  0.997515  0.676405  0.395745  1
  Tc  Tc26  1  0.675973  0.997348  0.396091  1
  Tc  Tc27  1  0.600746  0.600356  0.282246  1
  Tc  Tc28  1  0.282262  0.600377  0.600731  1
