# generated using pymatgen
data_Tl2Co(PO3)4
_symmetry_space_group_name_H-M   'P 1'
_cell_length_a   12.32115300
_cell_length_b   8.58153874
_cell_length_c   13.01785600
_cell_angle_alpha   69.02735569
_cell_angle_beta   90.00000000
_cell_angle_gamma   90.00000000
_symmetry_Int_Tables_number   1
_chemical_formula_structural   Tl2Co(PO3)4
_chemical_formula_sum   'Tl8 Co4 P16 O48'
_cell_volume   1285.24894849
_cell_formula_units_Z   4
loop_
 _symmetry_equiv_pos_site_id
 _symmetry_equiv_pos_as_xyz
  1  'x, y, z'
loop_
 _atom_site_type_symbol
 _atom_site_label
 _atom_site_symmetry_multiplicity
 _atom_site_fract_x
 _atom_site_fract_y
 _atom_site_fract_z
 _atom_site_occupancy
  Tl  Tl0  1  0.554576  0.749392  0.982620  1
  Tl  Tl1  1  0.890811  0.560942  0.202971  1
  Tl  Tl2  1  0.945424  0.749392  0.482620  1
  Tl  Tl3  1  0.054576  0.250608  0.517380  1
  Tl  Tl4  1  0.609189  0.560942  0.702971  1
  Tl  Tl5  1  0.445424  0.250608  0.017380  1
  Tl  Tl6  1  0.390811  0.439058  0.297029  1
  Tl  Tl7  1  0.109189  0.439058  0.797029  1
  Co  Co8  1  0.265584  0.964336  0.317326  1
  Co  Co9  1  0.734416  0.035664  0.682674  1
  Co  Co10  1  0.234416  0.964336  0.817326  1
  Co  Co11  1  0.765584  0.035664  0.182674  1
  P  P12  1  0.138795  0.324743  0.196301  1
  P  P13  1  0.958003  0.978447  0.814474  1
  P  P14  1  0.730350  0.071316  0.422781  1
  P  P15  1  0.041997  0.021553  0.185526  1
  P  P16  1  0.861205  0.675257  0.803699  1
  P  P17  1  0.638795  0.675257  0.303699  1
  P  P18  1  0.769650  0.071316  0.922781  1
  P  P19  1  0.737453  0.376802  0.469759  1
  P  P20  1  0.541997  0.978447  0.314474  1
  P  P21  1  0.458003  0.021553  0.685526  1
  P  P22  1  0.269650  0.928684  0.577219  1
  P  P23  1  0.230350  0.928684  0.077219  1
  P  P24  1  0.237453  0.623198  0.030241  1
  P  P25  1  0.361205  0.324743  0.696301  1
  P  P26  1  0.762547  0.376802  0.969759  1
  P  P27  1  0.262547  0.623198  0.530241  1
  O  O28  1  0.384655  0.015208  0.583142  1
  O  O29  1  0.809093  0.259879  0.904442  1
  O  O30  1  0.742720  0.775206  0.276402  1
  O  O31  1  0.309093  0.740121  0.595558  1
  O  O32  1  0.097377  0.925973  0.293505  1
  O  O33  1  0.593452  0.600969  0.224528  1
  O  O34  1  0.071185  0.024993  0.832281  1
  O  O35  1  0.406548  0.399031  0.775472  1
  O  O36  1  0.902623  0.074027  0.706495  1
  O  O37  1  0.615345  0.984792  0.416858  1
  O  O38  1  0.775521  0.990798  0.537356  1
  O  O39  1  0.043743  0.219703  0.163695  1
  O  O40  1  0.303604  0.927933  0.169820  1
  O  O41  1  0.275521  0.009202  0.962644  1
  O  O42  1  0.347700  0.469630  0.574530  1
  O  O43  1  0.152300  0.469630  0.074530  1
  O  O44  1  0.956257  0.780297  0.836305  1
  O  O45  1  0.224479  0.009202  0.462644  1
  O  O46  1  0.597377  0.074027  0.206495  1
  O  O47  1  0.649118  0.434264  0.929031  1
  O  O48  1  0.402623  0.925973  0.793505  1
  O  O49  1  0.115345  0.015208  0.083142  1
  O  O50  1  0.884655  0.984792  0.916858  1
  O  O51  1  0.093452  0.399031  0.275472  1
  O  O52  1  0.283636  0.704756  0.409063  1
  O  O53  1  0.428815  0.024993  0.332281  1
  O  O54  1  0.190907  0.740121  0.095558  1
  O  O55  1  0.242720  0.224794  0.223598  1
  O  O56  1  0.690907  0.259879  0.404442  1
  O  O57  1  0.906548  0.600969  0.724528  1
  O  O58  1  0.543743  0.780297  0.336305  1
  O  O59  1  0.716364  0.295244  0.590937  1
  O  O60  1  0.257280  0.224794  0.723598  1
  O  O61  1  0.928815  0.975007  0.167719  1
  O  O62  1  0.196396  0.927933  0.669820  1
  O  O63  1  0.696396  0.072067  0.830180  1
  O  O64  1  0.571185  0.975007  0.667719  1
  O  O65  1  0.350882  0.565736  0.070969  1
  O  O66  1  0.757280  0.775206  0.776402  1
  O  O67  1  0.847700  0.530370  0.925470  1
  O  O68  1  0.456257  0.219703  0.663695  1
  O  O69  1  0.783636  0.295244  0.090937  1
  O  O70  1  0.803604  0.072067  0.330180  1
  O  O71  1  0.652300  0.530370  0.425470  1
  O  O72  1  0.850882  0.434264  0.429031  1
  O  O73  1  0.724479  0.990798  0.037356  1
  O  O74  1  0.216364  0.704756  0.909063  1
  O  O75  1  0.149118  0.565736  0.570969  1
