# generated using pymatgen
data_Tc3H2
_symmetry_space_group_name_H-M   'P 1'
_cell_length_a   4.96501323
_cell_length_b   4.96501330
_cell_length_c   5.30045289
_cell_angle_alpha   117.92772985
_cell_angle_beta   62.07226386
_cell_angle_gamma   120.00000080
_symmetry_Int_Tables_number   1
_chemical_formula_structural   Tc3H2
_chemical_formula_sum   'Tc6 H4'
_cell_volume   95.18188350
_cell_formula_units_Z   2
loop_
 _symmetry_equiv_pos_site_id
 _symmetry_equiv_pos_as_xyz
  1  'x, y, z'
loop_
 _atom_site_type_symbol
 _atom_site_label
 _atom_site_symmetry_multiplicity
 _atom_site_fract_x
 _atom_site_fract_y
 _atom_site_fract_z
 _atom_site_occupancy
  Tc  Tc0  1  0.584857  0.750001  0.250001  1
  Tc  Tc1  1  0.250000  0.084857  0.250001  1
  Tc  Tc2  1  0.915142  0.415143  0.250001  1
  Tc  Tc3  1  0.084857  0.584856  0.749999  1
  Tc  Tc4  1  0.750000  0.915143  0.749999  1
  Tc  Tc5  1  0.415143  0.250000  0.749999  1
  H  H6  1  0.661929  0.338070  0.014210  1
  H  H7  1  0.838070  0.161929  0.485789  1
  H  H8  1  0.161930  0.838070  0.514209  1
  H  H9  1  0.338069  0.661930  0.985792  1
