# generated using pymatgen
data_NaY7(Si4W3)4
_symmetry_space_group_name_H-M   'P 1'
_cell_length_a   6.74981646
_cell_length_b   6.93045595
_cell_length_c   12.95253438
_cell_angle_alpha   89.94708735
_cell_angle_beta   89.87785454
_cell_angle_gamma   89.89339471
_symmetry_Int_Tables_number   1
_chemical_formula_structural   NaY7(Si4W3)4
_chemical_formula_sum   'Na1 Y7 Si16 W12'
_cell_volume   605.90788285
_cell_formula_units_Z   1
loop_
 _symmetry_equiv_pos_site_id
 _symmetry_equiv_pos_as_xyz
  1  'x, y, z'
loop_
 _atom_site_type_symbol
 _atom_site_label
 _atom_site_symmetry_multiplicity
 _atom_site_fract_x
 _atom_site_fract_y
 _atom_site_fract_z
 _atom_site_occupancy
  Na  Na0  1  0.991641  0.833991  0.588594  1
  Y  Y1  1  0.498048  0.669068  0.593920  1
  Y  Y2  1  0.997893  0.830247  0.906678  1
  Y  Y3  1  0.504764  0.331420  0.093423  1
  Y  Y4  1  0.003054  0.164755  0.410606  1
  Y  Y5  1  0.502560  0.332090  0.408314  1
  Y  Y6  1  0.004745  0.167983  0.093718  1
  Y  Y7  1  0.496864  0.670221  0.904480  1
  Si  Si8  1  0.659812  0.956284  0.454793  1
  Si  Si9  1  0.163133  0.544573  0.045605  1
  Si  Si10  1  0.337469  0.044165  0.954284  1
  Si  Si11  1  0.841947  0.462191  0.547703  1
  Si  Si12  1  0.333563  0.038591  0.547311  1
  Si  Si13  1  0.837435  0.455249  0.954836  1
  Si  Si14  1  0.663616  0.956055  0.045571  1
  Si  Si15  1  0.159136  0.546280  0.454342  1
  Si  Si16  1  0.465119  0.373179  0.750639  1
  Si  Si17  1  0.966757  0.124135  0.747659  1
  Si  Si18  1  0.534546  0.628562  0.250222  1
  Si  Si19  1  0.034999  0.869292  0.251326  1
  Si  Si20  1  0.704724  0.867723  0.746188  1
  Si  Si21  1  0.191659  0.639285  0.745159  1
  Si  Si22  1  0.302239  0.133176  0.250846  1
  Si  Si23  1  0.804033  0.364777  0.251700  1
  W  W24  1  0.663759  0.167226  0.625281  1
  W  W25  1  0.168527  0.338826  0.874510  1
  W  W26  1  0.333048  0.837894  0.125993  1
  W  W27  1  0.827919  0.660755  0.374155  1
  W  W28  1  0.333647  0.837021  0.373963  1
  W  W29  1  0.830825  0.660640  0.125832  1
  W  W30  1  0.667954  0.162784  0.873335  1
  W  W31  1  0.169720  0.335003  0.627023  1
  W  W32  1  0.837560  0.491960  0.751651  1
  W  W33  1  0.337618  0.004861  0.751193  1
  W  W34  1  0.164666  0.502828  0.249738  1
  W  W35  1  0.664999  0.996907  0.249409  1
