# generated using pymatgen
data_Yb7SmSbPd24
_symmetry_space_group_name_H-M   'P 1'
_cell_length_a   8.38096229
_cell_length_b   8.38096229
_cell_length_c   8.38096229
_cell_angle_alpha   90.02121828
_cell_angle_beta   90.02121828
_cell_angle_gamma   90.02121828
_symmetry_Int_Tables_number   1
_chemical_formula_structural   Yb7SmSbPd24
_chemical_formula_sum   'Yb7 Sm1 Sb1 Pd24'
_cell_volume   588.68310232
_cell_formula_units_Z   1
loop_
 _symmetry_equiv_pos_site_id
 _symmetry_equiv_pos_as_xyz
  1  'x, y, z'
loop_
 _atom_site_type_symbol
 _atom_site_label
 _atom_site_symmetry_multiplicity
 _atom_site_fract_x
 _atom_site_fract_y
 _atom_site_fract_z
 _atom_site_occupancy
  Yb  Yb0  1  0.747843  0.747843  0.252221  1
  Yb  Yb1  1  0.747843  0.252221  0.747843  1
  Yb  Yb2  1  0.252221  0.747843  0.747843  1
  Yb  Yb3  1  0.747710  0.747710  0.747710  1
  Yb  Yb4  1  0.747741  0.252219  0.252219  1
  Yb  Yb5  1  0.252219  0.252219  0.747741  1
  Yb  Yb6  1  0.252219  0.747741  0.252219  1
  Sm  Sm7  1  0.252647  0.252647  0.252647  1
  Sb  Sb8  1  0.999545  0.999545  0.999545  1
  Pd  Pd9  1  0.998812  0.998812  0.310306  1
  Pd  Pd10  1  0.733687  0.000157  0.500136  1
  Pd  Pd11  1  0.733687  0.500136  0.000157  1
  Pd  Pd12  1  0.500136  0.000157  0.733687  1
  Pd  Pd13  1  0.000157  0.733687  0.500136  1
  Pd  Pd14  1  0.500940  0.998812  0.266260  1
  Pd  Pd15  1  0.998812  0.266260  0.500940  1
  Pd  Pd16  1  0.500136  0.733687  0.000157  1
  Pd  Pd17  1  0.255273  0.501060  0.501060  1
  Pd  Pd18  1  0.499959  0.499959  0.744822  1
  Pd  Pd19  1  0.501060  0.501060  0.255273  1
  Pd  Pd20  1  0.501060  0.255273  0.501060  1
  Pd  Pd21  1  0.499959  0.744822  0.499959  1
  Pd  Pd22  1  0.744822  0.499959  0.499959  1
  Pd  Pd23  1  0.310306  0.998812  0.998812  1
  Pd  Pd24  1  0.999973  0.999973  0.690022  1
  Pd  Pd25  1  0.998812  0.500940  0.266260  1
  Pd  Pd26  1  0.998812  0.310306  0.998812  1
  Pd  Pd27  1  0.999973  0.690022  0.999973  1
  Pd  Pd28  1  0.690022  0.999973  0.999973  1
  Pd  Pd29  1  0.266260  0.500940  0.998812  1
  Pd  Pd30  1  0.266260  0.998812  0.500940  1
  Pd  Pd31  1  0.000157  0.500136  0.733687  1
  Pd  Pd32  1  0.500940  0.266260  0.998812  1
