# generated using pymatgen
data_Ho3Er(SiPd)4
_symmetry_space_group_name_H-M   'P 1'
_cell_length_a   4.32123500
_cell_length_b   7.48506902
_cell_length_c   13.85925803
_cell_angle_alpha   90.00797276
_cell_angle_beta   90.00000000
_cell_angle_gamma   90.00000000
_symmetry_Int_Tables_number   1
_chemical_formula_structural   Ho3Er(SiPd)4
_chemical_formula_sum   'Ho6 Er2 Si8 Pd8'
_cell_volume   448.27412409
_cell_formula_units_Z   2
loop_
 _symmetry_equiv_pos_site_id
 _symmetry_equiv_pos_as_xyz
  1  'x, y, z'
loop_
 _atom_site_type_symbol
 _atom_site_label
 _atom_site_symmetry_multiplicity
 _atom_site_fract_x
 _atom_site_fract_y
 _atom_site_fract_z
 _atom_site_occupancy
  Ho  Ho0  1  0.000000  0.299793  0.999774  1
  Ho  Ho1  1  0.500000  0.700207  0.500226  1
  Ho  Ho2  1  0.000000  0.291145  0.500144  1
  Ho  Ho3  1  0.500000  0.708855  0.999856  1
  Ho  Ho4  1  0.000000  0.209980  0.248972  1
  Ho  Ho5  1  0.500000  0.790020  0.251028  1
  Er  Er6  1  0.000000  0.210172  0.751010  1
  Er  Er7  1  0.500000  0.789828  0.748990  1
  Si  Si8  1  0.000000  0.908847  0.594057  1
  Si  Si9  1  0.500000  0.091153  0.905943  1
  Si  Si10  1  0.000000  0.908823  0.406548  1
  Si  Si11  1  0.500000  0.091177  0.093452  1
  Si  Si12  1  0.000000  0.591726  0.143911  1
  Si  Si13  1  0.500000  0.408274  0.356089  1
  Si  Si14  1  0.000000  0.592020  0.855887  1
  Si  Si15  1  0.500000  0.407980  0.644113  1
  Pd  Pd16  1  0.500000  0.075895  0.608965  1
  Pd  Pd17  1  0.000000  0.924105  0.891035  1
  Pd  Pd18  1  0.500000  0.076099  0.391755  1
  Pd  Pd19  1  0.000000  0.923901  0.108245  1
  Pd  Pd20  1  0.500000  0.419905  0.156859  1
  Pd  Pd21  1  0.000000  0.580095  0.343141  1
  Pd  Pd22  1  0.500000  0.419792  0.842676  1
  Pd  Pd23  1  0.000000  0.580208  0.657324  1
