# generated using pymatgen
data_HoTm(CuAs2)2
_symmetry_space_group_name_H-M   'P 1'
_cell_length_a   3.88939300
_cell_length_b   3.88939300
_cell_length_c   9.81855400
_cell_angle_alpha   90.00000000
_cell_angle_beta   90.00000000
_cell_angle_gamma   90.00000000
_symmetry_Int_Tables_number   1
_chemical_formula_structural   HoTm(CuAs2)2
_chemical_formula_sum   'Ho1 Tm1 Cu2 As4'
_cell_volume   148.52897687
_cell_formula_units_Z   1
loop_
 _symmetry_equiv_pos_site_id
 _symmetry_equiv_pos_as_xyz
  1  'x, y, z'
loop_
 _atom_site_type_symbol
 _atom_site_label
 _atom_site_symmetry_multiplicity
 _atom_site_fract_x
 _atom_site_fract_y
 _atom_site_fract_z
 _atom_site_occupancy
  Ho  Ho0  1  0.500000  0.000000  0.235490  1
  Tm  Tm1  1  0.000000  0.500000  0.764266  1
  Cu  Cu2  1  0.000000  0.000000  0.500761  1
  Cu  Cu3  1  0.500000  0.500000  0.500761  1
  As  As4  1  0.500000  0.500000  0.998439  1
  As  As5  1  0.000000  0.000000  0.998439  1
  As  As6  1  0.500000  0.000000  0.663836  1
  As  As7  1  0.000000  0.500000  0.338007  1
