# generated using pymatgen
data_Tb3Y2ThCoNi
_symmetry_space_group_name_H-M   'P 1'
_cell_length_a   6.35249704
_cell_length_b   6.92946600
_cell_length_c   9.65609106
_cell_angle_alpha   90.00000000
_cell_angle_beta   90.01305706
_cell_angle_gamma   90.00000000
_symmetry_Int_Tables_number   1
_chemical_formula_structural   Tb3Y2ThCoNi
_chemical_formula_sum   'Tb6 Y4 Th2 Co2 Ni2'
_cell_volume   425.05544229
_cell_formula_units_Z   2
loop_
 _symmetry_equiv_pos_site_id
 _symmetry_equiv_pos_as_xyz
  1  'x, y, z'
loop_
 _atom_site_type_symbol
 _atom_site_label
 _atom_site_symmetry_multiplicity
 _atom_site_fract_x
 _atom_site_fract_y
 _atom_site_fract_z
 _atom_site_occupancy
  Tb  Tb0  1  0.328280  0.675120  0.069811  1
  Tb  Tb1  1  0.171720  0.175120  0.430189  1
  Tb  Tb2  1  0.675782  0.323419  0.567552  1
  Tb  Tb3  1  0.824218  0.823419  0.932448  1
  Tb  Tb4  1  0.675603  0.323585  0.932245  1
  Tb  Tb5  1  0.824397  0.823585  0.567755  1
  Y  Y6  1  0.328429  0.675400  0.430477  1
  Y  Y7  1  0.171571  0.175400  0.069523  1
  Y  Y8  1  0.144279  0.466056  0.750122  1
  Y  Y9  1  0.355721  0.966056  0.749878  1
  Th  Th10  1  0.846903  0.552522  0.250100  1
  Th  Th11  1  0.653097  0.052522  0.249900  1
  Co  Co12  1  0.029181  0.871847  0.249966  1
  Co  Co13  1  0.470819  0.371847  0.250034  1
  Ni  Ni14  1  0.943578  0.112052  0.750287  1
  Ni  Ni15  1  0.556422  0.612052  0.749713  1
