# generated using pymatgen
data_SbRhI18
_symmetry_space_group_name_H-M   'P 1'
_cell_length_a   10.13609516
_cell_length_b   10.15475173
_cell_length_c   10.17264852
_cell_angle_alpha   88.52830225
_cell_angle_beta   88.60198387
_cell_angle_gamma   88.48546253
_symmetry_Int_Tables_number   1
_chemical_formula_structural   SbRhI18
_chemical_formula_sum   'Sb1 Rh1 I18'
_cell_volume   1046.06009672
_cell_formula_units_Z   1
loop_
 _symmetry_equiv_pos_site_id
 _symmetry_equiv_pos_as_xyz
  1  'x, y, z'
loop_
 _atom_site_type_symbol
 _atom_site_label
 _atom_site_symmetry_multiplicity
 _atom_site_fract_x
 _atom_site_fract_y
 _atom_site_fract_z
 _atom_site_occupancy
  Sb  Sb0  1  0.000000  0.000000  0.000000  1
  Rh  Rh1  1  0.500000  0.500000  0.500000  1
  I  I2  1  0.765416  0.477548  0.499715  1
  I  I3  1  0.498452  0.764856  0.477135  1
  I  I4  1  0.477071  0.499049  0.764567  1
  I  I5  1  0.234584  0.522452  0.500285  1
  I  I6  1  0.501548  0.235144  0.522865  1
  I  I7  1  0.522929  0.500951  0.235433  1
  I  I8  1  0.881903  0.385802  0.746331  1
  I  I9  1  0.745155  0.881003  0.385306  1
  I  I10  1  0.385931  0.745629  0.881159  1
  I  I11  1  0.118097  0.614198  0.253669  1
  I  I12  1  0.254845  0.118997  0.614694  1
  I  I13  1  0.614069  0.254371  0.118841  1
  I  I14  1  0.017299  0.973137  0.700307  1
  I  I15  1  0.699456  0.017558  0.972127  1
  I  I16  1  0.971859  0.700089  0.016413  1
  I  I17  1  0.982701  0.026863  0.299693  1
  I  I18  1  0.300544  0.982442  0.027873  1
  I  I19  1  0.028141  0.299911  0.983587  1
