# generated using pymatgen
data_Pa4InHgRh4
_symmetry_space_group_name_H-M   'P 1'
_cell_length_a   7.71373300
_cell_length_b   7.71373300
_cell_length_c   3.59204800
_cell_angle_alpha   90.00000000
_cell_angle_beta   90.00000000
_cell_angle_gamma   90.00000000
_symmetry_Int_Tables_number   1
_chemical_formula_structural   Pa4InHgRh4
_chemical_formula_sum   'Pa4 In1 Hg1 Rh4'
_cell_volume   213.73287913
_cell_formula_units_Z   1
loop_
 _symmetry_equiv_pos_site_id
 _symmetry_equiv_pos_as_xyz
  1  'x, y, z'
loop_
 _atom_site_type_symbol
 _atom_site_label
 _atom_site_symmetry_multiplicity
 _atom_site_fract_x
 _atom_site_fract_y
 _atom_site_fract_z
 _atom_site_occupancy
  Pa  Pa0  1  0.669476  0.169467  0.500000  1
  Pa  Pa1  1  0.330524  0.830533  0.500000  1
  Pa  Pa2  1  0.169467  0.330524  0.500000  1
  Pa  Pa3  1  0.830533  0.669476  0.500000  1
  In  In4  1  0.500000  0.500000  0.000000  1
  Hg  Hg5  1  0.000000  0.000000  0.000000  1
  Rh  Rh6  1  0.136478  0.631487  0.000000  1
  Rh  Rh7  1  0.863522  0.368513  0.000000  1
  Rh  Rh8  1  0.631487  0.863522  0.000000  1
  Rh  Rh9  1  0.368513  0.136478  0.000000  1
