# generated using pymatgen
data_Li2Nd3LuPt3
_symmetry_space_group_name_H-M   'P 1'
_cell_length_a   7.59761700
_cell_length_b   7.59086643
_cell_length_c   4.14614300
_cell_angle_alpha   90.00000000
_cell_angle_beta   90.00000000
_cell_angle_gamma   120.02942658
_symmetry_Int_Tables_number   1
_chemical_formula_structural   Li2Nd3LuPt3
_chemical_formula_sum   'Li2 Nd3 Lu1 Pt3'
_cell_volume   207.02119003
_cell_formula_units_Z   1
loop_
 _symmetry_equiv_pos_site_id
 _symmetry_equiv_pos_as_xyz
  1  'x, y, z'
loop_
 _atom_site_type_symbol
 _atom_site_label
 _atom_site_symmetry_multiplicity
 _atom_site_fract_x
 _atom_site_fract_y
 _atom_site_fract_z
 _atom_site_occupancy
  Li  Li0  1  0.002303  0.241409  0.500000  1
  Li  Li1  1  0.760893  0.758591  0.500000  1
  Nd  Nd2  1  0.414937  0.436700  0.000000  1
  Nd  Nd3  1  0.614214  0.000000  0.000000  1
  Nd  Nd4  1  0.978237  0.563300  0.000000  1
  Lu  Lu5  1  0.242150  0.000000  0.500000  1
  Pt  Pt6  1  0.651388  0.322566  0.500000  1
  Pt  Pt7  1  0.007058  0.000000  0.000000  1
  Pt  Pt8  1  0.328822  0.677434  0.500000  1
