# generated using pymatgen
data_Er3Tm5B24Ir3Rh
_symmetry_space_group_name_H-M   'P 1'
_cell_length_a   3.61522900
_cell_length_b   9.12483910
_cell_length_c   11.46811705
_cell_angle_alpha   90.03331812
_cell_angle_beta   90.00000000
_cell_angle_gamma   90.00000000
_symmetry_Int_Tables_number   1
_chemical_formula_structural   Er3Tm5B24Ir3Rh
_chemical_formula_sum   'Er3 Tm5 B24 Ir3 Rh1'
_cell_volume   378.31457283
_cell_formula_units_Z   1
loop_
 _symmetry_equiv_pos_site_id
 _symmetry_equiv_pos_as_xyz
  1  'x, y, z'
loop_
 _atom_site_type_symbol
 _atom_site_label
 _atom_site_symmetry_multiplicity
 _atom_site_fract_x
 _atom_site_fract_y
 _atom_site_fract_z
 _atom_site_occupancy
  Er  Er0  1  0.500000  0.322747  0.412895  1
  Er  Er1  1  0.500000  0.677512  0.586193  1
  Er  Er2  1  0.500000  0.178543  0.913319  1
  Tm  Tm3  1  0.500000  0.821352  0.087696  1
  Tm  Tm4  1  0.500000  0.445155  0.126230  1
  Tm  Tm5  1  0.500000  0.555736  0.874907  1
  Tm  Tm6  1  0.500000  0.055522  0.625093  1
  Tm  Tm7  1  0.500000  0.943218  0.374102  1
  B  B8  1  0.000000  0.109326  0.469789  1
  B  B9  1  0.000000  0.890232  0.529796  1
  B  B10  1  0.000000  0.390785  0.970303  1
  B  B11  1  0.000000  0.610070  0.030126  1
  B  B12  1  0.000000  0.131910  0.315628  1
  B  B13  1  0.000000  0.867853  0.683793  1
  B  B14  1  0.000000  0.368121  0.816279  1
  B  B15  1  0.000000  0.632659  0.183975  1
  B  B16  1  0.000000  0.053300  0.066087  1
  B  B17  1  0.000000  0.946658  0.934137  1
  B  B18  1  0.000000  0.446429  0.565937  1
  B  B19  1  0.000000  0.553160  0.434151  1
  B  B20  1  0.000000  0.481712  0.287071  1
  B  B21  1  0.000000  0.518289  0.713537  1
  B  B22  1  0.000000  0.018482  0.786740  1
  B  B23  1  0.000000  0.981218  0.213023  1
  B  B24  1  0.000000  0.250318  0.079296  1
  B  B25  1  0.000000  0.750142  0.921166  1
  B  B26  1  0.000000  0.250147  0.578971  1
  B  B27  1  0.000000  0.749466  0.420584  1
  B  B28  1  0.000000  0.294119  0.234771  1
  B  B29  1  0.000000  0.706223  0.765247  1
  B  B30  1  0.000000  0.206056  0.734638  1
  B  B31  1  0.000000  0.794106  0.264513  1
  Ir  Ir32  1  0.500000  0.138662  0.178377  1
  Ir  Ir33  1  0.500000  0.861570  0.821346  1
  Ir  Ir34  1  0.500000  0.360530  0.679810  1
  Rh  Rh35  1  0.500000  0.638671  0.320474  1
