# generated using pymatgen
data_V7(B4Ru3)2
_symmetry_space_group_name_H-M   'P 1'
_cell_length_a   9.22498800
_cell_length_b   9.22498717
_cell_length_c   2.96432500
_cell_angle_alpha   90.00000000
_cell_angle_beta   90.00000000
_cell_angle_gamma   119.99999676
_symmetry_Int_Tables_number   1
_chemical_formula_structural   V7(B4Ru3)2
_chemical_formula_sum   'V7 B8 Ru6'
_cell_volume   218.46810586
_cell_formula_units_Z   1
loop_
 _symmetry_equiv_pos_site_id
 _symmetry_equiv_pos_as_xyz
  1  'x, y, z'
loop_
 _atom_site_type_symbol
 _atom_site_label
 _atom_site_symmetry_multiplicity
 _atom_site_fract_x
 _atom_site_fract_y
 _atom_site_fract_z
 _atom_site_occupancy
  V  V0  1  0.000000  0.000000  0.000000  1
  V  V1  1  0.733105  0.645491  0.000000  1
  V  V2  1  0.354509  0.087614  0.000000  1
  V  V3  1  0.912386  0.266895  0.000000  1
  V  V4  1  0.266895  0.354509  0.000000  1
  V  V5  1  0.645491  0.912386  0.000000  1
  V  V6  1  0.087614  0.733105  0.000000  1
  B  B7  1  0.666667  0.333333  0.000000  1
  B  B8  1  0.333333  0.666667  0.000000  1
  B  B9  1  0.154569  0.936954  0.500000  1
  B  B10  1  0.063046  0.217615  0.500000  1
  B  B11  1  0.782385  0.845431  0.500000  1
  B  B12  1  0.845431  0.063046  0.500000  1
  B  B13  1  0.936954  0.782385  0.500000  1
  B  B14  1  0.217615  0.154569  0.500000  1
  Ru  Ru15  1  0.358423  0.851781  0.500000  1
  Ru  Ru16  1  0.148219  0.506642  0.500000  1
  Ru  Ru17  1  0.493358  0.641577  0.500000  1
  Ru  Ru18  1  0.641577  0.148219  0.500000  1
  Ru  Ru19  1  0.851781  0.493358  0.500000  1
  Ru  Ru20  1  0.506642  0.358423  0.500000  1
