# generated using pymatgen
data_Ta6Nb2Fe4Co3Si14Pd
_symmetry_space_group_name_H-M   'P 1'
_cell_length_a   9.27687168
_cell_length_b   9.29141168
_cell_length_c   9.26622100
_cell_angle_alpha   94.33324423
_cell_angle_beta   94.24983307
_cell_angle_gamma   148.27982375
_symmetry_Int_Tables_number   1
_chemical_formula_structural   Ta6Nb2Fe4Co3Si14Pd
_chemical_formula_sum   'Ta6 Nb2 Fe4 Co3 Si14 Pd1'
_cell_volume   403.88622903
_cell_formula_units_Z   1
loop_
 _symmetry_equiv_pos_site_id
 _symmetry_equiv_pos_as_xyz
  1  'x, y, z'
loop_
 _atom_site_type_symbol
 _atom_site_label
 _atom_site_symmetry_multiplicity
 _atom_site_fract_x
 _atom_site_fract_y
 _atom_site_fract_z
 _atom_site_occupancy
  Ta  Ta0  1  0.134467  0.134744  0.268600  1
  Ta  Ta1  1  0.865994  0.865805  0.731609  1
  Ta  Ta2  1  0.867049  0.133967  0.002632  1
  Ta  Ta3  1  0.136096  0.869131  0.002003  1
  Ta  Ta4  1  0.499524  0.688489  0.191602  1
  Ta  Ta5  1  0.497533  0.309612  0.809257  1
  Nb  Nb6  1  0.312024  0.499571  0.809560  1
  Nb  Nb7  1  0.691727  0.503194  0.191127  1
  Fe  Fe8  1  0.595044  0.402335  0.496963  1
  Fe  Fe9  1  0.901030  0.093756  0.495931  1
  Fe  Fe10  1  0.901303  0.401953  0.803779  1
  Fe  Fe11  1  0.596290  0.095751  0.192551  1
  Co  Co12  1  0.107105  0.606509  0.213669  1
  Co  Co13  1  0.106737  0.897093  0.503044  1
  Co  Co14  1  0.395821  0.605439  0.501675  1
  Si  Si15  1  0.290292  0.290740  0.581214  1
  Si  Si16  1  0.708689  0.708342  0.417025  1
  Si  Si17  1  0.726433  0.312545  0.006285  1
  Si  Si18  1  0.279051  0.693115  0.005521  1
  Si  Si19  1  0.990110  0.286253  0.296547  1
  Si  Si20  1  0.973832  0.685354  0.703208  1
  Si  Si21  1  0.729507  0.018033  0.703025  1
  Si  Si22  1  0.306759  0.010477  0.296612  1
  Si  Si23  1  0.521319  0.926005  0.405643  1
  Si  Si24  1  0.537564  0.136048  0.587247  1
  Si  Si25  1  0.049776  0.451159  0.587371  1
  Si  Si26  1  0.883965  0.479409  0.405403  1
  Si  Si27  1  0.751503  0.751615  0.000454  1
  Si  Si28  1  0.248665  0.248530  0.000389  1
  Pd  Pd29  1  0.394783  0.895027  0.790052  1
