# generated using pymatgen
data_Ac5Tb15Sn16
_symmetry_space_group_name_H-M   'P 1'
_cell_length_a   8.28405807
_cell_length_b   8.37262211
_cell_length_c   15.89234455
_cell_angle_alpha   90.03597601
_cell_angle_beta   89.44015914
_cell_angle_gamma   89.41947441
_symmetry_Int_Tables_number   1
_chemical_formula_structural   Ac5Tb15Sn16
_chemical_formula_sum   'Ac5 Tb15 Sn16'
_cell_volume   1102.17221144
_cell_formula_units_Z   1
loop_
 _symmetry_equiv_pos_site_id
 _symmetry_equiv_pos_as_xyz
  1  'x, y, z'
loop_
 _atom_site_type_symbol
 _atom_site_label
 _atom_site_symmetry_multiplicity
 _atom_site_fract_x
 _atom_site_fract_y
 _atom_site_fract_z
 _atom_site_occupancy
  Ac  Ac0  1  0.986841  0.819881  0.095827  1
  Ac  Ac1  1  0.485565  0.674287  0.093664  1
  Ac  Ac2  1  0.983361  0.823434  0.405472  1
  Ac  Ac3  1  0.515390  0.323404  0.594638  1
  Ac  Ac4  1  0.012720  0.177595  0.903831  1
  Tb  Tb5  1  0.358346  0.835962  0.874406  1
  Tb  Tb6  1  0.863288  0.660210  0.621335  1
  Tb  Tb7  1  0.636343  0.160790  0.378665  1
  Tb  Tb8  1  0.138675  0.339598  0.122123  1
  Tb  Tb9  1  0.638649  0.162800  0.125729  1
  Tb  Tb10  1  0.134498  0.338512  0.380876  1
  Tb  Tb11  1  0.365604  0.839404  0.623379  1
  Tb  Tb12  1  0.860895  0.660830  0.876322  1
  Tb  Tb13  1  0.519840  0.321704  0.898211  1
  Tb  Tb14  1  0.022474  0.177755  0.602271  1
  Tb  Tb15  1  0.477584  0.677096  0.401534  1
  Tb  Tb16  1  0.198251  0.501824  0.748550  1
  Tb  Tb17  1  0.697121  0.997630  0.749310  1
  Tb  Tb18  1  0.800282  0.497174  0.252078  1
  Tb  Tb19  1  0.302782  0.003804  0.253220  1
  Sn  Sn20  1  0.314319  0.047473  0.041679  1
  Sn  Sn21  1  0.795120  0.463321  0.454085  1
  Sn  Sn22  1  0.703511  0.964262  0.546817  1
  Sn  Sn23  1  0.203172  0.535772  0.952093  1
  Sn  Sn24  1  0.683029  0.962854  0.955610  1
  Sn  Sn25  1  0.199021  0.546760  0.541291  1
  Sn  Sn26  1  0.301659  0.041759  0.460120  1
  Sn  Sn27  1  0.800006  0.448226  0.038947  1
  Sn  Sn28  1  0.562537  0.625757  0.750851  1
  Sn  Sn29  1  0.059628  0.872075  0.747147  1
  Sn  Sn30  1  0.437504  0.371844  0.253224  1
  Sn  Sn31  1  0.940254  0.132323  0.250125  1
  Sn  Sn32  1  0.326437  0.141948  0.752527  1
  Sn  Sn33  1  0.825428  0.359555  0.747050  1
  Sn  Sn34  1  0.667863  0.857225  0.254857  1
  Sn  Sn35  1  0.182003  0.635150  0.252136  1
