# generated using pymatgen
data_Ti3Co4Si4Mo
_symmetry_space_group_name_H-M   'P 1'
_cell_length_a   3.67139200
_cell_length_b   6.10816391
_cell_length_c   6.92164938
_cell_angle_alpha   89.66618706
_cell_angle_beta   90.00000000
_cell_angle_gamma   90.00000000
_symmetry_Int_Tables_number   1
_chemical_formula_structural   Ti3Co4Si4Mo
_chemical_formula_sum   'Ti3 Co4 Si4 Mo1'
_cell_volume   155.21856530
_cell_formula_units_Z   1
loop_
 _symmetry_equiv_pos_site_id
 _symmetry_equiv_pos_as_xyz
  1  'x, y, z'
loop_
 _atom_site_type_symbol
 _atom_site_label
 _atom_site_symmetry_multiplicity
 _atom_site_fract_x
 _atom_site_fract_y
 _atom_site_fract_z
 _atom_site_occupancy
  Ti  Ti0  1  0.750000  0.479105  0.309992  1
  Ti  Ti1  1  0.250000  0.519480  0.691159  1
  Ti  Ti2  1  0.750000  0.981438  0.184444  1
  Co  Co3  1  0.250000  0.644688  0.067015  1
  Co  Co4  1  0.750000  0.361379  0.934809  1
  Co  Co5  1  0.250000  0.145433  0.436248  1
  Co  Co6  1  0.750000  0.851600  0.558684  1
  Si  Si7  1  0.750000  0.732863  0.882161  1
  Si  Si8  1  0.250000  0.771788  0.383592  1
  Si  Si9  1  0.750000  0.221912  0.619913  1
  Si  Si10  1  0.250000  0.269935  0.112563  1
  Mo  Mo11  1  0.250000  0.020378  0.819420  1
