# generated using pymatgen
data_DyYFe3P6Rh7
_symmetry_space_group_name_H-M   'P 1'
_cell_length_a   3.83215000
_cell_length_b   10.65601500
_cell_length_c   12.36914400
_cell_angle_alpha   90.00000000
_cell_angle_beta   90.00000000
_cell_angle_gamma   90.00000000
_symmetry_Int_Tables_number   1
_chemical_formula_structural   DyYFe3P6Rh7
_chemical_formula_sum   'Dy2 Y2 Fe6 P12 Rh14'
_cell_volume   505.09953516
_cell_formula_units_Z   2
loop_
 _symmetry_equiv_pos_site_id
 _symmetry_equiv_pos_as_xyz
  1  'x, y, z'
loop_
 _atom_site_type_symbol
 _atom_site_label
 _atom_site_symmetry_multiplicity
 _atom_site_fract_x
 _atom_site_fract_y
 _atom_site_fract_z
 _atom_site_occupancy
  Dy  Dy0  1  0.750000  0.415639  0.291034  1
  Dy  Dy1  1  0.750000  0.084361  0.791034  1
  Y  Y2  1  0.250000  0.576822  0.710742  1
  Y  Y3  1  0.250000  0.923178  0.210742  1
  Fe  Fe4  1  0.750000  0.123441  0.302112  1
  Fe  Fe5  1  0.750000  0.376559  0.802112  1
  Fe  Fe6  1  0.250000  0.459837  0.933074  1
  Fe  Fe7  1  0.250000  0.040163  0.433074  1
  Fe  Fe8  1  0.750000  0.539617  0.064959  1
  Fe  Fe9  1  0.750000  0.960383  0.564959  1
  P  P10  1  0.250000  0.430734  0.106059  1
  P  P11  1  0.250000  0.069266  0.606059  1
  P  P12  1  0.750000  0.558982  0.888400  1
  P  P13  1  0.750000  0.941018  0.388400  1
  P  P14  1  0.250000  0.274415  0.863868  1
  P  P15  1  0.250000  0.225585  0.363868  1
  P  P16  1  0.750000  0.731495  0.130090  1
  P  P17  1  0.750000  0.768505  0.630090  1
  P  P18  1  0.250000  0.600153  0.390158  1
  P  P19  1  0.250000  0.899847  0.890158  1
  P  P20  1  0.750000  0.397131  0.619637  1
  P  P21  1  0.750000  0.102869  0.119637  1
  Rh  Rh22  1  0.250000  0.716227  0.991678  1
  Rh  Rh23  1  0.250000  0.783773  0.491678  1
  Rh  Rh24  1  0.750000  0.285812  0.009138  1
  Rh  Rh25  1  0.750000  0.214188  0.509138  1
  Rh  Rh26  1  0.250000  0.405179  0.477616  1
  Rh  Rh27  1  0.250000  0.094821  0.977616  1
  Rh  Rh28  1  0.750000  0.588355  0.519316  1
  Rh  Rh29  1  0.750000  0.911645  0.019316  1
  Rh  Rh30  1  0.250000  0.228715  0.174567  1
  Rh  Rh31  1  0.250000  0.271285  0.674567  1
  Rh  Rh32  1  0.750000  0.764570  0.825672  1
  Rh  Rh33  1  0.750000  0.735430  0.325672  1
  Rh  Rh34  1  0.250000  0.881434  0.701882  1
  Rh  Rh35  1  0.250000  0.618566  0.201882  1
