# generated using pymatgen
data_Hf8Ga(Si5Mo4)3
_symmetry_space_group_name_H-M   'P 1'
_cell_length_a   6.58158820
_cell_length_b   6.77205917
_cell_length_c   12.65716739
_cell_angle_alpha   90.09144662
_cell_angle_beta   89.97149444
_cell_angle_gamma   89.99733447
_symmetry_Int_Tables_number   1
_chemical_formula_structural   Hf8Ga(Si5Mo4)3
_chemical_formula_sum   'Hf8 Ga1 Si15 Mo12'
_cell_volume   564.14061373
_cell_formula_units_Z   1
loop_
 _symmetry_equiv_pos_site_id
 _symmetry_equiv_pos_as_xyz
  1  'x, y, z'
loop_
 _atom_site_type_symbol
 _atom_site_label
 _atom_site_symmetry_multiplicity
 _atom_site_fract_x
 _atom_site_fract_y
 _atom_site_fract_z
 _atom_site_occupancy
  Hf  Hf0  1  0.994117  0.172459  0.092716  1
  Hf  Hf1  1  0.005590  0.828303  0.907359  1
  Hf  Hf2  1  0.505280  0.671379  0.907688  1
  Hf  Hf3  1  0.005846  0.831702  0.592395  1
  Hf  Hf4  1  0.494259  0.328740  0.092415  1
  Hf  Hf5  1  0.991619  0.169545  0.406212  1
  Hf  Hf6  1  0.496902  0.327502  0.405899  1
  Hf  Hf7  1  0.509662  0.673164  0.592719  1
  Ga  Ga8  1  0.172888  0.459205  0.542989  1
  Si  Si9  1  0.032326  0.125168  0.749553  1
  Si  Si10  1  0.966906  0.879440  0.248419  1
  Si  Si11  1  0.467533  0.622373  0.249457  1
  Si  Si12  1  0.529983  0.377794  0.750544  1
  Si  Si13  1  0.300794  0.859846  0.750711  1
  Si  Si14  1  0.699145  0.138082  0.249152  1
  Si  Si15  1  0.199529  0.362604  0.250620  1
  Si  Si16  1  0.801766  0.637842  0.749907  1
  Si  Si17  1  0.833661  0.540713  0.456770  1
  Si  Si18  1  0.332067  0.959656  0.457696  1
  Si  Si19  1  0.832804  0.540498  0.042893  1
  Si  Si20  1  0.667146  0.040384  0.542371  1
  Si  Si21  1  0.167328  0.458721  0.957719  1
  Si  Si22  1  0.667268  0.040122  0.957154  1
  Si  Si23  1  0.332458  0.959447  0.043332  1
  Mo  Mo24  1  0.166977  0.513225  0.753329  1
  Mo  Mo25  1  0.831857  0.485725  0.249666  1
  Mo  Mo26  1  0.331716  0.014355  0.249549  1
  Mo  Mo27  1  0.669738  0.985098  0.751076  1
  Mo  Mo28  1  0.335058  0.156822  0.626192  1
  Mo  Mo29  1  0.668844  0.835703  0.375958  1
  Mo  Mo30  1  0.166577  0.671620  0.372769  1
  Mo  Mo31  1  0.669003  0.835593  0.122830  1
  Mo  Mo32  1  0.824207  0.334693  0.624270  1
  Mo  Mo33  1  0.330559  0.162986  0.877751  1
  Mo  Mo34  1  0.829580  0.335515  0.877042  1
  Mo  Mo35  1  0.169009  0.663976  0.122878  1
