# generated using pymatgen
data_BaPu2(CoH6)2
_symmetry_space_group_name_H-M   'P 1'
_cell_length_a   4.86549900
_cell_length_b   4.86549898
_cell_length_c   8.43562600
_cell_angle_alpha   90.00000000
_cell_angle_beta   90.00000000
_cell_angle_gamma   119.99999335
_symmetry_Int_Tables_number   1
_chemical_formula_structural   BaPu2(CoH6)2
_chemical_formula_sum   'Ba1 Pu2 Co2 H12'
_cell_volume   172.94290545
_cell_formula_units_Z   1
loop_
 _symmetry_equiv_pos_site_id
 _symmetry_equiv_pos_as_xyz
  1  'x, y, z'
loop_
 _atom_site_type_symbol
 _atom_site_label
 _atom_site_symmetry_multiplicity
 _atom_site_fract_x
 _atom_site_fract_y
 _atom_site_fract_z
 _atom_site_occupancy
  Ba  Ba0  1  0.000000  0.000000  0.000000  1
  Pu  Pu1  1  0.666667  0.333333  0.371722  1
  Pu  Pu2  1  0.333333  0.666667  0.628278  1
  Co  Co3  1  0.666667  0.333333  0.733078  1
  Co  Co4  1  0.333333  0.666667  0.266922  1
  H  H5  1  0.178416  0.821584  0.377416  1
  H  H6  1  0.643167  0.821584  0.377416  1
  H  H7  1  0.178416  0.356833  0.377416  1
  H  H8  1  0.821584  0.178416  0.622584  1
  H  H9  1  0.356833  0.178416  0.622584  1
  H  H10  1  0.821584  0.643167  0.622584  1
  H  H11  1  0.509398  0.018797  0.837887  1
  H  H12  1  0.509398  0.490602  0.837887  1
  H  H13  1  0.981203  0.490602  0.837887  1
  H  H14  1  0.490602  0.981203  0.162113  1
  H  H15  1  0.490602  0.509398  0.162113  1
  H  H16  1  0.018797  0.509398  0.162113  1
