# generated using pymatgen
data_Ho9Al(Co2Au)2
_symmetry_space_group_name_H-M   'P 1'
_cell_length_a   8.50261891
_cell_length_b   8.50268222
_cell_length_c   8.50361500
_cell_angle_alpha   129.33773919
_cell_angle_beta   129.34800464
_cell_angle_gamma   74.44916018
_symmetry_Int_Tables_number   1
_chemical_formula_structural   Ho9Al(Co2Au)2
_chemical_formula_sum   'Ho9 Al1 Co4 Au2'
_cell_volume   358.37004839
_cell_formula_units_Z   1
loop_
 _symmetry_equiv_pos_site_id
 _symmetry_equiv_pos_as_xyz
  1  'x, y, z'
loop_
 _atom_site_type_symbol
 _atom_site_label
 _atom_site_symmetry_multiplicity
 _atom_site_fract_x
 _atom_site_fract_y
 _atom_site_fract_z
 _atom_site_occupancy
  Ho  Ho0  1  0.708134  0.556993  0.527704  1
  Ho  Ho1  1  0.442889  0.970436  0.150686  1
  Ho  Ho2  1  0.819731  0.292185  0.849299  1
  Ho  Ho3  1  0.557111  0.029564  0.849314  1
  Ho  Ho4  1  0.029295  0.180456  0.472303  1
  Ho  Ho5  1  0.291866  0.443007  0.472296  1
  Ho  Ho6  1  0.180269  0.707815  0.150701  1
  Ho  Ho7  1  0.970705  0.819544  0.527697  1
  Ho  Ho8  1  0.500000  0.500000  0.000000  1
  Al  Al9  1  0.000000  0.000000  0.000000  1
  Co  Co10  1  0.117331  0.626730  0.744069  1
  Co  Co11  1  0.882669  0.373270  0.255931  1
  Co  Co12  1  0.626394  0.882615  0.509009  1
  Co  Co13  1  0.373606  0.117385  0.490991  1
  Au  Au14  1  0.261564  0.261560  0.999986  1
  Au  Au15  1  0.738436  0.738440  0.000014  1
