# generated using pymatgen
data_Eu4Co15P12Ru5
_symmetry_space_group_name_H-M   'P 1'
_cell_length_a   3.71372800
_cell_length_b   10.52101961
_cell_length_c   11.90659518
_cell_angle_alpha   90.22628819
_cell_angle_beta   90.00000000
_cell_angle_gamma   90.00000000
_symmetry_Int_Tables_number   1
_chemical_formula_structural   Eu4Co15P12Ru5
_chemical_formula_sum   'Eu4 Co15 P12 Ru5'
_cell_volume   465.21330099
_cell_formula_units_Z   1
loop_
 _symmetry_equiv_pos_site_id
 _symmetry_equiv_pos_as_xyz
  1  'x, y, z'
loop_
 _atom_site_type_symbol
 _atom_site_label
 _atom_site_symmetry_multiplicity
 _atom_site_fract_x
 _atom_site_fract_y
 _atom_site_fract_z
 _atom_site_occupancy
  Eu  Eu0  1  0.250000  0.588150  0.705559  1
  Eu  Eu1  1  0.250000  0.913592  0.203590  1
  Eu  Eu2  1  0.750000  0.413159  0.291988  1
  Eu  Eu3  1  0.750000  0.086103  0.796350  1
  Co  Co4  1  0.250000  0.091780  0.991749  1
  Co  Co5  1  0.750000  0.598854  0.509652  1
  Co  Co6  1  0.750000  0.907847  0.007991  1
  Co  Co7  1  0.250000  0.218287  0.174410  1
  Co  Co8  1  0.250000  0.276852  0.679492  1
  Co  Co9  1  0.750000  0.781091  0.824570  1
  Co  Co10  1  0.750000  0.720571  0.323492  1
  Co  Co11  1  0.250000  0.885854  0.700191  1
  Co  Co12  1  0.250000  0.616172  0.198388  1
  Co  Co13  1  0.750000  0.114032  0.299995  1
  Co  Co14  1  0.750000  0.385914  0.800946  1
  Co  Co15  1  0.250000  0.464854  0.933234  1
  Co  Co16  1  0.250000  0.034604  0.433376  1
  Co  Co17  1  0.750000  0.535911  0.066007  1
  Co  Co18  1  0.750000  0.963364  0.566271  1
  P  P19  1  0.250000  0.419914  0.111514  1
  P  P20  1  0.250000  0.078823  0.612693  1
  P  P21  1  0.750000  0.580627  0.887807  1
  P  P22  1  0.750000  0.920100  0.387066  1
  P  P23  1  0.250000  0.273252  0.868063  1
  P  P24  1  0.250000  0.223818  0.364728  1
  P  P25  1  0.750000  0.726561  0.132913  1
  P  P26  1  0.750000  0.773736  0.633614  1
  P  P27  1  0.250000  0.601514  0.388013  1
  P  P28  1  0.250000  0.902558  0.890396  1
  P  P29  1  0.750000  0.400541  0.612875  1
  P  P30  1  0.750000  0.097491  0.109281  1
  Ru  Ru31  1  0.250000  0.714859  0.988733  1
  Ru  Ru32  1  0.250000  0.788071  0.488712  1
  Ru  Ru33  1  0.750000  0.285033  0.010131  1
  Ru  Ru34  1  0.750000  0.208186  0.515487  1
  Ru  Ru35  1  0.250000  0.407923  0.490719  1
