# generated using pymatgen
data_Ti8ReSi6WC2
_symmetry_space_group_name_H-M   'P 1'
_cell_length_a   7.42538100
_cell_length_b   7.42538025
_cell_length_c   5.16330800
_cell_angle_alpha   90.00000000
_cell_angle_beta   90.00000000
_cell_angle_gamma   119.99999889
_symmetry_Int_Tables_number   1
_chemical_formula_structural   Ti8ReSi6WC2
_chemical_formula_sum   'Ti8 Re1 Si6 W1 C2'
_cell_volume   246.54494910
_cell_formula_units_Z   1
loop_
 _symmetry_equiv_pos_site_id
 _symmetry_equiv_pos_as_xyz
  1  'x, y, z'
loop_
 _atom_site_type_symbol
 _atom_site_label
 _atom_site_symmetry_multiplicity
 _atom_site_fract_x
 _atom_site_fract_y
 _atom_site_fract_z
 _atom_site_occupancy
  Ti  Ti0  1  0.666667  0.333333  0.500000  1
  Ti  Ti1  1  0.333333  0.666667  0.500000  1
  Ti  Ti2  1  0.230804  0.999278  0.252280  1
  Ti  Ti3  1  0.768474  0.999278  0.747720  1
  Ti  Ti4  1  0.000722  0.231526  0.252280  1
  Ti  Ti5  1  0.000722  0.769196  0.747720  1
  Ti  Ti6  1  0.768474  0.769196  0.252280  1
  Ti  Ti7  1  0.230804  0.231526  0.747720  1
  Re  Re8  1  0.666667  0.333333  0.000000  1
  Si  Si9  1  0.594238  0.001525  0.239411  1
  Si  Si10  1  0.407287  0.001525  0.760589  1
  Si  Si11  1  0.998475  0.592713  0.239411  1
  Si  Si12  1  0.998475  0.405762  0.760589  1
  Si  Si13  1  0.407287  0.405762  0.239411  1
  Si  Si14  1  0.594238  0.592713  0.760589  1
  W  W15  1  0.333333  0.666667  0.000000  1
  C  C16  1  0.000000  0.000000  0.000000  1
  C  C17  1  0.000000  0.000000  0.500000  1
