# generated using pymatgen
data_La5(AuC)2
_symmetry_space_group_name_H-M   'P 1'
_cell_length_a   8.75256100
_cell_length_b   13.35444800
_cell_length_c   4.08718600
_cell_angle_alpha   90.00000000
_cell_angle_beta   90.00000000
_cell_angle_gamma   90.00000000
_symmetry_Int_Tables_number   1
_chemical_formula_structural   La5(AuC)2
_chemical_formula_sum   'La10 Au4 C4'
_cell_volume   477.73327270
_cell_formula_units_Z   2
loop_
 _symmetry_equiv_pos_site_id
 _symmetry_equiv_pos_as_xyz
  1  'x, y, z'
loop_
 _atom_site_type_symbol
 _atom_site_label
 _atom_site_symmetry_multiplicity
 _atom_site_fract_x
 _atom_site_fract_y
 _atom_site_fract_z
 _atom_site_occupancy
  La  La0  1  0.500000  0.000000  0.000000  1
  La  La1  1  0.169483  0.204182  0.000000  1
  La  La2  1  0.669484  0.295818  0.000000  1
  La  La3  1  0.000000  0.500000  0.000000  1
  La  La4  1  0.330517  0.704182  0.000000  1
  La  La5  1  0.830517  0.795818  0.000000  1
  La  La6  1  0.843038  0.060441  0.499998  1
  La  La7  1  0.343038  0.439559  0.499998  1
  La  La8  1  0.656963  0.560441  0.499998  1
  La  La9  1  0.156963  0.939559  0.499998  1
  Au  Au10  1  0.455385  0.172818  0.499998  1
  Au  Au11  1  0.955385  0.327182  0.499998  1
  Au  Au12  1  0.044614  0.672818  0.499998  1
  Au  Au13  1  0.544616  0.827182  0.499998  1
  C  C14  1  0.040927  0.044625  0.000000  1
  C  C15  1  0.540926  0.455375  0.000000  1
  C  C16  1  0.459073  0.544625  0.000000  1
  C  C17  1  0.959074  0.955375  0.000000  1
