# generated using pymatgen
data_Y5HoTa2(Co4P3)4
_symmetry_space_group_name_H-M   'P 1'
_cell_length_a   3.71030000
_cell_length_b   10.64609931
_cell_length_c   12.33818236
_cell_angle_alpha   90.02754562
_cell_angle_beta   90.00000000
_cell_angle_gamma   90.00000000
_symmetry_Int_Tables_number   1
_chemical_formula_structural   Y5HoTa2(Co4P3)4
_chemical_formula_sum   'Y5 Ho1 Ta2 Co16 P12'
_cell_volume   487.36088905
_cell_formula_units_Z   1
loop_
 _symmetry_equiv_pos_site_id
 _symmetry_equiv_pos_as_xyz
  1  'x, y, z'
loop_
 _atom_site_type_symbol
 _atom_site_label
 _atom_site_symmetry_multiplicity
 _atom_site_fract_x
 _atom_site_fract_y
 _atom_site_fract_z
 _atom_site_occupancy
  Y  Y0  1  0.000000  0.500049  0.526196  1
  Y  Y1  1  0.500000  0.999966  0.473828  1
  Y  Y2  1  0.500000  0.179573  0.205002  1
  Y  Y3  1  0.000000  0.679564  0.794874  1
  Y  Y4  1  0.000000  0.320435  0.794926  1
  Ho  Ho5  1  0.500000  0.820450  0.205086  1
  Ta  Ta6  1  0.500000  0.500131  0.156189  1
  Ta  Ta7  1  0.000000  0.999956  0.843844  1
  Co  Co8  1  0.500000  0.500011  0.701977  1
  Co  Co9  1  0.000000  0.999467  0.297751  1
  Co  Co10  1  0.000000  0.500116  0.986954  1
  Co  Co11  1  0.500000  0.999825  0.013282  1
  Co  Co12  1  0.500000  0.332778  0.992244  1
  Co  Co13  1  0.500000  0.667395  0.992394  1
  Co  Co14  1  0.000000  0.167079  0.007820  1
  Co  Co15  1  0.000000  0.832792  0.008015  1
  Co  Co16  1  0.500000  0.295393  0.432228  1
  Co  Co17  1  0.500000  0.704664  0.432006  1
  Co  Co18  1  0.000000  0.204592  0.567790  1
  Co  Co19  1  0.000000  0.795389  0.567705  1
  Co  Co20  1  0.500000  0.877982  0.705746  1
  Co  Co21  1  0.500000  0.122017  0.705718  1
  Co  Co22  1  0.000000  0.622370  0.294083  1
  Co  Co23  1  0.000000  0.378049  0.294271  1
  P  P24  1  0.500000  0.500018  0.881826  1
  P  P25  1  0.000000  0.999580  0.118280  1
  P  P26  1  0.500000  0.499977  0.355847  1
  P  P27  1  0.000000  0.999991  0.644186  1
  P  P28  1  0.500000  0.310854  0.615578  1
  P  P29  1  0.500000  0.689166  0.615519  1
  P  P30  1  0.000000  0.189152  0.384423  1
  P  P31  1  0.000000  0.810786  0.384024  1
  P  P32  1  0.500000  0.841323  0.893347  1
  P  P33  1  0.500000  0.158676  0.893442  1
  P  P34  1  0.000000  0.659113  0.106983  1
  P  P35  1  0.000000  0.341324  0.106619  1
