# generated using pymatgen
data_HoEr2Tm5Au4
_symmetry_space_group_name_H-M   'P 1'
_cell_length_a   4.88149500
_cell_length_b   7.09535723
_cell_length_c   8.86025000
_cell_angle_alpha   89.82202432
_cell_angle_beta   90.00000000
_cell_angle_gamma   90.00000000
_symmetry_Int_Tables_number   1
_chemical_formula_structural   HoEr2Tm5Au4
_chemical_formula_sum   'Ho1 Er2 Tm5 Au4'
_cell_volume   306.88170295
_cell_formula_units_Z   1
loop_
 _symmetry_equiv_pos_site_id
 _symmetry_equiv_pos_as_xyz
  1  'x, y, z'
loop_
 _atom_site_type_symbol
 _atom_site_label
 _atom_site_symmetry_multiplicity
 _atom_site_fract_x
 _atom_site_fract_y
 _atom_site_fract_z
 _atom_site_occupancy
  Ho  Ho0  1  0.750000  0.014510  0.676956  1
  Er  Er1  1  0.250000  0.985367  0.322770  1
  Er  Er2  1  0.750000  0.514660  0.823581  1
  Tm  Tm3  1  0.250000  0.851432  0.921574  1
  Tm  Tm4  1  0.250000  0.352057  0.579093  1
  Tm  Tm5  1  0.750000  0.148777  0.079742  1
  Tm  Tm6  1  0.750000  0.648073  0.419656  1
  Tm  Tm7  1  0.250000  0.485105  0.176311  1
  Au  Au8  1  0.250000  0.255605  0.901069  1
  Au  Au9  1  0.250000  0.754819  0.600016  1
  Au  Au10  1  0.750000  0.744271  0.099948  1
  Au  Au11  1  0.750000  0.245327  0.399283  1
