# generated using pymatgen
data_YbHf(Si7Ir3)2
_symmetry_space_group_name_H-M   'P 1'
_cell_length_a   8.00890398
_cell_length_b   8.00890482
_cell_length_c   8.00890467
_cell_angle_alpha   56.51238639
_cell_angle_beta   56.51238420
_cell_angle_gamma   56.51238332
_symmetry_Int_Tables_number   1
_chemical_formula_structural   YbHf(Si7Ir3)2
_chemical_formula_sum   'Yb1 Hf1 Si14 Ir6'
_cell_volume   333.96870428
_cell_formula_units_Z   1
loop_
 _symmetry_equiv_pos_site_id
 _symmetry_equiv_pos_as_xyz
  1  'x, y, z'
loop_
 _atom_site_type_symbol
 _atom_site_label
 _atom_site_symmetry_multiplicity
 _atom_site_fract_x
 _atom_site_fract_y
 _atom_site_fract_z
 _atom_site_occupancy
  Yb  Yb0  1  0.000000  0.000000  0.000000  1
  Hf  Hf1  1  0.500000  0.500000  0.500000  1
  Si  Si2  1  0.750117  0.750117  0.750117  1
  Si  Si3  1  0.249883  0.249883  0.249883  1
  Si  Si4  1  0.851791  0.065454  0.672616  1
  Si  Si5  1  0.672616  0.851791  0.065454  1
  Si  Si6  1  0.065454  0.672616  0.851791  1
  Si  Si7  1  0.650921  0.827388  0.435950  1
  Si  Si8  1  0.435950  0.650921  0.827388  1
  Si  Si9  1  0.827388  0.435950  0.650921  1
  Si  Si10  1  0.172612  0.564050  0.349079  1
  Si  Si11  1  0.564050  0.349079  0.172612  1
  Si  Si12  1  0.349079  0.172612  0.564050  1
  Si  Si13  1  0.934546  0.327384  0.148209  1
  Si  Si14  1  0.327384  0.148209  0.934546  1
  Si  Si15  1  0.148209  0.934546  0.327384  1
  Ir  Ir16  1  0.077159  0.432576  0.744443  1
  Ir  Ir17  1  0.255557  0.922841  0.567424  1
  Ir  Ir18  1  0.567424  0.255557  0.922841  1
  Ir  Ir19  1  0.922841  0.567424  0.255557  1
  Ir  Ir20  1  0.432576  0.744443  0.077159  1
  Ir  Ir21  1  0.744443  0.077159  0.432576  1
