# generated using pymatgen
data_Tb(ZnAu)3
_symmetry_space_group_name_H-M   'P 1'
_cell_length_a   5.50190430
_cell_length_b   5.50190278
_cell_length_c   5.68249531
_cell_angle_alpha   102.73454452
_cell_angle_beta   102.73453068
_cell_angle_gamma   123.00148524
_symmetry_Int_Tables_number   1
_chemical_formula_structural   Tb(ZnAu)3
_chemical_formula_sum   'Tb1 Zn3 Au3'
_cell_volume   127.94347862
_cell_formula_units_Z   1
loop_
 _symmetry_equiv_pos_site_id
 _symmetry_equiv_pos_as_xyz
  1  'x, y, z'
loop_
 _atom_site_type_symbol
 _atom_site_label
 _atom_site_symmetry_multiplicity
 _atom_site_fract_x
 _atom_site_fract_y
 _atom_site_fract_z
 _atom_site_occupancy
  Tb  Tb0  1  0.004024  0.004024  0.008047  1
  Zn  Zn1  1  0.247563  0.747563  0.495125  1
  Zn  Zn2  1  0.747563  0.247563  0.495125  1
  Zn  Zn3  1  0.305449  0.305449  0.610899  1
  Au  Au4  1  0.708830  0.708830  0.417663  1
  Au  Au5  1  0.680868  0.305703  0.986571  1
  Au  Au6  1  0.305703  0.680868  0.986571  1
