# generated using pymatgen
data_ErTm3Co5(Ni3B2)3
_symmetry_space_group_name_H-M   'P 1'
_cell_length_a   4.95221262
_cell_length_b   4.95221229
_cell_length_c   13.01428500
_cell_angle_alpha   90.00000000
_cell_angle_beta   90.00000000
_cell_angle_gamma   119.72573105
_symmetry_Int_Tables_number   1
_chemical_formula_structural   ErTm3Co5(Ni3B2)3
_chemical_formula_sum   'Er1 Tm3 Co5 Ni9 B6'
_cell_volume   277.16802387
_cell_formula_units_Z   1
loop_
 _symmetry_equiv_pos_site_id
 _symmetry_equiv_pos_as_xyz
  1  'x, y, z'
loop_
 _atom_site_type_symbol
 _atom_site_label
 _atom_site_symmetry_multiplicity
 _atom_site_fract_x
 _atom_site_fract_y
 _atom_site_fract_z
 _atom_site_occupancy
  Er  Er0  1  0.000000  0.000000  0.001029  1
  Tm  Tm1  1  0.000000  0.000000  0.498529  1
  Tm  Tm2  1  0.000000  0.000000  0.738436  1
  Tm  Tm3  1  0.000000  0.000000  0.262628  1
  Co  Co4  1  0.500000  0.000000  0.616398  1
  Co  Co5  1  0.000000  0.500000  0.616398  1
  Co  Co6  1  0.500000  0.500000  0.382706  1
  Co  Co7  1  0.500000  0.000000  0.383203  1
  Co  Co8  1  0.000000  0.500000  0.383203  1
  Ni  Ni9  1  0.666274  0.333726  0.000222  1
  Ni  Ni10  1  0.333726  0.666274  0.000222  1
  Ni  Ni11  1  0.500000  0.500000  0.843468  1
  Ni  Ni12  1  0.500000  0.000000  0.843979  1
  Ni  Ni13  1  0.000000  0.500000  0.843979  1
  Ni  Ni14  1  0.500000  0.500000  0.157075  1
  Ni  Ni15  1  0.500000  0.000000  0.156686  1
  Ni  Ni16  1  0.000000  0.500000  0.156686  1
  Ni  Ni17  1  0.500000  0.500000  0.616466  1
  B  B18  1  0.669150  0.330850  0.498528  1
  B  B19  1  0.330850  0.669150  0.498528  1
  B  B20  1  0.669974  0.330026  0.731284  1
  B  B21  1  0.330026  0.669974  0.731284  1
  B  B22  1  0.332979  0.667021  0.269531  1
  B  B23  1  0.667021  0.332979  0.269531  1
