# generated using pymatgen
data_NdHo4InHg3Pd2
_symmetry_space_group_name_H-M   'P 1'
_cell_length_a   3.63629800
_cell_length_b   7.97179161
_cell_length_c   18.49400496
_cell_angle_alpha   89.54108021
_cell_angle_beta   90.00000000
_cell_angle_gamma   90.00000000
_symmetry_Int_Tables_number   1
_chemical_formula_structural   NdHo4InHg3Pd2
_chemical_formula_sum   'Nd2 Ho8 In2 Hg6 Pd4'
_cell_volume   536.08350357
_cell_formula_units_Z   2
loop_
 _symmetry_equiv_pos_site_id
 _symmetry_equiv_pos_as_xyz
  1  'x, y, z'
loop_
 _atom_site_type_symbol
 _atom_site_label
 _atom_site_symmetry_multiplicity
 _atom_site_fract_x
 _atom_site_fract_y
 _atom_site_fract_z
 _atom_site_occupancy
  Nd  Nd0  1  0.000000  0.500000  0.500000  1
  Nd  Nd1  1  0.000000  0.000000  0.000000  1
  Ho  Ho2  1  0.000000  0.734910  0.286855  1
  Ho  Ho3  1  0.000000  0.265090  0.713145  1
  Ho  Ho4  1  0.000000  0.752668  0.781671  1
  Ho  Ho5  1  0.000000  0.247332  0.218329  1
  Ho  Ho6  1  0.000000  0.613446  0.084352  1
  Ho  Ho7  1  0.000000  0.386554  0.915648  1
  Ho  Ho8  1  0.000000  0.885170  0.585173  1
  Ho  Ho9  1  0.000000  0.114830  0.414827  1
  In  In10  1  0.500000  0.920661  0.153632  1
  In  In11  1  0.500000  0.079339  0.846368  1
  Hg  Hg12  1  0.500000  0.707648  0.930453  1
  Hg  Hg13  1  0.500000  0.292352  0.069547  1
  Hg  Hg14  1  0.500000  0.797114  0.432966  1
  Hg  Hg15  1  0.500000  0.202886  0.567034  1
  Hg  Hg16  1  0.500000  0.584075  0.650130  1
  Hg  Hg17  1  0.500000  0.415925  0.349870  1
  Pd  Pd18  1  0.500000  0.534794  0.196674  1
  Pd  Pd19  1  0.500000  0.465206  0.803326  1
  Pd  Pd20  1  0.500000  0.972548  0.697193  1
  Pd  Pd21  1  0.500000  0.027452  0.302807  1
