# generated using pymatgen
data_YbY6CoI12
_symmetry_space_group_name_H-M   'P 1'
_cell_length_a   9.77868468
_cell_length_b   9.77868314
_cell_length_c   9.77868426
_cell_angle_alpha   107.09173463
_cell_angle_beta   107.09172886
_cell_angle_gamma   107.09173096
_symmetry_Int_Tables_number   1
_chemical_formula_structural   YbY6CoI12
_chemical_formula_sum   'Yb1 Y6 Co1 I12'
_cell_volume   776.77319623
_cell_formula_units_Z   1
loop_
 _symmetry_equiv_pos_site_id
 _symmetry_equiv_pos_as_xyz
  1  'x, y, z'
loop_
 _atom_site_type_symbol
 _atom_site_label
 _atom_site_symmetry_multiplicity
 _atom_site_fract_x
 _atom_site_fract_y
 _atom_site_fract_z
 _atom_site_occupancy
  Yb  Yb0  1  0.500000  0.500000  0.500000  1
  Y  Y1  1  0.708102  0.976750  0.906635  1
  Y  Y2  1  0.976750  0.906635  0.708102  1
  Y  Y3  1  0.093365  0.291898  0.023250  1
  Y  Y4  1  0.291898  0.023250  0.093365  1
  Y  Y5  1  0.906635  0.708102  0.976750  1
  Y  Y6  1  0.023250  0.093365  0.291898  1
  Co  Co7  1  0.000000  0.000000  0.000000  1
  I  I8  1  0.072377  0.224628  0.680444  1
  I  I9  1  0.378753  0.150197  0.456368  1
  I  I10  1  0.621247  0.849803  0.543632  1
  I  I11  1  0.224628  0.680444  0.072377  1
  I  I12  1  0.775372  0.319556  0.927623  1
  I  I13  1  0.680444  0.072377  0.224628  1
  I  I14  1  0.543632  0.621247  0.849803  1
  I  I15  1  0.849803  0.543632  0.621247  1
  I  I16  1  0.927623  0.775372  0.319556  1
  I  I17  1  0.319556  0.927623  0.775372  1
  I  I18  1  0.456368  0.378753  0.150197  1
  I  I19  1  0.150197  0.456368  0.378753  1
