# generated using pymatgen
data_Y4Ga7SnRh16
_symmetry_space_group_name_H-M   'P 1'
_cell_length_a   4.27606100
_cell_length_b   9.37680097
_cell_length_c   11.42418712
_cell_angle_alpha   89.42060160
_cell_angle_beta   90.00000000
_cell_angle_gamma   90.00000000
_symmetry_Int_Tables_number   1
_chemical_formula_structural   Y4Ga7SnRh16
_chemical_formula_sum   'Y4 Ga7 Sn1 Rh16'
_cell_volume   458.03819196
_cell_formula_units_Z   1
loop_
 _symmetry_equiv_pos_site_id
 _symmetry_equiv_pos_as_xyz
  1  'x, y, z'
loop_
 _atom_site_type_symbol
 _atom_site_label
 _atom_site_symmetry_multiplicity
 _atom_site_fract_x
 _atom_site_fract_y
 _atom_site_fract_z
 _atom_site_occupancy
  Y  Y0  1  0.250000  0.143023  0.826218  1
  Y  Y1  1  0.250000  0.360268  0.322848  1
  Y  Y2  1  0.750000  0.853900  0.173208  1
  Y  Y3  1  0.750000  0.646025  0.675707  1
  Ga  Ga4  1  0.250000  0.414154  0.636551  1
  Ga  Ga5  1  0.250000  0.087341  0.130893  1
  Ga  Ga6  1  0.750000  0.589031  0.363457  1
  Ga  Ga7  1  0.750000  0.909432  0.868191  1
  Ga  Ga8  1  0.250000  0.610274  0.061123  1
  Ga  Ga9  1  0.250000  0.886251  0.562555  1
  Ga  Ga10  1  0.750000  0.388439  0.938549  1
  Sn  Sn11  1  0.750000  0.115812  0.437510  1
  Rh  Rh12  1  0.250000  0.621869  0.499610  1
  Rh  Rh13  1  0.250000  0.876358  0.000671  1
  Rh  Rh14  1  0.750000  0.388837  0.504705  1
  Rh  Rh15  1  0.750000  0.120992  0.996132  1
  Rh  Rh16  1  0.250000  0.698755  0.271729  1
  Rh  Rh17  1  0.250000  0.798488  0.775830  1
  Rh  Rh18  1  0.750000  0.299605  0.729351  1
  Rh  Rh19  1  0.750000  0.204956  0.216815  1
  Rh  Rh20  1  0.250000  0.169134  0.569558  1
  Rh  Rh21  1  0.250000  0.332548  0.060061  1
  Rh  Rh22  1  0.750000  0.827898  0.440382  1
  Rh  Rh23  1  0.750000  0.665412  0.939247  1
  Rh  Rh24  1  0.250000  0.994592  0.336684  1
  Rh  Rh25  1  0.250000  0.500947  0.842918  1
  Rh  Rh26  1  0.750000  0.995862  0.661855  1
  Rh  Rh27  1  0.750000  0.499798  0.157646  1
