# generated using pymatgen
data_Sc20(Si3Sb)3
_symmetry_space_group_name_H-M   'P 1'
_cell_length_a   5.85399300
_cell_length_b   8.01105216
_cell_length_c   13.98227869
_cell_angle_alpha   90.02946321
_cell_angle_beta   90.00000000
_cell_angle_gamma   90.00000000
_symmetry_Int_Tables_number   1
_chemical_formula_structural   Sc20(Si3Sb)3
_chemical_formula_sum   'Sc20 Si9 Sb3'
_cell_volume   655.72184916
_cell_formula_units_Z   1
loop_
 _symmetry_equiv_pos_site_id
 _symmetry_equiv_pos_as_xyz
  1  'x, y, z'
loop_
 _atom_site_type_symbol
 _atom_site_label
 _atom_site_symmetry_multiplicity
 _atom_site_fract_x
 _atom_site_fract_y
 _atom_site_fract_z
 _atom_site_occupancy
  Sc  Sc0  1  0.742180  0.010102  0.333873  1
  Sc  Sc1  1  0.745911  0.503039  0.826715  1
  Sc  Sc2  1  0.742191  0.491509  0.171242  1
  Sc  Sc3  1  0.745880  0.004163  0.671633  1
  Sc  Sc4  1  0.257809  0.491509  0.171242  1
  Sc  Sc5  1  0.254120  0.004163  0.671633  1
  Sc  Sc6  1  0.257820  0.010102  0.333873  1
  Sc  Sc7  1  0.254089  0.503039  0.826715  1
  Sc  Sc8  1  0.000000  0.267499  0.501251  1
  Sc  Sc9  1  0.000000  0.767090  0.991636  1
  Sc  Sc10  1  0.000000  0.608367  0.379351  1
  Sc  Sc11  1  0.000000  0.113864  0.872445  1
  Sc  Sc12  1  0.000000  0.126681  0.125310  1
  Sc  Sc13  1  0.000000  0.612928  0.626337  1
  Sc  Sc14  1  0.500000  0.739421  0.500059  1
  Sc  Sc15  1  0.500000  0.238963  0.999557  1
  Sc  Sc16  1  0.500000  0.877355  0.119949  1
  Sc  Sc17  1  0.500000  0.378568  0.621789  1
  Sc  Sc18  1  0.500000  0.377502  0.378961  1
  Sc  Sc19  1  0.500000  0.876799  0.877420  1
  Si  Si20  1  0.000000  0.302277  0.697157  1
  Si  Si21  1  0.000000  0.301675  0.303922  1
  Si  Si22  1  0.000000  0.802254  0.800469  1
  Si  Si23  1  0.500000  0.608006  0.999407  1
  Si  Si24  1  0.500000  0.109847  0.501867  1
  Si  Si25  1  0.500000  0.695729  0.305704  1
  Si  Si26  1  0.500000  0.197394  0.804860  1
  Si  Si27  1  0.500000  0.193099  0.195475  1
  Si  Si28  1  0.500000  0.697719  0.694843  1
  Sb  Sb29  1  0.000000  0.892069  0.501293  1
  Sb  Sb30  1  0.000000  0.395271  0.997693  1
  Sb  Sb31  1  0.000000  0.801925  0.196305  1
