# generated using pymatgen
data_Er6Lu4TlSb5
_symmetry_space_group_name_H-M   'P 1'
_cell_length_a   8.83244000
_cell_length_b   8.85908066
_cell_length_c   6.29334200
_cell_angle_alpha   90.00000000
_cell_angle_beta   90.00000000
_cell_angle_gamma   119.90057375
_symmetry_Int_Tables_number   1
_chemical_formula_structural   Er6Lu4TlSb5
_chemical_formula_sum   'Er6 Lu4 Tl1 Sb5'
_cell_volume   426.88958428
_cell_formula_units_Z   1
loop_
 _symmetry_equiv_pos_site_id
 _symmetry_equiv_pos_as_xyz
  1  'x, y, z'
loop_
 _atom_site_type_symbol
 _atom_site_label
 _atom_site_symmetry_multiplicity
 _atom_site_fract_x
 _atom_site_fract_y
 _atom_site_fract_z
 _atom_site_occupancy
  Er  Er0  1  0.004093  0.758429  0.750000  1
  Er  Er1  1  0.997429  0.243435  0.250000  1
  Er  Er2  1  0.753995  0.756565  0.250000  1
  Er  Er3  1  0.758709  0.000000  0.750000  1
  Er  Er4  1  0.245664  0.241571  0.750000  1
  Er  Er5  1  0.241537  0.000000  0.250000  1
  Lu  Lu6  1  0.333872  0.669169  0.499652  1
  Lu  Lu7  1  0.664704  0.330831  0.000348  1
  Lu  Lu8  1  0.664704  0.330831  0.499652  1
  Lu  Lu9  1  0.333872  0.669169  0.000348  1
  Tl  Tl10  1  0.395682  0.000000  0.750000  1
  Sb  Sb11  1  0.389956  0.391695  0.250000  1
  Sb  Sb12  1  0.998260  0.608305  0.250000  1
  Sb  Sb13  1  0.000988  0.391331  0.750000  1
  Sb  Sb14  1  0.609657  0.608669  0.750000  1
  Sb  Sb15  1  0.606875  0.000000  0.250000  1
