# generated using pymatgen
data_Sr6ReBiO12
_symmetry_space_group_name_H-M   'P 1'
_cell_length_a   7.00338963
_cell_length_b   7.00339091
_cell_length_c   7.00339045
_cell_angle_alpha   92.02447442
_cell_angle_beta   92.02447197
_cell_angle_gamma   92.02447091
_symmetry_Int_Tables_number   1
_chemical_formula_structural   Sr6ReBiO12
_chemical_formula_sum   'Sr6 Re1 Bi1 O12'
_cell_volume   342.83984078
_cell_formula_units_Z   1
loop_
 _symmetry_equiv_pos_site_id
 _symmetry_equiv_pos_as_xyz
  1  'x, y, z'
loop_
 _atom_site_type_symbol
 _atom_site_label
 _atom_site_symmetry_multiplicity
 _atom_site_fract_x
 _atom_site_fract_y
 _atom_site_fract_z
 _atom_site_occupancy
  Sr  Sr0  1  0.064017  0.254221  0.564471  1
  Sr  Sr1  1  0.435529  0.935983  0.745779  1
  Sr  Sr2  1  0.745779  0.435529  0.935983  1
  Sr  Sr3  1  0.254221  0.564471  0.064017  1
  Sr  Sr4  1  0.564471  0.064017  0.254221  1
  Sr  Sr5  1  0.935983  0.745779  0.435529  1
  Re  Re6  1  0.500000  0.500000  0.500000  1
  Bi  Bi7  1  0.000000  0.000000  0.000000  1
  O  O8  1  0.068380  0.293405  0.928901  1
  O  O9  1  0.071099  0.931620  0.706595  1
  O  O10  1  0.455081  0.570792  0.760776  1
  O  O11  1  0.706595  0.071099  0.931620  1
  O  O12  1  0.239224  0.544919  0.429208  1
  O  O13  1  0.429208  0.239224  0.544919  1
  O  O14  1  0.570792  0.760776  0.455081  1
  O  O15  1  0.760776  0.455081  0.570792  1
  O  O16  1  0.293405  0.928901  0.068380  1
  O  O17  1  0.544919  0.429208  0.239224  1
  O  O18  1  0.928901  0.068380  0.293405  1
  O  O19  1  0.931620  0.706595  0.071099  1
