# generated using pymatgen
data_CeErTh6(Si3Os)4
_symmetry_space_group_name_H-M   'P 1'
_cell_length_a   8.19626500
_cell_length_b   8.22136009
_cell_length_c   8.36111500
_cell_angle_alpha   90.00000000
_cell_angle_beta   90.00000000
_cell_angle_gamma   119.89908188
_symmetry_Int_Tables_number   1
_chemical_formula_structural   CeErTh6(Si3Os)4
_chemical_formula_sum   'Ce1 Er1 Th6 Si12 Os4'
_cell_volume   488.42201882
_cell_formula_units_Z   1
loop_
 _symmetry_equiv_pos_site_id
 _symmetry_equiv_pos_as_xyz
  1  'x, y, z'
loop_
 _atom_site_type_symbol
 _atom_site_label
 _atom_site_symmetry_multiplicity
 _atom_site_fract_x
 _atom_site_fract_y
 _atom_site_fract_z
 _atom_site_occupancy
  Ce  Ce0  1  0.000003  0.000006  0.750000  1
  Er  Er1  1  0.500084  0.000168  0.750000  1
  Th  Th2  1  0.000010  0.000019  0.250000  1
  Th  Th3  1  0.499787  0.500380  0.250000  1
  Th  Th4  1  0.499800  0.999601  0.250000  1
  Th  Th5  1  0.000593  0.500380  0.250000  1
  Th  Th6  1  0.500342  0.499596  0.750000  1
  Th  Th7  1  0.999252  0.499596  0.750000  1
  Si  Si8  1  0.831050  0.164508  0.506319  1
  Si  Si9  1  0.836518  0.673036  0.500656  1
  Si  Si10  1  0.333457  0.164508  0.506319  1
  Si  Si11  1  0.831050  0.164508  0.993681  1
  Si  Si12  1  0.836518  0.673036  0.999344  1
  Si  Si13  1  0.333457  0.164508  0.993681  1
  Si  Si14  1  0.168927  0.835507  0.993701  1
  Si  Si15  1  0.666582  0.835507  0.993701  1
  Si  Si16  1  0.163522  0.327043  0.999191  1
  Si  Si17  1  0.168927  0.835507  0.506299  1
  Si  Si18  1  0.666582  0.835507  0.506299  1
  Si  Si19  1  0.163522  0.327043  0.500809  1
  Os  Os20  1  0.668905  0.337809  0.498051  1
  Os  Os21  1  0.668905  0.337809  0.001949  1
  Os  Os22  1  0.331104  0.662209  0.000051  1
  Os  Os23  1  0.331104  0.662209  0.499949  1
