# generated using pymatgen
data_Y3Ho3Al24(OsRh)4
_symmetry_space_group_name_H-M   'P 1'
_cell_length_a   8.78261909
_cell_length_b   8.86252014
_cell_length_c   9.56403000
_cell_angle_alpha   89.99984737
_cell_angle_beta   90.00007526
_cell_angle_gamma   120.00189455
_symmetry_Int_Tables_number   1
_chemical_formula_structural   Y3Ho3Al24(OsRh)4
_chemical_formula_sum   'Y3 Ho3 Al24 Os4 Rh4'
_cell_volume   644.68052757
_cell_formula_units_Z   1
loop_
 _symmetry_equiv_pos_site_id
 _symmetry_equiv_pos_as_xyz
  1  'x, y, z'
loop_
 _atom_site_type_symbol
 _atom_site_label
 _atom_site_symmetry_multiplicity
 _atom_site_fract_x
 _atom_site_fract_y
 _atom_site_fract_z
 _atom_site_occupancy
  Y  Y0  1  0.191380  0.382513  0.250000  1
  Y  Y1  1  0.808438  0.617323  0.749998  1
  Y  Y2  1  0.613437  0.812100  0.250000  1
  Ho  Ho3  1  0.387558  0.187896  0.749998  1
  Ho  Ho4  1  0.200557  0.813988  0.250004  1
  Ho  Ho5  1  0.799051  0.186002  0.749999  1
  Al  Al6  1  0.334005  0.667615  0.025240  1
  Al  Al7  1  0.665755  0.332384  0.974336  1
  Al  Al8  1  0.665755  0.332381  0.525660  1
  Al  Al9  1  0.334006  0.667611  0.474760  1
  Al  Al10  1  0.161952  0.325048  0.578015  1
  Al  Al11  1  0.838231  0.674739  0.422249  1
  Al  Al12  1  0.671820  0.836924  0.576070  1
  Al  Al13  1  0.838231  0.674740  0.077748  1
  Al  Al14  1  0.328146  0.163118  0.424356  1
  Al  Al15  1  0.161952  0.325050  0.921987  1
  Al  Al16  1  0.164226  0.836793  0.575881  1
  Al  Al17  1  0.328147  0.163119  0.075642  1
  Al  Al18  1  0.835830  0.163519  0.424438  1
  Al  Al19  1  0.671822  0.836926  0.923932  1
  Al  Al20  1  0.835828  0.163519  0.075561  1
  Al  Al21  1  0.164225  0.836795  0.924123  1
  Al  Al22  1  0.563807  0.127615  0.249999  1
  Al  Al23  1  0.435970  0.872508  0.750003  1
  Al  Al24  1  0.877980  0.440410  0.250000  1
  Al  Al25  1  0.121997  0.559587  0.750002  1
  Al  Al26  1  0.562333  0.439943  0.249997  1
  Al  Al27  1  0.437539  0.559585  0.750001  1
  Al  Al28  1  0.001557  0.001353  0.250001  1
  Al  Al29  1  0.999434  0.999141  0.750001  1
  Os  Os30  1  0.499838  0.000270  0.999594  1
  Os  Os31  1  0.499839  0.000266  0.500406  1
  Os  Os32  1  0.999900  0.999938  0.000019  1
  Os  Os33  1  0.999898  0.999934  0.499982  1
  Rh  Rh34  1  0.999911  0.499938  0.999996  1
  Rh  Rh35  1  0.499865  0.499740  0.999809  1
  Rh  Rh36  1  0.999913  0.499932  0.500006  1
  Rh  Rh37  1  0.499867  0.499738  0.500189  1
