# generated using pymatgen
data_Dy11In9(CoRu)2
_symmetry_space_group_name_H-M   'P 1'
_cell_length_a   3.69917500
_cell_length_b   12.95381541
_cell_length_c   13.02832608
_cell_angle_alpha   112.19937126
_cell_angle_beta   90.00000000
_cell_angle_gamma   90.00000000
_symmetry_Int_Tables_number   1
_chemical_formula_structural   Dy11In9(CoRu)2
_chemical_formula_sum   'Dy11 In9 Co2 Ru2'
_cell_volume   578.02075474
_cell_formula_units_Z   1
loop_
 _symmetry_equiv_pos_site_id
 _symmetry_equiv_pos_as_xyz
  1  'x, y, z'
loop_
 _atom_site_type_symbol
 _atom_site_label
 _atom_site_symmetry_multiplicity
 _atom_site_fract_x
 _atom_site_fract_y
 _atom_site_fract_z
 _atom_site_occupancy
  Dy  Dy0  1  0.000000  0.917859  0.581673  1
  Dy  Dy1  1  0.000000  0.082141  0.418327  1
  Dy  Dy2  1  0.000000  0.581630  0.918623  1
  Dy  Dy3  1  0.000000  0.418370  0.081377  1
  Dy  Dy4  1  0.000000  0.160929  0.838171  1
  Dy  Dy5  1  0.000000  0.839071  0.161829  1
  Dy  Dy6  1  0.000000  0.372326  0.621604  1
  Dy  Dy7  1  0.000000  0.627674  0.378396  1
  Dy  Dy8  1  0.000000  0.688144  0.686654  1
  Dy  Dy9  1  0.000000  0.311856  0.313346  1
  Dy  Dy10  1  0.000000  0.000000  0.000000  1
  In  In11  1  0.500000  0.155997  0.630107  1
  In  In12  1  0.500000  0.844003  0.369893  1
  In  In13  1  0.500000  0.631422  0.158811  1
  In  In14  1  0.500000  0.368578  0.841189  1
  In  In15  1  0.500000  0.924808  0.780705  1
  In  In16  1  0.500000  0.075192  0.219295  1
  In  In17  1  0.500000  0.779985  0.923648  1
  In  In18  1  0.500000  0.220015  0.076352  1
  In  In19  1  0.500000  0.500000  0.500000  1
  Co  Co20  1  0.500000  0.753727  0.549260  1
  Co  Co21  1  0.500000  0.246273  0.450740  1
  Ru  Ru22  1  0.500000  0.548282  0.747420  1
  Ru  Ru23  1  0.500000  0.451718  0.252580  1
