# generated using pymatgen
data_Pr16Ho4Si15Pd
_symmetry_space_group_name_H-M   'P 1'
_cell_length_a   7.88071085
_cell_length_b   7.84065128
_cell_length_c   15.23070404
_cell_angle_alpha   89.89920822
_cell_angle_beta   89.68199908
_cell_angle_gamma   90.26094371
_symmetry_Int_Tables_number   1
_chemical_formula_structural   Pr16Ho4Si15Pd
_chemical_formula_sum   'Pr16 Ho4 Si15 Pd1'
_cell_volume   941.07801177
_cell_formula_units_Z   1
loop_
 _symmetry_equiv_pos_site_id
 _symmetry_equiv_pos_as_xyz
  1  'x, y, z'
loop_
 _atom_site_type_symbol
 _atom_site_label
 _atom_site_symmetry_multiplicity
 _atom_site_fract_x
 _atom_site_fract_y
 _atom_site_fract_z
 _atom_site_occupancy
  Pr  Pr0  1  0.373826  0.011103  0.447214  1
  Pr  Pr1  1  0.490297  0.871057  0.698676  1
  Pr  Pr2  1  0.510991  0.123638  0.196597  1
  Pr  Pr3  1  0.875388  0.486272  0.300909  1
  Pr  Pr4  1  0.122327  0.512170  0.801214  1
  Pr  Pr5  1  0.627966  0.987379  0.949460  1
  Pr  Pr6  1  0.002184  0.375945  0.551358  1
  Pr  Pr7  1  0.988149  0.626225  0.052827  1
  Pr  Pr8  1  0.135042  0.986056  0.875944  1
  Pr  Pr9  1  0.520049  0.631497  0.126868  1
  Pr  Pr10  1  0.474753  0.366591  0.629465  1
  Pr  Pr11  1  0.628042  0.521449  0.873336  1
  Pr  Pr12  1  0.370740  0.479036  0.372125  1
  Pr  Pr13  1  0.873338  0.022825  0.377899  1
  Pr  Pr14  1  0.979589  0.125911  0.122748  1
  Pr  Pr15  1  0.022556  0.876643  0.621409  1
  Ho  Ho16  1  0.309279  0.308950  0.999904  1
  Ho  Ho17  1  0.188493  0.809606  0.250029  1
  Ho  Ho18  1  0.807893  0.187805  0.751162  1
  Ho  Ho19  1  0.689178  0.686498  0.499480  1
  Si  Si20  1  0.329585  0.690600  0.953555  1
  Si  Si21  1  0.664987  0.309149  0.455415  1
  Si  Si22  1  0.693244  0.333180  0.046500  1
  Si  Si23  1  0.310163  0.669886  0.544663  1
  Si  Si24  1  0.810488  0.829807  0.206730  1
  Si  Si25  1  0.170767  0.189816  0.293844  1
  Si  Si26  1  0.834106  0.810109  0.794791  1
  Si  Si27  1  0.286550  0.924001  0.062238  1
  Si  Si28  1  0.578136  0.784802  0.313363  1
  Si  Si29  1  0.436737  0.207862  0.816905  1
  Si  Si30  1  0.784690  0.579783  0.686612  1
  Si  Si31  1  0.213193  0.424807  0.186709  1
  Si  Si32  1  0.708079  0.074071  0.561914  1
  Si  Si33  1  0.922504  0.288307  0.938015  1
  Si  Si34  1  0.077782  0.714107  0.437304  1
  Pd  Pd35  1  0.188910  0.173054  0.702816  1
