# generated using pymatgen
data_Ca3La17Si15Sn
_symmetry_space_group_name_H-M   'P 1'
_cell_length_a   7.94405013
_cell_length_b   7.96223841
_cell_length_c   15.46090900
_cell_angle_alpha   89.99189737
_cell_angle_beta   90.13215318
_cell_angle_gamma   90.01664846
_symmetry_Int_Tables_number   1
_chemical_formula_structural   Ca3La17Si15Sn
_chemical_formula_sum   'Ca3 La17 Si15 Sn1'
_cell_volume   977.93727475
_cell_formula_units_Z   1
loop_
 _symmetry_equiv_pos_site_id
 _symmetry_equiv_pos_as_xyz
  1  'x, y, z'
loop_
 _atom_site_type_symbol
 _atom_site_label
 _atom_site_symmetry_multiplicity
 _atom_site_fract_x
 _atom_site_fract_y
 _atom_site_fract_z
 _atom_site_occupancy
  Ca  Ca0  1  0.190364  0.808174  0.755687  1
  Ca  Ca1  1  0.810250  0.190425  0.247655  1
  Ca  Ca2  1  0.690343  0.690760  0.000291  1
  La  La3  1  0.482547  0.373026  0.125801  1
  La  La4  1  0.966131  0.135265  0.628633  1
  La  La5  1  0.874865  0.018785  0.877683  1
  La  La6  1  0.124006  0.980949  0.372996  1
  La  La7  1  0.525886  0.617351  0.628752  1
  La  La8  1  0.374298  0.482311  0.874993  1
  La  La9  1  0.627622  0.519637  0.369783  1
  La  La10  1  0.017877  0.875080  0.121918  1
  La  La11  1  0.628369  0.990299  0.443822  1
  La  La12  1  0.376735  0.010871  0.950310  1
  La  La13  1  0.985858  0.616440  0.552997  1
  La  La14  1  0.489065  0.877273  0.197154  1
  La  La15  1  0.518967  0.133114  0.707246  1
  La  La16  1  0.879949  0.489273  0.805239  1
  La  La17  1  0.123226  0.508609  0.298032  1
  La  La18  1  0.011316  0.375939  0.050881  1
  La  La19  1  0.304418  0.319476  0.498179  1
  Si  Si20  1  0.712119  0.080829  0.059898  1
  Si  Si21  1  0.921062  0.287583  0.437632  1
  Si  Si22  1  0.418614  0.210101  0.309029  1
  Si  Si23  1  0.580523  0.787282  0.812374  1
  Si  Si24  1  0.211154  0.420117  0.691903  1
  Si  Si25  1  0.788162  0.581099  0.186503  1
  Si  Si26  1  0.082151  0.712121  0.941313  1
  Si  Si27  1  0.801572  0.829469  0.706442  1
  Si  Si28  1  0.201132  0.165271  0.200933  1
  Si  Si29  1  0.833107  0.800832  0.292631  1
  Si  Si30  1  0.330525  0.689489  0.447103  1
  Si  Si31  1  0.667328  0.299512  0.953710  1
  Si  Si32  1  0.691293  0.328142  0.540031  1
  Si  Si33  1  0.301784  0.667842  0.047327  1
  Si  Si34  1  0.168328  0.199414  0.798767  1
  Sn  Sn35  1  0.289050  0.927839  0.566351  1
