# generated using pymatgen
data_PaSnSe
_symmetry_space_group_name_H-M   'P 1'
_cell_length_a   4.13708600
_cell_length_b   4.13708600
_cell_length_c   8.71080800
_cell_angle_alpha   90.00000000
_cell_angle_beta   90.00000000
_cell_angle_gamma   90.00000000
_symmetry_Int_Tables_number   1
_chemical_formula_structural   PaSnSe
_chemical_formula_sum   'Pa2 Sn2 Se2'
_cell_volume   149.08966509
_cell_formula_units_Z   2
loop_
 _symmetry_equiv_pos_site_id
 _symmetry_equiv_pos_as_xyz
  1  'x, y, z'
loop_
 _atom_site_type_symbol
 _atom_site_label
 _atom_site_symmetry_multiplicity
 _atom_site_fract_x
 _atom_site_fract_y
 _atom_site_fract_z
 _atom_site_occupancy
  Pa  Pa0  1  0.000000  0.500000  0.701752  1
  Pa  Pa1  1  0.500000  0.000000  0.298248  1
  Sn  Sn2  1  0.000000  0.000000  0.000000  1
  Sn  Sn3  1  0.500000  0.500000  0.000000  1
  Se  Se4  1  0.500000  0.000000  0.641278  1
  Se  Se5  1  0.000000  0.500000  0.358722  1
