# generated using pymatgen
data_Nb3Al2RhN
_symmetry_space_group_name_H-M   'P 1'
_cell_length_a   8.30503413
_cell_length_b   8.30503438
_cell_length_c   8.30503400
_cell_angle_alpha   59.99999353
_cell_angle_beta   59.99999257
_cell_angle_gamma   60.00000061
_symmetry_Int_Tables_number   1
_chemical_formula_structural   Nb3Al2RhN
_chemical_formula_sum   'Nb12 Al8 Rh4 N4'
_cell_volume   405.05055304
_cell_formula_units_Z   4
loop_
 _symmetry_equiv_pos_site_id
 _symmetry_equiv_pos_as_xyz
  1  'x, y, z'
loop_
 _atom_site_type_symbol
 _atom_site_label
 _atom_site_symmetry_multiplicity
 _atom_site_fract_x
 _atom_site_fract_y
 _atom_site_fract_z
 _atom_site_occupancy
  Nb  Nb0  1  0.814089  0.814089  0.185911  1
  Nb  Nb1  1  0.064089  0.435911  0.435911  1
  Nb  Nb2  1  0.435911  0.064089  0.064089  1
  Nb  Nb3  1  0.064089  0.064089  0.435911  1
  Nb  Nb4  1  0.064089  0.435911  0.064089  1
  Nb  Nb5  1  0.435911  0.064089  0.435911  1
  Nb  Nb6  1  0.185911  0.814089  0.185911  1
  Nb  Nb7  1  0.185911  0.814089  0.814089  1
  Nb  Nb8  1  0.814089  0.185911  0.185911  1
  Nb  Nb9  1  0.814089  0.185911  0.814089  1
  Nb  Nb10  1  0.435911  0.435911  0.064089  1
  Nb  Nb11  1  0.185911  0.185911  0.814089  1
  Al  Al12  1  0.416578  0.750264  0.416578  1
  Al  Al13  1  0.833422  0.833422  0.499736  1
  Al  Al14  1  0.499736  0.833422  0.833422  1
  Al  Al15  1  0.833422  0.833422  0.833422  1
  Al  Al16  1  0.750264  0.416578  0.416578  1
  Al  Al17  1  0.416578  0.416578  0.416578  1
  Al  Al18  1  0.416578  0.416578  0.750264  1
  Al  Al19  1  0.833422  0.499736  0.833422  1
  Rh  Rh20  1  0.625000  0.125000  0.625000  1
  Rh  Rh21  1  0.625000  0.625000  0.125000  1
  Rh  Rh22  1  0.125000  0.625000  0.625000  1
  Rh  Rh23  1  0.625000  0.625000  0.625000  1
  N  N24  1  0.125000  0.625000  0.125000  1
  N  N25  1  0.125000  0.125000  0.625000  1
  N  N26  1  0.625000  0.125000  0.125000  1
  N  N27  1  0.125000  0.125000  0.125000  1
