# generated using pymatgen
data_Y2UFe2Si7
_symmetry_space_group_name_H-M   'P 1'
_cell_length_a   12.24419308
_cell_length_b   12.24419325
_cell_length_c   4.04943200
_cell_angle_alpha   90.00000000
_cell_angle_beta   90.00000000
_cell_angle_gamma   161.07770883
_symmetry_Int_Tables_number   1
_chemical_formula_structural   Y2UFe2Si7
_chemical_formula_sum   'Y2 U1 Fe2 Si7'
_cell_volume   196.87109113
_cell_formula_units_Z   1
loop_
 _symmetry_equiv_pos_site_id
 _symmetry_equiv_pos_as_xyz
  1  'x, y, z'
loop_
 _atom_site_type_symbol
 _atom_site_label
 _atom_site_symmetry_multiplicity
 _atom_site_fract_x
 _atom_site_fract_y
 _atom_site_fract_z
 _atom_site_occupancy
  Y  Y0  1  0.316106  0.683894  0.000000  1
  Y  Y1  1  0.683894  0.316106  0.000000  1
  U  U2  1  0.000000  0.000000  0.500000  1
  Fe  Fe3  1  0.124920  0.875080  0.500000  1
  Fe  Fe4  1  0.875080  0.124920  0.500000  1
  Si  Si5  1  0.220146  0.779854  0.500000  1
  Si  Si6  1  0.779854  0.220146  0.500000  1
  Si  Si7  1  0.085799  0.914201  0.000000  1
  Si  Si8  1  0.914201  0.085799  0.000000  1
  Si  Si9  1  0.414063  0.585937  0.500000  1
  Si  Si10  1  0.500000  0.500000  0.000000  1
  Si  Si11  1  0.585937  0.414063  0.500000  1
