# generated using pymatgen
data_Lu3Zr3Sn6IrRh5
_symmetry_space_group_name_H-M   'P 1'
_cell_length_a   7.49467900
_cell_length_b   7.49467976
_cell_length_c   7.41858900
_cell_angle_alpha   90.00000000
_cell_angle_beta   90.00000000
_cell_angle_gamma   120.00000104
_symmetry_Int_Tables_number   1
_chemical_formula_structural   Lu3Zr3Sn6IrRh5
_chemical_formula_sum   'Lu3 Zr3 Sn6 Ir1 Rh5'
_cell_volume   360.87604606
_cell_formula_units_Z   1
loop_
 _symmetry_equiv_pos_site_id
 _symmetry_equiv_pos_as_xyz
  1  'x, y, z'
loop_
 _atom_site_type_symbol
 _atom_site_label
 _atom_site_symmetry_multiplicity
 _atom_site_fract_x
 _atom_site_fract_y
 _atom_site_fract_z
 _atom_site_occupancy
  Lu  Lu0  1  0.595502  0.999523  0.750399  1
  Lu  Lu1  1  0.404021  0.404498  0.750399  1
  Lu  Lu2  1  0.000477  0.595979  0.750399  1
  Zr  Zr3  1  0.605926  0.003637  0.249676  1
  Zr  Zr4  1  0.397711  0.394074  0.249676  1
  Zr  Zr5  1  0.996363  0.602289  0.249676  1
  Sn  Sn6  1  0.265630  0.997726  0.003802  1
  Sn  Sn7  1  0.732236  0.733446  0.496120  1
  Sn  Sn8  1  0.001210  0.267764  0.496120  1
  Sn  Sn9  1  0.002274  0.267904  0.003802  1
  Sn  Sn10  1  0.732096  0.734370  0.003802  1
  Sn  Sn11  1  0.266554  0.998790  0.496120  1
  Ir  Ir12  1  0.666667  0.333333  0.019758  1
  Rh  Rh13  1  0.666667  0.333333  0.480208  1
  Rh  Rh14  1  0.333333  0.666667  0.029232  1
  Rh  Rh15  1  0.333333  0.666667  0.470882  1
  Rh  Rh16  1  0.000000  0.000000  0.750189  1
  Rh  Rh17  1  0.000000  0.000000  0.249741  1
