# generated using pymatgen
data_CeNd3Zn2Ir3
_symmetry_space_group_name_H-M   'P 1'
_cell_length_a   7.48226500
_cell_length_b   7.56488273
_cell_length_c   4.06384200
_cell_angle_alpha   90.00000000
_cell_angle_beta   90.00000000
_cell_angle_gamma   119.63938623
_symmetry_Int_Tables_number   1
_chemical_formula_structural   CeNd3Zn2Ir3
_chemical_formula_sum   'Ce1 Nd3 Zn2 Ir3'
_cell_volume   199.92606685
_cell_formula_units_Z   1
loop_
 _symmetry_equiv_pos_site_id
 _symmetry_equiv_pos_as_xyz
  1  'x, y, z'
loop_
 _atom_site_type_symbol
 _atom_site_label
 _atom_site_symmetry_multiplicity
 _atom_site_fract_x
 _atom_site_fract_y
 _atom_site_fract_z
 _atom_site_occupancy
  Ce  Ce0  1  0.753784  0.000000  0.000000  1
  Nd  Nd1  1  0.376430  0.000000  0.499999  1
  Nd  Nd2  1  0.029308  0.448330  0.499999  1
  Nd  Nd3  1  0.580977  0.551669  0.499999  1
  Zn  Zn4  1  0.243545  0.251188  0.000000  1
  Zn  Zn5  1  0.992357  0.748812  0.000000  1
  Ir  Ir6  1  0.674343  0.323905  0.000000  1
  Ir  Ir7  1  0.350437  0.676095  0.000000  1
  Ir  Ir8  1  0.998819  0.000000  0.499999  1
