# generated using pymatgen
data_Hf16Ni4SnMo3
_symmetry_space_group_name_H-M   'P 1'
_cell_length_a   8.74859942
_cell_length_b   8.74831012
_cell_length_c   8.74793977
_cell_angle_alpha   60.10053314
_cell_angle_beta   60.09860966
_cell_angle_gamma   60.09736284
_symmetry_Int_Tables_number   1
_chemical_formula_structural   Hf16Ni4SnMo3
_chemical_formula_sum   'Hf16 Ni4 Sn1 Mo3'
_cell_volume   474.48771947
_cell_formula_units_Z   1
loop_
 _symmetry_equiv_pos_site_id
 _symmetry_equiv_pos_as_xyz
  1  'x, y, z'
loop_
 _atom_site_type_symbol
 _atom_site_label
 _atom_site_symmetry_multiplicity
 _atom_site_fract_x
 _atom_site_fract_y
 _atom_site_fract_z
 _atom_site_occupancy
  Hf  Hf0  1  0.698058  0.097653  0.097657  1
  Hf  Hf1  1  0.097652  0.698070  0.097657  1
  Hf  Hf2  1  0.097653  0.097654  0.698068  1
  Hf  Hf3  1  0.102893  0.102893  0.102894  1
  Hf  Hf4  1  0.315320  0.315316  0.696802  1
  Hf  Hf5  1  0.686290  0.686286  0.314850  1
  Hf  Hf6  1  0.315322  0.696802  0.315316  1
  Hf  Hf7  1  0.686290  0.314848  0.686288  1
  Hf  Hf8  1  0.696806  0.315318  0.315315  1
  Hf  Hf9  1  0.314854  0.686285  0.686288  1
  Hf  Hf10  1  0.954570  0.954564  0.543400  1
  Hf  Hf11  1  0.556486  0.556493  0.937198  1
  Hf  Hf12  1  0.954572  0.543399  0.954564  1
  Hf  Hf13  1  0.556485  0.937202  0.556490  1
  Hf  Hf14  1  0.543407  0.954559  0.954558  1
  Hf  Hf15  1  0.937198  0.556490  0.556489  1
  Ni  Ni16  1  0.323589  0.890713  0.890711  1
  Ni  Ni17  1  0.890700  0.323599  0.890714  1
  Ni  Ni18  1  0.890703  0.890717  0.323595  1
  Ni  Ni19  1  0.890489  0.890486  0.890490  1
  Sn  Sn20  1  0.329731  0.329735  0.329734  1
  Mo  Mo21  1  0.992993  0.333962  0.333964  1
  Mo  Mo22  1  0.333967  0.992989  0.333964  1
  Mo  Mo23  1  0.333967  0.333962  0.992990  1
