# generated using pymatgen
data_Rb6Sc3IrBr18
_symmetry_space_group_name_H-M   'P 1'
_cell_length_a   7.68411200
_cell_length_b   7.68411269
_cell_length_c   19.35456400
_cell_angle_alpha   90.00000000
_cell_angle_beta   90.00000000
_cell_angle_gamma   119.99999701
_symmetry_Int_Tables_number   1
_chemical_formula_structural   Rb6Sc3IrBr18
_chemical_formula_sum   'Rb6 Sc3 Ir1 Br18'
_cell_volume   989.69516616
_cell_formula_units_Z   1
loop_
 _symmetry_equiv_pos_site_id
 _symmetry_equiv_pos_as_xyz
  1  'x, y, z'
loop_
 _atom_site_type_symbol
 _atom_site_label
 _atom_site_symmetry_multiplicity
 _atom_site_fract_x
 _atom_site_fract_y
 _atom_site_fract_z
 _atom_site_occupancy
  Rb  Rb0  1  0.333333  0.666667  0.069442  1
  Rb  Rb1  1  0.666667  0.333333  0.932694  1
  Rb  Rb2  1  0.666667  0.333333  0.569919  1
  Rb  Rb3  1  0.333333  0.666667  0.432813  1
  Rb  Rb4  1  0.000000  0.000000  0.250219  1
  Rb  Rb5  1  0.000000  0.000000  0.747395  1
  Sc  Sc6  1  0.666667  0.333333  0.344485  1
  Sc  Sc7  1  0.666667  0.333333  0.156228  1
  Sc  Sc8  1  0.333333  0.666667  0.839517  1
  Ir  Ir9  1  0.333333  0.666667  0.667272  1
  Br  Br10  1  0.180508  0.361017  0.592929  1
  Br  Br11  1  0.832015  0.664029  0.411950  1
  Br  Br12  1  0.638983  0.819492  0.592929  1
  Br  Br13  1  0.831560  0.663119  0.087834  1
  Br  Br14  1  0.335971  0.167985  0.411950  1
  Br  Br15  1  0.169520  0.339040  0.909875  1
  Br  Br16  1  0.180508  0.819492  0.592929  1
  Br  Br17  1  0.336881  0.168440  0.087834  1
  Br  Br18  1  0.832015  0.167985  0.411950  1
  Br  Br19  1  0.660960  0.830480  0.909875  1
  Br  Br20  1  0.831560  0.168440  0.087834  1
  Br  Br21  1  0.169520  0.830480  0.909875  1
  Br  Br22  1  0.508917  0.017835  0.249870  1
  Br  Br23  1  0.489196  0.978391  0.744214  1
  Br  Br24  1  0.982165  0.491083  0.249870  1
  Br  Br25  1  0.021609  0.510804  0.744214  1
  Br  Br26  1  0.508917  0.491083  0.249870  1
  Br  Br27  1  0.489196  0.510804  0.744214  1
