# generated using pymatgen
data_Ce6TmThF30
_symmetry_space_group_name_H-M   'P 1'
_cell_length_a   8.74123204
_cell_length_b   8.74123031
_cell_length_c   8.70596600
_cell_angle_alpha   79.55866908
_cell_angle_beta   79.55867118
_cell_angle_gamma   100.47512790
_symmetry_Int_Tables_number   1
_chemical_formula_structural   Ce6TmThF30
_chemical_formula_sum   'Ce6 Tm1 Th1 F30'
_cell_volume   627.32138289
_cell_formula_units_Z   1
loop_
 _symmetry_equiv_pos_site_id
 _symmetry_equiv_pos_as_xyz
  1  'x, y, z'
loop_
 _atom_site_type_symbol
 _atom_site_label
 _atom_site_symmetry_multiplicity
 _atom_site_fract_x
 _atom_site_fract_y
 _atom_site_fract_z
 _atom_site_occupancy
  Ce  Ce0  1  0.750349  0.249651  0.250000  1
  Ce  Ce1  1  0.250383  0.749617  0.750000  1
  Ce  Ce2  1  0.749547  0.676239  0.678975  1
  Ce  Ce3  1  0.323761  0.250453  0.821025  1
  Ce  Ce4  1  0.246494  0.322114  0.327712  1
  Ce  Ce5  1  0.677886  0.753506  0.172288  1
  Tm  Tm6  1  0.822728  0.177272  0.750000  1
  Th  Th7  1  0.178035  0.821965  0.250000  1
  F  F8  1  0.313264  0.340072  0.058215  1
  F  F9  1  0.946398  0.816397  0.152692  1
  F  F10  1  0.834284  0.443218  0.689214  1
  F  F11  1  0.451043  0.850050  0.179229  1
  F  F12  1  0.811888  0.942757  0.664855  1
  F  F13  1  0.347598  0.317850  0.551193  1
  F  F14  1  0.682150  0.652402  0.948806  1
  F  F15  1  0.057243  0.188112  0.835145  1
  F  F16  1  0.149950  0.548957  0.320771  1
  F  F17  1  0.556782  0.165716  0.810786  1
  F  F18  1  0.183603  0.053602  0.347308  1
  F  F19  1  0.659928  0.686736  0.441785  1
  F  F20  1  0.781717  0.267195  0.992885  1
  F  F21  1  0.008932  0.278281  0.222375  1
  F  F22  1  0.775877  0.508786  0.219314  1
  F  F23  1  0.506077  0.778031  0.721992  1
  F  F24  1  0.279803  0.006925  0.721233  1
  F  F25  1  0.281648  0.777658  0.487630  1
  F  F26  1  0.222342  0.718352  0.012370  1
  F  F27  1  0.993075  0.720197  0.778767  1
  F  F28  1  0.221969  0.493923  0.778008  1
  F  F29  1  0.491214  0.224123  0.280686  1
  F  F30  1  0.721719  0.991068  0.277625  1
  F  F31  1  0.732805  0.218283  0.507115  1
  F  F32  1  0.460211  0.539789  0.250000  1
  F  F33  1  0.750171  0.963945  0.964712  1
  F  F34  1  0.036055  0.249829  0.535288  1
  F  F35  1  0.249942  0.035351  0.032972  1
  F  F36  1  0.964649  0.750058  0.467028  1
  F  F37  1  0.528485  0.471515  0.750000  1
