# generated using pymatgen
data_YbErPd2F14
_symmetry_space_group_name_H-M   'P 1'
_cell_length_a   5.47871000
_cell_length_b   8.75171520
_cell_length_c   11.83213800
_cell_angle_alpha   62.63503934
_cell_angle_beta   90.00000000
_cell_angle_gamma   90.00000000
_symmetry_Int_Tables_number   1
_chemical_formula_structural   YbErPd2F14
_chemical_formula_sum   'Yb2 Er2 Pd4 F28'
_cell_volume   503.84267619
_cell_formula_units_Z   2
loop_
 _symmetry_equiv_pos_site_id
 _symmetry_equiv_pos_as_xyz
  1  'x, y, z'
loop_
 _atom_site_type_symbol
 _atom_site_label
 _atom_site_symmetry_multiplicity
 _atom_site_fract_x
 _atom_site_fract_y
 _atom_site_fract_z
 _atom_site_occupancy
  Yb  Yb0  1  0.761813  0.808686  0.764663  1
  Yb  Yb1  1  0.261813  0.191314  0.735337  1
  Er  Er2  1  0.237437  0.185933  0.234581  1
  Er  Er3  1  0.737437  0.814067  0.265419  1
  Pd  Pd4  1  0.756326  0.272172  0.957788  1
  Pd  Pd5  1  0.256326  0.727828  0.542212  1
  Pd  Pd6  1  0.243068  0.727301  0.044285  1
  Pd  Pd7  1  0.743068  0.272699  0.455715  1
  F  F8  1  0.432683  0.704097  0.917442  1
  F  F9  1  0.932683  0.295903  0.582558  1
  F  F10  1  0.563545  0.296359  0.087579  1
  F  F11  1  0.063545  0.703641  0.412421  1
  F  F12  1  0.446979  0.276470  0.541270  1
  F  F13  1  0.946979  0.723530  0.958730  1
  F  F14  1  0.562489  0.723267  0.457559  1
  F  F15  1  0.062489  0.276733  0.042441  1
  F  F16  1  0.770716  0.517416  0.861839  1
  F  F17  1  0.270716  0.482584  0.638161  1
  F  F18  1  0.222778  0.478870  0.143616  1
  F  F19  1  0.722778  0.521130  0.356384  1
  F  F20  1  0.755036  0.022610  0.051362  1
  F  F21  1  0.255036  0.977390  0.448638  1
  F  F22  1  0.254847  0.971950  0.951028  1
  F  F23  1  0.754847  0.028050  0.548972  1
  F  F24  1  0.960607  0.724185  0.630130  1
  F  F25  1  0.460607  0.275815  0.869870  1
  F  F26  1  0.039740  0.277297  0.362954  1
  F  F27  1  0.539740  0.722703  0.137046  1
  F  F28  1  0.056002  0.746464  0.177349  1
  F  F29  1  0.556002  0.253536  0.322651  1
  F  F30  1  0.941068  0.254058  0.826627  1
  F  F31  1  0.441068  0.745942  0.673373  1
  F  F32  1  0.411012  0.968598  0.231045  1
  F  F33  1  0.911012  0.031402  0.268955  1
  F  F34  1  0.583856  0.024999  0.775817  1
  F  F35  1  0.083856  0.975001  0.724183  1
