# generated using pymatgen
data_Mn9Cr11Si(WC3)2
_symmetry_space_group_name_H-M   'P 1'
_cell_length_a   7.47395362
_cell_length_b   7.47395365
_cell_length_c   7.48201700
_cell_angle_alpha   59.96430074
_cell_angle_beta   59.96430059
_cell_angle_gamma   59.96647292
_symmetry_Int_Tables_number   1
_chemical_formula_structural   Mn9Cr11Si(WC3)2
_chemical_formula_sum   'Mn9 Cr11 Si1 W2 C6'
_cell_volume   295.29758356
_cell_formula_units_Z   1
loop_
 _symmetry_equiv_pos_site_id
 _symmetry_equiv_pos_as_xyz
  1  'x, y, z'
loop_
 _atom_site_type_symbol
 _atom_site_label
 _atom_site_symmetry_multiplicity
 _atom_site_fract_x
 _atom_site_fract_y
 _atom_site_fract_z
 _atom_site_occupancy
  Mn  Mn0  1  0.616044  0.616044  0.151169  1
  Mn  Mn1  1  0.616289  0.151461  0.616212  1
  Mn  Mn2  1  0.151462  0.616289  0.616212  1
  Mn  Mn3  1  0.616229  0.616229  0.616403  1
  Mn  Mn4  1  0.383771  0.383771  0.848862  1
  Mn  Mn5  1  0.383711  0.848538  0.383963  1
  Mn  Mn6  1  0.848538  0.383711  0.383963  1
  Mn  Mn7  1  0.383956  0.383956  0.383258  1
  Mn  Mn8  1  0.000000  0.000000  0.339716  1
  Cr  Cr9  1  0.660521  0.999586  0.339970  1
  Cr  Cr10  1  0.999586  0.660521  0.339970  1
  Cr  Cr11  1  0.660306  0.339694  0.000728  1
  Cr  Cr12  1  0.000414  0.339479  0.000077  1
  Cr  Cr13  1  0.000173  0.339503  0.659610  1
  Cr  Cr14  1  0.339694  0.660306  0.000728  1
  Cr  Cr15  1  0.339503  0.000173  0.659610  1
  Cr  Cr16  1  0.339479  0.000414  0.000077  1
  Cr  Cr17  1  0.000000  0.000000  0.659022  1
  Cr  Cr18  1  0.999827  0.660497  0.999286  1
  Cr  Cr19  1  0.660497  0.999827  0.999286  1
  Si  Si20  1  0.000000  0.000000  0.000901  1
  W  W21  1  0.750014  0.750014  0.750036  1
  W  W22  1  0.249986  0.249986  0.250063  1
  C  C23  1  0.717935  0.717935  0.281837  1
  C  C24  1  0.279525  0.720475  0.281423  1
  C  C25  1  0.720475  0.279525  0.281423  1
  C  C26  1  0.282065  0.282065  0.717707  1
  C  C27  1  0.718251  0.281749  0.719244  1
  C  C28  1  0.281749  0.718251  0.719244  1
