# generated using pymatgen
data_Dy16Tl6NiOs
_symmetry_space_group_name_H-M   'P 1'
_cell_length_a   10.30635200
_cell_length_b   10.30857178
_cell_length_c   7.17481300
_cell_angle_alpha   90.00437420
_cell_angle_beta   90.00115077
_cell_angle_gamma   120.00484623
_symmetry_Int_Tables_number   1
_chemical_formula_structural   Dy16Tl6NiOs
_chemical_formula_sum   'Dy16 Tl6 Ni1 Os1'
_cell_volume   660.12088934
_cell_formula_units_Z   1
loop_
 _symmetry_equiv_pos_site_id
 _symmetry_equiv_pos_as_xyz
  1  'x, y, z'
loop_
 _atom_site_type_symbol
 _atom_site_label
 _atom_site_symmetry_multiplicity
 _atom_site_fract_x
 _atom_site_fract_y
 _atom_site_fract_z
 _atom_site_occupancy
  Dy  Dy0  1  0.177427  0.822595  0.509339  1
  Dy  Dy1  1  0.645087  0.822561  0.509480  1
  Dy  Dy2  1  0.177335  0.354699  0.509396  1
  Dy  Dy3  1  0.824767  0.175284  0.010935  1
  Dy  Dy4  1  0.350577  0.175301  0.011057  1
  Dy  Dy5  1  0.824797  0.649546  0.010973  1
  Dy  Dy6  1  0.333269  0.666608  0.821078  1
  Dy  Dy7  1  0.666717  0.333384  0.331900  1
  Dy  Dy8  1  0.464690  0.535321  0.208813  1
  Dy  Dy9  1  0.070558  0.535256  0.208756  1
  Dy  Dy10  1  0.464688  0.929301  0.208765  1
  Dy  Dy11  1  0.537057  0.462964  0.712182  1
  Dy  Dy12  1  0.925955  0.463006  0.712122  1
  Dy  Dy13  1  0.537052  0.074157  0.712185  1
  Dy  Dy14  1  0.999974  0.000019  0.233358  1
  Dy  Dy15  1  0.000078  0.000029  0.726356  1
  Tl  Tl16  1  0.165159  0.834975  0.957683  1
  Tl  Tl17  1  0.669861  0.834939  0.957710  1
  Tl  Tl18  1  0.165131  0.330171  0.957724  1
  Tl  Tl19  1  0.837321  0.162538  0.459632  1
  Tl  Tl20  1  0.325217  0.162594  0.459668  1
  Tl  Tl21  1  0.837390  0.674873  0.459652  1
  Ni  Ni22  1  0.333140  0.666460  0.440445  1
  Os  Os23  1  0.666752  0.333419  0.945634  1
