# generated using pymatgen
data_Er16Cd4Ir3Ru
_symmetry_space_group_name_H-M   'P 1'
_cell_length_a   9.58866718
_cell_length_b   9.58866804
_cell_length_c   9.58866875
_cell_angle_alpha   59.65600330
_cell_angle_beta   59.65600101
_cell_angle_gamma   59.65600442
_symmetry_Int_Tables_number   1
_chemical_formula_structural   Er16Cd4Ir3Ru
_chemical_formula_sum   'Er16 Cd4 Ir3 Ru1'
_cell_volume   618.51762230
_cell_formula_units_Z   1
loop_
 _symmetry_equiv_pos_site_id
 _symmetry_equiv_pos_as_xyz
  1  'x, y, z'
loop_
 _atom_site_type_symbol
 _atom_site_label
 _atom_site_symmetry_multiplicity
 _atom_site_fract_x
 _atom_site_fract_y
 _atom_site_fract_z
 _atom_site_occupancy
  Er  Er0  1  0.598678  0.598678  0.598678  1
  Er  Er1  1  0.598795  0.598795  0.205182  1
  Er  Er2  1  0.598795  0.205182  0.598795  1
  Er  Er3  1  0.205182  0.598795  0.598795  1
  Er  Er4  1  0.061553  0.438936  0.438936  1
  Er  Er5  1  0.438419  0.059904  0.059904  1
  Er  Er6  1  0.438936  0.061553  0.438936  1
  Er  Er7  1  0.059904  0.438419  0.059904  1
  Er  Er8  1  0.438936  0.438936  0.061553  1
  Er  Er9  1  0.059904  0.059904  0.438419  1
  Er  Er10  1  0.189153  0.811796  0.811796  1
  Er  Er11  1  0.809945  0.188343  0.188343  1
  Er  Er12  1  0.811796  0.189153  0.811796  1
  Er  Er13  1  0.188343  0.809945  0.188343  1
  Er  Er14  1  0.811796  0.811796  0.189153  1
  Er  Er15  1  0.188343  0.188343  0.809945  1
  Cd  Cd16  1  0.830316  0.830316  0.830316  1
  Cd  Cd17  1  0.830868  0.830868  0.506209  1
  Cd  Cd18  1  0.830868  0.506209  0.830868  1
  Cd  Cd19  1  0.506209  0.830868  0.830868  1
  Ir  Ir20  1  0.392975  0.392975  0.826123  1
  Ir  Ir21  1  0.392975  0.826123  0.392975  1
  Ir  Ir22  1  0.826123  0.392975  0.392975  1
  Ru  Ru23  1  0.391185  0.391185  0.391185  1
