# generated using pymatgen
data_Ce2AlZnCo2
_symmetry_space_group_name_H-M   'P 1'
_cell_length_a   5.96617743
_cell_length_b   5.96617764
_cell_length_c   4.69661716
_cell_angle_alpha   74.22048335
_cell_angle_beta   74.22048667
_cell_angle_gamma   43.83039696
_symmetry_Int_Tables_number   1
_chemical_formula_structural   Ce2AlZnCo2
_chemical_formula_sum   'Ce2 Al1 Zn1 Co2'
_cell_volume   110.68943383
_cell_formula_units_Z   1
loop_
 _symmetry_equiv_pos_site_id
 _symmetry_equiv_pos_as_xyz
  1  'x, y, z'
loop_
 _atom_site_type_symbol
 _atom_site_label
 _atom_site_symmetry_multiplicity
 _atom_site_fract_x
 _atom_site_fract_y
 _atom_site_fract_z
 _atom_site_occupancy
  Ce  Ce0  1  0.868975  0.868975  0.328785  1
  Ce  Ce1  1  0.131522  0.131522  0.662403  1
  Al  Al2  1  0.416364  0.416364  0.807229  1
  Zn  Zn3  1  0.579473  0.579473  0.185669  1
  Co  Co4  1  0.193841  0.193841  0.159796  1
  Co  Co5  1  0.809825  0.809825  0.856120  1
