# generated using pymatgen
data_Ho5TlCd2InPd2
_symmetry_space_group_name_H-M   'P 1'
_cell_length_a   3.60443500
_cell_length_b   8.10336603
_cell_length_c   18.37283167
_cell_angle_alpha   89.91856369
_cell_angle_beta   90.00000000
_cell_angle_gamma   90.00000000
_symmetry_Int_Tables_number   1
_chemical_formula_structural   Ho5TlCd2InPd2
_chemical_formula_sum   'Ho10 Tl2 Cd4 In2 Pd4'
_cell_volume   536.63415694
_cell_formula_units_Z   2
loop_
 _symmetry_equiv_pos_site_id
 _symmetry_equiv_pos_as_xyz
  1  'x, y, z'
loop_
 _atom_site_type_symbol
 _atom_site_label
 _atom_site_symmetry_multiplicity
 _atom_site_fract_x
 _atom_site_fract_y
 _atom_site_fract_z
 _atom_site_occupancy
  Ho  Ho0  1  0.000000  0.500000  0.500000  1
  Ho  Ho1  1  0.000000  0.000000  0.000000  1
  Ho  Ho2  1  0.000000  0.743073  0.280721  1
  Ho  Ho3  1  0.000000  0.256927  0.719279  1
  Ho  Ho4  1  0.000000  0.756338  0.781383  1
  Ho  Ho5  1  0.000000  0.243662  0.218617  1
  Ho  Ho6  1  0.000000  0.614277  0.083588  1
  Ho  Ho7  1  0.000000  0.385723  0.916412  1
  Ho  Ho8  1  0.000000  0.887749  0.584343  1
  Ho  Ho9  1  0.000000  0.112251  0.415657  1
  Tl  Tl10  1  0.500000  0.574131  0.646302  1
  Tl  Tl11  1  0.500000  0.425869  0.353698  1
  Cd  Cd12  1  0.500000  0.710655  0.931924  1
  Cd  Cd13  1  0.500000  0.289345  0.068076  1
  Cd  Cd14  1  0.500000  0.792159  0.432893  1
  Cd  Cd15  1  0.500000  0.207841  0.567107  1
  In  In16  1  0.500000  0.926789  0.147503  1
  In  In17  1  0.500000  0.073211  0.852497  1
  Pd  Pd18  1  0.500000  0.526405  0.195415  1
  Pd  Pd19  1  0.500000  0.473595  0.804585  1
  Pd  Pd20  1  0.500000  0.976690  0.697105  1
  Pd  Pd21  1  0.500000  0.023310  0.302895  1
