# generated using pymatgen
data_HoGaCu3Ag
_symmetry_space_group_name_H-M   'P 1'
_cell_length_a   5.07083407
_cell_length_b   5.07083351
_cell_length_c   5.07083380
_cell_angle_alpha   60.68163240
_cell_angle_beta   60.68163441
_cell_angle_gamma   60.68163530
_symmetry_Int_Tables_number   1
_chemical_formula_structural   HoGaCu3Ag
_chemical_formula_sum   'Ho1 Ga1 Cu3 Ag1'
_cell_volume   93.61695313
_cell_formula_units_Z   1
loop_
 _symmetry_equiv_pos_site_id
 _symmetry_equiv_pos_as_xyz
  1  'x, y, z'
loop_
 _atom_site_type_symbol
 _atom_site_label
 _atom_site_symmetry_multiplicity
 _atom_site_fract_x
 _atom_site_fract_y
 _atom_site_fract_z
 _atom_site_occupancy
  Ho  Ho0  1  0.248538  0.248538  0.248538  1
  Ga  Ga1  1  0.627002  0.627002  0.627002  1
  Cu  Cu2  1  0.626317  0.626317  0.122938  1
  Cu  Cu3  1  0.626317  0.122938  0.626317  1
  Cu  Cu4  1  0.122938  0.626317  0.626317  1
  Ag  Ag5  1  0.998889  0.998889  0.998889  1
