# generated using pymatgen
data_Pr5Nd3Sc11Si16Au
_symmetry_space_group_name_H-M   'P 1'
_cell_length_a   7.18037508
_cell_length_b   7.55226521
_cell_length_c   14.25479209
_cell_angle_alpha   89.99704868
_cell_angle_beta   89.98748559
_cell_angle_gamma   90.25167690
_symmetry_Int_Tables_number   1
_chemical_formula_structural   Pr5Nd3Sc11Si16Au
_chemical_formula_sum   'Pr5 Nd3 Sc11 Si16 Au1'
_cell_volume   773.00276948
_cell_formula_units_Z   1
loop_
 _symmetry_equiv_pos_site_id
 _symmetry_equiv_pos_as_xyz
  1  'x, y, z'
loop_
 _atom_site_type_symbol
 _atom_site_label
 _atom_site_symmetry_multiplicity
 _atom_site_fract_x
 _atom_site_fract_y
 _atom_site_fract_z
 _atom_site_occupancy
  Pr  Pr0  1  0.492461  0.682710  0.601639  1
  Pr  Pr1  1  0.979107  0.827673  0.602705  1
  Pr  Pr2  1  0.979639  0.827840  0.897060  1
  Pr  Pr3  1  0.511462  0.330112  0.097544  1
  Pr  Pr4  1  0.012831  0.173347  0.097633  1
  Nd  Nd5  1  0.012419  0.173878  0.402098  1
  Nd  Nd6  1  0.511573  0.329649  0.402005  1
  Nd  Nd7  1  0.492486  0.682954  0.897456  1
  Sc  Sc8  1  0.334851  0.172503  0.624707  1
  Sc  Sc9  1  0.671902  0.821689  0.373934  1
  Sc  Sc10  1  0.171541  0.677040  0.376154  1
  Sc  Sc11  1  0.827366  0.313055  0.874863  1
  Sc  Sc12  1  0.827360  0.312702  0.625334  1
  Sc  Sc13  1  0.840965  0.501817  0.250357  1
  Sc  Sc14  1  0.340455  0.998409  0.250294  1
  Sc  Sc15  1  0.334706  0.172403  0.875225  1
  Sc  Sc16  1  0.171839  0.676817  0.124296  1
  Sc  Sc17  1  0.671839  0.821524  0.126434  1
  Sc  Sc18  1  0.158982  0.493612  0.749940  1
  Si  Si19  1  0.280430  0.883261  0.750043  1
  Si  Si20  1  0.466824  0.622850  0.250397  1
  Si  Si21  1  0.044170  0.123606  0.750005  1
  Si  Si22  1  0.531128  0.384967  0.750161  1
  Si  Si23  1  0.153407  0.464713  0.540666  1
  Si  Si24  1  0.967512  0.874599  0.250424  1
  Si  Si25  1  0.711005  0.117942  0.250633  1
  Si  Si26  1  0.850051  0.536838  0.037252  1
  Si  Si27  1  0.349200  0.962003  0.038861  1
  Si  Si28  1  0.154393  0.466247  0.958721  1
  Si  Si29  1  0.654301  0.042663  0.529647  1
  Si  Si30  1  0.348517  0.964469  0.460318  1
  Si  Si31  1  0.849437  0.535328  0.462212  1
  Si  Si32  1  0.792624  0.590275  0.750288  1
  Si  Si33  1  0.210508  0.384995  0.250789  1
  Si  Si34  1  0.653702  0.040493  0.969282  1
  Au  Au35  1  0.639005  0.015019  0.750623  1
