# generated using pymatgen
data_Ho6Er10In6FeCo
_symmetry_space_group_name_H-M   'P 1'
_cell_length_a   10.27055600
_cell_length_b   10.27055515
_cell_length_c   6.95367000
_cell_angle_alpha   90.00000000
_cell_angle_beta   90.00000000
_cell_angle_gamma   119.99999630
_symmetry_Int_Tables_number   1
_chemical_formula_structural   Ho6Er10In6FeCo
_chemical_formula_sum   'Ho6 Er10 In6 Fe1 Co1'
_cell_volume   635.23233716
_cell_formula_units_Z   1
loop_
 _symmetry_equiv_pos_site_id
 _symmetry_equiv_pos_as_xyz
  1  'x, y, z'
loop_
 _atom_site_type_symbol
 _atom_site_label
 _atom_site_symmetry_multiplicity
 _atom_site_fract_x
 _atom_site_fract_y
 _atom_site_fract_z
 _atom_site_occupancy
  Ho  Ho0  1  0.534741  0.069482  0.791385  1
  Ho  Ho1  1  0.930518  0.465259  0.791385  1
  Ho  Ho2  1  0.534741  0.465259  0.791385  1
  Ho  Ho3  1  0.465900  0.931799  0.291972  1
  Ho  Ho4  1  0.068201  0.534100  0.291972  1
  Ho  Ho5  1  0.465900  0.534100  0.291972  1
  Er  Er6  1  0.821540  0.643080  0.499163  1
  Er  Er7  1  0.356920  0.178460  0.499163  1
  Er  Er8  1  0.821540  0.178460  0.499163  1
  Er  Er9  1  0.178299  0.356598  0.998553  1
  Er  Er10  1  0.643402  0.821701  0.998553  1
  Er  Er11  1  0.178299  0.821701  0.998553  1
  Er  Er12  1  0.666667  0.333333  0.181206  1
  Er  Er13  1  0.333333  0.666667  0.681968  1
  Er  Er14  1  0.000000  0.000000  0.779334  1
  Er  Er15  1  0.000000  0.000000  0.278811  1
  In  In16  1  0.837277  0.674554  0.038836  1
  In  In17  1  0.325446  0.162723  0.038836  1
  In  In18  1  0.837277  0.162723  0.038836  1
  In  In19  1  0.162928  0.325857  0.538868  1
  In  In20  1  0.674143  0.837072  0.538868  1
  In  In21  1  0.162928  0.837072  0.538868  1
  Fe  Fe22  1  0.666667  0.333333  0.569650  1
  Co  Co23  1  0.333333  0.666667  0.068607  1
