# generated using pymatgen
data_RbTlMo2P2(ClO5)2
_symmetry_space_group_name_H-M   'P 1'
_cell_length_a   6.57377400
_cell_length_b   6.57377400
_cell_length_c   7.63772600
_cell_angle_alpha   90.00000000
_cell_angle_beta   90.00000000
_cell_angle_gamma   90.00000000
_symmetry_Int_Tables_number   1
_chemical_formula_structural   RbTlMo2P2(ClO5)2
_chemical_formula_sum   'Rb1 Tl1 Mo2 P2 Cl2 O10'
_cell_volume   330.06054538
_cell_formula_units_Z   1
loop_
 _symmetry_equiv_pos_site_id
 _symmetry_equiv_pos_as_xyz
  1  'x, y, z'
loop_
 _atom_site_type_symbol
 _atom_site_label
 _atom_site_symmetry_multiplicity
 _atom_site_fract_x
 _atom_site_fract_y
 _atom_site_fract_z
 _atom_site_occupancy
  Rb  Rb0  1  0.500000  0.500000  0.500000  1
  Tl  Tl1  1  0.000000  0.000000  0.500000  1
  Mo  Mo2  1  0.500000  0.000000  0.090307  1
  Mo  Mo3  1  0.000000  0.500000  0.909693  1
  P  P4  1  0.500000  0.500000  0.000000  1
  P  P5  1  0.000000  0.000000  0.000000  1
  Cl  Cl6  1  0.000000  0.500000  0.567019  1
  Cl  Cl7  1  0.500000  0.000000  0.432981  1
  O  O8  1  0.187134  0.000000  0.123801  1
  O  O9  1  0.500000  0.312946  0.123831  1
  O  O10  1  0.500000  0.000000  0.867451  1
  O  O11  1  0.812866  0.000000  0.123801  1
  O  O12  1  0.312946  0.500000  0.876169  1
  O  O13  1  0.687054  0.500000  0.876169  1
  O  O14  1  0.000000  0.187134  0.876199  1
  O  O15  1  0.500000  0.687054  0.123831  1
  O  O16  1  0.000000  0.500000  0.132549  1
  O  O17  1  0.000000  0.812866  0.876199  1
