# generated using pymatgen
data_Sm3GdBe4(GeO7)2
_symmetry_space_group_name_H-M   'P 1'
_cell_length_a   7.55264715
_cell_length_b   7.55264715
_cell_length_c   4.88635658
_cell_angle_alpha   89.93475894
_cell_angle_beta   89.93475894
_cell_angle_gamma   90.10063482
_symmetry_Int_Tables_number   1
_chemical_formula_structural   Sm3GdBe4(GeO7)2
_chemical_formula_sum   'Sm3 Gd1 Be4 Ge2 O14'
_cell_volume   278.72909997
_cell_formula_units_Z   1
loop_
 _symmetry_equiv_pos_site_id
 _symmetry_equiv_pos_as_xyz
  1  'x, y, z'
loop_
 _atom_site_type_symbol
 _atom_site_label
 _atom_site_symmetry_multiplicity
 _atom_site_fract_x
 _atom_site_fract_y
 _atom_site_fract_z
 _atom_site_occupancy
  Sm  Sm0  1  0.658530  0.158531  0.505206  1
  Sm  Sm1  1  0.840850  0.659262  0.495895  1
  Sm  Sm2  1  0.159263  0.340851  0.495895  1
  Gd  Gd3  1  0.340812  0.840811  0.504305  1
  Be  Be4  1  0.134889  0.634890  0.956073  1
  Be  Be5  1  0.866503  0.366502  0.957261  1
  Be  Be6  1  0.632630  0.865622  0.043826  1
  Be  Be7  1  0.365621  0.132629  0.043826  1
  Ge  Ge8  1  0.000318  0.999879  0.999432  1
  Ge  Ge9  1  0.499878  0.500317  0.999432  1
  O  O10  1  0.080613  0.827567  0.788632  1
  O  O11  1  0.920551  0.173168  0.790280  1
  O  O12  1  0.579647  0.672553  0.210289  1
  O  O13  1  0.420231  0.326415  0.208402  1
  O  O14  1  0.327568  0.580615  0.788632  1
  O  O15  1  0.673169  0.420552  0.790280  1
  O  O16  1  0.172552  0.079645  0.210289  1
  O  O17  1  0.826414  0.920230  0.208402  1
  O  O18  1  0.143603  0.643604  0.281227  1
  O  O19  1  0.858869  0.358869  0.281989  1
  O  O20  1  0.640072  0.858398  0.718665  1
  O  O21  1  0.358398  0.140071  0.718665  1
  O  O22  1  0.000595  0.500594  0.822542  1
  O  O23  1  0.498419  0.998420  0.180555  1
