# generated using pymatgen
data_Sc5C3F2
_symmetry_space_group_name_H-M   'P 1'
_cell_length_a   3.32408893
_cell_length_b   5.85885220
_cell_length_c   8.81940645
_cell_angle_alpha   123.91809229
_cell_angle_beta   67.87495605
_cell_angle_gamma   106.50221333
_symmetry_Int_Tables_number   1
_chemical_formula_structural   Sc5C3F2
_chemical_formula_sum   'Sc5 C3 F2'
_cell_volume   131.42652126
_cell_formula_units_Z   1
loop_
 _symmetry_equiv_pos_site_id
 _symmetry_equiv_pos_as_xyz
  1  'x, y, z'
loop_
 _atom_site_type_symbol
 _atom_site_label
 _atom_site_symmetry_multiplicity
 _atom_site_fract_x
 _atom_site_fract_y
 _atom_site_fract_z
 _atom_site_occupancy
  Sc  Sc0  1  0.437098  0.138137  0.022598  1
  Sc  Sc1  1  0.622535  0.295002  0.417203  1
  Sc  Sc2  1  0.812427  0.515693  0.837658  1
  Sc  Sc3  1  0.067671  0.761262  0.208196  1
  Sc  Sc4  1  0.253889  0.982143  0.628358  1
  C  C5  1  0.746524  0.942935  0.118534  1
  C  C6  1  0.131765  0.333680  0.927111  1
  C  C7  1  0.936645  0.138654  0.522861  1
  F  F8  1  0.306808  0.542926  0.343783  1
  F  F9  1  0.547962  0.734530  0.701989  1
