# generated using pymatgen
data_Sr(CoO2)3
_symmetry_space_group_name_H-M   'P 1'
_cell_length_a   4.91873764
_cell_length_b   6.05498028
_cell_length_c   8.52961700
_cell_angle_alpha   89.99996215
_cell_angle_beta   89.99998835
_cell_angle_gamma   73.88623923
_symmetry_Int_Tables_number   1
_chemical_formula_structural   Sr(CoO2)3
_chemical_formula_sum   'Sr2 Co6 O12'
_cell_volume   244.05593544
_cell_formula_units_Z   2
loop_
 _symmetry_equiv_pos_site_id
 _symmetry_equiv_pos_as_xyz
  1  'x, y, z'
loop_
 _atom_site_type_symbol
 _atom_site_label
 _atom_site_symmetry_multiplicity
 _atom_site_fract_x
 _atom_site_fract_y
 _atom_site_fract_z
 _atom_site_occupancy
  Sr  Sr0  1  0.000000  0.499999  0.170081  1
  Sr  Sr1  1  0.500001  0.500000  0.669469  1
  Co  Co2  1  0.000000  0.000000  0.666376  1
  Co  Co3  1  0.500000  0.000000  0.833771  1
  Co  Co4  1  0.500000  0.000000  0.498707  1
  Co  Co5  1  0.500000  0.000000  0.166422  1
  Co  Co6  1  0.000000  0.000000  0.333800  1
  Co  Co7  1  0.000000  0.000000  0.998639  1
  O  O8  1  0.778144  0.169531  0.164443  1
  O  O9  1  0.278149  0.169508  0.664386  1
  O  O10  1  0.221855  0.830469  0.164444  1
  O  O11  1  0.721851  0.830492  0.664386  1
  O  O12  1  0.271034  0.170601  0.000095  1
  O  O13  1  0.771069  0.170621  0.499993  1
  O  O14  1  0.276754  0.170282  0.334600  1
  O  O15  1  0.776762  0.170268  0.834516  1
  O  O16  1  0.723246  0.829718  0.334600  1
  O  O17  1  0.223238  0.829733  0.834516  1
  O  O18  1  0.728966  0.829398  0.000095  1
  O  O19  1  0.228931  0.829380  0.499993  1
