# generated using pymatgen
data_KNb8CoSe16
_symmetry_space_group_name_H-M   'P 1'
_cell_length_a   7.01401104
_cell_length_b   7.01255676
_cell_length_c   15.00826236
_cell_angle_alpha   90.06239266
_cell_angle_beta   89.98987727
_cell_angle_gamma   120.00256077
_symmetry_Int_Tables_number   1
_chemical_formula_structural   KNb8CoSe16
_chemical_formula_sum   'K1 Nb8 Co1 Se16'
_cell_volume   639.28185108
_cell_formula_units_Z   1
loop_
 _symmetry_equiv_pos_site_id
 _symmetry_equiv_pos_as_xyz
  1  'x, y, z'
loop_
 _atom_site_type_symbol
 _atom_site_label
 _atom_site_symmetry_multiplicity
 _atom_site_fract_x
 _atom_site_fract_y
 _atom_site_fract_z
 _atom_site_occupancy
  K  K0  1  0.000000  0.000000  0.500000  1
  Nb  Nb1  1  0.000215  0.000312  0.207584  1
  Nb  Nb2  1  0.999785  0.999688  0.792416  1
  Nb  Nb3  1  0.507963  0.015870  0.207114  1
  Nb  Nb4  1  0.984467  0.492273  0.207098  1
  Nb  Nb5  1  0.507878  0.492260  0.207114  1
  Nb  Nb6  1  0.492037  0.984130  0.792886  1
  Nb  Nb7  1  0.015533  0.507727  0.792902  1
  Nb  Nb8  1  0.492122  0.507740  0.792886  1
  Co  Co9  1  0.000000  0.000000  0.000000  1
  Se  Se10  1  0.333323  0.666627  0.907714  1
  Se  Se11  1  0.666677  0.333373  0.092286  1
  Se  Se12  1  0.666931  0.333725  0.324185  1
  Se  Se13  1  0.333069  0.666275  0.675815  1
  Se  Se14  1  0.167953  0.832562  0.317571  1
  Se  Se15  1  0.168027  0.335977  0.317624  1
  Se  Se16  1  0.664701  0.832566  0.317568  1
  Se  Se17  1  0.832047  0.167438  0.682429  1
  Se  Se18  1  0.831973  0.664023  0.682376  1
  Se  Se19  1  0.335299  0.167434  0.682432  1
  Se  Se20  1  0.832650  0.167208  0.901819  1
  Se  Se21  1  0.832766  0.665523  0.901880  1
  Se  Se22  1  0.334501  0.167171  0.901783  1
  Se  Se23  1  0.167350  0.832792  0.098181  1
  Se  Se24  1  0.167234  0.334477  0.098120  1
  Se  Se25  1  0.665499  0.832829  0.098217  1
