# generated using pymatgen
data_Sc10Ga5PbO2
_symmetry_space_group_name_H-M   'P 1'
_cell_length_a   8.34881972
_cell_length_b   8.34881924
_cell_length_c   8.34881800
_cell_angle_alpha   127.87624648
_cell_angle_beta   127.87623932
_cell_angle_gamma   76.82559896
_symmetry_Int_Tables_number   1
_chemical_formula_structural   Sc10Ga5PbO2
_chemical_formula_sum   'Sc10 Ga5 Pb1 O2'
_cell_volume   352.05380204
_cell_formula_units_Z   1
loop_
 _symmetry_equiv_pos_site_id
 _symmetry_equiv_pos_as_xyz
  1  'x, y, z'
loop_
 _atom_site_type_symbol
 _atom_site_label
 _atom_site_symmetry_multiplicity
 _atom_site_fract_x
 _atom_site_fract_y
 _atom_site_fract_z
 _atom_site_occupancy
  Sc  Sc0  1  0.999081  0.192584  0.487796  1
  Sc  Sc1  1  0.795213  0.307416  0.806497  1
  Sc  Sc2  1  0.511284  0.999081  0.806497  1
  Sc  Sc3  1  0.500919  0.988716  0.193503  1
  Sc  Sc4  1  0.988716  0.795213  0.487796  1
  Sc  Sc5  1  0.504959  0.504959  0.000000  1
  Sc  Sc6  1  0.192584  0.704787  0.193503  1
  Sc  Sc7  1  0.704787  0.511284  0.512204  1
  Sc  Sc8  1  0.307416  0.500919  0.512204  1
  Sc  Sc9  1  0.995041  0.995041  0.000000  1
  Ga  Ga10  1  0.866147  0.366147  0.232294  1
  Ga  Ga11  1  0.133853  0.633853  0.767706  1
  Ga  Ga12  1  0.366147  0.133853  0.500000  1
  Ga  Ga13  1  0.750000  0.750000  0.000000  1
  Ga  Ga14  1  0.633853  0.866147  0.500000  1
  Pb  Pb15  1  0.250000  0.250000  0.000000  1
  O  O16  1  0.750000  0.250000  0.500000  1
  O  O17  1  0.250000  0.750000  0.500000  1
