# generated using pymatgen
data_Y2ErIn3Ni2Au
_symmetry_space_group_name_H-M   'P 1'
_cell_length_a   7.66071317
_cell_length_b   7.67208330
_cell_length_c   3.74289100
_cell_angle_alpha   90.00000000
_cell_angle_beta   90.00000000
_cell_angle_gamma   120.10770405
_symmetry_Int_Tables_number   1
_chemical_formula_structural   Y2ErIn3Ni2Au
_chemical_formula_sum   'Y2 Er1 In3 Ni2 Au1'
_cell_volume   190.30401931
_cell_formula_units_Z   1
loop_
 _symmetry_equiv_pos_site_id
 _symmetry_equiv_pos_as_xyz
  1  'x, y, z'
loop_
 _atom_site_type_symbol
 _atom_site_label
 _atom_site_symmetry_multiplicity
 _atom_site_fract_x
 _atom_site_fract_y
 _atom_site_fract_z
 _atom_site_occupancy
  Y  Y0  1  0.582115  0.982594  0.500000  1
  Y  Y1  1  0.400172  0.417542  0.500000  1
  Er  Er2  1  0.018059  0.599901  0.500000  1
  In  In3  1  0.003749  0.253694  0.000000  1
  In  In4  1  0.249151  0.995589  0.000000  1
  In  In5  1  0.747415  0.750271  0.000000  1
  Ni  Ni6  1  0.000030  0.999030  0.500000  1
  Ni  Ni7  1  0.329426  0.665599  0.000000  1
  Au  Au8  1  0.669883  0.335780  0.000000  1
