# generated using pymatgen
data_LuSc3CrB12Ir
_symmetry_space_group_name_H-M   'P 1'
_cell_length_a   3.45739500
_cell_length_b   8.91542419
_cell_length_c   11.26241517
_cell_angle_alpha   89.88443557
_cell_angle_beta   90.00000000
_cell_angle_gamma   90.00000000
_symmetry_Int_Tables_number   1
_chemical_formula_structural   LuSc3CrB12Ir
_chemical_formula_sum   'Lu2 Sc6 Cr2 B24 Ir2'
_cell_volume   347.15358951
_cell_formula_units_Z   2
loop_
 _symmetry_equiv_pos_site_id
 _symmetry_equiv_pos_as_xyz
  1  'x, y, z'
loop_
 _atom_site_type_symbol
 _atom_site_label
 _atom_site_symmetry_multiplicity
 _atom_site_fract_x
 _atom_site_fract_y
 _atom_site_fract_z
 _atom_site_occupancy
  Lu  Lu0  1  0.000000  0.814479  0.089485  1
  Lu  Lu1  1  0.000000  0.185521  0.910515  1
  Sc  Sc2  1  0.000000  0.326391  0.419196  1
  Sc  Sc3  1  0.000000  0.673609  0.580804  1
  Sc  Sc4  1  0.000000  0.447829  0.128973  1
  Sc  Sc5  1  0.000000  0.552171  0.871027  1
  Sc  Sc6  1  0.000000  0.940337  0.375141  1
  Sc  Sc7  1  0.000000  0.059663  0.624859  1
  Cr  Cr8  1  0.000000  0.638841  0.320033  1
  Cr  Cr9  1  0.000000  0.361159  0.679967  1
  B  B10  1  0.500000  0.054136  0.065453  1
  B  B11  1  0.500000  0.945864  0.934547  1
  B  B12  1  0.500000  0.552682  0.434504  1
  B  B13  1  0.500000  0.447318  0.565496  1
  B  B14  1  0.500000  0.254222  0.079282  1
  B  B15  1  0.500000  0.745778  0.920718  1
  B  B16  1  0.500000  0.750098  0.421091  1
  B  B17  1  0.500000  0.249902  0.578909  1
  B  B18  1  0.500000  0.295184  0.237338  1
  B  B19  1  0.500000  0.704816  0.762662  1
  B  B20  1  0.500000  0.793434  0.265941  1
  B  B21  1  0.500000  0.206566  0.734059  1
  B  B22  1  0.500000  0.130563  0.319288  1
  B  B23  1  0.500000  0.869437  0.680712  1
  B  B24  1  0.500000  0.629088  0.184260  1
  B  B25  1  0.500000  0.370912  0.815740  1
  B  B26  1  0.500000  0.479824  0.288300  1
  B  B27  1  0.500000  0.520176  0.711700  1
  B  B28  1  0.500000  0.979219  0.214479  1
  B  B29  1  0.500000  0.020781  0.785521  1
  B  B30  1  0.500000  0.102267  0.471999  1
  B  B31  1  0.500000  0.897733  0.528001  1
  B  B32  1  0.500000  0.600283  0.027275  1
  B  B33  1  0.500000  0.399717  0.972725  1
  Ir  Ir34  1  0.000000  0.139347  0.180457  1
  Ir  Ir35  1  0.000000  0.860653  0.819543  1
