# generated using pymatgen
data_Tb5Y5(GaBi2)2
_symmetry_space_group_name_H-M   'P 1'
_cell_length_a   8.12942409
_cell_length_b   9.33750510
_cell_length_c   12.12878000
_cell_angle_alpha   90.00000000
_cell_angle_beta   90.00000000
_cell_angle_gamma   90.01674168
_symmetry_Int_Tables_number   1
_chemical_formula_structural   Tb5Y5(GaBi2)2
_chemical_formula_sum   'Tb10 Y10 Ga4 Bi8'
_cell_volume   920.67792874
_cell_formula_units_Z   2
loop_
 _symmetry_equiv_pos_site_id
 _symmetry_equiv_pos_as_xyz
  1  'x, y, z'
loop_
 _atom_site_type_symbol
 _atom_site_label
 _atom_site_symmetry_multiplicity
 _atom_site_fract_x
 _atom_site_fract_y
 _atom_site_fract_z
 _atom_site_occupancy
  Tb  Tb0  1  0.180484  0.052396  0.937252  1
  Tb  Tb1  1  0.319516  0.447604  0.437252  1
  Tb  Tb2  1  0.180608  0.447601  0.937212  1
  Tb  Tb3  1  0.319392  0.052399  0.437212  1
  Tb  Tb4  1  0.819532  0.947627  0.062719  1
  Tb  Tb5  1  0.680468  0.552373  0.562719  1
  Tb  Tb6  1  0.644978  0.750048  0.294513  1
  Tb  Tb7  1  0.855022  0.749952  0.794513  1
  Tb  Tb8  1  0.355094  0.249975  0.705523  1
  Tb  Tb9  1  0.144906  0.250025  0.205523  1
  Y  Y10  1  0.819463  0.552281  0.062782  1
  Y  Y11  1  0.680537  0.947719  0.562782  1
  Y  Y12  1  0.172483  0.750002  0.215454  1
  Y  Y13  1  0.327517  0.749998  0.715454  1
  Y  Y14  1  0.827485  0.249989  0.784580  1
  Y  Y15  1  0.672515  0.250011  0.284580  1
  Y  Y16  1  0.462045  0.750069  0.002566  1
  Y  Y17  1  0.037955  0.749931  0.502566  1
  Y  Y18  1  0.537915  0.249991  0.997394  1
  Y  Y19  1  0.962085  0.250009  0.497394  1
  Ga  Ga20  1  0.407296  0.750061  0.475053  1
  Ga  Ga21  1  0.092704  0.749939  0.975053  1
  Ga  Ga22  1  0.592672  0.249909  0.524980  1
  Ga  Ga23  1  0.907328  0.250091  0.024980  1
  Bi  Bi24  1  0.937608  0.509578  0.324783  1
  Bi  Bi25  1  0.562392  0.990422  0.824783  1
  Bi  Bi26  1  0.062343  0.009530  0.675183  1
  Bi  Bi27  1  0.437657  0.490470  0.175183  1
  Bi  Bi28  1  0.062400  0.490467  0.675214  1
  Bi  Bi29  1  0.437600  0.009533  0.175214  1
  Bi  Bi30  1  0.937650  0.990424  0.324796  1
  Bi  Bi31  1  0.562350  0.509576  0.824796  1
