# generated using pymatgen
data_Ho16CdInCo2(HgRu)2
_symmetry_space_group_name_H-M   'P 1'
_cell_length_a   9.57238395
_cell_length_b   9.48255245
_cell_length_c   9.48242200
_cell_angle_alpha   59.53991539
_cell_angle_beta   59.68566335
_cell_angle_gamma   59.68613652
_symmetry_Int_Tables_number   1
_chemical_formula_structural   Ho16CdInCo2(HgRu)2
_chemical_formula_sum   'Ho16 Cd1 In1 Co2 Hg2 Ru2'
_cell_volume   603.60510283
_cell_formula_units_Z   1
loop_
 _symmetry_equiv_pos_site_id
 _symmetry_equiv_pos_as_xyz
  1  'x, y, z'
loop_
 _atom_site_type_symbol
 _atom_site_label
 _atom_site_symmetry_multiplicity
 _atom_site_fract_x
 _atom_site_fract_y
 _atom_site_fract_z
 _atom_site_occupancy
  Ho  Ho0  1  0.939402  0.938081  0.558529  1
  Ho  Ho1  1  0.811260  0.188705  0.188775  1
  Ho  Ho2  1  0.937142  0.562844  0.562874  1
  Ho  Ho3  1  0.939899  0.558824  0.937231  1
  Ho  Ho4  1  0.814904  0.806486  0.187603  1
  Ho  Ho5  1  0.341024  0.349890  0.349554  1
  Ho  Ho6  1  0.558911  0.942080  0.940097  1
  Ho  Ho7  1  0.563987  0.938081  0.558529  1
  Ho  Ho8  1  0.190026  0.809763  0.810185  1
  Ho  Ho9  1  0.190060  0.186437  0.807463  1
  Ho  Ho10  1  0.344496  0.354235  0.956775  1
  Ho  Ho11  1  0.345502  0.954914  0.354084  1
  Ho  Ho12  1  0.816041  0.186437  0.807463  1
  Ho  Ho13  1  0.564046  0.558824  0.937231  1
  Ho  Ho14  1  0.191008  0.806486  0.187603  1
  Ho  Ho15  1  0.959534  0.349890  0.349554  1
  Cd  Cd16  1  0.580413  0.260001  0.579173  1
  In  In17  1  0.583025  0.580423  0.253527  1
  Co  Co18  1  0.138925  0.579135  0.143017  1
  Co  Co19  1  0.139081  0.142841  0.578999  1
  Hg  Hg20  1  0.247738  0.582256  0.584102  1
  Hg  Hg21  1  0.585905  0.582256  0.584102  1
  Ru  Ru22  1  0.578525  0.140558  0.141770  1
  Ru  Ru23  1  0.139147  0.140558  0.141770  1
