# generated using pymatgen
data_Pa3Ta(Co4P3)2
_symmetry_space_group_name_H-M   'P 1'
_cell_length_a   3.78117200
_cell_length_b   10.63477200
_cell_length_c   12.35315700
_cell_angle_alpha   90.00000000
_cell_angle_beta   90.00000000
_cell_angle_gamma   90.00000000
_symmetry_Int_Tables_number   1
_chemical_formula_structural   Pa3Ta(Co4P3)2
_chemical_formula_sum   'Pa6 Ta2 Co16 P12'
_cell_volume   496.74394007
_cell_formula_units_Z   2
loop_
 _symmetry_equiv_pos_site_id
 _symmetry_equiv_pos_as_xyz
  1  'x, y, z'
loop_
 _atom_site_type_symbol
 _atom_site_label
 _atom_site_symmetry_multiplicity
 _atom_site_fract_x
 _atom_site_fract_y
 _atom_site_fract_z
 _atom_site_occupancy
  Pa  Pa0  1  0.000000  0.500000  0.526661  1
  Pa  Pa1  1  0.500000  0.000000  0.473339  1
  Pa  Pa2  1  0.500000  0.821038  0.207798  1
  Pa  Pa3  1  0.500000  0.178962  0.207798  1
  Pa  Pa4  1  0.000000  0.678962  0.792202  1
  Pa  Pa5  1  0.000000  0.321038  0.792202  1
  Ta  Ta6  1  0.500000  0.500000  0.153827  1
  Ta  Ta7  1  0.000000  0.000000  0.846173  1
  Co  Co8  1  0.500000  0.500000  0.700356  1
  Co  Co9  1  0.000000  0.000000  0.299644  1
  Co  Co10  1  0.000000  0.500000  0.983838  1
  Co  Co11  1  0.500000  0.000000  0.016162  1
  Co  Co12  1  0.500000  0.332129  0.990537  1
  Co  Co13  1  0.500000  0.667871  0.990537  1
  Co  Co14  1  0.000000  0.167871  0.009463  1
  Co  Co15  1  0.000000  0.832129  0.009463  1
  Co  Co16  1  0.500000  0.300026  0.430710  1
  Co  Co17  1  0.500000  0.699974  0.430710  1
  Co  Co18  1  0.000000  0.199974  0.569290  1
  Co  Co19  1  0.000000  0.800026  0.569290  1
  Co  Co20  1  0.500000  0.875885  0.711961  1
  Co  Co21  1  0.500000  0.124115  0.711961  1
  Co  Co22  1  0.000000  0.624115  0.288039  1
  Co  Co23  1  0.000000  0.375885  0.288039  1
  P  P24  1  0.500000  0.500000  0.883152  1
  P  P25  1  0.000000  0.000000  0.116848  1
  P  P26  1  0.500000  0.500000  0.349931  1
  P  P27  1  0.000000  0.000000  0.650069  1
  P  P28  1  0.500000  0.308344  0.613041  1
  P  P29  1  0.500000  0.691656  0.613041  1
  P  P30  1  0.000000  0.191656  0.386959  1
  P  P31  1  0.000000  0.808344  0.386959  1
  P  P32  1  0.500000  0.843030  0.896604  1
  P  P33  1  0.500000  0.156970  0.896604  1
  P  P34  1  0.000000  0.656970  0.103396  1
  P  P35  1  0.000000  0.343030  0.103396  1
