# generated using pymatgen
data_Th3Hg5Ir
_symmetry_space_group_name_H-M   'P 1'
_cell_length_a   8.19772000
_cell_length_b   8.19771970
_cell_length_c   3.93591500
_cell_angle_alpha   90.00000000
_cell_angle_beta   90.00000000
_cell_angle_gamma   119.99999315
_symmetry_Int_Tables_number   1
_chemical_formula_structural   Th3Hg5Ir
_chemical_formula_sum   'Th3 Hg5 Ir1'
_cell_volume   229.06699442
_cell_formula_units_Z   1
loop_
 _symmetry_equiv_pos_site_id
 _symmetry_equiv_pos_as_xyz
  1  'x, y, z'
loop_
 _atom_site_type_symbol
 _atom_site_label
 _atom_site_symmetry_multiplicity
 _atom_site_fract_x
 _atom_site_fract_y
 _atom_site_fract_z
 _atom_site_occupancy
  Th  Th0  1  0.420556  0.386251  0.500000  1
  Th  Th1  1  0.613749  0.034306  0.500000  1
  Th  Th2  1  0.965694  0.579444  0.500000  1
  Hg  Hg3  1  0.723050  0.728694  0.000000  1
  Hg  Hg4  1  0.271306  0.994356  0.000000  1
  Hg  Hg5  1  0.005644  0.276950  0.000000  1
  Hg  Hg6  1  0.333333  0.666667  0.000000  1
  Hg  Hg7  1  0.000000  0.000000  0.500000  1
  Ir  Ir8  1  0.666667  0.333333  0.000000  1
