# generated using pymatgen
data_Ba4GaSi2AsPt4
_symmetry_space_group_name_H-M   'P 1'
_cell_length_a   6.79721430
_cell_length_b   6.78961123
_cell_length_c   6.79503218
_cell_angle_alpha   90.98743697
_cell_angle_beta   90.32967289
_cell_angle_gamma   91.02883790
_symmetry_Int_Tables_number   1
_chemical_formula_structural   Ba4GaSi2AsPt4
_chemical_formula_sum   'Ba4 Ga1 Si2 As1 Pt4'
_cell_volume   313.49085806
_cell_formula_units_Z   1
loop_
 _symmetry_equiv_pos_site_id
 _symmetry_equiv_pos_as_xyz
  1  'x, y, z'
loop_
 _atom_site_type_symbol
 _atom_site_label
 _atom_site_symmetry_multiplicity
 _atom_site_fract_x
 _atom_site_fract_y
 _atom_site_fract_z
 _atom_site_occupancy
  Ba  Ba0  1  0.637245  0.371112  0.866193  1
  Ba  Ba1  1  0.370390  0.862907  0.632749  1
  Ba  Ba2  1  0.126845  0.128595  0.133002  1
  Ba  Ba3  1  0.866965  0.633408  0.368787  1
  Ga  Ga4  1  0.159742  0.345444  0.652940  1
  Si  Si5  1  0.651331  0.159309  0.342296  1
  Si  Si6  1  0.347742  0.655037  0.162537  1
  As  As7  1  0.837047  0.836496  0.837935  1
  Pt  Pt8  1  0.586594  0.907288  0.103189  1
  Pt  Pt9  1  0.102065  0.597409  0.922508  1
  Pt  Pt10  1  0.420211  0.411365  0.397294  1
  Pt  Pt11  1  0.893821  0.091631  0.580569  1
