# generated using pymatgen
data_Nd2MgBe2(SiO5)2
_symmetry_space_group_name_H-M   'P 1'
_cell_length_a   7.69956900
_cell_length_b   4.81556752
_cell_length_c   10.21114988
_cell_angle_alpha   90.99388333
_cell_angle_beta   90.00000000
_cell_angle_gamma   90.00000000
_symmetry_Int_Tables_number   1
_chemical_formula_structural   Nd2MgBe2(SiO5)2
_chemical_formula_sum   'Nd4 Mg2 Be4 Si4 O20'
_cell_volume   378.54995532
_cell_formula_units_Z   2
loop_
 _symmetry_equiv_pos_site_id
 _symmetry_equiv_pos_as_xyz
  1  'x, y, z'
loop_
 _atom_site_type_symbol
 _atom_site_label
 _atom_site_symmetry_multiplicity
 _atom_site_fract_x
 _atom_site_fract_y
 _atom_site_fract_z
 _atom_site_occupancy
  Nd  Nd0  1  0.608799  0.995561  0.826547  1
  Nd  Nd1  1  0.108799  0.004439  0.673453  1
  Nd  Nd2  1  0.391201  0.004439  0.173453  1
  Nd  Nd3  1  0.891201  0.995561  0.326547  1
  Mg  Mg4  1  0.000000  0.000000  0.000000  1
  Mg  Mg5  1  0.500000  0.000000  0.500000  1
  Be  Be6  1  0.911717  0.534152  0.841225  1
  Be  Be7  1  0.411717  0.465848  0.658775  1
  Be  Be8  1  0.088283  0.465848  0.158775  1
  Be  Be9  1  0.588283  0.534152  0.341225  1
  Si  Si10  1  0.773336  0.480138  0.580596  1
  Si  Si11  1  0.273336  0.519862  0.919404  1
  Si  Si12  1  0.226664  0.519862  0.419404  1
  Si  Si13  1  0.726664  0.480138  0.080596  1
  O  O14  1  0.602400  0.305310  0.635208  1
  O  O15  1  0.102400  0.694690  0.864792  1
  O  O16  1  0.397600  0.694690  0.364792  1
  O  O17  1  0.897600  0.305310  0.135208  1
  O  O18  1  0.412133  0.793756  0.661694  1
  O  O19  1  0.912133  0.206244  0.838306  1
  O  O20  1  0.587867  0.206244  0.338306  1
  O  O21  1  0.206788  0.316165  0.038809  1
  O  O22  1  0.588126  0.246700  0.030722  1
  O  O23  1  0.088126  0.753300  0.469278  1
  O  O24  1  0.840880  0.680767  0.703191  1
  O  O25  1  0.911874  0.246700  0.530722  1
  O  O26  1  0.706788  0.683835  0.461191  1
  O  O27  1  0.411874  0.753300  0.969278  1
  O  O28  1  0.293212  0.316165  0.538809  1
  O  O29  1  0.793212  0.683835  0.961191  1
  O  O30  1  0.659120  0.680767  0.203191  1
  O  O31  1  0.159120  0.319233  0.296809  1
  O  O32  1  0.340880  0.319233  0.796809  1
  O  O33  1  0.087867  0.793756  0.161694  1
