# generated using pymatgen
data_Sc6PS4
_symmetry_space_group_name_H-M   'P 1'
_cell_length_a   7.32810807
_cell_length_b   6.35319372
_cell_length_c   6.34811828
_cell_angle_alpha   119.72433223
_cell_angle_beta   106.82681519
_cell_angle_gamma   106.85701968
_symmetry_Int_Tables_number   1
_chemical_formula_structural   Sc6PS4
_chemical_formula_sum   'Sc6 P1 S4'
_cell_volume   209.61494541
_cell_formula_units_Z   1
loop_
 _symmetry_equiv_pos_site_id
 _symmetry_equiv_pos_as_xyz
  1  'x, y, z'
loop_
 _atom_site_type_symbol
 _atom_site_label
 _atom_site_symmetry_multiplicity
 _atom_site_fract_x
 _atom_site_fract_y
 _atom_site_fract_z
 _atom_site_occupancy
  Sc  Sc0  1  0.929399  0.237395  0.993856  1
  Sc  Sc1  1  0.921315  0.547828  0.644444  1
  Sc  Sc2  1  0.431943  0.891285  0.325897  1
  Sc  Sc3  1  0.437906  0.580529  0.674968  1
  Sc  Sc4  1  0.929424  0.898526  0.331641  1
  Sc  Sc5  1  0.431253  0.229889  0.988103  1
  P  P6  1  0.680572  0.064132  0.159643  1
  S  S7  1  0.681143  0.731812  0.493319  1
  S  S8  1  0.179728  0.731739  0.492924  1
  S  S9  1  0.678969  0.396753  0.826606  1
  S  S10  1  0.180485  0.396903  0.826521  1
