# generated using pymatgen
data_Zr6AlGa6Ni16H3
_symmetry_space_group_name_H-M   'P 1'
_cell_length_a   8.26926846
_cell_length_b   8.26926927
_cell_length_c   8.26926906
_cell_angle_alpha   119.88279472
_cell_angle_beta   120.18124403
_cell_angle_gamma   89.94474339
_symmetry_Int_Tables_number   1
_chemical_formula_structural   Zr6AlGa6Ni16H3
_chemical_formula_sum   'Zr6 Al1 Ga6 Ni16 H3'
_cell_volume   399.64300023
_cell_formula_units_Z   1
loop_
 _symmetry_equiv_pos_site_id
 _symmetry_equiv_pos_as_xyz
  1  'x, y, z'
loop_
 _atom_site_type_symbol
 _atom_site_label
 _atom_site_symmetry_multiplicity
 _atom_site_fract_x
 _atom_site_fract_y
 _atom_site_fract_z
 _atom_site_occupancy
  Zr  Zr0  1  0.794951  0.214081  0.003923  1
  Zr  Zr1  1  0.794951  0.791029  0.580871  1
  Zr  Zr2  1  0.778392  0.778392  0.000000  1
  Zr  Zr3  1  0.210157  0.791029  0.996077  1
  Zr  Zr4  1  0.210157  0.214081  0.419129  1
  Zr  Zr5  1  0.212903  0.212903  0.000000  1
  Al  Al6  1  0.499594  0.499594  0.000000  1
  Ga  Ga7  1  0.498403  0.496581  0.495871  1
  Ga  Ga8  1  0.498403  0.002533  0.001822  1
  Ga  Ga9  1  0.499608  0.999608  0.500000  1
  Ga  Ga10  1  0.000709  0.002533  0.504129  1
  Ga  Ga11  1  0.000709  0.496581  0.998178  1
  Ga  Ga12  1  0.997929  0.497929  0.500000  1
  Ni  Ni13  1  0.484099  0.827062  0.657037  1
  Ni  Ni14  1  0.170027  0.827062  0.342963  1
  Ni  Ni15  1  0.168828  0.830426  0.661598  1
  Ni  Ni16  1  0.168828  0.507229  0.338402  1
  Ni  Ni17  1  0.509435  0.169110  0.340326  1
  Ni  Ni18  1  0.828784  0.169110  0.659674  1
  Ni  Ni19  1  0.830551  0.165678  0.335127  1
  Ni  Ni20  1  0.830551  0.495425  0.664873  1
  Ni  Ni21  1  0.859777  0.617827  0.241950  1
  Ni  Ni22  1  0.375878  0.617827  0.758050  1
  Ni  Ni23  1  0.380716  0.619579  0.238863  1
  Ni  Ni24  1  0.380716  0.141855  0.761137  1
  Ni  Ni25  1  0.140690  0.381308  0.759382  1
  Ni  Ni26  1  0.621926  0.381308  0.240618  1
  Ni  Ni27  1  0.617955  0.377862  0.759909  1
  Ni  Ni28  1  0.617955  0.858045  0.240091  1
  H  H29  1  0.027929  0.027929  0.000000  1
  H  H30  1  0.719625  0.904143  0.815483  1
  H  H31  1  0.088659  0.904143  0.184517  1
