# generated using pymatgen
data_RbAl(PO3)4
_symmetry_space_group_name_H-M   'P 1'
_cell_length_a   10.51149509
_cell_length_b   10.51149574
_cell_length_c   5.16284726
_cell_angle_alpha   81.63166524
_cell_angle_beta   81.63166431
_cell_angle_gamma   73.20643312
_symmetry_Int_Tables_number   1
_chemical_formula_structural   RbAl(PO3)4
_chemical_formula_sum   'Rb2 Al2 P8 O24'
_cell_volume   537.07293285
_cell_formula_units_Z   2
loop_
 _symmetry_equiv_pos_site_id
 _symmetry_equiv_pos_as_xyz
  1  'x, y, z'
loop_
 _atom_site_type_symbol
 _atom_site_label
 _atom_site_symmetry_multiplicity
 _atom_site_fract_x
 _atom_site_fract_y
 _atom_site_fract_z
 _atom_site_occupancy
  Rb  Rb0  1  0.401598  0.401598  0.758507  1
  Rb  Rb1  1  0.598402  0.598402  0.241493  1
  Al  Al2  1  0.000000  0.500000  0.000000  1
  Al  Al3  1  0.500000  0.000000  0.000000  1
  P  P4  1  0.070564  0.311963  0.533888  1
  P  P5  1  0.311963  0.070564  0.533888  1
  P  P6  1  0.929436  0.688037  0.466112  1
  P  P7  1  0.688037  0.929436  0.466112  1
  P  P8  1  0.806174  0.350152  0.837837  1
  P  P9  1  0.350152  0.806174  0.837837  1
  P  P10  1  0.193826  0.649848  0.162163  1
  P  P11  1  0.649848  0.193826  0.162163  1
  O  O12  1  0.911780  0.645241  0.756156  1
  O  O13  1  0.645241  0.911780  0.756156  1
  O  O14  1  0.088220  0.354759  0.243844  1
  O  O15  1  0.354759  0.088220  0.243844  1
  O  O16  1  0.862178  0.418966  0.015490  1
  O  O17  1  0.418966  0.862178  0.015490  1
  O  O18  1  0.137822  0.581034  0.984510  1
  O  O19  1  0.581034  0.137822  0.984510  1
  O  O20  1  0.097346  0.400229  0.714333  1
  O  O21  1  0.400229  0.097346  0.714333  1
  O  O22  1  0.902654  0.599771  0.285667  1
  O  O23  1  0.599771  0.902654  0.285667  1
  O  O24  1  0.926560  0.287323  0.616835  1
  O  O25  1  0.287323  0.926560  0.616835  1
  O  O26  1  0.073440  0.712677  0.383165  1
  O  O27  1  0.712677  0.073440  0.383165  1
  O  O28  1  0.684091  0.427687  0.716146  1
  O  O29  1  0.427687  0.684091  0.716146  1
  O  O30  1  0.315909  0.572313  0.283854  1
  O  O31  1  0.572313  0.315909  0.283854  1
  O  O32  1  0.789142  0.210858  0.000000  1
  O  O33  1  0.210858  0.789142  0.000000  1
  O  O34  1  0.162381  0.162381  0.592726  1
  O  O35  1  0.837619  0.837619  0.407274  1
