# generated using pymatgen
data_In4GaGePt6
_symmetry_space_group_name_H-M   'P 1'
_cell_length_a   6.90863095
_cell_length_b   6.90863129
_cell_length_c   5.58608800
_cell_angle_alpha   90.00000000
_cell_angle_beta   90.00000000
_cell_angle_gamma   61.78785749
_symmetry_Int_Tables_number   1
_chemical_formula_structural   In4GaGePt6
_chemical_formula_sum   'In4 Ga1 Ge1 Pt6'
_cell_volume   234.94591075
_cell_formula_units_Z   1
loop_
 _symmetry_equiv_pos_site_id
 _symmetry_equiv_pos_as_xyz
  1  'x, y, z'
loop_
 _atom_site_type_symbol
 _atom_site_label
 _atom_site_symmetry_multiplicity
 _atom_site_fract_x
 _atom_site_fract_y
 _atom_site_fract_z
 _atom_site_occupancy
  In  In0  1  0.486824  0.155714  0.250000  1
  In  In1  1  0.844286  0.513175  0.250000  1
  In  In2  1  0.156124  0.481980  0.750000  1
  In  In3  1  0.518019  0.843876  0.750000  1
  Ga  Ga4  1  0.800425  0.199575  0.750000  1
  Ge  Ge5  1  0.192991  0.807009  0.250000  1
  Pt  Pt6  1  0.141888  0.137452  0.000052  1
  Pt  Pt7  1  0.496228  0.503772  0.000726  1
  Pt  Pt8  1  0.862548  0.858112  0.000052  1
  Pt  Pt9  1  0.141888  0.137452  0.499948  1
  Pt  Pt10  1  0.496228  0.503772  0.499274  1
  Pt  Pt11  1  0.862548  0.858112  0.499948  1
