# generated using pymatgen
data_Tb4Sc(SiHg)2
_symmetry_space_group_name_H-M   'P 1'
_cell_length_a   8.83440858
_cell_length_b   8.83440779
_cell_length_c   7.43206400
_cell_angle_alpha   90.00000000
_cell_angle_beta   90.00000000
_cell_angle_gamma   130.38373077
_symmetry_Int_Tables_number   1
_chemical_formula_structural   Tb4Sc(SiHg)2
_chemical_formula_sum   'Tb8 Sc2 Si4 Hg4'
_cell_volume   441.83594096
_cell_formula_units_Z   2
loop_
 _symmetry_equiv_pos_site_id
 _symmetry_equiv_pos_as_xyz
  1  'x, y, z'
loop_
 _atom_site_type_symbol
 _atom_site_label
 _atom_site_symmetry_multiplicity
 _atom_site_fract_x
 _atom_site_fract_y
 _atom_site_fract_z
 _atom_site_occupancy
  Tb  Tb0  1  0.056223  0.310005  0.323061  1
  Tb  Tb1  1  0.943777  0.689995  0.676939  1
  Tb  Tb2  1  0.443777  0.189995  0.823061  1
  Tb  Tb3  1  0.810005  0.556223  0.176939  1
  Tb  Tb4  1  0.556223  0.810005  0.176939  1
  Tb  Tb5  1  0.189995  0.443777  0.823061  1
  Tb  Tb6  1  0.689995  0.943777  0.676939  1
  Tb  Tb7  1  0.310005  0.056223  0.323061  1
  Sc  Sc8  1  0.000000  0.000000  0.000000  1
  Sc  Sc9  1  0.500000  0.500000  0.500000  1
  Si  Si10  1  0.379783  0.379783  0.123070  1
  Si  Si11  1  0.620217  0.620217  0.876930  1
  Si  Si12  1  0.120217  0.120217  0.623070  1
  Si  Si13  1  0.879783  0.879783  0.376930  1
  Hg  Hg14  1  0.781444  0.218556  0.000000  1
  Hg  Hg15  1  0.218556  0.781444  0.000000  1
  Hg  Hg16  1  0.718556  0.281444  0.500000  1
  Hg  Hg17  1  0.281444  0.718556  0.500000  1
