# generated using pymatgen
data_Y8CoAg2Rh
_symmetry_space_group_name_H-M   'P 1'
_cell_length_a   9.52114222
_cell_length_b   9.52024428
_cell_length_c   9.47078238
_cell_angle_alpha   60.19212739
_cell_angle_beta   60.18273818
_cell_angle_gamma   60.31736741
_symmetry_Int_Tables_number   1
_chemical_formula_structural   Y8CoAg2Rh
_chemical_formula_sum   'Y16 Co2 Ag4 Rh2'
_cell_volume   610.19594684
_cell_formula_units_Z   2
loop_
 _symmetry_equiv_pos_site_id
 _symmetry_equiv_pos_as_xyz
  1  'x, y, z'
loop_
 _atom_site_type_symbol
 _atom_site_label
 _atom_site_symmetry_multiplicity
 _atom_site_fract_x
 _atom_site_fract_y
 _atom_site_fract_z
 _atom_site_occupancy
  Y  Y0  1  0.598881  0.598856  0.610611  1
  Y  Y1  1  0.598667  0.598727  0.191813  1
  Y  Y2  1  0.590723  0.206538  0.601200  1
  Y  Y3  1  0.206533  0.590718  0.601138  1
  Y  Y4  1  0.066769  0.437575  0.439230  1
  Y  Y5  1  0.437596  0.066480  0.056648  1
  Y  Y6  1  0.437625  0.066682  0.439327  1
  Y  Y7  1  0.066391  0.437637  0.056597  1
  Y  Y8  1  0.436141  0.436137  0.064133  1
  Y  Y9  1  0.060719  0.060741  0.439260  1
  Y  Y10  1  0.184417  0.814094  0.814107  1
  Y  Y11  1  0.814048  0.184440  0.187404  1
  Y  Y12  1  0.814231  0.184325  0.814164  1
  Y  Y13  1  0.184361  0.814171  0.187315  1
  Y  Y14  1  0.811710  0.811711  0.188289  1
  Y  Y15  1  0.184322  0.184313  0.815651  1
  Co  Co16  1  0.392471  0.392373  0.389857  1
  Co  Co17  1  0.392353  0.392452  0.825306  1
  Ag  Ag18  1  0.832662  0.832665  0.828719  1
  Ag  Ag19  1  0.832658  0.832661  0.505941  1
  Ag  Ag20  1  0.833996  0.506339  0.829853  1
  Ag  Ag21  1  0.506350  0.834002  0.829814  1
  Rh  Rh22  1  0.395417  0.820949  0.391820  1
  Rh  Rh23  1  0.820960  0.395415  0.391804  1
