# generated using pymatgen
data_Ca12Tm3Ge12Mo5O48
_symmetry_space_group_name_H-M   'P 1'
_cell_length_a   11.07001971
_cell_length_b   11.06860133
_cell_length_c   11.06883310
_cell_angle_alpha   109.46790376
_cell_angle_beta   109.48376099
_cell_angle_gamma   109.45817833
_symmetry_Int_Tables_number   1
_chemical_formula_structural   Ca12Tm3Ge12Mo5O48
_chemical_formula_sum   'Ca12 Tm3 Ge12 Mo5 O48'
_cell_volume   1044.09865824
_cell_formula_units_Z   1
loop_
 _symmetry_equiv_pos_site_id
 _symmetry_equiv_pos_as_xyz
  1  'x, y, z'
loop_
 _atom_site_type_symbol
 _atom_site_label
 _atom_site_symmetry_multiplicity
 _atom_site_fract_x
 _atom_site_fract_y
 _atom_site_fract_z
 _atom_site_occupancy
  Ca  Ca0  1  0.249225  0.875362  0.622873  1
  Ca  Ca1  1  0.755130  0.627877  0.877404  1
  Ca  Ca2  1  0.626361  0.875898  0.750130  1
  Ca  Ca3  1  0.877448  0.624989  0.251707  1
  Ca  Ca4  1  0.627866  0.250505  0.872522  1
  Ca  Ca5  1  0.878017  0.752405  0.625351  1
  Ca  Ca6  1  0.750775  0.124638  0.377127  1
  Ca  Ca7  1  0.244870  0.372123  0.122596  1
  Ca  Ca8  1  0.373639  0.124102  0.249870  1
  Ca  Ca9  1  0.122552  0.375011  0.748293  1
  Ca  Ca10  1  0.372134  0.749495  0.127478  1
  Ca  Ca11  1  0.121983  0.247595  0.374649  1
  Tm  Tm12  1  0.500000  0.500000  0.500000  1
  Tm  Tm13  1  0.500000  0.500000  0.000000  1
  Tm  Tm14  1  0.500000  0.000000  0.000000  1
  Ge  Ge15  1  0.122594  0.748453  0.875451  1
  Ge  Ge16  1  0.877406  0.251547  0.124549  1
  Ge  Ge17  1  0.627328  0.374517  0.251463  1
  Ge  Ge18  1  0.754247  0.876418  0.127663  1
  Ge  Ge19  1  0.875032  0.124987  0.750097  1
  Ge  Ge20  1  0.247303  0.624682  0.373115  1
  Ge  Ge21  1  0.752697  0.375318  0.626885  1
  Ge  Ge22  1  0.245753  0.123582  0.872337  1
  Ge  Ge23  1  0.124968  0.875013  0.249903  1
  Ge  Ge24  1  0.372672  0.625483  0.748537  1
  Ge  Ge25  1  0.626482  0.754392  0.377816  1
  Ge  Ge26  1  0.373518  0.245608  0.622184  1
  Mo  Mo27  1  0.500000  0.000000  0.500000  1
  Mo  Mo28  1  0.000000  0.500000  0.500000  1
  Mo  Mo29  1  0.000000  0.000000  0.500000  1
  Mo  Mo30  1  0.000000  0.500000  0.000000  1
  Mo  Mo31  1  0.000000  0.000000  0.000000  1
  O  O32  1  0.408873  0.806926  0.783766  1
  O  O33  1  0.879566  0.398600  0.089475  1
  O  O34  1  0.100109  0.977425  0.689422  1
  O  O35  1  0.519179  0.623908  0.714568  1
  O  O36  1  0.691504  0.087630  0.710097  1
  O  O37  1  0.626286  0.716245  0.522318  1
  O  O38  1  0.625929  0.410146  0.105115  1
  O  O39  1  0.714502  0.519053  0.624663  1
  O  O40  1  0.809555  0.521177  0.398864  1
  O  O41  1  0.978858  0.788703  0.876650  1
  O  O42  1  0.790223  0.879153  0.981840  1
  O  O43  1  0.716079  0.693898  0.089761  1
  O  O44  1  0.410702  0.100014  0.622095  1
  O  O45  1  0.395333  0.807331  0.516665  1
  O  O46  1  0.088015  0.709952  0.692784  1
  O  O47  1  0.102288  0.623921  0.412044  1
  O  O48  1  0.518175  0.393090  0.803767  1
  O  O49  1  0.088109  0.877699  0.396333  1
  O  O50  1  0.981841  0.691688  0.103528  1
  O  O51  1  0.190445  0.478823  0.601136  1
  O  O52  1  0.695173  0.105716  0.980229  1
  O  O53  1  0.789756  0.411014  0.809401  1
  O  O54  1  0.393414  0.089897  0.875749  1
  O  O55  1  0.878337  0.981965  0.790254  1
  O  O56  1  0.591127  0.193074  0.216234  1
  O  O57  1  0.120434  0.601400  0.910525  1
  O  O58  1  0.899891  0.022575  0.310578  1
  O  O59  1  0.480821  0.376092  0.285432  1
  O  O60  1  0.308496  0.912370  0.289903  1
  O  O61  1  0.373714  0.283755  0.477682  1
  O  O62  1  0.374071  0.589854  0.894885  1
  O  O63  1  0.285498  0.480947  0.375337  1
  O  O64  1  0.121663  0.018035  0.209746  1
  O  O65  1  0.606586  0.910103  0.124251  1
  O  O66  1  0.210244  0.588986  0.190599  1
  O  O67  1  0.191965  0.210098  0.589413  1
  O  O68  1  0.304827  0.894284  0.019771  1
  O  O69  1  0.018159  0.308312  0.896472  1
  O  O70  1  0.911891  0.122301  0.603667  1
  O  O71  1  0.481825  0.606910  0.196233  1
  O  O72  1  0.897712  0.376079  0.587956  1
  O  O73  1  0.911985  0.290048  0.307216  1
  O  O74  1  0.604667  0.192669  0.483335  1
  O  O75  1  0.589298  0.899986  0.377905  1
  O  O76  1  0.283921  0.306102  0.910239  1
  O  O77  1  0.209777  0.120847  0.018160  1
  O  O78  1  0.021142  0.211297  0.123350  1
  O  O79  1  0.808035  0.789902  0.410587  1
