# generated using pymatgen
data_HgPd2PtO6
_symmetry_space_group_name_H-M   'P 1'
_cell_length_a   6.40022667
_cell_length_b   6.41737133
_cell_length_c   3.19724300
_cell_angle_alpha   90.00000000
_cell_angle_beta   90.00000000
_cell_angle_gamma   109.82869533
_symmetry_Int_Tables_number   1
_chemical_formula_structural   HgPd2PtO6
_chemical_formula_sum   'Hg1 Pd2 Pt1 O6'
_cell_volume   123.53339972
_cell_formula_units_Z   1
loop_
 _symmetry_equiv_pos_site_id
 _symmetry_equiv_pos_as_xyz
  1  'x, y, z'
loop_
 _atom_site_type_symbol
 _atom_site_label
 _atom_site_symmetry_multiplicity
 _atom_site_fract_x
 _atom_site_fract_y
 _atom_site_fract_z
 _atom_site_occupancy
  Hg  Hg0  1  0.500000  0.500000  0.000000  1
  Pd  Pd1  1  0.000000  0.500000  0.500000  1
  Pd  Pd2  1  0.000000  0.000000  0.000000  1
  Pt  Pt3  1  0.500000  0.000000  0.500000  1
  O  O4  1  0.664840  0.927455  0.000000  1
  O  O5  1  0.335160  0.072545  0.000000  1
  O  O6  1  0.926068  0.669408  0.000000  1
  O  O7  1  0.073932  0.330592  0.000000  1
  O  O8  1  0.667222  0.328972  0.500000  1
  O  O9  1  0.332778  0.671028  0.500000  1
