# generated using pymatgen
data_Th(Zn5Ga)2
_symmetry_space_group_name_H-M   'P 1'
_cell_length_a   6.88944904
_cell_length_b   6.88944900
_cell_length_c   6.88945058
_cell_angle_alpha   101.13543481
_cell_angle_beta   96.61766289
_cell_angle_gamma   133.75911281
_symmetry_Int_Tables_number   1
_chemical_formula_structural   Th(Zn5Ga)2
_chemical_formula_sum   'Th1 Zn10 Ga2'
_cell_volume   216.98019522
_cell_formula_units_Z   1
loop_
 _symmetry_equiv_pos_site_id
 _symmetry_equiv_pos_as_xyz
  1  'x, y, z'
loop_
 _atom_site_type_symbol
 _atom_site_label
 _atom_site_symmetry_multiplicity
 _atom_site_fract_x
 _atom_site_fract_y
 _atom_site_fract_z
 _atom_site_occupancy
  Th  Th0  1  0.000000  0.000000  0.000000  1
  Zn  Zn1  1  0.000000  0.000000  0.500000  1
  Zn  Zn2  1  0.500000  0.500000  0.500000  1
  Zn  Zn3  1  0.500000  0.000000  0.000000  1
  Zn  Zn4  1  0.000000  0.500000  0.000000  1
  Zn  Zn5  1  0.646964  0.000000  0.646964  1
  Zn  Zn6  1  0.353036  0.000000  0.353036  1
  Zn  Zn7  1  0.500000  0.271291  0.771291  1
  Zn  Zn8  1  0.500000  0.728709  0.228709  1
  Zn  Zn9  1  0.699350  0.500000  0.199350  1
  Zn  Zn10  1  0.300650  0.500000  0.800650  1
  Ga  Ga11  1  0.000000  0.355996  0.355996  1
  Ga  Ga12  1  0.000000  0.644004  0.644004  1
