# generated using pymatgen
data_TmMnCo3MoP3
_symmetry_space_group_name_H-M   'P 1'
_cell_length_a   3.66069000
_cell_length_b   10.43735900
_cell_length_c   12.08255600
_cell_angle_alpha   90.00000000
_cell_angle_beta   90.00000000
_cell_angle_gamma   90.00000000
_symmetry_Int_Tables_number   1
_chemical_formula_structural   TmMnCo3MoP3
_chemical_formula_sum   'Tm4 Mn4 Co12 Mo4 P12'
_cell_volume   461.64952295
_cell_formula_units_Z   4
loop_
 _symmetry_equiv_pos_site_id
 _symmetry_equiv_pos_as_xyz
  1  'x, y, z'
loop_
 _atom_site_type_symbol
 _atom_site_label
 _atom_site_symmetry_multiplicity
 _atom_site_fract_x
 _atom_site_fract_y
 _atom_site_fract_z
 _atom_site_occupancy
  Tm  Tm0  1  0.250000  0.584289  0.709801  1
  Tm  Tm1  1  0.250000  0.915711  0.209801  1
  Tm  Tm2  1  0.750000  0.415711  0.290199  1
  Tm  Tm3  1  0.750000  0.084289  0.790199  1
  Mn  Mn4  1  0.250000  0.408504  0.491313  1
  Mn  Mn5  1  0.250000  0.091496  0.991313  1
  Mn  Mn6  1  0.750000  0.591496  0.508687  1
  Mn  Mn7  1  0.750000  0.908504  0.008687  1
  Co  Co8  1  0.250000  0.223187  0.178283  1
  Co  Co9  1  0.250000  0.276813  0.678283  1
  Co  Co10  1  0.750000  0.776813  0.821717  1
  Co  Co11  1  0.750000  0.723187  0.321717  1
  Co  Co12  1  0.250000  0.885869  0.697764  1
  Co  Co13  1  0.250000  0.614131  0.197764  1
  Co  Co14  1  0.750000  0.114131  0.302236  1
  Co  Co15  1  0.750000  0.385869  0.802236  1
  Co  Co16  1  0.250000  0.465753  0.933953  1
  Co  Co17  1  0.250000  0.034247  0.433953  1
  Co  Co18  1  0.750000  0.534247  0.066047  1
  Co  Co19  1  0.750000  0.965753  0.566047  1
  Mo  Mo20  1  0.250000  0.711268  0.988125  1
  Mo  Mo21  1  0.250000  0.788732  0.488125  1
  Mo  Mo22  1  0.750000  0.288732  0.011875  1
  Mo  Mo23  1  0.750000  0.211268  0.511875  1
  P  P24  1  0.250000  0.421071  0.114284  1
  P  P25  1  0.250000  0.078929  0.614284  1
  P  P26  1  0.750000  0.578929  0.885716  1
  P  P27  1  0.750000  0.921071  0.385716  1
  P  P28  1  0.250000  0.268715  0.863193  1
  P  P29  1  0.250000  0.231285  0.363193  1
  P  P30  1  0.750000  0.731285  0.136807  1
  P  P31  1  0.750000  0.768715  0.636807  1
  P  P32  1  0.250000  0.596081  0.381986  1
  P  P33  1  0.250000  0.903919  0.881986  1
  P  P34  1  0.750000  0.403919  0.618014  1
  P  P35  1  0.750000  0.096081  0.118014  1
