# generated using pymatgen
data_Zr5Sc3Ta5Nb7Si15Ge
_symmetry_space_group_name_H-M   'P 1'
_cell_length_a   6.71540568
_cell_length_b   6.89519722
_cell_length_c   13.16617100
_cell_angle_alpha   89.93392268
_cell_angle_beta   90.10686325
_cell_angle_gamma   90.03958509
_symmetry_Int_Tables_number   1
_chemical_formula_structural   Zr5Sc3Ta5Nb7Si15Ge
_chemical_formula_sum   'Zr5 Sc3 Ta5 Nb7 Si15 Ge1'
_cell_volume   609.64538491
_cell_formula_units_Z   1
loop_
 _symmetry_equiv_pos_site_id
 _symmetry_equiv_pos_as_xyz
  1  'x, y, z'
loop_
 _atom_site_type_symbol
 _atom_site_label
 _atom_site_symmetry_multiplicity
 _atom_site_fract_x
 _atom_site_fract_y
 _atom_site_fract_z
 _atom_site_occupancy
  Zr  Zr0  1  0.498044  0.671288  0.595425  1
  Zr  Zr1  1  0.001298  0.826295  0.904503  1
  Zr  Zr2  1  0.499868  0.326650  0.094786  1
  Zr  Zr3  1  0.006702  0.176946  0.404562  1
  Zr  Zr4  1  0.501703  0.328294  0.406054  1
  Sc  Sc5  1  0.001238  0.173004  0.094174  1
  Sc  Sc6  1  0.499097  0.673223  0.905765  1
  Sc  Sc7  1  0.999835  0.825312  0.595332  1
  Ta  Ta8  1  0.660898  0.176338  0.625531  1
  Ta  Ta9  1  0.837441  0.494944  0.750553  1
  Ta  Ta10  1  0.338888  0.005479  0.749037  1
  Ta  Ta11  1  0.162057  0.504959  0.250600  1
  Ta  Ta12  1  0.660771  0.995189  0.248574  1
  Nb  Nb13  1  0.163847  0.327473  0.876281  1
  Nb  Nb14  1  0.335388  0.827939  0.123804  1
  Nb  Nb15  1  0.837039  0.666476  0.374939  1
  Nb  Nb16  1  0.334128  0.828367  0.375985  1
  Nb  Nb17  1  0.834756  0.670577  0.123916  1
  Nb  Nb18  1  0.665284  0.172421  0.875767  1
  Nb  Nb19  1  0.165058  0.328307  0.624315  1
  Si  Si20  1  0.167302  0.534069  0.039370  1
  Si  Si21  1  0.332096  0.034121  0.960663  1
  Si  Si22  1  0.830365  0.464694  0.538836  1
  Si  Si23  1  0.325736  0.035044  0.539474  1
  Si  Si24  1  0.829932  0.465739  0.960798  1
  Si  Si25  1  0.669480  0.965285  0.039161  1
  Si  Si26  1  0.169526  0.537089  0.461572  1
  Si  Si27  1  0.459834  0.386864  0.751694  1
  Si  Si28  1  0.960791  0.114003  0.749648  1
  Si  Si29  1  0.538682  0.615017  0.249953  1
  Si  Si30  1  0.038006  0.885799  0.249505  1
  Si  Si31  1  0.704565  0.862358  0.749823  1
  Si  Si32  1  0.204574  0.638069  0.750422  1
  Si  Si33  1  0.294553  0.137412  0.248902  1
  Si  Si34  1  0.795633  0.360920  0.248625  1
  Ge  Ge35  1  0.675586  0.964031  0.461651  1
