# generated using pymatgen
data_Hf18MnZnMo8
_symmetry_space_group_name_H-M   'P 1'
_cell_length_a   8.70235600
_cell_length_b   8.70235809
_cell_length_c   8.52899600
_cell_angle_alpha   90.00000000
_cell_angle_beta   90.00000000
_cell_angle_gamma   120.00054885
_symmetry_Int_Tables_number   1
_chemical_formula_structural   Hf18MnZnMo8
_chemical_formula_sum   'Hf18 Mn1 Zn1 Mo8'
_cell_volume   559.37098601
_cell_formula_units_Z   1
loop_
 _symmetry_equiv_pos_site_id
 _symmetry_equiv_pos_as_xyz
  1  'x, y, z'
loop_
 _atom_site_type_symbol
 _atom_site_label
 _atom_site_symmetry_multiplicity
 _atom_site_fract_x
 _atom_site_fract_y
 _atom_site_fract_z
 _atom_site_occupancy
  Hf  Hf0  1  0.202894  0.797107  0.058138  1
  Hf  Hf1  1  0.594213  0.797107  0.058137  1
  Hf  Hf2  1  0.805199  0.610399  0.551797  1
  Hf  Hf3  1  0.202893  0.405787  0.058137  1
  Hf  Hf4  1  0.805199  0.194800  0.551798  1
  Hf  Hf5  1  0.389601  0.194801  0.551797  1
  Hf  Hf6  1  0.805199  0.610399  0.948203  1
  Hf  Hf7  1  0.805199  0.194800  0.948202  1
  Hf  Hf8  1  0.389601  0.194801  0.948203  1
  Hf  Hf9  1  0.594213  0.797107  0.441863  1
  Hf  Hf10  1  0.202894  0.797107  0.441862  1
  Hf  Hf11  1  0.202893  0.405787  0.441863  1
  Hf  Hf12  1  0.540166  0.080333  0.250000  1
  Hf  Hf13  1  0.459257  0.918512  0.750000  1
  Hf  Hf14  1  0.919668  0.459835  0.250000  1
  Hf  Hf15  1  0.540166  0.459834  0.250000  1
  Hf  Hf16  1  0.459256  0.540743  0.750000  1
  Hf  Hf17  1  0.081488  0.540743  0.750000  1
  Mn  Mn18  1  0.333331  0.666666  0.250000  1
  Zn  Zn19  1  0.666667  0.333333  0.750000  1
  Mo  Mo20  1  0.000000  0.000000  0.003267  1
  Mo  Mo21  1  0.000000  0.000000  0.496733  1
  Mo  Mo22  1  0.888044  0.776088  0.250000  1
  Mo  Mo23  1  0.111715  0.223429  0.750000  1
  Mo  Mo24  1  0.223912  0.111956  0.250000  1
  Mo  Mo25  1  0.888044  0.111956  0.250000  1
  Mo  Mo26  1  0.111715  0.888286  0.750000  1
  Mo  Mo27  1  0.776571  0.888285  0.750000  1
