# generated using pymatgen
data_Nd3Be2(PPd5)4
_symmetry_space_group_name_H-M   'P 1'
_cell_length_a   8.73874820
_cell_length_b   8.64975086
_cell_length_c   8.64975164
_cell_angle_alpha   60.68189233
_cell_angle_beta   59.65905381
_cell_angle_gamma   59.65904918
_symmetry_Int_Tables_number   1
_chemical_formula_structural   Nd3Be2(PPd5)4
_chemical_formula_sum   'Nd3 Be2 P4 Pd20'
_cell_volume   462.21978109
_cell_formula_units_Z   1
loop_
 _symmetry_equiv_pos_site_id
 _symmetry_equiv_pos_as_xyz
  1  'x, y, z'
loop_
 _atom_site_type_symbol
 _atom_site_label
 _atom_site_symmetry_multiplicity
 _atom_site_fract_x
 _atom_site_fract_y
 _atom_site_fract_z
 _atom_site_occupancy
  Nd  Nd0  1  0.250000  0.250000  0.250000  1
  Nd  Nd1  1  0.750000  0.750000  0.750000  1
  Nd  Nd2  1  0.000000  0.000000  0.000000  1
  Be  Be3  1  0.732788  0.267212  0.267212  1
  Be  Be4  1  0.267212  0.732788  0.732788  1
  P  P5  1  0.266523  0.733477  0.266523  1
  P  P6  1  0.733477  0.266523  0.733477  1
  P  P7  1  0.266523  0.266523  0.733477  1
  P  P8  1  0.733477  0.733477  0.266523  1
  Pd  Pd9  1  0.389316  0.383846  0.383846  1
  Pd  Pd10  1  0.610684  0.616154  0.616154  1
  Pd  Pd11  1  0.383846  0.389316  0.842994  1
  Pd  Pd12  1  0.383846  0.842994  0.389316  1
  Pd  Pd13  1  0.616154  0.610684  0.157006  1
  Pd  Pd14  1  0.616154  0.157006  0.610684  1
  Pd  Pd15  1  0.842994  0.383846  0.383846  1
  Pd  Pd16  1  0.157006  0.616154  0.616154  1
  Pd  Pd17  1  0.345787  0.000000  0.000000  1
  Pd  Pd18  1  0.654213  0.000000  0.000000  1
  Pd  Pd19  1  0.000000  0.345787  0.654213  1
  Pd  Pd20  1  0.000000  0.654213  0.345787  1
  Pd  Pd21  1  0.997010  0.344916  0.002990  1
  Pd  Pd22  1  0.655084  0.002990  0.344916  1
  Pd  Pd23  1  0.002990  0.655084  0.997010  1
  Pd  Pd24  1  0.344916  0.997010  0.655084  1
  Pd  Pd25  1  0.997010  0.002990  0.344916  1
  Pd  Pd26  1  0.002990  0.997010  0.655084  1
  Pd  Pd27  1  0.655084  0.344916  0.002990  1
  Pd  Pd28  1  0.344916  0.655084  0.997010  1
