# generated using pymatgen
data_Tb4Y3CoI12
_symmetry_space_group_name_H-M   'P 1'
_cell_length_a   9.77625109
_cell_length_b   9.77685055
_cell_length_c   9.77830630
_cell_angle_alpha   106.85016074
_cell_angle_beta   106.88136423
_cell_angle_gamma   106.87111192
_symmetry_Int_Tables_number   1
_chemical_formula_structural   Tb4Y3CoI12
_chemical_formula_sum   'Tb4 Y3 Co1 I12'
_cell_volume   781.15555063
_cell_formula_units_Z   1
loop_
 _symmetry_equiv_pos_site_id
 _symmetry_equiv_pos_as_xyz
  1  'x, y, z'
loop_
 _atom_site_type_symbol
 _atom_site_label
 _atom_site_symmetry_multiplicity
 _atom_site_fract_x
 _atom_site_fract_y
 _atom_site_fract_z
 _atom_site_occupancy
  Tb  Tb0  1  0.288290  0.022404  0.092263  1
  Tb  Tb1  1  0.977835  0.907850  0.711589  1
  Tb  Tb2  1  0.907699  0.711637  0.977928  1
  Tb  Tb3  1  0.711766  0.977955  0.907937  1
  Y  Y4  1  0.500083  0.500075  0.500081  1
  Y  Y5  1  0.022183  0.092113  0.288327  1
  Y  Y6  1  0.092086  0.288331  0.022323  1
  Co  Co7  1  0.999998  0.999681  0.999743  1
  I  I8  1  0.161016  0.463558  0.386564  1
  I  I9  1  0.463566  0.386744  0.161136  1
  I  I10  1  0.386588  0.161230  0.463764  1
  I  I11  1  0.838722  0.536202  0.613233  1
  I  I12  1  0.536197  0.613246  0.838719  1
  I  I13  1  0.613230  0.838733  0.536211  1
  I  I14  1  0.678419  0.071957  0.225236  1
  I  I15  1  0.071912  0.225204  0.678079  1
  I  I16  1  0.225121  0.677845  0.071871  1
  I  I17  1  0.321828  0.928130  0.774907  1
  I  I18  1  0.928237  0.775227  0.321855  1
  I  I19  1  0.775223  0.321876  0.928235  1
