# generated using pymatgen
data_Dy3LuTe4
_symmetry_space_group_name_H-M   'P 1'
_cell_length_a   4.20390800
_cell_length_b   4.20390926
_cell_length_c   15.07061600
_cell_angle_alpha   90.00000000
_cell_angle_beta   90.00000000
_cell_angle_gamma   120.00000583
_symmetry_Int_Tables_number   1
_chemical_formula_structural   Dy3LuTe4
_chemical_formula_sum   'Dy3 Lu1 Te4'
_cell_volume   230.65780072
_cell_formula_units_Z   1
loop_
 _symmetry_equiv_pos_site_id
 _symmetry_equiv_pos_as_xyz
  1  'x, y, z'
loop_
 _atom_site_type_symbol
 _atom_site_label
 _atom_site_symmetry_multiplicity
 _atom_site_fract_x
 _atom_site_fract_y
 _atom_site_fract_z
 _atom_site_occupancy
  Dy  Dy0  1  0.333333  0.666667  0.875955  1
  Dy  Dy1  1  0.666667  0.333333  0.120400  1
  Dy  Dy2  1  0.666667  0.333333  0.384716  1
  Lu  Lu3  1  0.333333  0.666667  0.618346  1
  Te  Te4  1  0.333333  0.666667  0.253028  1
  Te  Te5  1  0.666667  0.333333  0.743946  1
  Te  Te6  1  0.000000  0.000000  0.505720  1
  Te  Te7  1  0.000000  0.000000  0.997888  1
