# generated using pymatgen
data_Tb(NdPd3)8
_symmetry_space_group_name_H-M   'P 1'
_cell_length_a   8.58663100
_cell_length_b   8.58663100
_cell_length_c   8.58663100
_cell_angle_alpha   90.00000000
_cell_angle_beta   90.00000000
_cell_angle_gamma   90.00000000
_symmetry_Int_Tables_number   1
_chemical_formula_structural   Tb(NdPd3)8
_chemical_formula_sum   'Tb1 Nd8 Pd24'
_cell_volume   633.09429513
_cell_formula_units_Z   1
loop_
 _symmetry_equiv_pos_site_id
 _symmetry_equiv_pos_as_xyz
  1  'x, y, z'
loop_
 _atom_site_type_symbol
 _atom_site_label
 _atom_site_symmetry_multiplicity
 _atom_site_fract_x
 _atom_site_fract_y
 _atom_site_fract_z
 _atom_site_occupancy
  Tb  Tb0  1  0.000000  0.000000  0.000000  1
  Nd  Nd1  1  0.253087  0.253087  0.253087  1
  Nd  Nd2  1  0.746913  0.746913  0.746913  1
  Nd  Nd3  1  0.746913  0.746913  0.253087  1
  Nd  Nd4  1  0.746913  0.253087  0.746913  1
  Nd  Nd5  1  0.253087  0.253087  0.746913  1
  Nd  Nd6  1  0.253087  0.746913  0.253087  1
  Nd  Nd7  1  0.253087  0.746913  0.746913  1
  Nd  Nd8  1  0.746913  0.253087  0.253087  1
  Pd  Pd9  1  0.268788  0.500000  0.000000  1
  Pd  Pd10  1  0.731212  0.500000  0.000000  1
  Pd  Pd11  1  0.000000  0.268788  0.500000  1
  Pd  Pd12  1  0.500000  0.268788  0.000000  1
  Pd  Pd13  1  0.000000  0.731212  0.500000  1
  Pd  Pd14  1  0.500000  0.731212  0.000000  1
  Pd  Pd15  1  0.500000  0.000000  0.268788  1
  Pd  Pd16  1  0.268788  0.000000  0.500000  1
  Pd  Pd17  1  0.500000  0.000000  0.731212  1
  Pd  Pd18  1  0.731212  0.000000  0.500000  1
  Pd  Pd19  1  0.000000  0.500000  0.268788  1
  Pd  Pd20  1  0.000000  0.500000  0.731212  1
  Pd  Pd21  1  0.254774  0.500000  0.500000  1
  Pd  Pd22  1  0.745226  0.500000  0.500000  1
  Pd  Pd23  1  0.500000  0.254774  0.500000  1
  Pd  Pd24  1  0.500000  0.745226  0.500000  1
  Pd  Pd25  1  0.500000  0.500000  0.254774  1
  Pd  Pd26  1  0.500000  0.500000  0.745226  1
  Pd  Pd27  1  0.322221  0.000000  0.000000  1
  Pd  Pd28  1  0.677779  0.000000  0.000000  1
  Pd  Pd29  1  0.000000  0.322221  0.000000  1
  Pd  Pd30  1  0.000000  0.677779  0.000000  1
  Pd  Pd31  1  0.000000  0.000000  0.322221  1
  Pd  Pd32  1  0.000000  0.000000  0.677779  1
