# generated using pymatgen
data_Y2Sc2CoB12Ir
_symmetry_space_group_name_H-M   'P 1'
_cell_length_a   3.50857500
_cell_length_b   8.97713400
_cell_length_c   11.34318279
_cell_angle_alpha   89.90633291
_cell_angle_beta   90.00000000
_cell_angle_gamma   90.00000000
_symmetry_Int_Tables_number   1
_chemical_formula_structural   Y2Sc2CoB12Ir
_chemical_formula_sum   'Y4 Sc4 Co2 B24 Ir2'
_cell_volume   357.27516015
_cell_formula_units_Z   2
loop_
 _symmetry_equiv_pos_site_id
 _symmetry_equiv_pos_as_xyz
  1  'x, y, z'
loop_
 _atom_site_type_symbol
 _atom_site_label
 _atom_site_symmetry_multiplicity
 _atom_site_fract_x
 _atom_site_fract_y
 _atom_site_fract_z
 _atom_site_occupancy
  Y  Y0  1  0.500000  0.317373  0.411544  1
  Y  Y1  1  0.500000  0.682627  0.588456  1
  Y  Y2  1  0.500000  0.175681  0.916113  1
  Y  Y3  1  0.500000  0.824319  0.083887  1
  Sc  Sc4  1  0.500000  0.440744  0.125183  1
  Sc  Sc5  1  0.500000  0.559256  0.874817  1
  Sc  Sc6  1  0.500000  0.052292  0.627522  1
  Sc  Sc7  1  0.500000  0.947708  0.372478  1
  Co  Co8  1  0.500000  0.141495  0.182799  1
  Co  Co9  1  0.500000  0.858505  0.817201  1
  B  B10  1  0.000000  0.099294  0.472915  1
  B  B11  1  0.000000  0.900706  0.527085  1
  B  B12  1  0.000000  0.399541  0.973366  1
  B  B13  1  0.000000  0.600459  0.026634  1
  B  B14  1  0.000000  0.130223  0.316067  1
  B  B15  1  0.000000  0.869777  0.683933  1
  B  B16  1  0.000000  0.370228  0.818725  1
  B  B17  1  0.000000  0.629772  0.181275  1
  B  B18  1  0.000000  0.055377  0.067822  1
  B  B19  1  0.000000  0.944623  0.932178  1
  B  B20  1  0.000000  0.445192  0.566537  1
  B  B21  1  0.000000  0.554808  0.433463  1
  B  B22  1  0.000000  0.480853  0.284380  1
  B  B23  1  0.000000  0.519147  0.715620  1
  B  B24  1  0.000000  0.014937  0.786646  1
  B  B25  1  0.000000  0.985063  0.213354  1
  B  B26  1  0.000000  0.251301  0.082270  1
  B  B27  1  0.000000  0.748699  0.917730  1
  B  B28  1  0.000000  0.244568  0.580885  1
  B  B29  1  0.000000  0.755432  0.419115  1
  B  B30  1  0.000000  0.292690  0.234206  1
  B  B31  1  0.000000  0.707310  0.765794  1
  B  B32  1  0.000000  0.203478  0.735701  1
  B  B33  1  0.000000  0.796522  0.264299  1
  Ir  Ir34  1  0.500000  0.359010  0.680992  1
  Ir  Ir35  1  0.500000  0.640990  0.319008  1
