# generated using pymatgen
data_TmPu3H11
_symmetry_space_group_name_H-M   'P 1'
_cell_length_a   6.42502080
_cell_length_b   6.42502119
_cell_length_c   6.42502098
_cell_angle_alpha   133.74001665
_cell_angle_beta   130.94928957
_cell_angle_gamma   69.70962378
_symmetry_Int_Tables_number   1
_chemical_formula_structural   TmPu3H11
_chemical_formula_sum   'Tm1 Pu3 H11'
_cell_volume   141.95708986
_cell_formula_units_Z   1
loop_
 _symmetry_equiv_pos_site_id
 _symmetry_equiv_pos_as_xyz
  1  'x, y, z'
loop_
 _atom_site_type_symbol
 _atom_site_label
 _atom_site_symmetry_multiplicity
 _atom_site_fract_x
 _atom_site_fract_y
 _atom_site_fract_z
 _atom_site_occupancy
  Tm  Tm0  1  0.000000  0.500000  0.500000  1
  Pu  Pu1  1  0.500000  0.000000  0.500000  1
  Pu  Pu2  1  0.264289  0.264289  0.000000  1
  Pu  Pu3  1  0.735711  0.735711  0.000000  1
  H  H4  1  0.656976  0.118792  0.011806  1
  H  H5  1  0.343024  0.354830  0.461815  1
  H  H6  1  0.106986  0.645170  0.988194  1
  H  H7  1  0.893014  0.881208  0.538185  1
  H  H8  1  0.893014  0.354830  0.011806  1
  H  H9  1  0.656976  0.645170  0.538185  1
  H  H10  1  0.343024  0.881208  0.988194  1
  H  H11  1  0.106986  0.118792  0.461815  1
  H  H12  1  0.738531  0.238531  0.500000  1
  H  H13  1  0.500000  0.500000  0.000000  1
  H  H14  1  0.261469  0.761469  0.500000  1
