# generated using pymatgen
data_Nd4DyPb3Br
_symmetry_space_group_name_H-M   'P 1'
_cell_length_a   9.55419800
_cell_length_b   9.55419871
_cell_length_c   6.85527300
_cell_angle_alpha   90.00000000
_cell_angle_beta   90.00000000
_cell_angle_gamma   119.99999754
_symmetry_Int_Tables_number   1
_chemical_formula_structural   Nd4DyPb3Br
_chemical_formula_sum   'Nd8 Dy2 Pb6 Br2'
_cell_volume   541.93088674
_cell_formula_units_Z   2
loop_
 _symmetry_equiv_pos_site_id
 _symmetry_equiv_pos_as_xyz
  1  'x, y, z'
loop_
 _atom_site_type_symbol
 _atom_site_label
 _atom_site_symmetry_multiplicity
 _atom_site_fract_x
 _atom_site_fract_y
 _atom_site_fract_z
 _atom_site_occupancy
  Nd  Nd0  1  0.265800  0.000000  0.251248  1
  Nd  Nd1  1  0.734200  0.000000  0.748752  1
  Nd  Nd2  1  0.000000  0.265800  0.251248  1
  Nd  Nd3  1  0.000000  0.734200  0.748752  1
  Nd  Nd4  1  0.734200  0.734200  0.251248  1
  Nd  Nd5  1  0.265800  0.265800  0.748752  1
  Nd  Nd6  1  0.333333  0.666667  0.000000  1
  Nd  Nd7  1  0.666667  0.333333  0.000000  1
  Dy  Dy8  1  0.666667  0.333333  0.500000  1
  Dy  Dy9  1  0.333333  0.666667  0.500000  1
  Pb  Pb10  1  0.610930  0.000000  0.254097  1
  Pb  Pb11  1  0.389070  0.000000  0.745903  1
  Pb  Pb12  1  0.000000  0.610930  0.254097  1
  Pb  Pb13  1  0.000000  0.389070  0.745903  1
  Pb  Pb14  1  0.389070  0.389070  0.254097  1
  Pb  Pb15  1  0.610930  0.610930  0.745903  1
  Br  Br16  1  0.000000  0.000000  0.000000  1
  Br  Br17  1  0.000000  0.000000  0.500000  1
