# generated using pymatgen
data_Tb7PS7
_symmetry_space_group_name_H-M   'P 1'
_cell_length_a   7.87438700
_cell_length_b   7.87438719
_cell_length_c   7.87438700
_cell_angle_alpha   120.00000342
_cell_angle_beta   90.00000000
_cell_angle_gamma   120.00000342
_symmetry_Int_Tables_number   1
_chemical_formula_structural   Tb7PS7
_chemical_formula_sum   'Tb7 P1 S7'
_cell_volume   345.25122864
_cell_formula_units_Z   1
loop_
 _symmetry_equiv_pos_site_id
 _symmetry_equiv_pos_as_xyz
  1  'x, y, z'
loop_
 _atom_site_type_symbol
 _atom_site_label
 _atom_site_symmetry_multiplicity
 _atom_site_fract_x
 _atom_site_fract_y
 _atom_site_fract_z
 _atom_site_occupancy
  Tb  Tb0  1  0.247041  0.000000  0.247041  1
  Tb  Tb1  1  0.247041  0.494081  0.247041  1
  Tb  Tb2  1  0.752959  0.000000  0.247042  1
  Tb  Tb3  1  0.250001  0.500001  0.750002  1
  Tb  Tb4  1  0.247042  0.000000  0.752959  1
  Tb  Tb5  1  0.752959  0.000000  0.752959  1
  Tb  Tb6  1  0.752959  0.505918  0.752959  1
  P  P7  1  0.000000  0.000000  0.000000  1
  S  S8  1  0.500000  0.000000  0.500000  1
  S  S9  1  0.000431  0.000862  0.500433  1
  S  S10  1  0.000431  0.500001  0.500433  1
  S  S11  1  0.499570  0.500001  0.500433  1
  S  S12  1  0.000433  0.500001  0.999569  1
  S  S13  1  0.499568  0.500001  0.999569  1
  S  S14  1  0.499568  0.999137  0.999569  1
