# generated using pymatgen
data_LiDy6Cd22Ge
_symmetry_space_group_name_H-M   'P 1'
_cell_length_a   9.93117266
_cell_length_b   9.93117108
_cell_length_c   9.93117300
_cell_angle_alpha   59.99999693
_cell_angle_beta   60.00000219
_cell_angle_gamma   60.00000005
_symmetry_Int_Tables_number   1
_chemical_formula_structural   LiDy6Cd22Ge
_chemical_formula_sum   'Li1 Dy6 Cd22 Ge1'
_cell_volume   692.60646705
_cell_formula_units_Z   1
loop_
 _symmetry_equiv_pos_site_id
 _symmetry_equiv_pos_as_xyz
  1  'x, y, z'
loop_
 _atom_site_type_symbol
 _atom_site_label
 _atom_site_symmetry_multiplicity
 _atom_site_fract_x
 _atom_site_fract_y
 _atom_site_fract_z
 _atom_site_occupancy
  Li  Li0  1  0.000000  0.000000  0.000000  1
  Dy  Dy1  1  0.703421  0.296046  0.296046  1
  Dy  Dy2  1  0.296579  0.703954  0.703954  1
  Dy  Dy3  1  0.296050  0.703412  0.296058  1
  Dy  Dy4  1  0.703950  0.296588  0.703942  1
  Dy  Dy5  1  0.296058  0.296056  0.703413  1
  Dy  Dy6  1  0.703942  0.703944  0.296587  1
  Cd  Cd7  1  0.116417  0.116372  0.116375  1
  Cd  Cd8  1  0.883583  0.883628  0.883625  1
  Cd  Cd9  1  0.117071  0.117053  0.649758  1
  Cd  Cd10  1  0.117060  0.649766  0.117055  1
  Cd  Cd11  1  0.882929  0.882947  0.350242  1
  Cd  Cd12  1  0.882940  0.350234  0.882945  1
  Cd  Cd13  1  0.649721  0.117074  0.117085  1
  Cd  Cd14  1  0.350279  0.882926  0.882915  1
  Cd  Cd15  1  0.500000  0.000000  0.000000  1
  Cd  Cd16  1  0.000000  0.500000  0.500000  1
  Cd  Cd17  1  0.000000  0.500000  0.000000  1
  Cd  Cd18  1  0.500000  0.000000  0.500000  1
  Cd  Cd19  1  0.000000  0.000000  0.500000  1
  Cd  Cd20  1  0.500000  0.500000  0.000000  1
  Cd  Cd21  1  0.336440  0.336536  0.336544  1
  Cd  Cd22  1  0.663560  0.663464  0.663456  1
  Cd  Cd23  1  0.335876  0.335918  0.992047  1
  Cd  Cd24  1  0.335885  0.992057  0.335898  1
  Cd  Cd25  1  0.664124  0.664082  0.007953  1
  Cd  Cd26  1  0.664115  0.007943  0.664102  1
  Cd  Cd27  1  0.991947  0.335948  0.335951  1
  Cd  Cd28  1  0.008053  0.664052  0.664049  1
  Ge  Ge29  1  0.500000  0.500000  0.500000  1
