# generated using pymatgen
data_Dy16Er4Co3Bi8Os
_symmetry_space_group_name_H-M   'P 1'
_cell_length_a   7.97258746
_cell_length_b   8.92335883
_cell_length_c   12.41918287
_cell_angle_alpha   89.95529955
_cell_angle_beta   90.34815745
_cell_angle_gamma   89.97894796
_symmetry_Int_Tables_number   1
_chemical_formula_structural   Dy16Er4Co3Bi8Os
_chemical_formula_sum   'Dy16 Er4 Co3 Bi8 Os1'
_cell_volume   883.51207933
_cell_formula_units_Z   1
loop_
 _symmetry_equiv_pos_site_id
 _symmetry_equiv_pos_as_xyz
  1  'x, y, z'
loop_
 _atom_site_type_symbol
 _atom_site_label
 _atom_site_symmetry_multiplicity
 _atom_site_fract_x
 _atom_site_fract_y
 _atom_site_fract_z
 _atom_site_occupancy
  Dy  Dy0  1  0.846079  0.750217  0.799171  1
  Dy  Dy1  1  0.152594  0.249907  0.199083  1
  Dy  Dy2  1  0.347804  0.249529  0.699478  1
  Dy  Dy3  1  0.654698  0.750163  0.294217  1
  Dy  Dy4  1  0.378237  0.750335  0.693954  1
  Dy  Dy5  1  0.617419  0.249365  0.311347  1
  Dy  Dy6  1  0.881813  0.249742  0.811402  1
  Dy  Dy7  1  0.119103  0.750440  0.187131  1
  Dy  Dy8  1  0.945360  0.750651  0.503844  1
  Dy  Dy9  1  0.054517  0.249568  0.496262  1
  Dy  Dy10  1  0.448262  0.249545  0.997319  1
  Dy  Dy11  1  0.547891  0.750241  0.002164  1
  Dy  Dy12  1  0.823430  0.036880  0.063098  1
  Dy  Dy13  1  0.677038  0.458243  0.564890  1
  Dy  Dy14  1  0.823205  0.463555  0.062927  1
  Dy  Dy15  1  0.175374  0.535181  0.936552  1
  Er  Er16  1  0.675174  0.042516  0.564785  1
  Er  Er17  1  0.326438  0.962814  0.436727  1
  Er  Er18  1  0.173341  0.964384  0.936442  1
  Er  Er19  1  0.326216  0.536795  0.436709  1
  Co  Co20  1  0.431635  0.249493  0.491019  1
  Co  Co21  1  0.062699  0.249564  0.991963  1
  Co  Co22  1  0.937299  0.750637  0.007061  1
  Bi  Bi23  1  0.571162  0.491347  0.827460  1
  Bi  Bi24  1  0.428476  0.507448  0.173439  1
  Bi  Bi25  1  0.071128  0.507487  0.673886  1
  Bi  Bi26  1  0.428339  0.992362  0.173400  1
  Bi  Bi27  1  0.931543  0.492339  0.326331  1
  Bi  Bi28  1  0.570516  0.008464  0.827486  1
  Bi  Bi29  1  0.931870  0.007703  0.326172  1
  Bi  Bi30  1  0.070076  0.992584  0.674172  1
  Os  Os31  1  0.571265  0.750500  0.510108  1
