# generated using pymatgen
data_YFeP3Rh4
_symmetry_space_group_name_H-M   'P 1'
_cell_length_a   3.85610400
_cell_length_b   10.73027200
_cell_length_c   12.41274100
_cell_angle_alpha   90.00000000
_cell_angle_beta   90.00000000
_cell_angle_gamma   90.00000000
_symmetry_Int_Tables_number   1
_chemical_formula_structural   YFeP3Rh4
_chemical_formula_sum   'Y4 Fe4 P12 Rh16'
_cell_volume   513.60254020
_cell_formula_units_Z   4
loop_
 _symmetry_equiv_pos_site_id
 _symmetry_equiv_pos_as_xyz
  1  'x, y, z'
loop_
 _atom_site_type_symbol
 _atom_site_label
 _atom_site_symmetry_multiplicity
 _atom_site_fract_x
 _atom_site_fract_y
 _atom_site_fract_z
 _atom_site_occupancy
  Y  Y0  1  0.250000  0.582789  0.709451  1
  Y  Y1  1  0.250000  0.917211  0.209451  1
  Y  Y2  1  0.750000  0.417211  0.290549  1
  Y  Y3  1  0.750000  0.082789  0.790549  1
  Fe  Fe4  1  0.250000  0.462137  0.933080  1
  Fe  Fe5  1  0.250000  0.037863  0.433080  1
  Fe  Fe6  1  0.750000  0.537863  0.066920  1
  Fe  Fe7  1  0.750000  0.962137  0.566920  1
  P  P8  1  0.250000  0.430256  0.105737  1
  P  P9  1  0.250000  0.069744  0.605737  1
  P  P10  1  0.750000  0.569744  0.894263  1
  P  P11  1  0.750000  0.930256  0.394263  1
  P  P12  1  0.250000  0.271084  0.870210  1
  P  P13  1  0.250000  0.228916  0.370210  1
  P  P14  1  0.750000  0.728916  0.129790  1
  P  P15  1  0.750000  0.771084  0.629790  1
  P  P16  1  0.250000  0.601100  0.389165  1
  P  P17  1  0.250000  0.898900  0.889165  1
  P  P18  1  0.750000  0.398900  0.610835  1
  P  P19  1  0.750000  0.101100  0.110835  1
  Rh  Rh20  1  0.250000  0.717100  0.991099  1
  Rh  Rh21  1  0.250000  0.782900  0.491099  1
  Rh  Rh22  1  0.750000  0.282900  0.008901  1
  Rh  Rh23  1  0.750000  0.217100  0.508901  1
  Rh  Rh24  1  0.250000  0.408638  0.479609  1
  Rh  Rh25  1  0.250000  0.091362  0.979609  1
  Rh  Rh26  1  0.750000  0.591362  0.520391  1
  Rh  Rh27  1  0.750000  0.908638  0.020391  1
  Rh  Rh28  1  0.250000  0.230806  0.175052  1
  Rh  Rh29  1  0.250000  0.269194  0.675052  1
  Rh  Rh30  1  0.750000  0.769194  0.824948  1
  Rh  Rh31  1  0.750000  0.730806  0.324948  1
  Rh  Rh32  1  0.250000  0.881854  0.700689  1
  Rh  Rh33  1  0.250000  0.618146  0.200689  1
  Rh  Rh34  1  0.750000  0.118146  0.299311  1
  Rh  Rh35  1  0.750000  0.381854  0.799311  1
