# generated using pymatgen
data_TbSmUCo2Si7
_symmetry_space_group_name_H-M   'P 1'
_cell_length_a   4.02293518
_cell_length_b   4.03714200
_cell_length_c   12.37153003
_cell_angle_alpha   90.00000000
_cell_angle_beta   99.35716325
_cell_angle_gamma   90.00000000
_symmetry_Int_Tables_number   1
_chemical_formula_structural   TbSmUCo2Si7
_chemical_formula_sum   'Tb1 Sm1 U1 Co2 Si7'
_cell_volume   198.25445682
_cell_formula_units_Z   1
loop_
 _symmetry_equiv_pos_site_id
 _symmetry_equiv_pos_as_xyz
  1  'x, y, z'
loop_
 _atom_site_type_symbol
 _atom_site_label
 _atom_site_symmetry_multiplicity
 _atom_site_fract_x
 _atom_site_fract_y
 _atom_site_fract_z
 _atom_site_occupancy
  Tb  Tb0  1  0.317055  0.000000  0.634112  1
  Sm  Sm1  1  0.683571  0.000000  0.367139  1
  U  U2  1  0.999832  0.500000  0.999664  1
  Co  Co3  1  0.126755  0.500000  0.253509  1
  Co  Co4  1  0.872926  0.500000  0.745852  1
  Si  Si5  1  0.499872  0.000000  0.999745  1
  Si  Si6  1  0.414016  0.500000  0.828032  1
  Si  Si7  1  0.585592  0.500000  0.171185  1
  Si  Si8  1  0.085400  0.000000  0.170800  1
  Si  Si9  1  0.914135  0.000000  0.828270  1
  Si  Si10  1  0.221560  0.500000  0.443120  1
  Si  Si11  1  0.779286  0.500000  0.558572  1
