# generated using pymatgen
data_Ho5TmCo6(PRu)12
_symmetry_space_group_name_H-M   'P 1'
_cell_length_a   3.87221400
_cell_length_b   10.76320500
_cell_length_c   12.54539700
_cell_angle_alpha   89.99746105
_cell_angle_beta   90.00000000
_cell_angle_gamma   90.00000000
_symmetry_Int_Tables_number   1
_chemical_formula_structural   Ho5TmCo6(PRu)12
_chemical_formula_sum   'Ho5 Tm1 Co6 P12 Ru12'
_cell_volume   522.85994375
_cell_formula_units_Z   1
loop_
 _symmetry_equiv_pos_site_id
 _symmetry_equiv_pos_as_xyz
  1  'x, y, z'
loop_
 _atom_site_type_symbol
 _atom_site_label
 _atom_site_symmetry_multiplicity
 _atom_site_fract_x
 _atom_site_fract_y
 _atom_site_fract_z
 _atom_site_occupancy
  Ho  Ho0  1  0.000000  0.500129  0.527435  1
  Ho  Ho1  1  0.500000  0.000021  0.471023  1
  Ho  Ho2  1  0.500000  0.176797  0.203934  1
  Ho  Ho3  1  0.000000  0.680432  0.797353  1
  Ho  Ho4  1  0.000000  0.319411  0.797699  1
  Tm  Tm5  1  0.500000  0.822912  0.203864  1
  Co  Co6  1  0.000000  0.500164  0.985223  1
  Co  Co7  1  0.500000  0.999582  0.016554  1
  Co  Co8  1  0.000000  0.161072  0.013916  1
  Co  Co9  1  0.000000  0.838667  0.013982  1
  Co  Co10  1  0.500000  0.500117  0.699466  1
  Co  Co11  1  0.000000  0.999587  0.299498  1
  P  P12  1  0.500000  0.314013  0.617784  1
  P  P13  1  0.500000  0.686027  0.617352  1
  P  P14  1  0.000000  0.186754  0.382256  1
  P  P15  1  0.000000  0.813501  0.381687  1
  P  P16  1  0.500000  0.500087  0.878198  1
  P  P17  1  0.000000  0.999432  0.121616  1
  P  P18  1  0.500000  0.852458  0.896195  1
  P  P19  1  0.500000  0.147238  0.896503  1
  P  P20  1  0.000000  0.656684  0.100905  1
  P  P21  1  0.000000  0.343953  0.100902  1
  P  P22  1  0.500000  0.500011  0.338474  1
  P  P23  1  0.000000  0.999975  0.661191  1
  Ru  Ru24  1  0.500000  0.297934  0.428183  1
  Ru  Ru25  1  0.500000  0.702167  0.427542  1
  Ru  Ru26  1  0.000000  0.201798  0.571553  1
  Ru  Ru27  1  0.000000  0.798161  0.571164  1
  Ru  Ru28  1  0.500000  0.876363  0.714912  1
  Ru  Ru29  1  0.500000  0.123541  0.715101  1
  Ru  Ru30  1  0.000000  0.625883  0.282011  1
  Ru  Ru31  1  0.000000  0.375205  0.282718  1
  Ru  Ru32  1  0.500000  0.327776  0.989918  1
  Ru  Ru33  1  0.500000  0.672354  0.990206  1
  Ru  Ru34  1  0.500000  0.499954  0.152230  1
  Ru  Ru35  1  0.000000  0.999843  0.851453  1
