# generated using pymatgen
data_Nd2Pa(GaCo4)3
_symmetry_space_group_name_H-M   'P 1'
_cell_length_a   8.61431300
_cell_length_b   8.61431198
_cell_length_c   4.05945300
_cell_angle_alpha   90.00000000
_cell_angle_beta   90.00000000
_cell_angle_gamma   120.00000009
_symmetry_Int_Tables_number   1
_chemical_formula_structural   Nd2Pa(GaCo4)3
_chemical_formula_sum   'Nd2 Pa1 Ga3 Co12'
_cell_volume   260.87916316
_cell_formula_units_Z   1
loop_
 _symmetry_equiv_pos_site_id
 _symmetry_equiv_pos_as_xyz
  1  'x, y, z'
loop_
 _atom_site_type_symbol
 _atom_site_label
 _atom_site_symmetry_multiplicity
 _atom_site_fract_x
 _atom_site_fract_y
 _atom_site_fract_z
 _atom_site_occupancy
  Nd  Nd0  1  0.333333  0.666667  0.000000  1
  Nd  Nd1  1  0.666667  0.333333  0.000000  1
  Pa  Pa2  1  0.000000  0.000000  0.000000  1
  Ga  Ga3  1  0.500000  0.000000  0.500000  1
  Ga  Ga4  1  0.000000  0.500000  0.500000  1
  Ga  Ga5  1  0.500000  0.500000  0.500000  1
  Co  Co6  1  0.161136  0.322271  0.500000  1
  Co  Co7  1  0.838864  0.677729  0.500000  1
  Co  Co8  1  0.677729  0.838864  0.500000  1
  Co  Co9  1  0.322271  0.161136  0.500000  1
  Co  Co10  1  0.161136  0.838864  0.500000  1
  Co  Co11  1  0.838864  0.161136  0.500000  1
  Co  Co12  1  0.308193  0.000000  0.000000  1
  Co  Co13  1  0.691807  0.000000  0.000000  1
  Co  Co14  1  0.000000  0.308193  0.000000  1
  Co  Co15  1  0.000000  0.691807  0.000000  1
  Co  Co16  1  0.691807  0.691807  0.000000  1
  Co  Co17  1  0.308193  0.308193  0.000000  1
