# generated using pymatgen
data_Th10AlSn4Bi3
_symmetry_space_group_name_H-M   'P 1'
_cell_length_a   9.71714700
_cell_length_b   9.71714662
_cell_length_c   6.57137800
_cell_angle_alpha   90.00000000
_cell_angle_beta   90.00000000
_cell_angle_gamma   119.99999790
_symmetry_Int_Tables_number   1
_chemical_formula_structural   Th10AlSn4Bi3
_chemical_formula_sum   'Th10 Al1 Sn4 Bi3'
_cell_volume   537.35911334
_cell_formula_units_Z   1
loop_
 _symmetry_equiv_pos_site_id
 _symmetry_equiv_pos_as_xyz
  1  'x, y, z'
loop_
 _atom_site_type_symbol
 _atom_site_label
 _atom_site_symmetry_multiplicity
 _atom_site_fract_x
 _atom_site_fract_y
 _atom_site_fract_z
 _atom_site_occupancy
  Th  Th0  1  0.000000  0.725232  0.756420  1
  Th  Th1  1  0.274768  0.274768  0.756420  1
  Th  Th2  1  0.333333  0.666667  0.496385  1
  Th  Th3  1  0.666667  0.333333  0.496385  1
  Th  Th4  1  0.724667  0.724667  0.243800  1
  Th  Th5  1  0.725232  0.000000  0.756420  1
  Th  Th6  1  0.000000  0.275333  0.243800  1
  Th  Th7  1  0.275333  0.000000  0.243800  1
  Th  Th8  1  0.333333  0.666667  0.003582  1
  Th  Th9  1  0.666667  0.333333  0.003582  1
  Al  Al10  1  0.000000  0.000000  0.001395  1
  Sn  Sn11  1  0.619153  0.000000  0.251487  1
  Sn  Sn12  1  0.380847  0.380847  0.251487  1
  Sn  Sn13  1  0.000000  0.619153  0.251487  1
  Sn  Sn14  1  0.000000  0.000000  0.499163  1
  Bi  Bi15  1  0.618668  0.618668  0.748129  1
  Bi  Bi16  1  0.000000  0.381332  0.748129  1
  Bi  Bi17  1  0.381332  0.000000  0.748129  1
