# generated using pymatgen
data_Eu3Y(Mo2O7)2
_symmetry_space_group_name_H-M   'P 1'
_cell_length_a   7.40527948
_cell_length_b   7.50235020
_cell_length_c   7.40527900
_cell_angle_alpha   60.42709165
_cell_angle_beta   59.99999767
_cell_angle_gamma   60.42709241
_symmetry_Int_Tables_number   1
_chemical_formula_structural   Eu3Y(Mo2O7)2
_chemical_formula_sum   'Eu3 Y1 Mo4 O14'
_cell_volume   292.77826484
_cell_formula_units_Z   1
loop_
 _symmetry_equiv_pos_site_id
 _symmetry_equiv_pos_as_xyz
  1  'x, y, z'
loop_
 _atom_site_type_symbol
 _atom_site_label
 _atom_site_symmetry_multiplicity
 _atom_site_fract_x
 _atom_site_fract_y
 _atom_site_fract_z
 _atom_site_occupancy
  Eu  Eu0  1  0.125000  0.125000  0.125000  1
  Eu  Eu1  1  0.625000  0.125000  0.125000  1
  Eu  Eu2  1  0.125000  0.125000  0.625000  1
  Y  Y3  1  0.125000  0.625000  0.125000  1
  Mo  Mo4  1  0.625000  0.625000  0.625000  1
  Mo  Mo5  1  0.125000  0.625000  0.625000  1
  Mo  Mo6  1  0.625000  0.125000  0.625000  1
  Mo  Mo7  1  0.625000  0.625000  0.125000  1
  O  O8  1  0.245410  0.263771  0.245410  1
  O  O9  1  0.004590  0.986229  0.004590  1
  O  O10  1  0.547237  0.956924  0.547237  1
  O  O11  1  0.290551  0.712519  0.290551  1
  O  O12  1  0.543620  0.537481  0.959449  1
  O  O13  1  0.959449  0.537481  0.543620  1
  O  O14  1  0.547237  0.956924  0.948602  1
  O  O15  1  0.948602  0.956924  0.547237  1
  O  O16  1  0.959449  0.537481  0.959449  1
  O  O17  1  0.702763  0.293076  0.301398  1
  O  O18  1  0.290551  0.712519  0.706380  1
  O  O19  1  0.706380  0.712519  0.290551  1
  O  O20  1  0.301398  0.293076  0.702763  1
  O  O21  1  0.702763  0.293076  0.702763  1
