# generated using pymatgen
data_Th3As6Pd2Rh7
_symmetry_space_group_name_H-M   'P 1'
_cell_length_a   4.05422000
_cell_length_b   8.51122297
_cell_length_c   10.08741959
_cell_angle_alpha   106.44796049
_cell_angle_beta   90.00000000
_cell_angle_gamma   103.77849522
_symmetry_Int_Tables_number   1
_chemical_formula_structural   Th3As6Pd2Rh7
_chemical_formula_sum   'Th3 As6 Pd2 Rh7'
_cell_volume   323.37849541
_cell_formula_units_Z   1
loop_
 _symmetry_equiv_pos_site_id
 _symmetry_equiv_pos_as_xyz
  1  'x, y, z'
loop_
 _atom_site_type_symbol
 _atom_site_label
 _atom_site_symmetry_multiplicity
 _atom_site_fract_x
 _atom_site_fract_y
 _atom_site_fract_z
 _atom_site_occupancy
  Th  Th0  1  0.845892  0.691783  0.318027  1
  Th  Th1  1  0.154108  0.308217  0.681973  1
  Th  Th2  1  0.000000  0.000000  0.000000  1
  As  As3  1  0.802942  0.605885  0.861803  1
  As  As4  1  0.197058  0.394115  0.138197  1
  As  As5  1  0.538893  0.077786  0.772722  1
  As  As6  1  0.461107  0.922214  0.227278  1
  As  As7  1  0.637051  0.274103  0.441142  1
  As  As8  1  0.362949  0.725897  0.558858  1
  Pd  Pd9  1  0.677677  0.355353  0.957896  1
  Pd  Pd10  1  0.322323  0.644647  0.042104  1
  Rh  Rh11  1  0.956616  0.913232  0.669347  1
  Rh  Rh12  1  0.043384  0.086768  0.330653  1
  Rh  Rh13  1  0.773469  0.546938  0.607751  1
  Rh  Rh14  1  0.226531  0.453062  0.392249  1
  Rh  Rh15  1  0.386727  0.773455  0.811457  1
  Rh  Rh16  1  0.613273  0.226545  0.188543  1
  Rh  Rh17  1  0.500000  0.000000  0.500000  1
