# generated using pymatgen
data_Ho8Re11Si16Ir
_symmetry_space_group_name_H-M   'P 1'
_cell_length_a   6.75704910
_cell_length_b   6.75704892
_cell_length_c   12.82627549
_cell_angle_alpha   90.11894199
_cell_angle_beta   89.88105954
_cell_angle_gamma   90.43219539
_symmetry_Int_Tables_number   1
_chemical_formula_structural   Ho8Re11Si16Ir
_chemical_formula_sum   'Ho8 Re11 Si16 Ir1'
_cell_volume   585.59921780
_cell_formula_units_Z   1
loop_
 _symmetry_equiv_pos_site_id
 _symmetry_equiv_pos_as_xyz
  1  'x, y, z'
loop_
 _atom_site_type_symbol
 _atom_site_label
 _atom_site_symmetry_multiplicity
 _atom_site_fract_x
 _atom_site_fract_y
 _atom_site_fract_z
 _atom_site_occupancy
  Ho  Ho0  1  0.007461  0.662311  0.030631  1
  Ho  Ho1  1  0.993253  0.335203  0.531935  1
  Ho  Ho2  1  0.335203  0.993253  0.468065  1
  Ho  Ho3  1  0.165787  0.488736  0.781412  1
  Ho  Ho4  1  0.834608  0.509621  0.279952  1
  Ho  Ho5  1  0.488736  0.165787  0.218588  1
  Ho  Ho6  1  0.509621  0.834608  0.720048  1
  Ho  Ho7  1  0.662311  0.007461  0.969369  1
  Re  Re8  1  0.161363  0.838666  0.249279  1
  Re  Re9  1  0.335477  0.335477  0.000000  1
  Re  Re10  1  0.024773  0.805250  0.631011  1
  Re  Re11  1  0.977115  0.194157  0.133024  1
  Re  Re12  1  0.805250  0.024773  0.368989  1
  Re  Re13  1  0.313341  0.486696  0.380704  1
  Re  Re14  1  0.688029  0.514668  0.880549  1
  Re  Re15  1  0.486696  0.313341  0.619296  1
  Re  Re16  1  0.514668  0.688029  0.119451  1
  Re  Re17  1  0.194157  0.977115  0.866976  1
  Re  Re18  1  0.838666  0.161363  0.750721  1
  Si  Si19  1  0.018852  0.730692  0.438742  1
  Si  Si20  1  0.609283  0.305233  0.434891  1
  Si  Si21  1  0.388112  0.693797  0.934481  1
  Si  Si22  1  0.197768  0.110810  0.682236  1
  Si  Si23  1  0.305233  0.609283  0.565109  1
  Si  Si24  1  0.693797  0.388112  0.065519  1
  Si  Si25  1  0.802599  0.888859  0.182842  1
  Si  Si26  1  0.110810  0.197768  0.317764  1
  Si  Si27  1  0.984730  0.267635  0.939911  1
  Si  Si28  1  0.730692  0.018852  0.561258  1
  Si  Si29  1  0.222231  0.482778  0.189148  1
  Si  Si30  1  0.777926  0.514382  0.692040  1
  Si  Si31  1  0.482778  0.222231  0.810852  1
  Si  Si32  1  0.514382  0.777926  0.307960  1
  Si  Si33  1  0.267635  0.984730  0.060089  1
  Si  Si34  1  0.888859  0.802599  0.817158  1
  Ir  Ir35  1  0.667801  0.667801  0.500000  1
