# generated using pymatgen
data_Ti3NbCrSi3C
_symmetry_space_group_name_H-M   'P 1'
_cell_length_a   7.39963738
_cell_length_b   7.39963712
_cell_length_c   5.07512828
_cell_angle_alpha   90.01871467
_cell_angle_beta   90.01871916
_cell_angle_gamma   120.12335860
_symmetry_Int_Tables_number   1
_chemical_formula_structural   Ti3NbCrSi3C
_chemical_formula_sum   'Ti6 Nb2 Cr2 Si6 C2'
_cell_volume   240.35725342
_cell_formula_units_Z   2
loop_
 _symmetry_equiv_pos_site_id
 _symmetry_equiv_pos_as_xyz
  1  'x, y, z'
loop_
 _atom_site_type_symbol
 _atom_site_label
 _atom_site_symmetry_multiplicity
 _atom_site_fract_x
 _atom_site_fract_y
 _atom_site_fract_z
 _atom_site_occupancy
  Ti  Ti0  1  0.666040  0.333520  0.998388  1
  Ti  Ti1  1  0.333520  0.666040  0.998388  1
  Ti  Ti2  1  0.765188  0.765188  0.751740  1
  Ti  Ti3  1  0.234419  0.001008  0.752574  1
  Ti  Ti4  1  0.001008  0.234419  0.752574  1
  Ti  Ti5  1  0.235454  0.235454  0.245270  1
  Nb  Nb6  1  0.762341  0.000773  0.245385  1
  Nb  Nb7  1  0.000773  0.762341  0.245385  1
  Cr  Cr8  1  0.333437  0.665990  0.501271  1
  Cr  Cr9  1  0.665990  0.333437  0.501271  1
  Si  Si10  1  0.410444  0.410444  0.727764  1
  Si  Si11  1  0.588112  0.000036  0.730037  1
  Si  Si12  1  0.000036  0.588112  0.730037  1
  Si  Si13  1  0.586502  0.586502  0.273990  1
  Si  Si14  1  0.409429  0.002457  0.272484  1
  Si  Si15  1  0.002457  0.409429  0.272484  1
  C  C16  1  0.002210  0.002210  0.997294  1
  C  C17  1  0.002640  0.002640  0.503663  1
