# generated using pymatgen
data_Lu4Co3B16Ru13
_symmetry_space_group_name_H-M   'P 1'
_cell_length_a   9.12703635
_cell_length_b   7.36790064
_cell_length_c   7.37371980
_cell_angle_alpha   90.15780296
_cell_angle_beta   114.07702529
_cell_angle_gamma   114.41969319
_symmetry_Int_Tables_number   1
_chemical_formula_structural   Lu4Co3B16Ru13
_chemical_formula_sum   'Lu4 Co3 B16 Ru13'
_cell_volume   403.36246890
_cell_formula_units_Z   1
loop_
 _symmetry_equiv_pos_site_id
 _symmetry_equiv_pos_as_xyz
  1  'x, y, z'
loop_
 _atom_site_type_symbol
 _atom_site_label
 _atom_site_symmetry_multiplicity
 _atom_site_fract_x
 _atom_site_fract_y
 _atom_site_fract_z
 _atom_site_occupancy
  Lu  Lu0  1  0.751849  0.876459  0.122389  1
  Lu  Lu1  1  0.246319  0.623320  0.372167  1
  Lu  Lu2  1  0.753949  0.375382  0.635443  1
  Lu  Lu3  1  0.247171  0.116448  0.881698  1
  Co  Co4  1  0.881522  0.557931  0.044004  1
  Co  Co5  1  0.377846  0.838693  0.046289  1
  Co  Co6  1  0.113950  0.943782  0.161851  1
  B  B7  1  0.915069  0.295602  0.068637  1
  B  B8  1  0.420308  0.581636  0.129975  1
  B  B9  1  0.085587  0.209861  0.153965  1
  B  B10  1  0.575808  0.149701  0.201670  1
  B  B11  1  0.394262  0.044015  0.271336  1
  B  B12  1  0.915413  0.625098  0.346366  1
  B  B13  1  0.588784  0.645985  0.377746  1
  B  B14  1  0.084178  0.874034  0.429121  1
  B  B15  1  0.909063  0.123710  0.560316  1
  B  B16  1  0.415701  0.342113  0.624457  1
  B  B17  1  0.086976  0.375815  0.658103  1
  B  B18  1  0.585660  0.932526  0.707437  1
  B  B19  1  0.415478  0.847962  0.791134  1
  B  B20  1  0.916934  0.790646  0.856976  1
  B  B21  1  0.594953  0.442003  0.877642  1
  B  B22  1  0.095654  0.720447  0.951372  1
  Ru  Ru23  1  0.630052  0.465314  0.175778  1
  Ru  Ru24  1  0.369919  0.325771  0.314050  1
  Ru  Ru25  1  0.870351  0.321277  0.335096  1
  Ru  Ru26  1  0.617781  0.954693  0.436023  1
  Ru  Ru27  1  0.127402  0.178430  0.462829  1
  Ru  Ru28  1  0.874600  0.822065  0.538226  1
  Ru  Ru29  1  0.367931  0.031147  0.542986  1
  Ru  Ru30  1  0.130766  0.683445  0.672085  1
  Ru  Ru31  1  0.627287  0.663020  0.678088  1
  Ru  Ru32  1  0.375421  0.538453  0.825132  1
  Ru  Ru33  1  0.874124  0.055619  0.834806  1
  Ru  Ru34  1  0.628980  0.170640  0.944488  1
  Ru  Ru35  1  0.132951  0.456958  0.970312  1
