# generated using pymatgen
data_Y2ErZr(Al3Ir)6
_symmetry_space_group_name_H-M   'P 1'
_cell_length_a   7.54511704
_cell_length_b   7.53611760
_cell_length_c   9.42666100
_cell_angle_alpha   90.00000000
_cell_angle_beta   90.00000000
_cell_angle_gamma   119.61699873
_symmetry_Int_Tables_number   1
_chemical_formula_structural   Y2ErZr(Al3Ir)6
_chemical_formula_sum   'Y2 Er1 Zr1 Al18 Ir6'
_cell_volume   465.97795346
_cell_formula_units_Z   1
loop_
 _symmetry_equiv_pos_site_id
 _symmetry_equiv_pos_as_xyz
  1  'x, y, z'
loop_
 _atom_site_type_symbol
 _atom_site_label
 _atom_site_symmetry_multiplicity
 _atom_site_fract_x
 _atom_site_fract_y
 _atom_site_fract_z
 _atom_site_occupancy
  Y  Y0  1  0.005624  0.327835  0.750000  1
  Y  Y1  1  0.329390  0.006404  0.750000  1
  Er  Er2  1  0.670780  0.995301  0.250000  1
  Zr  Zr3  1  0.996532  0.671980  0.250000  1
  Al  Al4  1  0.125661  0.123096  0.250000  1
  Al  Al5  1  0.870777  0.869431  0.750000  1
  Al  Al6  1  0.000002  0.337486  0.078558  1
  Al  Al7  1  0.999284  0.665094  0.930331  1
  Al  Al8  1  0.999284  0.665094  0.569669  1
  Al  Al9  1  0.332562  0.998148  0.421323  1
  Al  Al10  1  0.000002  0.337486  0.421442  1
  Al  Al11  1  0.664725  0.998234  0.573728  1
  Al  Al12  1  0.664725  0.998234  0.926272  1
  Al  Al13  1  0.332562  0.998148  0.078677  1
  Al  Al14  1  0.333899  0.333997  0.549935  1
  Al  Al15  1  0.668876  0.667117  0.443905  1
  Al  Al16  1  0.668876  0.667117  0.056095  1
  Al  Al17  1  0.333899  0.333997  0.950065  1
  Al  Al18  1  0.335908  0.549491  0.250000  1
  Al  Al19  1  0.660908  0.452640  0.750000  1
  Al  Al20  1  0.554920  0.344226  0.250000  1
  Al  Al21  1  0.451345  0.659690  0.750000  1
  Ir  Ir22  1  0.672275  0.328075  0.000914  1
  Ir  Ir23  1  0.328183  0.672343  0.001640  1
  Ir  Ir24  1  0.328183  0.672343  0.498360  1
  Ir  Ir25  1  0.672275  0.328075  0.499086  1
  Ir  Ir26  1  0.999271  0.999458  0.000960  1
  Ir  Ir27  1  0.999271  0.999458  0.499040  1
