# generated using pymatgen
data_Sm2MnCo16
_symmetry_space_group_name_H-M   'P 1'
_cell_length_a   6.31790520
_cell_length_b   6.31790456
_cell_length_c   6.31790520
_cell_angle_alpha   83.18185821
_cell_angle_beta   83.18186257
_cell_angle_gamma   83.18185894
_symmetry_Int_Tables_number   1
_chemical_formula_structural   Sm2MnCo16
_chemical_formula_sum   'Sm2 Mn1 Co16'
_cell_volume   247.22677095
_cell_formula_units_Z   1
loop_
 _symmetry_equiv_pos_site_id
 _symmetry_equiv_pos_as_xyz
  1  'x, y, z'
loop_
 _atom_site_type_symbol
 _atom_site_label
 _atom_site_symmetry_multiplicity
 _atom_site_fract_x
 _atom_site_fract_y
 _atom_site_fract_z
 _atom_site_occupancy
  Sm  Sm0  1  0.655770  0.655770  0.655770  1
  Sm  Sm1  1  0.346363  0.346363  0.346363  1
  Mn  Mn2  1  0.096697  0.096697  0.096697  1
  Co  Co3  1  0.713009  0.286740  0.998754  1
  Co  Co4  1  0.998754  0.713009  0.286740  1
  Co  Co5  1  0.286740  0.998754  0.713009  1
  Co  Co6  1  0.998754  0.286740  0.713009  1
  Co  Co7  1  0.713009  0.998754  0.286740  1
  Co  Co8  1  0.286740  0.713009  0.998754  1
  Co  Co9  1  0.346610  0.346610  0.849006  1
  Co  Co10  1  0.849006  0.346610  0.346610  1
  Co  Co11  1  0.346610  0.849006  0.346610  1
  Co  Co12  1  0.656059  0.656059  0.150932  1
  Co  Co13  1  0.150932  0.656059  0.656059  1
  Co  Co14  1  0.656059  0.150932  0.656059  1
  Co  Co15  1  0.997562  0.997562  0.504554  1
  Co  Co16  1  0.504554  0.997562  0.997562  1
  Co  Co17  1  0.997562  0.504554  0.997562  1
  Co  Co18  1  0.899212  0.899212  0.899212  1
