# generated using pymatgen
data_TaNb7Hg2Pb4O25
_symmetry_space_group_name_H-M   'P 1'
_cell_length_a   7.60676436
_cell_length_b   7.60344414
_cell_length_c   10.68423604
_cell_angle_alpha   89.21107711
_cell_angle_beta   89.78949634
_cell_angle_gamma   90.18857628
_symmetry_Int_Tables_number   1
_chemical_formula_structural   TaNb7Hg2Pb4O25
_chemical_formula_sum   'Ta1 Nb7 Hg2 Pb4 O25'
_cell_volume   617.88445519
_cell_formula_units_Z   1
loop_
 _symmetry_equiv_pos_site_id
 _symmetry_equiv_pos_as_xyz
  1  'x, y, z'
loop_
 _atom_site_type_symbol
 _atom_site_label
 _atom_site_symmetry_multiplicity
 _atom_site_fract_x
 _atom_site_fract_y
 _atom_site_fract_z
 _atom_site_occupancy
  Ta  Ta0  1  0.499424  0.748720  0.377324  1
  Nb  Nb1  1  0.754840  0.996515  0.120316  1
  Nb  Nb2  1  0.506892  0.239687  0.375853  1
  Nb  Nb3  1  0.252150  0.996218  0.124680  1
  Nb  Nb4  1  0.246466  0.502023  0.614098  1
  Nb  Nb5  1  0.003345  0.248801  0.876313  1
  Nb  Nb6  1  0.002060  0.746176  0.870267  1
  Nb  Nb7  1  0.749623  0.491653  0.620388  1
  Hg  Hg8  1  0.089661  0.087884  0.415562  1
  Hg  Hg9  1  0.908625  0.909135  0.580945  1
  Pb  Pb10  1  0.743797  0.495138  0.125505  1
  Pb  Pb11  1  0.500609  0.259640  0.870806  1
  Pb  Pb12  1  0.496376  0.747041  0.853972  1
  Pb  Pb13  1  0.251670  0.498527  0.142573  1
  O  O14  1  0.313751  0.321473  0.504773  1
  O  O15  1  0.988303  0.007992  0.178780  1
  O  O16  1  0.992907  0.012983  0.825288  1
  O  O17  1  0.801891  0.332824  0.758677  1
  O  O18  1  0.790600  0.210258  0.001531  1
  O  O19  1  0.789326  0.817088  0.995923  1
  O  O20  1  0.676379  0.320229  0.501398  1
  O  O21  1  0.496439  0.512048  0.701515  1
  O  O22  1  0.484940  0.020384  0.057950  1
  O  O23  1  0.487746  0.507072  0.301100  1
  O  O24  1  0.492582  0.506179  0.999310  1
  O  O25  1  0.282793  0.193010  0.263791  1
  O  O26  1  0.306210  0.816892  0.248062  1
  O  O27  1  0.313046  0.690047  0.500057  1
  O  O28  1  0.182865  0.212228  0.007547  1
  O  O29  1  0.179804  0.331181  0.758711  1
  O  O30  1  0.179718  0.820824  0.001154  1
  O  O31  1  0.994976  0.508396  0.571545  1
  O  O32  1  0.980534  0.516267  0.945796  1
  O  O33  1  0.809137  0.719747  0.738048  1
  O  O34  1  0.669000  0.200982  0.243143  1
  O  O35  1  0.670116  0.823202  0.244897  1
  O  O36  1  0.677685  0.685896  0.496441  1
  O  O37  1  0.494823  0.001306  0.429721  1
  O  O38  1  0.186987  0.696237  0.756238  1
