# generated using pymatgen
data_Nd4Al13Ga5Ir6
_symmetry_space_group_name_H-M   'P 1'
_cell_length_a   7.59877528
_cell_length_b   7.59606744
_cell_length_c   9.68831100
_cell_angle_alpha   90.00000000
_cell_angle_beta   90.00000000
_cell_angle_gamma   119.46920839
_symmetry_Int_Tables_number   1
_chemical_formula_structural   Nd4Al13Ga5Ir6
_chemical_formula_sum   'Nd4 Al13 Ga5 Ir6'
_cell_volume   486.86575379
_cell_formula_units_Z   1
loop_
 _symmetry_equiv_pos_site_id
 _symmetry_equiv_pos_as_xyz
  1  'x, y, z'
loop_
 _atom_site_type_symbol
 _atom_site_label
 _atom_site_symmetry_multiplicity
 _atom_site_fract_x
 _atom_site_fract_y
 _atom_site_fract_z
 _atom_site_occupancy
  Nd  Nd0  1  0.995200  0.669631  0.250000  1
  Nd  Nd1  1  0.001656  0.327732  0.750000  1
  Nd  Nd2  1  0.669358  0.995869  0.250000  1
  Nd  Nd3  1  0.330912  0.006434  0.750000  1
  Al  Al4  1  0.003346  0.334938  0.071142  1
  Al  Al5  1  0.997565  0.665251  0.928597  1
  Al  Al6  1  0.997565  0.665251  0.571403  1
  Al  Al7  1  0.334828  0.003166  0.428911  1
  Al  Al8  1  0.003346  0.334938  0.428858  1
  Al  Al9  1  0.664675  0.996576  0.571735  1
  Al  Al10  1  0.664675  0.996576  0.928265  1
  Al  Al11  1  0.334828  0.003166  0.071089  1
  Al  Al12  1  0.334612  0.335099  0.550917  1
  Al  Al13  1  0.665242  0.665292  0.451131  1
  Al  Al14  1  0.665242  0.665292  0.048869  1
  Al  Al15  1  0.334612  0.335099  0.949083  1
  Al  Al16  1  0.454246  0.661672  0.750000  1
  Ga  Ga17  1  0.130044  0.130057  0.250000  1
  Ga  Ga18  1  0.868898  0.868411  0.750000  1
  Ga  Ga19  1  0.338278  0.544640  0.250000  1
  Ga  Ga20  1  0.661962  0.456197  0.750000  1
  Ga  Ga21  1  0.544981  0.338746  0.250000  1
  Ir  Ir22  1  0.671338  0.328790  0.000321  1
  Ir  Ir23  1  0.330285  0.670984  0.997725  1
  Ir  Ir24  1  0.330285  0.670984  0.502275  1
  Ir  Ir25  1  0.671338  0.328790  0.499679  1
  Ir  Ir26  1  0.000343  0.000209  0.000153  1
  Ir  Ir27  1  0.000343  0.000209  0.499847  1
