# generated using pymatgen
data_Pr2Nd2Ga4Pd3Rh
_symmetry_space_group_name_H-M   'P 1'
_cell_length_a   4.55358700
_cell_length_b   7.14500831
_cell_length_c   7.82486382
_cell_angle_alpha   90.10371903
_cell_angle_beta   90.00000000
_cell_angle_gamma   90.00000000
_symmetry_Int_Tables_number   1
_chemical_formula_structural   Pr2Nd2Ga4Pd3Rh
_chemical_formula_sum   'Pr2 Nd2 Ga4 Pd3 Rh1'
_cell_volume   254.58478969
_cell_formula_units_Z   1
loop_
 _symmetry_equiv_pos_site_id
 _symmetry_equiv_pos_as_xyz
  1  'x, y, z'
loop_
 _atom_site_type_symbol
 _atom_site_label
 _atom_site_symmetry_multiplicity
 _atom_site_fract_x
 _atom_site_fract_y
 _atom_site_fract_z
 _atom_site_occupancy
  Pr  Pr0  1  0.250000  0.031361  0.688798  1
  Pr  Pr1  1  0.250000  0.527141  0.806871  1
  Nd  Nd2  1  0.750000  0.978461  0.304326  1
  Nd  Nd3  1  0.750000  0.471535  0.199315  1
  Ga  Ga4  1  0.250000  0.169866  0.076708  1
  Ga  Ga5  1  0.250000  0.661143  0.426030  1
  Ga  Ga6  1  0.750000  0.832985  0.927823  1
  Ga  Ga7  1  0.750000  0.330589  0.570416  1
  Pd  Pd8  1  0.250000  0.784796  0.102699  1
  Pd  Pd9  1  0.750000  0.716972  0.599687  1
  Pd  Pd10  1  0.750000  0.215804  0.899748  1
  Rh  Rh11  1  0.250000  0.279347  0.397581  1
