# generated using pymatgen
data_Dy3GeP2Rh3
_symmetry_space_group_name_H-M   'P 1'
_cell_length_a   6.79561200
_cell_length_b   6.79561282
_cell_length_c   3.99110300
_cell_angle_alpha   90.00000000
_cell_angle_beta   90.00000000
_cell_angle_gamma   120.00000573
_symmetry_Int_Tables_number   1
_chemical_formula_structural   Dy3GeP2Rh3
_chemical_formula_sum   'Dy3 Ge1 P2 Rh3'
_cell_volume   159.61758819
_cell_formula_units_Z   1
loop_
 _symmetry_equiv_pos_site_id
 _symmetry_equiv_pos_as_xyz
  1  'x, y, z'
loop_
 _atom_site_type_symbol
 _atom_site_label
 _atom_site_symmetry_multiplicity
 _atom_site_fract_x
 _atom_site_fract_y
 _atom_site_fract_z
 _atom_site_occupancy
  Dy  Dy0  1  0.422452  0.422452  0.500000  1
  Dy  Dy1  1  0.577548  0.000000  0.500000  1
  Dy  Dy2  1  0.000000  0.577548  0.500000  1
  Ge  Ge3  1  0.000000  0.000000  0.500000  1
  P  P4  1  0.666667  0.333333  0.000000  1
  P  P5  1  0.333333  0.666667  0.000000  1
  Rh  Rh6  1  0.753922  0.753922  0.000000  1
  Rh  Rh7  1  0.246078  0.000000  0.000000  1
  Rh  Rh8  1  0.000000  0.246078  0.000000  1
