# generated using pymatgen
data_KRb17Sb6
_symmetry_space_group_name_H-M   'P 1'
_cell_length_a   11.09775753
_cell_length_b   11.09738548
_cell_length_c   11.33119409
_cell_angle_alpha   90.00481740
_cell_angle_beta   90.00124137
_cell_angle_gamma   119.99117330
_symmetry_Int_Tables_number   1
_chemical_formula_structural   KRb17Sb6
_chemical_formula_sum   'K1 Rb17 Sb6'
_cell_volume   1208.65076716
_cell_formula_units_Z   1
loop_
 _symmetry_equiv_pos_site_id
 _symmetry_equiv_pos_as_xyz
  1  'x, y, z'
loop_
 _atom_site_type_symbol
 _atom_site_label
 _atom_site_symmetry_multiplicity
 _atom_site_fract_x
 _atom_site_fract_y
 _atom_site_fract_z
 _atom_site_occupancy
  K  K0  1  0.000285  0.000246  0.773677  1
  Rb  Rb1  1  0.333201  0.666538  0.228214  1
  Rb  Rb2  1  0.666741  0.333405  0.730213  1
  Rb  Rb3  1  0.333396  0.666726  0.730176  1
  Rb  Rb4  1  0.666524  0.333221  0.228266  1
  Rb  Rb5  1  0.354499  0.354506  0.418711  1
  Rb  Rb6  1  0.650411  0.650433  0.918974  1
  Rb  Rb7  1  0.645485  0.999962  0.418611  1
  Rb  Rb8  1  0.999996  0.645497  0.418658  1
  Rb  Rb9  1  0.999997  0.349626  0.918921  1
  Rb  Rb10  1  0.349625  0.999982  0.918960  1
  Rb  Rb11  1  0.307466  0.307471  0.082277  1
  Rb  Rb12  1  0.691309  0.691315  0.582139  1
  Rb  Rb13  1  0.692482  0.999964  0.082204  1
  Rb  Rb14  1  0.999913  0.692409  0.082238  1
  Rb  Rb15  1  0.999993  0.308815  0.582010  1
  Rb  Rb16  1  0.308902  0.000034  0.582034  1
  Rb  Rb17  1  0.999890  0.999882  0.293534  1
  Sb  Sb18  1  0.325365  0.325340  0.751551  1
  Sb  Sb19  1  0.668166  0.668179  0.251892  1
  Sb  Sb20  1  0.674975  0.000106  0.751529  1
  Sb  Sb21  1  0.000112  0.674961  0.751547  1
  Sb  Sb22  1  0.999819  0.331553  0.251810  1
  Sb  Sb23  1  0.331549  0.999825  0.251855  1
