# generated using pymatgen
data_Ce2Al12Zn5
_symmetry_space_group_name_H-M   'P 1'
_cell_length_a   6.99979426
_cell_length_b   6.99979402
_cell_length_c   6.99979434
_cell_angle_alpha   97.23544881
_cell_angle_beta   82.76455075
_cell_angle_gamma   97.23544871
_symmetry_Int_Tables_number   1
_chemical_formula_structural   Ce2Al12Zn5
_chemical_formula_sum   'Ce2 Al12 Zn5'
_cell_volume   335.41104346
_cell_formula_units_Z   1
loop_
 _symmetry_equiv_pos_site_id
 _symmetry_equiv_pos_as_xyz
  1  'x, y, z'
loop_
 _atom_site_type_symbol
 _atom_site_label
 _atom_site_symmetry_multiplicity
 _atom_site_fract_x
 _atom_site_fract_y
 _atom_site_fract_z
 _atom_site_occupancy
  Ce  Ce0  1  0.345110  0.654890  0.345110  1
  Ce  Ce1  1  0.654891  0.345110  0.654890  1
  Al  Al2  1  0.702854  0.702853  0.000000  1
  Al  Al3  1  0.297147  0.297146  0.000000  1
  Al  Al4  1  0.651669  0.348331  0.157335  1
  Al  Al5  1  0.702854  0.000000  0.297146  1
  Al  Al6  1  0.000000  0.297147  0.297147  1
  Al  Al7  1  0.348331  0.157336  0.348330  1
  Al  Al8  1  0.842665  0.651670  0.348331  1
  Al  Al9  1  0.157335  0.348331  0.651669  1
  Al  Al10  1  0.651669  0.842666  0.651669  1
  Al  Al11  1  0.297147  0.000000  0.702853  1
  Al  Al12  1  0.000000  0.702853  0.702853  1
  Al  Al13  1  0.348331  0.651670  0.842665  1
  Zn  Zn14  1  0.500000  0.000000  0.000000  1
  Zn  Zn15  1  0.000000  0.499999  0.000000  1
  Zn  Zn16  1  0.097925  0.902075  0.097925  1
  Zn  Zn17  1  0.000000  0.000000  0.499999  1
  Zn  Zn18  1  0.902075  0.097925  0.902075  1
