# generated using pymatgen
data_Dy8Ho2Si5As
_symmetry_space_group_name_H-M   'P 1'
_cell_length_a   8.44066600
_cell_length_b   8.45487004
_cell_length_c   6.31403900
_cell_angle_alpha   90.00248248
_cell_angle_beta   90.00000000
_cell_angle_gamma   119.94444215
_symmetry_Int_Tables_number   1
_chemical_formula_structural   Dy8Ho2Si5As
_chemical_formula_sum   'Dy8 Ho2 Si5 As1'
_cell_volume   390.44908146
_cell_formula_units_Z   1
loop_
 _symmetry_equiv_pos_site_id
 _symmetry_equiv_pos_as_xyz
  1  'x, y, z'
loop_
 _atom_site_type_symbol
 _atom_site_label
 _atom_site_symmetry_multiplicity
 _atom_site_fract_x
 _atom_site_fract_y
 _atom_site_fract_z
 _atom_site_occupancy
  Dy  Dy0  1  0.996593  0.753935  0.750002  1
  Dy  Dy1  1  0.000195  0.243755  0.250004  1
  Dy  Dy2  1  0.756440  0.756245  0.249996  1
  Dy  Dy3  1  0.758570  0.000000  0.750000  1
  Dy  Dy4  1  0.242658  0.246065  0.749998  1
  Dy  Dy5  1  0.242773  0.000000  0.250000  1
  Dy  Dy6  1  0.332994  0.663969  0.498863  1
  Dy  Dy7  1  0.669026  0.336031  0.001137  1
  Ho  Ho8  1  0.669056  0.336083  0.498847  1
  Ho  Ho9  1  0.332972  0.663917  0.001153  1
  Si  Si10  1  0.394123  0.393138  0.249999  1
  Si  Si11  1  0.000984  0.606862  0.250001  1
  Si  Si12  1  0.999803  0.394024  0.750001  1
  Si  Si13  1  0.605778  0.605976  0.749999  1
  Si  Si14  1  0.606842  0.000000  0.250000  1
  As  As15  1  0.391193  0.000000  0.750000  1
