# generated using pymatgen
data_NaDySnBr6
_symmetry_space_group_name_H-M   'P 1'
_cell_length_a   7.97426090
_cell_length_b   7.97418475
_cell_length_c   7.97418542
_cell_angle_alpha   55.88821042
_cell_angle_beta   55.88817534
_cell_angle_gamma   55.88758596
_symmetry_Int_Tables_number   1
_chemical_formula_structural   NaDySnBr6
_chemical_formula_sum   'Na1 Dy1 Sn1 Br6'
_cell_volume   324.37495170
_cell_formula_units_Z   1
loop_
 _symmetry_equiv_pos_site_id
 _symmetry_equiv_pos_as_xyz
  1  'x, y, z'
loop_
 _atom_site_type_symbol
 _atom_site_label
 _atom_site_symmetry_multiplicity
 _atom_site_fract_x
 _atom_site_fract_y
 _atom_site_fract_z
 _atom_site_occupancy
  Na  Na0  1  0.669786  0.669789  0.669790  1
  Dy  Dy1  1  0.999735  0.999707  0.999719  1
  Sn  Sn2  1  0.330845  0.330851  0.330848  1
  Br  Br3  1  0.234092  0.611316  0.917046  1
  Br  Br4  1  0.611304  0.917049  0.234093  1
  Br  Br5  1  0.917045  0.234100  0.611299  1
  Br  Br6  1  0.762057  0.386374  0.088772  1
  Br  Br7  1  0.386370  0.088763  0.762060  1
  Br  Br8  1  0.088768  0.762051  0.386373  1
