# generated using pymatgen
data_ZrFe4P3Ru
_symmetry_space_group_name_H-M   'P 1'
_cell_length_a   3.68123600
_cell_length_b   10.19948400
_cell_length_c   11.70763400
_cell_angle_alpha   90.00000000
_cell_angle_beta   90.00000000
_cell_angle_gamma   90.00000000
_symmetry_Int_Tables_number   1
_chemical_formula_structural   ZrFe4P3Ru
_chemical_formula_sum   'Zr4 Fe16 P12 Ru4'
_cell_volume   439.58311145
_cell_formula_units_Z   4
loop_
 _symmetry_equiv_pos_site_id
 _symmetry_equiv_pos_as_xyz
  1  'x, y, z'
loop_
 _atom_site_type_symbol
 _atom_site_label
 _atom_site_symmetry_multiplicity
 _atom_site_fract_x
 _atom_site_fract_y
 _atom_site_fract_z
 _atom_site_occupancy
  Zr  Zr0  1  0.250000  0.580563  0.703546  1
  Zr  Zr1  1  0.250000  0.919437  0.203546  1
  Zr  Zr2  1  0.750000  0.419437  0.296454  1
  Zr  Zr3  1  0.750000  0.080563  0.796454  1
  Fe  Fe4  1  0.250000  0.406404  0.485827  1
  Fe  Fe5  1  0.250000  0.093596  0.985827  1
  Fe  Fe6  1  0.750000  0.593596  0.514173  1
  Fe  Fe7  1  0.750000  0.906404  0.014173  1
  Fe  Fe8  1  0.250000  0.224820  0.174193  1
  Fe  Fe9  1  0.250000  0.275180  0.674193  1
  Fe  Fe10  1  0.750000  0.775180  0.825807  1
  Fe  Fe11  1  0.750000  0.724820  0.325807  1
  Fe  Fe12  1  0.250000  0.882261  0.704058  1
  Fe  Fe13  1  0.250000  0.617739  0.204058  1
  Fe  Fe14  1  0.750000  0.117739  0.295942  1
  Fe  Fe15  1  0.750000  0.382261  0.795942  1
  Fe  Fe16  1  0.250000  0.462814  0.932340  1
  Fe  Fe17  1  0.250000  0.037186  0.432340  1
  Fe  Fe18  1  0.750000  0.537186  0.067660  1
  Fe  Fe19  1  0.750000  0.962814  0.567660  1
  P  P20  1  0.250000  0.424917  0.116853  1
  P  P21  1  0.250000  0.075083  0.616853  1
  P  P22  1  0.750000  0.575083  0.883147  1
  P  P23  1  0.750000  0.924917  0.383147  1
  P  P24  1  0.250000  0.265646  0.862360  1
  P  P25  1  0.250000  0.234354  0.362360  1
  P  P26  1  0.750000  0.734354  0.137640  1
  P  P27  1  0.750000  0.765646  0.637640  1
  P  P28  1  0.250000  0.596146  0.391070  1
  P  P29  1  0.250000  0.903854  0.891070  1
  P  P30  1  0.750000  0.403854  0.608930  1
  P  P31  1  0.750000  0.096146  0.108930  1
  Ru  Ru32  1  0.250000  0.709509  0.990571  1
  Ru  Ru33  1  0.250000  0.790491  0.490571  1
  Ru  Ru34  1  0.750000  0.290491  0.009429  1
  Ru  Ru35  1  0.750000  0.209509  0.509429  1
