# generated using pymatgen
data_HoMg(Si7Ir3)2
_symmetry_space_group_name_H-M   'P 1'
_cell_length_a   8.00496452
_cell_length_b   8.00496473
_cell_length_c   8.00496491
_cell_angle_alpha   56.67171229
_cell_angle_beta   56.67171075
_cell_angle_gamma   56.67170760
_symmetry_Int_Tables_number   1
_chemical_formula_structural   HoMg(Si7Ir3)2
_chemical_formula_sum   'Ho1 Mg1 Si14 Ir6'
_cell_volume   334.83292997
_cell_formula_units_Z   1
loop_
 _symmetry_equiv_pos_site_id
 _symmetry_equiv_pos_as_xyz
  1  'x, y, z'
loop_
 _atom_site_type_symbol
 _atom_site_label
 _atom_site_symmetry_multiplicity
 _atom_site_fract_x
 _atom_site_fract_y
 _atom_site_fract_z
 _atom_site_occupancy
  Ho  Ho0  1  0.500000  0.500000  0.500000  1
  Mg  Mg1  1  0.000000  0.000000  0.000000  1
  Si  Si2  1  0.851679  0.063573  0.674420  1
  Si  Si3  1  0.674420  0.851679  0.063573  1
  Si  Si4  1  0.063573  0.674420  0.851679  1
  Si  Si5  1  0.651030  0.828290  0.434073  1
  Si  Si6  1  0.250192  0.250192  0.250192  1
  Si  Si7  1  0.749808  0.749808  0.749808  1
  Si  Si8  1  0.171710  0.565927  0.348970  1
  Si  Si9  1  0.565927  0.348970  0.171710  1
  Si  Si10  1  0.348970  0.171710  0.565927  1
  Si  Si11  1  0.936427  0.325580  0.148321  1
  Si  Si12  1  0.325580  0.148321  0.936427  1
  Si  Si13  1  0.148321  0.936427  0.325580  1
  Si  Si14  1  0.828290  0.434073  0.651030  1
  Si  Si15  1  0.434073  0.651030  0.828290  1
  Ir  Ir16  1  0.750149  0.072856  0.427236  1
  Ir  Ir17  1  0.427236  0.750149  0.072856  1
  Ir  Ir18  1  0.072856  0.427236  0.750149  1
  Ir  Ir19  1  0.249851  0.927144  0.572764  1
  Ir  Ir20  1  0.572764  0.249851  0.927144  1
  Ir  Ir21  1  0.927144  0.572764  0.249851  1
