# generated using pymatgen
data_DyY2Ho3(ReB7)2
_symmetry_space_group_name_H-M   'P 1'
_cell_length_a   8.07135422
_cell_length_b   8.07135286
_cell_length_c   9.35549927
_cell_angle_alpha   90.02672196
_cell_angle_beta   89.97327719
_cell_angle_gamma   154.71811278
_symmetry_Int_Tables_number   1
_chemical_formula_structural   DyY2Ho3(ReB7)2
_chemical_formula_sum   'Dy1 Y2 Ho3 Re2 B14'
_cell_volume   260.29198599
_cell_formula_units_Z   1
loop_
 _symmetry_equiv_pos_site_id
 _symmetry_equiv_pos_as_xyz
  1  'x, y, z'
loop_
 _atom_site_type_symbol
 _atom_site_label
 _atom_site_symmetry_multiplicity
 _atom_site_fract_x
 _atom_site_fract_y
 _atom_site_fract_z
 _atom_site_occupancy
  Dy  Dy0  1  0.894712  0.105288  0.059957  1
  Y  Y1  1  0.242960  0.757040  0.250025  1
  Y  Y2  1  0.756948  0.243052  0.749973  1
  Ho  Ho3  1  0.105160  0.894840  0.559690  1
  Ho  Ho4  1  0.105163  0.894837  0.940281  1
  Ho  Ho5  1  0.894861  0.105139  0.440331  1
  Re  Re6  1  0.052541  0.947459  0.250110  1
  Re  Re7  1  0.947558  0.052441  0.749843  1
  B  B8  1  0.456681  0.543319  0.250223  1
  B  B9  1  0.543473  0.456527  0.749964  1
  B  B10  1  0.726976  0.273024  0.033257  1
  B  B11  1  0.272881  0.727119  0.533299  1
  B  B12  1  0.272763  0.727237  0.966613  1
  B  B13  1  0.727121  0.272879  0.466703  1
  B  B14  1  0.631858  0.368142  0.349549  1
  B  B15  1  0.368134  0.631866  0.849315  1
  B  B16  1  0.368144  0.631856  0.650458  1
  B  B17  1  0.631855  0.368145  0.150442  1
  B  B18  1  0.520594  0.479406  0.404928  1
  B  B19  1  0.479496  0.520504  0.904712  1
  B  B20  1  0.479444  0.520556  0.595109  1
  B  B21  1  0.520673  0.479327  0.095219  1
