# generated using pymatgen
data_Nb2Te8Pd3
_symmetry_space_group_name_H-M   'P 1'
_cell_length_a   3.86552900
_cell_length_b   11.44704800
_cell_length_c   16.39633300
_cell_angle_alpha   90.00000000
_cell_angle_beta   90.00000000
_cell_angle_gamma   90.00000000
_symmetry_Int_Tables_number   1
_chemical_formula_structural   Nb2Te8Pd3
_chemical_formula_sum   'Nb4 Te16 Pd6'
_cell_volume   725.51963384
_cell_formula_units_Z   2
loop_
 _symmetry_equiv_pos_site_id
 _symmetry_equiv_pos_as_xyz
  1  'x, y, z'
loop_
 _atom_site_type_symbol
 _atom_site_label
 _atom_site_symmetry_multiplicity
 _atom_site_fract_x
 _atom_site_fract_y
 _atom_site_fract_z
 _atom_site_occupancy
  Nb  Nb0  1  0.500000  0.786620  0.880535  1
  Nb  Nb1  1  0.500000  0.213380  0.119465  1
  Nb  Nb2  1  0.500000  0.286620  0.619465  1
  Nb  Nb3  1  0.500000  0.713380  0.380535  1
  Te  Te4  1  0.000000  0.768704  0.007293  1
  Te  Te5  1  0.000000  0.231296  0.992707  1
  Te  Te6  1  0.000000  0.268704  0.492707  1
  Te  Te7  1  0.000000  0.731296  0.507293  1
  Te  Te8  1  0.000000  0.960026  0.841974  1
  Te  Te9  1  0.000000  0.039974  0.158026  1
  Te  Te10  1  0.000000  0.460026  0.658026  1
  Te  Te11  1  0.000000  0.539974  0.341974  1
  Te  Te12  1  0.500000  0.750145  0.714485  1
  Te  Te13  1  0.500000  0.249855  0.285515  1
  Te  Te14  1  0.500000  0.250145  0.785515  1
  Te  Te15  1  0.500000  0.749855  0.214485  1
  Te  Te16  1  0.500000  0.543309  0.881665  1
  Te  Te17  1  0.500000  0.456691  0.118335  1
  Te  Te18  1  0.500000  0.043309  0.618335  1
  Te  Te19  1  0.500000  0.956691  0.381665  1
  Pd  Pd20  1  0.000000  0.000000  0.000000  1
  Pd  Pd21  1  0.000000  0.500000  0.500000  1
  Pd  Pd22  1  0.000000  0.622112  0.783820  1
  Pd  Pd23  1  0.000000  0.377888  0.216180  1
  Pd  Pd24  1  0.000000  0.122112  0.716180  1
  Pd  Pd25  1  0.000000  0.877888  0.283820  1
