# generated using pymatgen
data_Nb12Al8NiMo(PtC2)2
_symmetry_space_group_name_H-M   'P 1'
_cell_length_a   8.28168177
_cell_length_b   8.28168229
_cell_length_c   8.33429800
_cell_angle_alpha   60.20862164
_cell_angle_beta   60.20862754
_cell_angle_gamma   60.00001189
_symmetry_Int_Tables_number   1
_chemical_formula_structural   Nb12Al8NiMo(PtC2)2
_chemical_formula_sum   'Nb12 Al8 Ni1 Mo1 Pt2 C4'
_cell_volume   405.46510448
_cell_formula_units_Z   1
loop_
 _symmetry_equiv_pos_site_id
 _symmetry_equiv_pos_as_xyz
  1  'x, y, z'
loop_
 _atom_site_type_symbol
 _atom_site_label
 _atom_site_symmetry_multiplicity
 _atom_site_fract_x
 _atom_site_fract_y
 _atom_site_fract_z
 _atom_site_occupancy
  Nb  Nb0  1  0.810560  0.810560  0.180096  1
  Nb  Nb1  1  0.184047  0.184047  0.817066  1
  Nb  Nb2  1  0.813674  0.185772  0.815834  1
  Nb  Nb3  1  0.199478  0.810479  0.179221  1
  Nb  Nb4  1  0.185772  0.813674  0.815834  1
  Nb  Nb5  1  0.810479  0.199478  0.179221  1
  Nb  Nb6  1  0.439440  0.439440  0.069904  1
  Nb  Nb7  1  0.065953  0.065953  0.432934  1
  Nb  Nb8  1  0.436326  0.064228  0.434166  1
  Nb  Nb9  1  0.050522  0.439521  0.070779  1
  Nb  Nb10  1  0.064228  0.436326  0.434166  1
  Nb  Nb11  1  0.439521  0.050522  0.070779  1
  Al  Al12  1  0.748670  0.418900  0.426281  1
  Al  Al13  1  0.418900  0.748670  0.426281  1
  Al  Al14  1  0.417522  0.417522  0.758725  1
  Al  Al15  1  0.413655  0.413655  0.421431  1
  Al  Al16  1  0.501330  0.831100  0.823719  1
  Al  Al17  1  0.831100  0.501330  0.823719  1
  Al  Al18  1  0.832478  0.832478  0.491275  1
  Al  Al19  1  0.836345  0.836345  0.828569  1
  Ni  Ni20  1  0.625000  0.625000  0.625000  1
  Mo  Mo21  1  0.625000  0.625000  0.125000  1
  Pt  Pt22  1  0.125000  0.625000  0.625000  1
  Pt  Pt23  1  0.625000  0.125000  0.625000  1
  C  C24  1  0.625000  0.125000  0.125000  1
  C  C25  1  0.125000  0.625000  0.125000  1
  C  C26  1  0.125000  0.125000  0.625000  1
  C  C27  1  0.125000  0.125000  0.125000  1
