# generated using pymatgen
data_RbZnFe(Sb6Os)2
_symmetry_space_group_name_H-M   'P 1'
_cell_length_a   8.16792157
_cell_length_b   8.20680889
_cell_length_c   8.24970115
_cell_angle_alpha   109.77466111
_cell_angle_beta   109.32263108
_cell_angle_gamma   109.39841574
_symmetry_Int_Tables_number   1
_chemical_formula_structural   RbZnFe(Sb6Os)2
_chemical_formula_sum   'Rb1 Zn1 Fe1 Sb12 Os2'
_cell_volume   425.26129480
_cell_formula_units_Z   1
loop_
 _symmetry_equiv_pos_site_id
 _symmetry_equiv_pos_as_xyz
  1  'x, y, z'
loop_
 _atom_site_type_symbol
 _atom_site_label
 _atom_site_symmetry_multiplicity
 _atom_site_fract_x
 _atom_site_fract_y
 _atom_site_fract_z
 _atom_site_occupancy
  Rb  Rb0  1  0.000000  0.000000  0.000000  1
  Zn  Zn1  1  0.500000  0.000000  0.000000  1
  Fe  Fe2  1  0.000000  0.000000  0.500000  1
  Sb  Sb3  1  0.844397  0.669639  0.504257  1
  Sb  Sb4  1  0.155603  0.330361  0.495743  1
  Sb  Sb5  1  0.144062  0.640131  0.802961  1
  Sb  Sb6  1  0.855938  0.359869  0.197039  1
  Sb  Sb7  1  0.660118  0.502931  0.842565  1
  Sb  Sb8  1  0.339882  0.497069  0.157435  1
  Sb  Sb9  1  0.670237  0.809405  0.173380  1
  Sb  Sb10  1  0.329763  0.190595  0.826620  1
  Sb  Sb11  1  0.495721  0.838100  0.640279  1
  Sb  Sb12  1  0.504279  0.161900  0.359721  1
  Sb  Sb13  1  0.174345  0.844762  0.341322  1
  Sb  Sb14  1  0.825655  0.155238  0.658678  1
  Os  Os15  1  0.500000  0.500000  0.500000  1
  Os  Os16  1  0.000000  0.500000  0.000000  1
