# generated using pymatgen
data_Th5AlRh10
_symmetry_space_group_name_H-M   'P 1'
_cell_length_a   5.94548083
_cell_length_b   5.94548117
_cell_length_c   8.81459700
_cell_angle_alpha   90.00000000
_cell_angle_beta   90.00000000
_cell_angle_gamma   100.04656212
_symmetry_Int_Tables_number   1
_chemical_formula_structural   Th5AlRh10
_chemical_formula_sum   'Th5 Al1 Rh10'
_cell_volume   306.80718898
_cell_formula_units_Z   1
loop_
 _symmetry_equiv_pos_site_id
 _symmetry_equiv_pos_as_xyz
  1  'x, y, z'
loop_
 _atom_site_type_symbol
 _atom_site_label
 _atom_site_symmetry_multiplicity
 _atom_site_fract_x
 _atom_site_fract_y
 _atom_site_fract_z
 _atom_site_occupancy
  Th  Th0  1  0.630395  0.630395  0.750000  1
  Th  Th1  1  0.776632  0.202464  0.492734  1
  Th  Th2  1  0.202464  0.776632  0.007266  1
  Th  Th3  1  0.202464  0.776632  0.492734  1
  Th  Th4  1  0.776632  0.202464  0.007266  1
  Al  Al5  1  0.422597  0.422597  0.250000  1
  Rh  Rh6  1  0.686534  0.686534  0.070231  1
  Rh  Rh7  1  0.686534  0.686534  0.429769  1
  Rh  Rh8  1  0.282673  0.282673  0.994377  1
  Rh  Rh9  1  0.282673  0.282673  0.505623  1
  Rh  Rh10  1  0.489159  0.064953  0.750000  1
  Rh  Rh11  1  0.481856  0.001563  0.250000  1
  Rh  Rh12  1  0.999531  0.999531  0.250000  1
  Rh  Rh13  1  0.013339  0.013339  0.750000  1
  Rh  Rh14  1  0.064953  0.489159  0.750000  1
  Rh  Rh15  1  0.001563  0.481856  0.250000  1
