# generated using pymatgen
data_TbHo4Er3(OsBr4)2
_symmetry_space_group_name_H-M   'P 1'
_cell_length_a   8.98169741
_cell_length_b   8.95212841
_cell_length_c   6.52452500
_cell_angle_alpha   89.50442822
_cell_angle_beta   89.40714423
_cell_angle_gamma   89.28524105
_symmetry_Int_Tables_number   1
_chemical_formula_structural   TbHo4Er3(OsBr4)2
_chemical_formula_sum   'Tb1 Ho4 Er3 Os2 Br8'
_cell_volume   524.51850011
_cell_formula_units_Z   1
loop_
 _symmetry_equiv_pos_site_id
 _symmetry_equiv_pos_as_xyz
  1  'x, y, z'
loop_
 _atom_site_type_symbol
 _atom_site_label
 _atom_site_symmetry_multiplicity
 _atom_site_fract_x
 _atom_site_fract_y
 _atom_site_fract_z
 _atom_site_occupancy
  Tb  Tb0  1  0.250770  0.900317  0.008216  1
  Ho  Ho1  1  0.752259  0.099109  0.990087  1
  Ho  Ho2  1  0.097988  0.751953  0.489362  1
  Ho  Ho3  1  0.901036  0.248554  0.509696  1
  Ho  Ho4  1  0.753077  0.903469  0.508004  1
  Er  Er5  1  0.244741  0.096887  0.490663  1
  Er  Er6  1  0.095951  0.246014  0.990747  1
  Er  Er7  1  0.904084  0.754372  0.008055  1
  Os  Os8  1  0.995664  0.005075  0.249519  1
  Os  Os9  1  0.004219  0.995578  0.749346  1
  Br  Br10  1  0.417100  0.817618  0.415906  1
  Br  Br11  1  0.581618  0.182296  0.588578  1
  Br  Br12  1  0.180674  0.580614  0.088474  1
  Br  Br13  1  0.818816  0.418558  0.911117  1
  Br  Br14  1  0.411835  0.190005  0.091212  1
  Br  Br15  1  0.589994  0.809934  0.911769  1
  Br  Br16  1  0.811919  0.587309  0.407904  1
  Br  Br17  1  0.188258  0.412338  0.591343  1
