# generated using pymatgen
data_Dy3Er7Si5P
_symmetry_space_group_name_H-M   'P 1'
_cell_length_a   8.35184600
_cell_length_b   8.35836719
_cell_length_c   6.25211000
_cell_angle_alpha   90.00000000
_cell_angle_beta   90.00000000
_cell_angle_gamma   119.97417875
_symmetry_Int_Tables_number   1
_chemical_formula_structural   Dy3Er7Si5P
_chemical_formula_sum   'Dy3 Er7 Si5 P1'
_cell_volume   378.07164519
_cell_formula_units_Z   1
loop_
 _symmetry_equiv_pos_site_id
 _symmetry_equiv_pos_as_xyz
  1  'x, y, z'
loop_
 _atom_site_type_symbol
 _atom_site_label
 _atom_site_symmetry_multiplicity
 _atom_site_fract_x
 _atom_site_fract_y
 _atom_site_fract_z
 _atom_site_occupancy
  Dy  Dy0  1  0.001090  0.757226  0.750000  1
  Dy  Dy1  1  0.755421  0.000000  0.750000  1
  Dy  Dy2  1  0.243863  0.242774  0.750000  1
  Er  Er3  1  0.000742  0.243827  0.250000  1
  Er  Er4  1  0.756915  0.756173  0.250000  1
  Er  Er5  1  0.243256  0.000000  0.250000  1
  Er  Er6  1  0.333717  0.667442  0.500279  1
  Er  Er7  1  0.666276  0.332558  0.999721  1
  Er  Er8  1  0.666276  0.332558  0.500279  1
  Er  Er9  1  0.333717  0.667442  0.999721  1
  Si  Si10  1  0.394484  0.393949  0.250000  1
  Si  Si11  1  0.000534  0.606051  0.250000  1
  Si  Si12  1  0.000075  0.394396  0.750000  1
  Si  Si13  1  0.605680  0.605604  0.750000  1
  Si  Si14  1  0.606635  0.000000  0.250000  1
  P  P15  1  0.391318  0.000000  0.750000  1
