# generated using pymatgen
data_TmAl7Cu5
_symmetry_space_group_name_H-M   'P 1'
_cell_length_a   5.12263753
_cell_length_b   6.63655922
_cell_length_c   6.63656045
_cell_angle_alpha   98.14453358
_cell_angle_beta   112.70216068
_cell_angle_gamma   67.29784529
_symmetry_Int_Tables_number   1
_chemical_formula_structural   TmAl7Cu5
_chemical_formula_sum   'Tm1 Al7 Cu5'
_cell_volume   192.00772248
_cell_formula_units_Z   1
loop_
 _symmetry_equiv_pos_site_id
 _symmetry_equiv_pos_as_xyz
  1  'x, y, z'
loop_
 _atom_site_type_symbol
 _atom_site_label
 _atom_site_symmetry_multiplicity
 _atom_site_fract_x
 _atom_site_fract_y
 _atom_site_fract_z
 _atom_site_occupancy
  Tm  Tm0  1  0.999246  0.000754  0.999246  1
  Al  Al1  1  0.650393  0.349607  0.650393  1
  Al  Al2  1  0.344005  0.655995  0.344005  1
  Al  Al3  1  0.993046  0.354263  0.340355  1
  Al  Al4  1  0.993046  0.659645  0.645737  1
  Al  Al5  1  0.274047  0.225953  0.774047  1
  Al  Al6  1  0.507322  0.784417  0.799063  1
  Al  Al7  1  0.507322  0.200937  0.215583  1
  Cu  Cu8  1  0.500110  0.000249  0.504039  1
  Cu  Cu9  1  0.003680  0.000249  0.504039  1
  Cu  Cu10  1  0.500110  0.495961  0.999751  1
  Cu  Cu11  1  0.003680  0.495961  0.999751  1
  Cu  Cu12  1  0.723990  0.776010  0.223990  1
