# generated using pymatgen
data_RbBaBi2(SbAu2)2
_symmetry_space_group_name_H-M   'P 1'
_cell_length_a   4.89609900
_cell_length_b   5.06188717
_cell_length_c   11.58501000
_cell_angle_alpha   88.18402926
_cell_angle_beta   90.00000000
_cell_angle_gamma   90.00000000
_symmetry_Int_Tables_number   1
_chemical_formula_structural   RbBaBi2(SbAu2)2
_chemical_formula_sum   'Rb1 Ba1 Bi2 Sb2 Au4'
_cell_volume   286.97290358
_cell_formula_units_Z   1
loop_
 _symmetry_equiv_pos_site_id
 _symmetry_equiv_pos_as_xyz
  1  'x, y, z'
loop_
 _atom_site_type_symbol
 _atom_site_label
 _atom_site_symmetry_multiplicity
 _atom_site_fract_x
 _atom_site_fract_y
 _atom_site_fract_z
 _atom_site_occupancy
  Rb  Rb0  1  0.250000  0.738256  0.761718  1
  Ba  Ba1  1  0.750000  0.261676  0.234506  1
  Bi  Bi2  1  0.750000  0.752950  0.500520  1
  Bi  Bi3  1  0.250000  0.247028  0.497684  1
  Sb  Sb4  1  0.250000  0.805811  0.116598  1
  Sb  Sb5  1  0.750000  0.195774  0.884452  1
  Au  Au6  1  0.750000  0.690405  0.000639  1
  Au  Au7  1  0.750000  0.248513  0.649013  1
  Au  Au8  1  0.250000  0.750296  0.352315  1
  Au  Au9  1  0.250000  0.309290  0.002556  1
