# generated using pymatgen
data_Ho20Cd6ReRh
_symmetry_space_group_name_H-M   'P 1'
_cell_length_a   9.50873700
_cell_length_b   9.50873606
_cell_length_c   9.88231300
_cell_angle_alpha   90.00000000
_cell_angle_beta   90.00000000
_cell_angle_gamma   119.99999980
_symmetry_Int_Tables_number   1
_chemical_formula_structural   Ho20Cd6ReRh
_chemical_formula_sum   'Ho20 Cd6 Re1 Rh1'
_cell_volume   773.81094035
_cell_formula_units_Z   1
loop_
 _symmetry_equiv_pos_site_id
 _symmetry_equiv_pos_as_xyz
  1  'x, y, z'
loop_
 _atom_site_type_symbol
 _atom_site_label
 _atom_site_symmetry_multiplicity
 _atom_site_fract_x
 _atom_site_fract_y
 _atom_site_fract_z
 _atom_site_occupancy
  Ho  Ho0  1  0.000000  0.000000  0.500293  1
  Ho  Ho1  1  0.000000  0.000000  0.999707  1
  Ho  Ho2  1  0.209606  0.790394  0.442542  1
  Ho  Ho3  1  0.209606  0.419213  0.442542  1
  Ho  Ho4  1  0.580787  0.790394  0.442542  1
  Ho  Ho5  1  0.790089  0.209911  0.558261  1
  Ho  Ho6  1  0.790089  0.580176  0.558261  1
  Ho  Ho7  1  0.419824  0.209911  0.558261  1
  Ho  Ho8  1  0.790089  0.209911  0.941739  1
  Ho  Ho9  1  0.790089  0.580176  0.941739  1
  Ho  Ho10  1  0.419824  0.209911  0.941739  1
  Ho  Ho11  1  0.209606  0.790394  0.057458  1
  Ho  Ho12  1  0.209606  0.419213  0.057458  1
  Ho  Ho13  1  0.580787  0.790394  0.057458  1
  Ho  Ho14  1  0.538633  0.461367  0.250000  1
  Ho  Ho15  1  0.538633  0.077263  0.250000  1
  Ho  Ho16  1  0.922737  0.461367  0.250000  1
  Ho  Ho17  1  0.458498  0.541502  0.750000  1
  Ho  Ho18  1  0.458498  0.916998  0.750000  1
  Ho  Ho19  1  0.083002  0.541502  0.750000  1
  Cd  Cd20  1  0.885878  0.114122  0.250000  1
  Cd  Cd21  1  0.885878  0.771758  0.250000  1
  Cd  Cd22  1  0.228242  0.114122  0.250000  1
  Cd  Cd23  1  0.113768  0.886232  0.750000  1
  Cd  Cd24  1  0.113768  0.227533  0.750000  1
  Cd  Cd25  1  0.772467  0.886232  0.750000  1
  Re  Re26  1  0.333333  0.666667  0.250000  1
  Rh  Rh27  1  0.666667  0.333333  0.750000  1
