# generated using pymatgen
data_Cd3BiIrRu3O14
_symmetry_space_group_name_H-M   'P 1'
_cell_length_a   7.31231521
_cell_length_b   7.26672010
_cell_length_c   7.24215848
_cell_angle_alpha   59.88775155
_cell_angle_beta   60.04176424
_cell_angle_gamma   60.20605972
_symmetry_Int_Tables_number   1
_chemical_formula_structural   Cd3BiIrRu3O14
_chemical_formula_sum   'Cd3 Bi1 Ir1 Ru3 O14'
_cell_volume   272.38569517
_cell_formula_units_Z   1
loop_
 _symmetry_equiv_pos_site_id
 _symmetry_equiv_pos_as_xyz
  1  'x, y, z'
loop_
 _atom_site_type_symbol
 _atom_site_label
 _atom_site_symmetry_multiplicity
 _atom_site_fract_x
 _atom_site_fract_y
 _atom_site_fract_z
 _atom_site_occupancy
  Cd  Cd0  1  0.125000  0.125000  0.625000  1
  Cd  Cd1  1  0.125000  0.625000  0.125000  1
  Cd  Cd2  1  0.125000  0.125000  0.125000  1
  Bi  Bi3  1  0.625000  0.125000  0.125000  1
  Ir  Ir4  1  0.625000  0.625000  0.125000  1
  Ru  Ru5  1  0.625000  0.125000  0.625000  1
  Ru  Ru6  1  0.125000  0.625000  0.625000  1
  Ru  Ru7  1  0.625000  0.625000  0.625000  1
  O  O8  1  0.239177  0.253514  0.253794  1
  O  O9  1  0.010823  0.996486  0.996206  1
  O  O10  1  0.550267  0.955473  0.538789  1
  O  O11  1  0.307512  0.694401  0.303686  1
  O  O12  1  0.547895  0.540584  0.956647  1
  O  O13  1  0.936645  0.560732  0.560339  1
  O  O14  1  0.547895  0.954875  0.956647  1
  O  O15  1  0.936645  0.942284  0.560339  1
  O  O16  1  0.942488  0.555599  0.946314  1
  O  O17  1  0.702105  0.295125  0.293353  1
  O  O18  1  0.313355  0.689268  0.689661  1
  O  O19  1  0.699733  0.294527  0.711211  1
  O  O20  1  0.313355  0.307716  0.689661  1
  O  O21  1  0.702105  0.709416  0.293353  1
