# generated using pymatgen
data_Lu10In7Ir4Pb
_symmetry_space_group_name_H-M   'P 1'
_cell_length_a   3.51738000
_cell_length_b   8.06886408
_cell_length_c   18.07748964
_cell_angle_alpha   90.08221364
_cell_angle_beta   90.00000000
_cell_angle_gamma   90.00000000
_symmetry_Int_Tables_number   1
_chemical_formula_structural   Lu10In7Ir4Pb
_chemical_formula_sum   'Lu10 In7 Ir4 Pb1'
_cell_volume   513.06142615
_cell_formula_units_Z   1
loop_
 _symmetry_equiv_pos_site_id
 _symmetry_equiv_pos_as_xyz
  1  'x, y, z'
loop_
 _atom_site_type_symbol
 _atom_site_label
 _atom_site_symmetry_multiplicity
 _atom_site_fract_x
 _atom_site_fract_y
 _atom_site_fract_z
 _atom_site_occupancy
  Lu  Lu0  1  0.000000  0.880231  0.088009  1
  Lu  Lu1  1  0.000000  0.758373  0.280595  1
  Lu  Lu2  1  0.000000  0.741628  0.775910  1
  Lu  Lu3  1  0.000000  0.383105  0.413419  1
  Lu  Lu4  1  0.000000  0.116828  0.909337  1
  Lu  Lu5  1  0.000000  0.242324  0.721599  1
  Lu  Lu6  1  0.000000  0.506128  0.999085  1
  Lu  Lu7  1  0.000000  0.257519  0.224459  1
  Lu  Lu8  1  0.000000  0.615462  0.587469  1
  Lu  Lu9  1  0.000000  0.999410  0.499332  1
  In  In10  1  0.500000  0.429746  0.851083  1
  In  In11  1  0.500000  0.581760  0.151801  1
  In  In12  1  0.500000  0.073770  0.352172  1
  In  In13  1  0.500000  0.927333  0.646977  1
  In  In14  1  0.500000  0.793921  0.931361  1
  In  In15  1  0.500000  0.704537  0.434533  1
  In  In16  1  0.500000  0.292875  0.566649  1
  Ir  Ir17  1  0.500000  0.973383  0.197585  1
  Ir  Ir18  1  0.500000  0.017679  0.802779  1
  Ir  Ir19  1  0.500000  0.517519  0.696096  1
  Ir  Ir20  1  0.500000  0.478763  0.304661  1
  Pb  Pb21  1  0.500000  0.207705  0.065089  1
