# generated using pymatgen
data_Ta12Al5Cr4Ga3C4
_symmetry_space_group_name_H-M   'P 1'
_cell_length_a   8.27825388
_cell_length_b   8.27825431
_cell_length_c   8.27150774
_cell_angle_alpha   59.98742874
_cell_angle_beta   59.98742839
_cell_angle_gamma   60.02916774
_symmetry_Int_Tables_number   1
_chemical_formula_structural   Ta12Al5Cr4Ga3C4
_chemical_formula_sum   'Ta12 Al5 Cr4 Ga3 C4'
_cell_volume   400.83002372
_cell_formula_units_Z   1
loop_
 _symmetry_equiv_pos_site_id
 _symmetry_equiv_pos_as_xyz
  1  'x, y, z'
loop_
 _atom_site_type_symbol
 _atom_site_label
 _atom_site_symmetry_multiplicity
 _atom_site_fract_x
 _atom_site_fract_y
 _atom_site_fract_z
 _atom_site_occupancy
  Ta  Ta0  1  0.555314  0.944909  0.555389  1
  Ta  Ta1  1  0.305808  0.693969  0.694935  1
  Ta  Ta2  1  0.694680  0.304980  0.304788  1
  Ta  Ta3  1  0.304980  0.694680  0.304788  1
  Ta  Ta4  1  0.694707  0.694707  0.305475  1
  Ta  Ta5  1  0.305134  0.305134  0.694841  1
  Ta  Ta6  1  0.554600  0.554600  0.945525  1
  Ta  Ta7  1  0.944909  0.555314  0.555389  1
  Ta  Ta8  1  0.554725  0.945014  0.944685  1
  Ta  Ta9  1  0.944300  0.944300  0.555250  1
  Ta  Ta10  1  0.693969  0.305808  0.694935  1
  Ta  Ta11  1  0.945014  0.554725  0.944685  1
  Al  Al12  1  0.334989  0.334989  0.996030  1
  Al  Al13  1  0.915743  0.253621  0.915861  1
  Al  Al14  1  0.915834  0.915834  0.253481  1
  Al  Al15  1  0.253621  0.915743  0.915861  1
  Al  Al16  1  0.335068  0.335068  0.334000  1
  Cr  Cr17  1  0.125296  0.125296  0.124587  1
  Cr  Cr18  1  0.624745  0.126043  0.125059  1
  Cr  Cr19  1  0.126043  0.624745  0.125059  1
  Cr  Cr20  1  0.125629  0.125629  0.624524  1
  Ga  Ga21  1  0.914547  0.914547  0.914634  1
  Ga  Ga22  1  0.992372  0.337088  0.335253  1
  Ga  Ga23  1  0.337088  0.992372  0.335253  1
  C  C24  1  0.625054  0.625054  0.624411  1
  C  C25  1  0.124597  0.625803  0.625124  1
  C  C26  1  0.625803  0.124597  0.625124  1
  C  C27  1  0.625432  0.625432  0.125055  1
