# generated using pymatgen
data_Tm3Lu(InGa2)2
_symmetry_space_group_name_H-M   'P 1'
_cell_length_a   7.13965353
_cell_length_b   7.13965353
_cell_length_c   4.37549000
_cell_angle_alpha   90.00000000
_cell_angle_beta   90.00000000
_cell_angle_gamma   89.92507852
_symmetry_Int_Tables_number   1
_chemical_formula_structural   Tm3Lu(InGa2)2
_chemical_formula_sum   'Tm3 Lu1 In2 Ga4'
_cell_volume   223.03889146
_cell_formula_units_Z   1
loop_
 _symmetry_equiv_pos_site_id
 _symmetry_equiv_pos_as_xyz
  1  'x, y, z'
loop_
 _atom_site_type_symbol
 _atom_site_label
 _atom_site_symmetry_multiplicity
 _atom_site_fract_x
 _atom_site_fract_y
 _atom_site_fract_z
 _atom_site_occupancy
  Tm  Tm0  1  0.671519  0.171428  0.500000  1
  Tm  Tm1  1  0.328572  0.828481  0.500000  1
  Tm  Tm2  1  0.171318  0.328682  0.500000  1
  Lu  Lu3  1  0.828569  0.671431  0.500000  1
  In  In4  1  0.500049  0.500046  0.000000  1
  In  In5  1  0.999954  0.999951  0.000000  1
  Ga  Ga6  1  0.126940  0.627117  0.000000  1
  Ga  Ga7  1  0.872883  0.373060  0.000000  1
  Ga  Ga8  1  0.627281  0.872719  0.000000  1
  Ga  Ga9  1  0.372915  0.127085  0.000000  1
