# generated using pymatgen
data_Ba3TiMn2O9
_symmetry_space_group_name_H-M   'P 1'
_cell_length_a   7.89942472
_cell_length_b   7.89942499
_cell_length_c   7.89942406
_cell_angle_alpha   43.00321236
_cell_angle_beta   43.00320968
_cell_angle_gamma   43.00321013
_symmetry_Int_Tables_number   1
_chemical_formula_structural   Ba3TiMn2O9
_chemical_formula_sum   'Ba3 Ti1 Mn2 O9'
_cell_volume   207.83978378
_cell_formula_units_Z   1
loop_
 _symmetry_equiv_pos_site_id
 _symmetry_equiv_pos_as_xyz
  1  'x, y, z'
loop_
 _atom_site_type_symbol
 _atom_site_label
 _atom_site_symmetry_multiplicity
 _atom_site_fract_x
 _atom_site_fract_y
 _atom_site_fract_z
 _atom_site_occupancy
  Ba  Ba0  1  0.787805  0.787805  0.787805  1
  Ba  Ba1  1  0.217901  0.217901  0.217901  1
  Ba  Ba2  1  0.002094  0.002094  0.002094  1
  Ti  Ti3  1  0.622706  0.622706  0.622706  1
  Mn  Mn4  1  0.382108  0.382108  0.382108  1
  Mn  Mn5  1  0.500876  0.500876  0.500876  1
  O  O6  1  0.001753  0.497928  0.497928  1
  O  O7  1  0.497928  0.001753  0.497928  1
  O  O8  1  0.497928  0.497928  0.001753  1
  O  O9  1  0.293511  0.293511  0.733990  1
  O  O10  1  0.733990  0.293511  0.293511  1
  O  O11  1  0.293511  0.733990  0.293511  1
  O  O12  1  0.258883  0.704504  0.704504  1
  O  O13  1  0.704504  0.704504  0.258883  1
  O  O14  1  0.704504  0.258883  0.704504  1
