# generated using pymatgen
data_Nd3Mg(Co4P3)2
_symmetry_space_group_name_H-M   'P 1'
_cell_length_a   3.79718300
_cell_length_b   10.77050700
_cell_length_c   12.51561300
_cell_angle_alpha   90.00000000
_cell_angle_beta   90.00000000
_cell_angle_gamma   90.00000000
_symmetry_Int_Tables_number   1
_chemical_formula_structural   Nd3Mg(Co4P3)2
_chemical_formula_sum   'Nd6 Mg2 Co16 P12'
_cell_volume   511.85836003
_cell_formula_units_Z   2
loop_
 _symmetry_equiv_pos_site_id
 _symmetry_equiv_pos_as_xyz
  1  'x, y, z'
loop_
 _atom_site_type_symbol
 _atom_site_label
 _atom_site_symmetry_multiplicity
 _atom_site_fract_x
 _atom_site_fract_y
 _atom_site_fract_z
 _atom_site_occupancy
  Nd  Nd0  1  0.000000  0.500000  0.524947  1
  Nd  Nd1  1  0.500000  0.000000  0.475053  1
  Nd  Nd2  1  0.500000  0.820743  0.206656  1
  Nd  Nd3  1  0.500000  0.179257  0.206656  1
  Nd  Nd4  1  0.000000  0.679257  0.793344  1
  Nd  Nd5  1  0.000000  0.320743  0.793344  1
  Mg  Mg6  1  0.500000  0.500000  0.153493  1
  Mg  Mg7  1  0.000000  0.000000  0.846507  1
  Co  Co8  1  0.500000  0.500000  0.705906  1
  Co  Co9  1  0.000000  0.000000  0.294094  1
  Co  Co10  1  0.000000  0.500000  0.988622  1
  Co  Co11  1  0.500000  0.000000  0.011378  1
  Co  Co12  1  0.500000  0.332782  0.996886  1
  Co  Co13  1  0.500000  0.667218  0.996886  1
  Co  Co14  1  0.000000  0.167218  0.003114  1
  Co  Co15  1  0.000000  0.832782  0.003114  1
  Co  Co16  1  0.500000  0.297022  0.431534  1
  Co  Co17  1  0.500000  0.702978  0.431534  1
  Co  Co18  1  0.000000  0.202978  0.568466  1
  Co  Co19  1  0.000000  0.797022  0.568466  1
  Co  Co20  1  0.500000  0.880016  0.705458  1
  Co  Co21  1  0.500000  0.119984  0.705458  1
  Co  Co22  1  0.000000  0.619984  0.294542  1
  Co  Co23  1  0.000000  0.380016  0.294542  1
  P  P24  1  0.500000  0.500000  0.887551  1
  P  P25  1  0.000000  0.000000  0.112449  1
  P  P26  1  0.500000  0.500000  0.350502  1
  P  P27  1  0.000000  0.000000  0.649498  1
  P  P28  1  0.500000  0.304400  0.613204  1
  P  P29  1  0.500000  0.695600  0.613204  1
  P  P30  1  0.000000  0.195600  0.386796  1
  P  P31  1  0.000000  0.804400  0.386796  1
  P  P32  1  0.500000  0.840773  0.896843  1
  P  P33  1  0.500000  0.159227  0.896843  1
  P  P34  1  0.000000  0.659227  0.103157  1
  P  P35  1  0.000000  0.340773  0.103157  1
