# generated using pymatgen
data_Tm12Re5Si16Os3
_symmetry_space_group_name_H-M   'P 1'
_cell_length_a   10.44993237
_cell_length_b   10.44850236
_cell_length_c   14.10191195
_cell_angle_alpha   55.39720805
_cell_angle_beta   55.37331500
_cell_angle_gamma   30.90940872
_symmetry_Int_Tables_number   1
_chemical_formula_structural   Tm12Re5Si16Os3
_chemical_formula_sum   'Tm12 Re5 Si16 Os3'
_cell_volume   638.96818671
_cell_formula_units_Z   1
loop_
 _symmetry_equiv_pos_site_id
 _symmetry_equiv_pos_as_xyz
  1  'x, y, z'
loop_
 _atom_site_type_symbol
 _atom_site_label
 _atom_site_symmetry_multiplicity
 _atom_site_fract_x
 _atom_site_fract_y
 _atom_site_fract_z
 _atom_site_occupancy
  Tm  Tm0  1  0.749159  0.486429  0.050440  1
  Tm  Tm1  1  0.534133  0.309721  0.154403  1
  Tm  Tm2  1  0.513875  0.249061  0.449742  1
  Tm  Tm3  1  0.465117  0.691607  0.845214  1
  Tm  Tm4  1  0.292174  0.040363  0.137185  1
  Tm  Tm5  1  0.959308  0.707302  0.362467  1
  Tm  Tm6  1  0.708341  0.958966  0.862262  1
  Tm  Tm7  1  0.040646  0.291996  0.637720  1
  Tm  Tm8  1  0.247981  0.514337  0.950689  1
  Tm  Tm9  1  0.485754  0.751082  0.550208  1
  Tm  Tm10  1  0.309168  0.534327  0.654476  1
  Tm  Tm11  1  0.692464  0.464788  0.345360  1
  Re  Re12  1  0.170684  0.359328  0.216453  1
  Re  Re13  1  0.135788  0.915903  0.074956  1
  Re  Re14  1  0.086072  0.863682  0.424667  1
  Re  Re15  1  0.865643  0.085400  0.924132  1
  Re  Re16  1  0.913163  0.135523  0.576536  1
  Si  Si17  1  0.904720  0.095024  0.250287  1
  Si  Si18  1  0.095698  0.904645  0.750044  1
  Si  Si19  1  0.343037  0.656725  0.250147  1
  Si  Si20  1  0.655842  0.343678  0.750536  1
  Si  Si21  1  0.003380  0.230056  0.875177  1
  Si  Si22  1  0.770510  0.996392  0.624584  1
  Si  Si23  1  0.999671  0.769891  0.123261  1
  Si  Si24  1  0.227860  0.004671  0.375335  1
  Si  Si25  1  0.603340  0.048500  0.077638  1
  Si  Si26  1  0.951873  0.395688  0.424100  1
  Si  Si27  1  0.397844  0.951841  0.922418  1
  Si  Si28  1  0.048219  0.602875  0.576836  1
  Si  Si29  1  0.385893  0.158461  0.379951  1
  Si  Si30  1  0.841619  0.614768  0.118492  1
  Si  Si31  1  0.613582  0.842274  0.619801  1
  Si  Si32  1  0.156186  0.387941  0.880291  1
  Os  Os33  1  0.638692  0.829265  0.284692  1
  Os  Os34  1  0.830910  0.638278  0.783504  1
  Os  Os35  1  0.361654  0.169211  0.715997  1
