# generated using pymatgen
data_Sr2TlV3O11
_symmetry_space_group_name_H-M   'P 1'
_cell_length_a   7.04046253
_cell_length_b   7.08112923
_cell_length_c   10.17382000
_cell_angle_alpha   100.63914240
_cell_angle_beta   94.57337223
_cell_angle_gamma   95.10623480
_symmetry_Int_Tables_number   1
_chemical_formula_structural   Sr2TlV3O11
_chemical_formula_sum   'Sr4 Tl2 V6 O22'
_cell_volume   494.11067945
_cell_formula_units_Z   2
loop_
 _symmetry_equiv_pos_site_id
 _symmetry_equiv_pos_as_xyz
  1  'x, y, z'
loop_
 _atom_site_type_symbol
 _atom_site_label
 _atom_site_symmetry_multiplicity
 _atom_site_fract_x
 _atom_site_fract_y
 _atom_site_fract_z
 _atom_site_occupancy
  Sr  Sr0  1  0.652369  0.249137  0.974497  1
  Sr  Sr1  1  0.347631  0.750863  0.025503  1
  Sr  Sr2  1  0.328376  0.400548  0.634514  1
  Sr  Sr3  1  0.671624  0.599452  0.365486  1
  Tl  Tl4  1  0.869708  0.040113  0.642213  1
  Tl  Tl5  1  0.130292  0.959887  0.357787  1
  V  V6  1  0.625602  0.120368  0.349215  1
  V  V7  1  0.374398  0.879632  0.650785  1
  V  V8  1  0.162573  0.233930  0.965919  1
  V  V9  1  0.837427  0.766070  0.034081  1
  V  V10  1  0.142508  0.445255  0.267323  1
  V  V11  1  0.857492  0.554745  0.732677  1
  O  O12  1  0.970163  0.361046  0.655267  1
  O  O13  1  0.029837  0.638954  0.344733  1
  O  O14  1  0.023939  0.345486  0.099447  1
  O  O15  1  0.976061  0.654514  0.900553  1
  O  O16  1  0.425893  0.704414  0.524958  1
  O  O17  1  0.574107  0.295586  0.475042  1
  O  O18  1  0.703675  0.244086  0.232880  1
  O  O19  1  0.296325  0.755914  0.767120  1
  O  O20  1  0.974475  0.104323  0.856281  1
  O  O21  1  0.025525  0.895677  0.143719  1
  O  O22  1  0.674213  0.905626  0.982991  1
  O  O23  1  0.325787  0.094374  0.017009  1
  O  O24  1  0.573447  0.050022  0.715794  1
  O  O25  1  0.426553  0.949978  0.284206  1
  O  O26  1  0.191849  0.019697  0.584139  1
  O  O27  1  0.808151  0.980303  0.415861  1
  O  O28  1  0.298312  0.395906  0.896898  1
  O  O29  1  0.701688  0.604094  0.103102  1
  O  O30  1  0.643402  0.470746  0.774025  1
  O  O31  1  0.356598  0.529254  0.225975  1
  O  O32  1  0.836301  0.714482  0.622869  1
  O  O33  1  0.163699  0.285518  0.377131  1
