# generated using pymatgen
data_Dy7ErReRu3C8
_symmetry_space_group_name_H-M   'P 1'
_cell_length_a   5.10826900
_cell_length_b   6.49701806
_cell_length_c   9.79077549
_cell_angle_alpha   90.01026649
_cell_angle_beta   90.00000000
_cell_angle_gamma   90.00000000
_symmetry_Int_Tables_number   1
_chemical_formula_structural   Dy7ErReRu3C8
_chemical_formula_sum   'Dy7 Er1 Re1 Ru3 C8'
_cell_volume   324.94130315
_cell_formula_units_Z   1
loop_
 _symmetry_equiv_pos_site_id
 _symmetry_equiv_pos_as_xyz
  1  'x, y, z'
loop_
 _atom_site_type_symbol
 _atom_site_label
 _atom_site_symmetry_multiplicity
 _atom_site_fract_x
 _atom_site_fract_y
 _atom_site_fract_z
 _atom_site_occupancy
  Dy  Dy0  1  0.250000  0.323670  0.555163  1
  Dy  Dy1  1  0.750000  0.176017  0.054575  1
  Dy  Dy2  1  0.750000  0.681947  0.443773  1
  Dy  Dy3  1  0.250000  0.471451  0.214426  1
  Dy  Dy4  1  0.250000  0.969949  0.282147  1
  Dy  Dy5  1  0.750000  0.528142  0.787843  1
  Dy  Dy6  1  0.750000  0.026910  0.714139  1
  Er  Er7  1  0.250000  0.826124  0.943928  1
  Re  Re8  1  0.750000  0.221470  0.366088  1
  Ru  Ru9  1  0.250000  0.280466  0.864370  1
  Ru  Ru10  1  0.250000  0.779761  0.636057  1
  Ru  Ru11  1  0.750000  0.721585  0.132503  1
  C  C12  1  0.250000  0.044976  0.742888  1
  C  C13  1  0.250000  0.545648  0.758559  1
  C  C14  1  0.750000  0.955809  0.260141  1
  C  C15  1  0.750000  0.454983  0.242901  1
  C  C16  1  0.250000  0.674800  0.448468  1
  C  C17  1  0.250000  0.171179  0.051875  1
  C  C18  1  0.750000  0.321364  0.553106  1
  C  C19  1  0.750000  0.823749  0.947051  1
