# generated using pymatgen
data_SrPrDy5IrBr12
_symmetry_space_group_name_H-M   'P 1'
_cell_length_a   9.37113298
_cell_length_b   9.32457332
_cell_length_c   9.38412461
_cell_angle_alpha   105.90572297
_cell_angle_beta   105.93163767
_cell_angle_gamma   106.68183267
_symmetry_Int_Tables_number   1
_chemical_formula_structural   SrPrDy5IrBr12
_chemical_formula_sum   'Sr1 Pr1 Dy5 Ir1 Br12'
_cell_volume   697.70508672
_cell_formula_units_Z   1
loop_
 _symmetry_equiv_pos_site_id
 _symmetry_equiv_pos_as_xyz
  1  'x, y, z'
loop_
 _atom_site_type_symbol
 _atom_site_label
 _atom_site_symmetry_multiplicity
 _atom_site_fract_x
 _atom_site_fract_y
 _atom_site_fract_z
 _atom_site_occupancy
  Sr  Sr0  1  0.499780  0.500819  0.498929  1
  Pr  Pr1  1  0.898171  0.689698  0.982321  1
  Dy  Dy2  1  0.099633  0.299618  0.018958  1
  Dy  Dy3  1  0.310939  0.020249  0.101969  1
  Dy  Dy4  1  0.020225  0.104235  0.310472  1
  Dy  Dy5  1  0.981096  0.900624  0.691568  1
  Dy  Dy6  1  0.689442  0.979081  0.897900  1
  Ir  Ir7  1  0.000354  0.999808  0.001388  1
  Br  Br8  1  0.227946  0.679721  0.076137  1
  Br  Br9  1  0.444900  0.363442  0.142144  1
  Br  Br10  1  0.677027  0.072982  0.214778  1
  Br  Br11  1  0.929581  0.791929  0.334341  1
  Br  Br12  1  0.142460  0.445467  0.361584  1
  Br  Br13  1  0.362625  0.142069  0.444626  1
  Br  Br14  1  0.637634  0.859861  0.556013  1
  Br  Br15  1  0.855801  0.554295  0.626256  1
  Br  Br16  1  0.073809  0.217543  0.679020  1
  Br  Br17  1  0.322909  0.928384  0.785538  1
  Br  Br18  1  0.542654  0.636764  0.850724  1
  Br  Br19  1  0.783015  0.313413  0.925339  1
