# generated using pymatgen
data_Dy6Y2SnHg3Au8
_symmetry_space_group_name_H-M   'P 1'
_cell_length_a   8.03005158
_cell_length_b   8.03076257
_cell_length_c   7.36394600
_cell_angle_alpha   90.00000000
_cell_angle_beta   90.00000000
_cell_angle_gamma   90.21069948
_symmetry_Int_Tables_number   1
_chemical_formula_structural   Dy6Y2SnHg3Au8
_chemical_formula_sum   'Dy6 Y2 Sn1 Hg3 Au8'
_cell_volume   474.87879762
_cell_formula_units_Z   1
loop_
 _symmetry_equiv_pos_site_id
 _symmetry_equiv_pos_as_xyz
  1  'x, y, z'
loop_
 _atom_site_type_symbol
 _atom_site_label
 _atom_site_symmetry_multiplicity
 _atom_site_fract_x
 _atom_site_fract_y
 _atom_site_fract_z
 _atom_site_occupancy
  Dy  Dy0  1  0.339098  0.340518  0.000099  1
  Dy  Dy1  1  0.660902  0.659482  0.000099  1
  Dy  Dy2  1  0.684656  0.684452  0.499853  1
  Dy  Dy3  1  0.315344  0.315548  0.499853  1
  Dy  Dy4  1  0.184446  0.815264  0.000160  1
  Dy  Dy5  1  0.815554  0.184736  0.000160  1
  Y  Y6  1  0.840451  0.161358  0.499902  1
  Y  Y7  1  0.159549  0.838642  0.499902  1
  Sn  Sn8  1  0.000000  0.500000  0.249899  1
  Hg  Hg9  1  0.500000  0.000000  0.249875  1
  Hg  Hg10  1  0.000000  0.500000  0.750031  1
  Hg  Hg11  1  0.500000  0.000000  0.750163  1
  Au  Au12  1  0.625290  0.372411  0.274659  1
  Au  Au13  1  0.374710  0.627589  0.274659  1
  Au  Au14  1  0.128086  0.126292  0.775104  1
  Au  Au15  1  0.871914  0.873708  0.775104  1
  Au  Au16  1  0.374449  0.627480  0.726290  1
  Au  Au17  1  0.625551  0.372520  0.726290  1
  Au  Au18  1  0.871869  0.874072  0.223950  1
  Au  Au19  1  0.128131  0.125928  0.223950  1
