# generated using pymatgen
data_La7Dy(Si3Pt)4
_symmetry_space_group_name_H-M   'P 1'
_cell_length_a   8.28233300
_cell_length_b   8.28233294
_cell_length_c   8.73780700
_cell_angle_alpha   90.00000000
_cell_angle_beta   90.00000000
_cell_angle_gamma   119.99999625
_symmetry_Int_Tables_number   1
_chemical_formula_structural   La7Dy(Si3Pt)4
_chemical_formula_sum   'La7 Dy1 Si12 Pt4'
_cell_volume   519.08498700
_cell_formula_units_Z   1
loop_
 _symmetry_equiv_pos_site_id
 _symmetry_equiv_pos_as_xyz
  1  'x, y, z'
loop_
 _atom_site_type_symbol
 _atom_site_label
 _atom_site_symmetry_multiplicity
 _atom_site_fract_x
 _atom_site_fract_y
 _atom_site_fract_z
 _atom_site_occupancy
  La  La0  1  0.000000  0.000000  0.750000  1
  La  La1  1  0.500455  0.499545  0.250000  1
  La  La2  1  0.500455  0.000912  0.250000  1
  La  La3  1  0.999088  0.499545  0.250000  1
  La  La4  1  0.499556  0.500444  0.750000  1
  La  La5  1  0.499556  0.999110  0.750000  1
  La  La6  1  0.000890  0.500444  0.750000  1
  Dy  Dy7  1  0.000000  0.000000  0.250000  1
  Si  Si8  1  0.164762  0.835238  0.497202  1
  Si  Si9  1  0.164762  0.329526  0.497202  1
  Si  Si10  1  0.670474  0.835238  0.497202  1
  Si  Si11  1  0.835270  0.164730  0.496728  1
  Si  Si12  1  0.835270  0.670538  0.496728  1
  Si  Si13  1  0.329462  0.164730  0.496728  1
  Si  Si14  1  0.835270  0.164730  0.003272  1
  Si  Si15  1  0.835270  0.670538  0.003272  1
  Si  Si16  1  0.329462  0.164730  0.003272  1
  Si  Si17  1  0.164762  0.835238  0.002798  1
  Si  Si18  1  0.164762  0.329526  0.002798  1
  Si  Si19  1  0.670474  0.835238  0.002798  1
  Pt  Pt20  1  0.333333  0.666667  0.496998  1
  Pt  Pt21  1  0.666667  0.333333  0.499754  1
  Pt  Pt22  1  0.666667  0.333333  0.000246  1
  Pt  Pt23  1  0.333333  0.666667  0.003002  1
