# generated using pymatgen
data_TbDyY4(Co3P2)6
_symmetry_space_group_name_H-M   'P 1'
_cell_length_a   3.70151200
_cell_length_b   10.52683207
_cell_length_c   12.17417802
_cell_angle_alpha   90.01004121
_cell_angle_beta   90.00000000
_cell_angle_gamma   90.00000000
_symmetry_Int_Tables_number   1
_chemical_formula_structural   TbDyY4(Co3P2)6
_chemical_formula_sum   'Tb1 Dy1 Y4 Co18 P12'
_cell_volume   474.36921620
_cell_formula_units_Z   1
loop_
 _symmetry_equiv_pos_site_id
 _symmetry_equiv_pos_as_xyz
  1  'x, y, z'
loop_
 _atom_site_type_symbol
 _atom_site_label
 _atom_site_symmetry_multiplicity
 _atom_site_fract_x
 _atom_site_fract_y
 _atom_site_fract_z
 _atom_site_occupancy
  Tb  Tb0  1  0.000000  0.500029  0.522142  1
  Dy  Dy1  1  0.500000  0.817467  0.205924  1
  Y  Y2  1  0.500000  0.999999  0.478150  1
  Y  Y3  1  0.500000  0.182521  0.205762  1
  Y  Y4  1  0.000000  0.682591  0.794137  1
  Y  Y5  1  0.000000  0.317290  0.794169  1
  Co  Co6  1  0.500000  0.500188  0.158384  1
  Co  Co7  1  0.000000  0.999983  0.841556  1
  Co  Co8  1  0.500000  0.499991  0.703358  1
  Co  Co9  1  0.000000  0.999639  0.296568  1
  Co  Co10  1  0.000000  0.500116  0.986361  1
  Co  Co11  1  0.500000  0.999948  0.013882  1
  Co  Co12  1  0.500000  0.333409  0.994809  1
  Co  Co13  1  0.500000  0.666727  0.994898  1
  Co  Co14  1  0.000000  0.166585  0.005310  1
  Co  Co15  1  0.000000  0.833366  0.005322  1
  Co  Co16  1  0.500000  0.297125  0.430503  1
  Co  Co17  1  0.500000  0.702849  0.430332  1
  Co  Co18  1  0.000000  0.202579  0.569548  1
  Co  Co19  1  0.000000  0.797349  0.569400  1
  Co  Co20  1  0.500000  0.879502  0.709823  1
  Co  Co21  1  0.500000  0.120489  0.709895  1
  Co  Co22  1  0.000000  0.620720  0.289916  1
  Co  Co23  1  0.000000  0.379564  0.290039  1
  P  P24  1  0.500000  0.500032  0.882904  1
  P  P25  1  0.000000  0.999783  0.117231  1
  P  P26  1  0.500000  0.500077  0.343083  1
  P  P27  1  0.000000  0.000002  0.656663  1
  P  P28  1  0.500000  0.310041  0.615907  1
  P  P29  1  0.500000  0.689911  0.615813  1
  P  P30  1  0.000000  0.189635  0.384095  1
  P  P31  1  0.000000  0.810152  0.383930  1
  P  P32  1  0.500000  0.847542  0.893378  1
  P  P33  1  0.500000  0.152436  0.893441  1
  P  P34  1  0.000000  0.652801  0.106723  1
  P  P35  1  0.000000  0.347559  0.106640  1
