# generated using pymatgen
data_Y3Er5(Si3Rh4)2
_symmetry_space_group_name_H-M   'P 1'
_cell_length_a   10.68684209
_cell_length_b   10.68734914
_cell_length_c   7.71003537
_cell_angle_alpha   71.25369723
_cell_angle_beta   71.24921738
_cell_angle_gamma   29.82682949
_symmetry_Int_Tables_number   1
_chemical_formula_structural   Y3Er5(Si3Rh4)2
_chemical_formula_sum   'Y3 Er5 Si6 Rh8'
_cell_volume   413.05144713
_cell_formula_units_Z   1
loop_
 _symmetry_equiv_pos_site_id
 _symmetry_equiv_pos_as_xyz
  1  'x, y, z'
loop_
 _atom_site_type_symbol
 _atom_site_label
 _atom_site_symmetry_multiplicity
 _atom_site_fract_x
 _atom_site_fract_y
 _atom_site_fract_z
 _atom_site_occupancy
  Y  Y0  1  0.209090  0.451039  0.398871  1
  Y  Y1  1  0.547689  0.791047  0.101790  1
  Y  Y2  1  0.451221  0.209395  0.898868  1
  Er  Er3  1  0.925300  0.210354  0.332832  1
  Er  Er4  1  0.790127  0.074639  0.167246  1
  Er  Er5  1  0.074928  0.789917  0.666728  1
  Er  Er6  1  0.210013  0.925492  0.832720  1
  Er  Er7  1  0.788335  0.550867  0.601587  1
  Si  Si8  1  0.632051  0.368105  0.749814  1
  Si  Si9  1  0.368811  0.631569  0.249701  1
  Si  Si10  1  0.295607  0.047926  0.446132  1
  Si  Si11  1  0.953244  0.703703  0.053935  1
  Si  Si12  1  0.703550  0.953612  0.554119  1
  Si  Si13  1  0.046386  0.297066  0.944645  1
  Rh  Rh14  1  0.296254  0.579798  0.019234  1
  Rh  Rh15  1  0.580524  0.295874  0.519474  1
  Rh  Rh16  1  0.704535  0.419870  0.979217  1
  Rh  Rh17  1  0.067689  0.372524  0.193269  1
  Rh  Rh18  1  0.630918  0.926979  0.308958  1
  Rh  Rh19  1  0.421050  0.703824  0.481223  1
  Rh  Rh20  1  0.929657  0.629070  0.807039  1
  Rh  Rh21  1  0.373021  0.067330  0.692597  1
