# generated using pymatgen
data_Ac2Pa(ZnIr)3
_symmetry_space_group_name_H-M   'P 1'
_cell_length_a   7.45899600
_cell_length_b   7.58927997
_cell_length_c   4.02991700
_cell_angle_alpha   90.00000000
_cell_angle_beta   90.00000000
_cell_angle_gamma   119.43373180
_symmetry_Int_Tables_number   1
_chemical_formula_structural   Ac2Pa(ZnIr)3
_chemical_formula_sum   'Ac2 Pa1 Zn3 Ir3'
_cell_volume   198.68159265
_cell_formula_units_Z   1
loop_
 _symmetry_equiv_pos_site_id
 _symmetry_equiv_pos_as_xyz
  1  'x, y, z'
loop_
 _atom_site_type_symbol
 _atom_site_label
 _atom_site_symmetry_multiplicity
 _atom_site_fract_x
 _atom_site_fract_y
 _atom_site_fract_z
 _atom_site_occupancy
  Ac  Ac0  1  0.999052  0.588259  0.000000  1
  Ac  Ac1  1  0.410793  0.411741  0.000000  1
  Pa  Pa2  1  0.590621  0.000000  0.000000  1
  Zn  Zn3  1  0.231322  0.000000  0.500000  1
  Zn  Zn4  1  0.983720  0.219533  0.500000  1
  Zn  Zn5  1  0.764187  0.780467  0.500000  1
  Ir  Ir6  1  0.379284  0.721784  0.500000  1
  Ir  Ir7  1  0.657501  0.278216  0.500000  1
  Ir  Ir8  1  0.983519  0.000000  0.000000  1
