# generated using pymatgen
data_NdHo7(Si3Ni)4
_symmetry_space_group_name_H-M   'P 1'
_cell_length_a   7.93477900
_cell_length_b   7.93477809
_cell_length_c   8.05575000
_cell_angle_alpha   90.00000000
_cell_angle_beta   90.00000000
_cell_angle_gamma   119.99999130
_symmetry_Int_Tables_number   1
_chemical_formula_structural   NdHo7(Si3Ni)4
_chemical_formula_sum   'Nd1 Ho7 Si12 Ni4'
_cell_volume   439.24443746
_cell_formula_units_Z   1
loop_
 _symmetry_equiv_pos_site_id
 _symmetry_equiv_pos_as_xyz
  1  'x, y, z'
loop_
 _atom_site_type_symbol
 _atom_site_label
 _atom_site_symmetry_multiplicity
 _atom_site_fract_x
 _atom_site_fract_y
 _atom_site_fract_z
 _atom_site_occupancy
  Nd  Nd0  1  0.000000  0.000000  0.250000  1
  Ho  Ho1  1  0.499236  0.500764  0.750000  1
  Ho  Ho2  1  0.500753  0.499247  0.250000  1
  Ho  Ho3  1  0.001529  0.500764  0.750000  1
  Ho  Ho4  1  0.998493  0.499247  0.250000  1
  Ho  Ho5  1  0.499236  0.998471  0.750000  1
  Ho  Ho6  1  0.500753  0.001507  0.250000  1
  Ho  Ho7  1  0.000000  0.000000  0.750000  1
  Si  Si8  1  0.828560  0.171440  0.995692  1
  Si  Si9  1  0.171452  0.828548  0.997073  1
  Si  Si10  1  0.342882  0.171440  0.995692  1
  Si  Si11  1  0.171452  0.828548  0.502927  1
  Si  Si12  1  0.657096  0.828548  0.997073  1
  Si  Si13  1  0.828560  0.171440  0.504308  1
  Si  Si14  1  0.828560  0.657118  0.995692  1
  Si  Si15  1  0.657096  0.828548  0.502927  1
  Si  Si16  1  0.171452  0.342904  0.997073  1
  Si  Si17  1  0.342882  0.171440  0.504308  1
  Si  Si18  1  0.171452  0.342904  0.502927  1
  Si  Si19  1  0.828560  0.657118  0.504308  1
  Ni  Ni20  1  0.666667  0.333333  0.998933  1
  Ni  Ni21  1  0.333333  0.666667  0.001993  1
  Ni  Ni22  1  0.333333  0.666667  0.498007  1
  Ni  Ni23  1  0.666667  0.333333  0.501067  1
