# generated using pymatgen
data_Er3MnCo7NiP6
_symmetry_space_group_name_H-M   'P 1'
_cell_length_a   3.67737400
_cell_length_b   10.48253300
_cell_length_c   12.15187900
_cell_angle_alpha   90.00000000
_cell_angle_beta   90.00000000
_cell_angle_gamma   90.00000000
_symmetry_Int_Tables_number   1
_chemical_formula_structural   Er3MnCo7NiP6
_chemical_formula_sum   'Er6 Mn2 Co14 Ni2 P12'
_cell_volume   468.43299290
_cell_formula_units_Z   2
loop_
 _symmetry_equiv_pos_site_id
 _symmetry_equiv_pos_as_xyz
  1  'x, y, z'
loop_
 _atom_site_type_symbol
 _atom_site_label
 _atom_site_symmetry_multiplicity
 _atom_site_fract_x
 _atom_site_fract_y
 _atom_site_fract_z
 _atom_site_occupancy
  Er  Er0  1  0.750000  0.250000  0.478958  1
  Er  Er1  1  0.250000  0.750000  0.521042  1
  Er  Er2  1  0.250000  0.933354  0.795265  1
  Er  Er3  1  0.250000  0.566646  0.795265  1
  Er  Er4  1  0.750000  0.066646  0.204735  1
  Er  Er5  1  0.750000  0.433354  0.204735  1
  Mn  Mn6  1  0.250000  0.250000  0.841622  1
  Mn  Mn7  1  0.750000  0.750000  0.158378  1
  Co  Co8  1  0.750000  0.250000  0.014363  1
  Co  Co9  1  0.250000  0.750000  0.985637  1
  Co  Co10  1  0.250000  0.416874  0.006206  1
  Co  Co11  1  0.250000  0.083126  0.006206  1
  Co  Co12  1  0.750000  0.583126  0.993794  1
  Co  Co13  1  0.750000  0.916874  0.993794  1
  Co  Co14  1  0.250000  0.452179  0.568803  1
  Co  Co15  1  0.250000  0.047821  0.568803  1
  Co  Co16  1  0.750000  0.547821  0.431197  1
  Co  Co17  1  0.750000  0.952179  0.431197  1
  Co  Co18  1  0.250000  0.871372  0.290435  1
  Co  Co19  1  0.250000  0.628628  0.290435  1
  Co  Co20  1  0.750000  0.128628  0.709565  1
  Co  Co21  1  0.750000  0.371372  0.709565  1
  Ni  Ni22  1  0.250000  0.250000  0.297964  1
  Ni  Ni23  1  0.750000  0.750000  0.702036  1
  P  P24  1  0.250000  0.250000  0.117311  1
  P  P25  1  0.750000  0.750000  0.882689  1
  P  P26  1  0.250000  0.250000  0.654929  1
  P  P27  1  0.750000  0.750000  0.345071  1
  P  P28  1  0.250000  0.439208  0.384132  1
  P  P29  1  0.250000  0.060792  0.384132  1
  P  P30  1  0.750000  0.560792  0.615868  1
  P  P31  1  0.750000  0.939208  0.615868  1
  P  P32  1  0.250000  0.902717  0.107377  1
  P  P33  1  0.250000  0.597283  0.107377  1
  P  P34  1  0.750000  0.097283  0.892623  1
  P  P35  1  0.750000  0.402717  0.892623  1
