# generated using pymatgen
data_Tb4Er4Hf11Si16Mo
_symmetry_space_group_name_H-M   'P 1'
_cell_length_a   7.24808807
_cell_length_b   7.24448096
_cell_length_c   13.29330555
_cell_angle_alpha   89.92440731
_cell_angle_beta   90.02980496
_cell_angle_gamma   90.06260071
_symmetry_Int_Tables_number   1
_chemical_formula_structural   Tb4Er4Hf11Si16Mo
_chemical_formula_sum   'Tb4 Er4 Hf11 Si16 Mo1'
_cell_volume   698.01222494
_cell_formula_units_Z   1
loop_
 _symmetry_equiv_pos_site_id
 _symmetry_equiv_pos_as_xyz
  1  'x, y, z'
loop_
 _atom_site_type_symbol
 _atom_site_label
 _atom_site_symmetry_multiplicity
 _atom_site_fract_x
 _atom_site_fract_y
 _atom_site_fract_z
 _atom_site_occupancy
  Tb  Tb0  1  0.845552  0.502018  0.965910  1
  Tb  Tb1  1  0.494663  0.156901  0.534521  1
  Tb  Tb2  1  0.343396  0.997672  0.787601  1
  Tb  Tb3  1  0.656963  0.004820  0.282921  1
  Er  Er4  1  0.999371  0.344033  0.212213  1
  Er  Er5  1  0.003856  0.655828  0.716562  1
  Er  Er6  1  0.155610  0.495997  0.465329  1
  Er  Er7  1  0.500546  0.846202  0.034388  1
  Hf  Hf8  1  0.826024  0.824789  0.500032  1
  Hf  Hf9  1  0.323868  0.674450  0.248663  1
  Hf  Hf10  1  0.675146  0.324745  0.751186  1
  Hf  Hf11  1  0.147836  0.997032  0.373343  1
  Hf  Hf12  1  0.853815  0.004179  0.877920  1
  Hf  Hf13  1  0.503839  0.647938  0.624742  1
  Hf  Hf14  1  0.350007  0.493605  0.877277  1
  Hf  Hf15  1  0.493032  0.350420  0.122924  1
  Hf  Hf16  1  0.648189  0.503606  0.375028  1
  Hf  Hf17  1  0.997773  0.147850  0.626308  1
  Hf  Hf18  1  0.004370  0.853785  0.122466  1
  Si  Si19  1  0.359999  0.296567  0.316416  1
  Si  Si20  1  0.638032  0.704884  0.817610  1
  Si  Si21  1  0.203783  0.860140  0.567534  1
  Si  Si22  1  0.138896  0.795844  0.933178  1
  Si  Si23  1  0.796015  0.138251  0.067885  1
  Si  Si24  1  0.863334  0.206097  0.432630  1
  Si  Si25  1  0.293954  0.363258  0.683705  1
  Si  Si26  1  0.704995  0.637004  0.181318  1
  Si  Si27  1  0.294064  0.051537  0.182108  1
  Si  Si28  1  0.704785  0.951019  0.686197  1
  Si  Si29  1  0.449648  0.795172  0.434971  1
  Si  Si30  1  0.203780  0.547527  0.064385  1
  Si  Si31  1  0.547441  0.202896  0.936377  1
  Si  Si32  1  0.797931  0.451580  0.565105  1
  Si  Si33  1  0.051256  0.295108  0.817027  1
  Si  Si34  1  0.952650  0.702135  0.313893  1
  Mo  Mo35  1  0.175582  0.175111  0.000327  1
