# generated using pymatgen
data_YHoFeSi5Rh2
_symmetry_space_group_name_H-M   'P 1'
_cell_length_a   8.02936143
_cell_length_b   8.02946575
_cell_length_c   5.63122102
_cell_angle_alpha   70.96591733
_cell_angle_beta   70.97137470
_cell_angle_gamma   93.63056769
_symmetry_Int_Tables_number   1
_chemical_formula_structural   YHoFeSi5Rh2
_chemical_formula_sum   'Y2 Ho2 Fe2 Si10 Rh4'
_cell_volume   318.54893590
_cell_formula_units_Z   2
loop_
 _symmetry_equiv_pos_site_id
 _symmetry_equiv_pos_as_xyz
  1  'x, y, z'
loop_
 _atom_site_type_symbol
 _atom_site_label
 _atom_site_symmetry_multiplicity
 _atom_site_fract_x
 _atom_site_fract_y
 _atom_site_fract_z
 _atom_site_occupancy
  Y  Y0  1  0.403004  0.135993  0.733514  1
  Y  Y1  1  0.598910  0.870802  0.256222  1
  Ho  Ho2  1  0.863985  0.596874  0.766614  1
  Ho  Ho3  1  0.129147  0.401170  0.243739  1
  Fe  Fe4  1  0.544209  0.261659  0.128472  1
  Fe  Fe5  1  0.738786  0.455987  0.371119  1
  Si  Si6  1  0.762803  0.237486  0.749893  1
  Si  Si7  1  0.220843  0.778912  0.250111  1
  Si  Si8  1  0.522203  0.477961  0.750107  1
  Si  Si9  1  0.497907  0.502039  0.249854  1
  Si  Si10  1  0.209399  0.790395  0.750050  1
  Si  Si11  1  0.783902  0.216358  0.249930  1
  Si  Si12  1  0.278229  0.069618  0.326367  1
  Si  Si13  1  0.734444  0.941167  0.663046  1
  Si  Si14  1  0.930521  0.721499  0.173692  1
  Si  Si15  1  0.058698  0.265773  0.836891  1
  Rh  Rh16  1  0.458916  0.736934  0.876406  1
  Rh  Rh17  1  0.262566  0.540880  0.623984  1
  Rh  Rh18  1  0.999068  0.000985  0.250058  1
  Rh  Rh19  1  0.002459  0.997511  0.749932  1
