# generated using pymatgen
data_LaGd2RuO7
_symmetry_space_group_name_H-M   'P 1'
_cell_length_a   6.53920256
_cell_length_b   6.53920228
_cell_length_c   7.60161900
_cell_angle_alpha   90.00000000
_cell_angle_beta   90.00000000
_cell_angle_gamma   110.78543794
_symmetry_Int_Tables_number   1
_chemical_formula_structural   LaGd2RuO7
_chemical_formula_sum   'La2 Gd4 Ru2 O14'
_cell_volume   303.89825486
_cell_formula_units_Z   2
loop_
 _symmetry_equiv_pos_site_id
 _symmetry_equiv_pos_as_xyz
  1  'x, y, z'
loop_
 _atom_site_type_symbol
 _atom_site_label
 _atom_site_symmetry_multiplicity
 _atom_site_fract_x
 _atom_site_fract_y
 _atom_site_fract_z
 _atom_site_occupancy
  La  La0  1  0.000000  0.000000  0.500000  1
  La  La1  1  0.000000  0.000000  0.000000  1
  Gd  Gd2  1  0.478154  0.926025  0.750000  1
  Gd  Gd3  1  0.521846  0.073975  0.250000  1
  Gd  Gd4  1  0.926025  0.478154  0.750000  1
  Gd  Gd5  1  0.073975  0.521846  0.250000  1
  Ru  Ru6  1  0.500000  0.500000  0.500000  1
  Ru  Ru7  1  0.500000  0.500000  0.000000  1
  O  O8  1  0.586766  0.586766  0.750000  1
  O  O9  1  0.413234  0.413234  0.250000  1
  O  O10  1  0.837621  0.112442  0.750000  1
  O  O11  1  0.162379  0.887558  0.250000  1
  O  O12  1  0.112442  0.837621  0.750000  1
  O  O13  1  0.887558  0.162379  0.250000  1
  O  O14  1  0.441484  0.184648  0.961727  1
  O  O15  1  0.558516  0.815352  0.461727  1
  O  O16  1  0.184648  0.441484  0.961727  1
  O  O17  1  0.815352  0.558516  0.461727  1
  O  O18  1  0.441484  0.184648  0.538273  1
  O  O19  1  0.558516  0.815352  0.038273  1
  O  O20  1  0.815352  0.558516  0.038273  1
  O  O21  1  0.184648  0.441484  0.538273  1
