# generated using pymatgen
data_RePt3Rh5
_symmetry_space_group_name_H-M   'P 1'
_cell_length_a   6.15667994
_cell_length_b   6.15667858
_cell_length_c   6.15667926
_cell_angle_alpha   95.72429248
_cell_angle_beta   95.76798698
_cell_angle_gamma   143.10699436
_symmetry_Int_Tables_number   1
_chemical_formula_structural   RePt3Rh5
_chemical_formula_sum   'Re1 Pt3 Rh5'
_cell_volume   132.89734282
_cell_formula_units_Z   1
loop_
 _symmetry_equiv_pos_site_id
 _symmetry_equiv_pos_as_xyz
  1  'x, y, z'
loop_
 _atom_site_type_symbol
 _atom_site_label
 _atom_site_symmetry_multiplicity
 _atom_site_fract_x
 _atom_site_fract_y
 _atom_site_fract_z
 _atom_site_occupancy
  Re  Re0  1  0.000000  0.004101  0.004101  1
  Pt  Pt1  1  0.000000  0.672397  0.672397  1
  Pt  Pt2  1  0.672067  0.998671  0.670737  1
  Pt  Pt3  1  0.327933  0.998671  0.326604  1
  Rh  Rh4  1  0.338880  0.340083  0.678962  1
  Rh  Rh5  1  0.658972  0.661239  0.320210  1
  Rh  Rh6  1  0.661120  0.340083  0.001203  1
  Rh  Rh7  1  0.341028  0.661239  0.002267  1
  Rh  Rh8  1  0.000000  0.323520  0.323520  1
