# generated using pymatgen
data_HoTm9(FeSb2)2
_symmetry_space_group_name_H-M   'P 1'
_cell_length_a   7.70656900
_cell_length_b   8.70934800
_cell_length_c   11.99552000
_cell_angle_alpha   90.00000000
_cell_angle_beta   90.00000000
_cell_angle_gamma   90.00000000
_symmetry_Int_Tables_number   1
_chemical_formula_structural   HoTm9(FeSb2)2
_chemical_formula_sum   'Ho2 Tm18 Fe4 Sb8'
_cell_volume   805.12960171
_cell_formula_units_Z   2
loop_
 _symmetry_equiv_pos_site_id
 _symmetry_equiv_pos_as_xyz
  1  'x, y, z'
loop_
 _atom_site_type_symbol
 _atom_site_label
 _atom_site_symmetry_multiplicity
 _atom_site_fract_x
 _atom_site_fract_y
 _atom_site_fract_z
 _atom_site_occupancy
  Ho  Ho0  1  0.376376  0.250000  0.691928  1
  Ho  Ho1  1  0.876376  0.750000  0.808072  1
  Tm  Tm2  1  0.156779  0.750000  0.205414  1
  Tm  Tm3  1  0.656779  0.250000  0.294586  1
  Tm  Tm4  1  0.843141  0.250000  0.794445  1
  Tm  Tm5  1  0.343141  0.750000  0.705555  1
  Tm  Tm6  1  0.448573  0.750000  0.996171  1
  Tm  Tm7  1  0.948573  0.250000  0.503829  1
  Tm  Tm8  1  0.551273  0.250000  0.004044  1
  Tm  Tm9  1  0.051273  0.750000  0.495956  1
  Tm  Tm10  1  0.623160  0.750000  0.308609  1
  Tm  Tm11  1  0.123160  0.250000  0.191391  1
  Tm  Tm12  1  0.824640  0.964556  0.064807  1
  Tm  Tm13  1  0.324640  0.035444  0.435193  1
  Tm  Tm14  1  0.175891  0.463383  0.935858  1
  Tm  Tm15  1  0.675891  0.536617  0.564142  1
  Tm  Tm16  1  0.175891  0.036617  0.935858  1
  Tm  Tm17  1  0.675891  0.963383  0.564142  1
  Tm  Tm18  1  0.824640  0.535444  0.064807  1
  Tm  Tm19  1  0.324640  0.464556  0.435193  1
  Fe  Fe20  1  0.428847  0.750000  0.489663  1
  Fe  Fe21  1  0.928847  0.250000  0.010337  1
  Fe  Fe22  1  0.570843  0.250000  0.509848  1
  Fe  Fe23  1  0.070843  0.750000  0.990152  1
  Sb  Sb24  1  0.931019  0.992907  0.327911  1
  Sb  Sb25  1  0.431019  0.007093  0.172089  1
  Sb  Sb26  1  0.068955  0.492926  0.671850  1
  Sb  Sb27  1  0.568955  0.507074  0.828150  1
  Sb  Sb28  1  0.068955  0.007074  0.671850  1
  Sb  Sb29  1  0.568955  0.992926  0.828150  1
  Sb  Sb30  1  0.931019  0.507093  0.327911  1
  Sb  Sb31  1  0.431019  0.492907  0.172089  1
