# generated using pymatgen
data_La2LuGaSi
_symmetry_space_group_name_H-M   'P 1'
_cell_length_a   7.74818700
_cell_length_b   7.73752600
_cell_length_c   4.56729300
_cell_angle_alpha   90.00000000
_cell_angle_beta   90.00000000
_cell_angle_gamma   90.00000000
_symmetry_Int_Tables_number   1
_chemical_formula_structural   La2LuGaSi
_chemical_formula_sum   'La4 Lu2 Ga2 Si2'
_cell_volume   273.81742901
_cell_formula_units_Z   2
loop_
 _symmetry_equiv_pos_site_id
 _symmetry_equiv_pos_as_xyz
  1  'x, y, z'
loop_
 _atom_site_type_symbol
 _atom_site_label
 _atom_site_symmetry_multiplicity
 _atom_site_fract_x
 _atom_site_fract_y
 _atom_site_fract_z
 _atom_site_occupancy
  La  La0  1  0.673959  0.175747  0.500000  1
  La  La1  1  0.826041  0.675747  0.500000  1
  La  La2  1  0.177313  0.324671  0.500000  1
  La  La3  1  0.322687  0.824671  0.500000  1
  Lu  Lu4  1  0.493666  0.496015  0.000000  1
  Lu  Lu5  1  0.006334  0.996015  0.000000  1
  Ga  Ga6  1  0.617082  0.883297  0.000000  1
  Ga  Ga7  1  0.882918  0.383297  0.000000  1
  Si  Si8  1  0.120501  0.620269  0.000000  1
  Si  Si9  1  0.379499  0.120269  0.000000  1
