# generated using pymatgen
data_Lu4Th4Re3B24W
_symmetry_space_group_name_H-M   'P 1'
_cell_length_a   3.73756900
_cell_length_b   9.22033249
_cell_length_c   11.67448462
_cell_angle_alpha   89.96276385
_cell_angle_beta   90.00000000
_cell_angle_gamma   90.00000000
_symmetry_Int_Tables_number   1
_chemical_formula_structural   Lu4Th4Re3B24W
_chemical_formula_sum   'Lu4 Th4 Re3 B24 W1'
_cell_volume   402.32167116
_cell_formula_units_Z   1
loop_
 _symmetry_equiv_pos_site_id
 _symmetry_equiv_pos_as_xyz
  1  'x, y, z'
loop_
 _atom_site_type_symbol
 _atom_site_label
 _atom_site_symmetry_multiplicity
 _atom_site_fract_x
 _atom_site_fract_y
 _atom_site_fract_z
 _atom_site_occupancy
  Lu  Lu0  1  0.000000  0.946135  0.372917  1
  Lu  Lu1  1  0.000000  0.055552  0.627819  1
  Lu  Lu2  1  0.000000  0.444476  0.126794  1
  Lu  Lu3  1  0.000000  0.555239  0.871938  1
  Th  Th4  1  0.000000  0.321438  0.414067  1
  Th  Th5  1  0.000000  0.678153  0.585780  1
  Th  Th6  1  0.000000  0.821878  0.085818  1
  Th  Th7  1  0.000000  0.177850  0.914547  1
  Re  Re8  1  0.000000  0.359643  0.681506  1
  Re  Re9  1  0.000000  0.139808  0.180416  1
  Re  Re10  1  0.000000  0.859909  0.818912  1
  B  B11  1  0.500000  0.554683  0.431304  1
  B  B12  1  0.500000  0.443210  0.570955  1
  B  B13  1  0.500000  0.056935  0.070553  1
  B  B14  1  0.500000  0.943363  0.929297  1
  B  B15  1  0.500000  0.752990  0.417958  1
  B  B16  1  0.500000  0.248969  0.583804  1
  B  B17  1  0.500000  0.251044  0.083474  1
  B  B18  1  0.500000  0.748980  0.916156  1
  B  B19  1  0.500000  0.794306  0.265582  1
  B  B20  1  0.500000  0.207770  0.733863  1
  B  B21  1  0.500000  0.291762  0.233424  1
  B  B22  1  0.500000  0.708097  0.766172  1
  B  B23  1  0.500000  0.629829  0.183987  1
  B  B24  1  0.500000  0.369756  0.814544  1
  B  B25  1  0.500000  0.129854  0.313963  1
  B  B26  1  0.500000  0.870424  0.685836  1
  B  B27  1  0.500000  0.984959  0.214547  1
  B  B28  1  0.500000  0.015409  0.785552  1
  B  B29  1  0.500000  0.481893  0.284643  1
  B  B30  1  0.500000  0.514958  0.714810  1
  B  B31  1  0.500000  0.599506  0.026366  1
  B  B32  1  0.500000  0.400571  0.972485  1
  B  B33  1  0.500000  0.099617  0.473192  1
  B  B34  1  0.500000  0.901261  0.527691  1
  W  W35  1  0.000000  0.639773  0.319325  1
