# generated using pymatgen
data_Hf5Sc3Ti4(VSi2)8
_symmetry_space_group_name_H-M   'P 1'
_cell_length_a   6.67567940
_cell_length_b   6.67631391
_cell_length_c   12.34056306
_cell_angle_alpha   90.00824278
_cell_angle_beta   89.98493523
_cell_angle_gamma   89.90920429
_symmetry_Int_Tables_number   1
_chemical_formula_structural   Hf5Sc3Ti4(VSi2)8
_chemical_formula_sum   'Hf5 Sc3 Ti4 V8 Si16'
_cell_volume   550.00499144
_cell_formula_units_Z   1
loop_
 _symmetry_equiv_pos_site_id
 _symmetry_equiv_pos_as_xyz
  1  'x, y, z'
loop_
 _atom_site_type_symbol
 _atom_site_label
 _atom_site_symmetry_multiplicity
 _atom_site_fract_x
 _atom_site_fract_y
 _atom_site_fract_z
 _atom_site_occupancy
  Hf  Hf0  1  0.003153  0.659817  0.029960  1
  Hf  Hf1  1  0.838049  0.502517  0.279775  1
  Hf  Hf2  1  0.161480  0.498109  0.780544  1
  Hf  Hf3  1  0.501787  0.837919  0.719867  1
  Hf  Hf4  1  0.497834  0.162001  0.219160  1
  Sc  Sc5  1  0.999151  0.338038  0.529694  1
  Sc  Sc6  1  0.662118  0.000554  0.970730  1
  Sc  Sc7  1  0.338094  0.998968  0.470224  1
  Ti  Ti8  1  0.331740  0.334379  0.999963  1
  Ti  Ti9  1  0.166758  0.832855  0.249747  1
  Ti  Ti10  1  0.833131  0.166944  0.750042  1
  Ti  Ti11  1  0.667230  0.667054  0.500164  1
  V  V12  1  0.004128  0.159299  0.127783  1
  V  V13  1  0.342996  0.506010  0.375638  1
  V  V14  1  0.657712  0.495349  0.876722  1
  V  V15  1  0.505996  0.343550  0.624109  1
  V  V16  1  0.494591  0.657345  0.123336  1
  V  V17  1  0.995194  0.840575  0.628525  1
  V  V18  1  0.157661  0.003750  0.872503  1
  V  V19  1  0.841106  0.994795  0.371286  1
  Si  Si20  1  0.292923  0.959047  0.062074  1
  Si  Si21  1  0.540340  0.794128  0.313319  1
  Si  Si22  1  0.459240  0.206617  0.813631  1
  Si  Si23  1  0.794137  0.540669  0.686713  1
  Si  Si24  1  0.207338  0.458994  0.186998  1
  Si  Si25  1  0.706965  0.040933  0.562207  1
  Si  Si26  1  0.957833  0.291203  0.937226  1
  Si  Si27  1  0.041172  0.706985  0.437864  1
  Si  Si28  1  0.706195  0.371316  0.071883  1
  Si  Si29  1  0.128788  0.206492  0.321422  1
  Si  Si30  1  0.870355  0.793390  0.822577  1
  Si  Si31  1  0.206482  0.129133  0.678743  1
  Si  Si32  1  0.793072  0.871457  0.177988  1
  Si  Si33  1  0.294044  0.628871  0.571875  1
  Si  Si34  1  0.372415  0.706927  0.927510  1
  Si  Si35  1  0.628794  0.294012  0.428195  1
