# generated using pymatgen
data_Tc(OsCl6)5
_symmetry_space_group_name_H-M   'P 1'
_cell_length_a   12.99471153
_cell_length_b   13.00473727
_cell_length_c   6.54773088
_cell_angle_alpha   86.11074817
_cell_angle_beta   85.99811721
_cell_angle_gamma   88.30201682
_symmetry_Int_Tables_number   1
_chemical_formula_structural   Tc(OsCl6)5
_chemical_formula_sum   'Tc1 Os5 Cl30'
_cell_volume   1100.93475474
_cell_formula_units_Z   1
loop_
 _symmetry_equiv_pos_site_id
 _symmetry_equiv_pos_as_xyz
  1  'x, y, z'
loop_
 _atom_site_type_symbol
 _atom_site_label
 _atom_site_symmetry_multiplicity
 _atom_site_fract_x
 _atom_site_fract_y
 _atom_site_fract_z
 _atom_site_occupancy
  Tc  Tc0  1  0.558454  0.774778  0.433891  1
  Os  Os1  1  0.896762  0.102660  0.000227  1
  Os  Os2  1  0.102832  0.896860  0.000131  1
  Os  Os3  1  0.769338  0.564279  0.433323  1
  Os  Os4  1  0.230737  0.436571  0.566380  1
  Os  Os5  1  0.436251  0.230006  0.566721  1
  Cl  Cl6  1  0.509031  0.312628  0.816466  1
  Cl  Cl7  1  0.266394  0.266834  0.739103  1
  Cl  Cl8  1  0.170647  0.974119  0.698498  1
  Cl  Cl9  1  0.600948  0.599166  0.605515  1
  Cl  Cl10  1  0.219795  0.588783  0.383542  1
  Cl  Cl11  1  0.734369  0.732354  0.261238  1
  Cl  Cl12  1  0.157510  0.353674  0.317502  1
  Cl  Cl13  1  0.069419  0.069547  0.125415  1
  Cl  Cl14  1  0.651600  0.835363  0.678676  1
  Cl  Cl15  1  0.588585  0.218173  0.384465  1
  Cl  Cl16  1  0.111042  0.741283  0.868322  1
  Cl  Cl17  1  0.025709  0.829433  0.301770  1
  Cl  Cl18  1  0.922270  0.552476  0.250102  1
  Cl  Cl19  1  0.828785  0.025210  0.301469  1
  Cl  Cl20  1  0.406575  0.785874  0.616433  1
  Cl  Cl21  1  0.781670  0.411559  0.615572  1
  Cl  Cl22  1  0.548596  0.926779  0.250934  1
  Cl  Cl23  1  0.974455  0.170096  0.698826  1
  Cl  Cl24  1  0.842044  0.647936  0.682561  1
  Cl  Cl25  1  0.888319  0.258322  0.131868  1
  Cl  Cl26  1  0.498392  0.682591  0.186889  1
  Cl  Cl27  1  0.353408  0.156768  0.317653  1
  Cl  Cl28  1  0.078352  0.448286  0.749226  1
  Cl  Cl29  1  0.741069  0.110547  0.868270  1
  Cl  Cl30  1  0.447199  0.077533  0.749468  1
  Cl  Cl31  1  0.400382  0.399549  0.394101  1
  Cl  Cl32  1  0.313794  0.509532  0.815555  1
  Cl  Cl33  1  0.258944  0.888896  0.130992  1
  Cl  Cl34  1  0.930266  0.929989  0.875444  1
  Cl  Cl35  1  0.686057  0.491548  0.183454  1
