# generated using pymatgen
data_Pr2ErTm3(IrO7)2
_symmetry_space_group_name_H-M   'P 1'
_cell_length_a   6.42799603
_cell_length_b   6.42947705
_cell_length_c   7.47563200
_cell_angle_alpha   90.00000000
_cell_angle_beta   90.00000000
_cell_angle_gamma   109.42397559
_symmetry_Int_Tables_number   1
_chemical_formula_structural   Pr2ErTm3(IrO7)2
_chemical_formula_sum   'Pr2 Er1 Tm3 Ir2 O14'
_cell_volume   291.37302912
_cell_formula_units_Z   1
loop_
 _symmetry_equiv_pos_site_id
 _symmetry_equiv_pos_as_xyz
  1  'x, y, z'
loop_
 _atom_site_type_symbol
 _atom_site_label
 _atom_site_symmetry_multiplicity
 _atom_site_fract_x
 _atom_site_fract_y
 _atom_site_fract_z
 _atom_site_occupancy
  Pr  Pr0  1  0.001313  0.001731  0.000719  1
  Pr  Pr1  1  0.001313  0.001731  0.499281  1
  Er  Er2  1  0.486348  0.942238  0.750000  1
  Tm  Tm3  1  0.512312  0.059503  0.250000  1
  Tm  Tm4  1  0.943495  0.487204  0.750000  1
  Tm  Tm5  1  0.059274  0.512598  0.250000  1
  Ir  Ir6  1  0.501414  0.501076  0.000740  1
  Ir  Ir7  1  0.501414  0.501076  0.499260  1
  O  O8  1  0.590293  0.587732  0.750000  1
  O  O9  1  0.403112  0.402681  0.250000  1
  O  O10  1  0.838469  0.126732  0.750000  1
  O  O11  1  0.162488  0.873378  0.250000  1
  O  O12  1  0.123835  0.837835  0.750000  1
  O  O13  1  0.873238  0.163112  0.250000  1
  O  O14  1  0.439090  0.178183  0.968061  1
  O  O15  1  0.561264  0.821929  0.465318  1
  O  O16  1  0.178569  0.440997  0.967213  1
  O  O17  1  0.821920  0.559578  0.466272  1
  O  O18  1  0.439090  0.178183  0.531939  1
  O  O19  1  0.561264  0.821929  0.034682  1
  O  O20  1  0.821920  0.559578  0.033728  1
  O  O21  1  0.178569  0.440997  0.532787  1
