# generated using pymatgen
data_Y3Tm16LuPt16
_symmetry_space_group_name_H-M   'P 1'
_cell_length_a   7.41200609
_cell_length_b   7.49813373
_cell_length_c   14.60039105
_cell_angle_alpha   90.00525407
_cell_angle_beta   89.99585519
_cell_angle_gamma   89.96024410
_symmetry_Int_Tables_number   1
_chemical_formula_structural   Y3Tm16LuPt16
_chemical_formula_sum   'Y3 Tm16 Lu1 Pt16'
_cell_volume   811.43423989
_cell_formula_units_Z   1
loop_
 _symmetry_equiv_pos_site_id
 _symmetry_equiv_pos_as_xyz
  1  'x, y, z'
loop_
 _atom_site_type_symbol
 _atom_site_label
 _atom_site_symmetry_multiplicity
 _atom_site_fract_x
 _atom_site_fract_y
 _atom_site_fract_z
 _atom_site_occupancy
  Y  Y0  1  0.500858  0.321119  0.907379  1
  Y  Y1  1  0.498955  0.679175  0.407492  1
  Y  Y2  1  0.998913  0.821093  0.092592  1
  Tm  Tm3  1  0.181001  0.510496  0.250024  1
  Tm  Tm4  1  0.818965  0.489266  0.749607  1
  Tm  Tm5  1  0.318839  0.010519  0.749765  1
  Tm  Tm6  1  0.656755  0.833110  0.622322  1
  Tm  Tm7  1  0.156163  0.667261  0.877277  1
  Tm  Tm8  1  0.844376  0.332156  0.377657  1
  Tm  Tm9  1  0.344050  0.167194  0.122581  1
  Tm  Tm10  1  0.344057  0.167395  0.377885  1
  Tm  Tm11  1  0.843874  0.332161  0.122235  1
  Tm  Tm12  1  0.156000  0.667717  0.622062  1
  Tm  Tm13  1  0.656115  0.832268  0.877794  1
  Tm  Tm14  1  0.997764  0.820263  0.406869  1
  Tm  Tm15  1  0.497553  0.680584  0.093349  1
  Tm  Tm16  1  0.502494  0.319295  0.593222  1
  Tm  Tm17  1  0.002389  0.180684  0.906898  1
  Tm  Tm18  1  0.002040  0.179952  0.592791  1
  Lu  Lu19  1  0.681137  0.989440  0.250079  1
  Pt  Pt20  1  0.816707  0.643327  0.250836  1
  Pt  Pt21  1  0.317521  0.857407  0.249441  1
  Pt  Pt22  1  0.683655  0.142850  0.748833  1
  Pt  Pt23  1  0.181665  0.356210  0.749508  1
  Pt  Pt24  1  0.546407  0.385512  0.249579  1
  Pt  Pt25  1  0.045643  0.113961  0.250552  1
  Pt  Pt26  1  0.954073  0.886645  0.749938  1
  Pt  Pt27  1  0.453519  0.613936  0.749371  1
  Pt  Pt28  1  0.816348  0.531399  0.542515  1
  Pt  Pt29  1  0.315681  0.966464  0.958121  1
  Pt  Pt30  1  0.684815  0.033998  0.458553  1
  Pt  Pt31  1  0.184346  0.466619  0.041866  1
  Pt  Pt32  1  0.181841  0.466112  0.458510  1
  Pt  Pt33  1  0.682094  0.032931  0.042073  1
  Pt  Pt34  1  0.315368  0.968747  0.542445  1
  Pt  Pt35  1  0.818018  0.532734  0.957979  1
