# generated using pymatgen
data_Dy2Ho6Cd2IrPt
_symmetry_space_group_name_H-M   'P 1'
_cell_length_a   9.62636108
_cell_length_b   9.62534268
_cell_length_c   9.60991205
_cell_angle_alpha   60.06002457
_cell_angle_beta   60.04950770
_cell_angle_gamma   60.14986561
_symmetry_Int_Tables_number   1
_chemical_formula_structural   Dy2Ho6Cd2IrPt
_chemical_formula_sum   'Dy4 Ho12 Cd4 Ir2 Pt2'
_cell_volume   630.85863663
_cell_formula_units_Z   2
loop_
 _symmetry_equiv_pos_site_id
 _symmetry_equiv_pos_as_xyz
  1  'x, y, z'
loop_
 _atom_site_type_symbol
 _atom_site_label
 _atom_site_symmetry_multiplicity
 _atom_site_fract_x
 _atom_site_fract_y
 _atom_site_fract_z
 _atom_site_occupancy
  Dy  Dy0  1  0.814820  0.187299  0.811953  1
  Dy  Dy1  1  0.187299  0.814820  0.185927  1
  Dy  Dy2  1  0.813773  0.813773  0.186227  1
  Dy  Dy3  1  0.186847  0.186847  0.813153  1
  Ho  Ho4  1  0.600650  0.600761  0.596233  1
  Ho  Ho5  1  0.600761  0.600650  0.202356  1
  Ho  Ho6  1  0.605765  0.194757  0.599683  1
  Ho  Ho7  1  0.194757  0.605765  0.599795  1
  Ho  Ho8  1  0.056924  0.439787  0.440374  1
  Ho  Ho9  1  0.439787  0.056924  0.062916  1
  Ho  Ho10  1  0.439791  0.056949  0.440399  1
  Ho  Ho11  1  0.056949  0.439791  0.062861  1
  Ho  Ho12  1  0.441019  0.441019  0.058981  1
  Ho  Ho13  1  0.061342  0.061342  0.438658  1
  Ho  Ho14  1  0.187501  0.814645  0.811715  1
  Ho  Ho15  1  0.814645  0.187501  0.186138  1
  Cd  Cd16  1  0.831300  0.831082  0.831729  1
  Cd  Cd17  1  0.831082  0.831300  0.505889  1
  Cd  Cd18  1  0.830684  0.505654  0.831928  1
  Cd  Cd19  1  0.505654  0.830684  0.831733  1
  Ir  Ir20  1  0.391012  0.823516  0.392817  1
  Ir  Ir21  1  0.823516  0.391012  0.392656  1
  Pt  Pt22  1  0.392136  0.391984  0.394456  1
  Pt  Pt23  1  0.391984  0.392136  0.821423  1
