# generated using pymatgen
data_Li5MnN4
_symmetry_space_group_name_H-M   'P 1'
_cell_length_a   4.83557500
_cell_length_b   6.40018000
_cell_length_c   6.48278700
_cell_angle_alpha   90.00000000
_cell_angle_beta   90.00000000
_cell_angle_gamma   90.00000000
_symmetry_Int_Tables_number   1
_chemical_formula_structural   Li5MnN4
_chemical_formula_sum   'Li10 Mn2 N8'
_cell_volume   200.63286022
_cell_formula_units_Z   2
loop_
 _symmetry_equiv_pos_site_id
 _symmetry_equiv_pos_as_xyz
  1  'x, y, z'
loop_
 _atom_site_type_symbol
 _atom_site_label
 _atom_site_symmetry_multiplicity
 _atom_site_fract_x
 _atom_site_fract_y
 _atom_site_fract_z
 _atom_site_occupancy
  Li  Li0  1  0.313030  0.000000  0.000000  1
  Li  Li1  1  0.686970  0.500000  0.500000  1
  Li  Li2  1  0.244551  0.756610  0.298112  1
  Li  Li3  1  0.244551  0.243390  0.701888  1
  Li  Li4  1  0.755449  0.256610  0.201888  1
  Li  Li5  1  0.755449  0.743390  0.798112  1
  Li  Li6  1  0.755449  0.743390  0.201888  1
  Li  Li7  1  0.755449  0.256610  0.798112  1
  Li  Li8  1  0.244551  0.756610  0.701888  1
  Li  Li9  1  0.244551  0.243390  0.298112  1
  Mn  Mn10  1  0.279835  0.500000  0.000000  1
  Mn  Mn11  1  0.720165  0.000000  0.500000  1
  N  N12  1  0.084044  0.722274  0.000000  1
  N  N13  1  0.525789  0.000000  0.721675  1
  N  N14  1  0.474211  0.500000  0.221675  1
  N  N15  1  0.474211  0.500000  0.778325  1
  N  N16  1  0.084044  0.277726  0.000000  1
  N  N17  1  0.915956  0.222274  0.500000  1
  N  N18  1  0.915956  0.777726  0.500000  1
  N  N19  1  0.525789  0.000000  0.278325  1
