# generated using pymatgen
data_LiPr4Al3OsPt3
_symmetry_space_group_name_H-M   'P 1'
_cell_length_a   4.40464200
_cell_length_b   7.15529674
_cell_length_c   8.14009944
_cell_angle_alpha   89.77042129
_cell_angle_beta   90.00000000
_cell_angle_gamma   90.00000000
_symmetry_Int_Tables_number   1
_chemical_formula_structural   LiPr4Al3OsPt3
_chemical_formula_sum   'Li1 Pr4 Al3 Os1 Pt3'
_cell_volume   256.54555179
_cell_formula_units_Z   1
loop_
 _symmetry_equiv_pos_site_id
 _symmetry_equiv_pos_as_xyz
  1  'x, y, z'
loop_
 _atom_site_type_symbol
 _atom_site_label
 _atom_site_symmetry_multiplicity
 _atom_site_fract_x
 _atom_site_fract_y
 _atom_site_fract_z
 _atom_site_occupancy
  Li  Li0  1  0.750000  0.366250  0.565632  1
  Pr  Pr1  1  0.250000  0.532062  0.819760  1
  Pr  Pr2  1  0.250000  0.029685  0.683135  1
  Pr  Pr3  1  0.750000  0.964678  0.310999  1
  Pr  Pr4  1  0.750000  0.479876  0.185995  1
  Al  Al5  1  0.250000  0.135773  0.062442  1
  Al  Al6  1  0.250000  0.642955  0.434650  1
  Al  Al7  1  0.750000  0.849794  0.936409  1
  Os  Os8  1  0.250000  0.775329  0.112908  1
  Pt  Pt9  1  0.250000  0.276001  0.375363  1
  Pt  Pt10  1  0.750000  0.732114  0.613819  1
  Pt  Pt11  1  0.750000  0.215484  0.898889  1
