# generated using pymatgen
data_Tb4Be3(BRu2)5
_symmetry_space_group_name_H-M   'P 1'
_cell_length_a   3.12142300
_cell_length_b   8.85956073
_cell_length_c   10.34769637
_cell_angle_alpha   90.39413688
_cell_angle_beta   90.00000000
_cell_angle_gamma   90.00000000
_symmetry_Int_Tables_number   1
_chemical_formula_structural   Tb4Be3(BRu2)5
_chemical_formula_sum   'Tb4 Be3 B5 Ru10'
_cell_volume   286.15294283
_cell_formula_units_Z   1
loop_
 _symmetry_equiv_pos_site_id
 _symmetry_equiv_pos_as_xyz
  1  'x, y, z'
loop_
 _atom_site_type_symbol
 _atom_site_label
 _atom_site_symmetry_multiplicity
 _atom_site_fract_x
 _atom_site_fract_y
 _atom_site_fract_z
 _atom_site_occupancy
  Tb  Tb0  1  0.500000  0.840887  0.183208  1
  Tb  Tb1  1  0.500000  0.161312  0.816306  1
  Tb  Tb2  1  0.500000  0.660768  0.681136  1
  Tb  Tb3  1  0.500000  0.342120  0.317201  1
  Be  Be4  1  0.500000  0.965211  0.593640  1
  Be  Be5  1  0.500000  0.036750  0.407186  1
  Be  Be6  1  0.500000  0.846073  0.902627  1
  B  B7  1  0.500000  0.145268  0.098516  1
  B  B8  1  0.500000  0.653084  0.403547  1
  B  B9  1  0.500000  0.348412  0.595509  1
  B  B10  1  0.500000  0.466173  0.911977  1
  B  B11  1  0.500000  0.530819  0.088979  1
  Ru  Ru12  1  0.000000  0.643184  0.960932  1
  Ru  Ru13  1  0.000000  0.340665  0.045148  1
  Ru  Ru14  1  0.000000  0.831928  0.448018  1
  Ru  Ru15  1  0.000000  0.170599  0.548351  1
  Ru  Ru16  1  0.000000  0.008947  0.001769  1
  Ru  Ru17  1  0.000000  0.409569  0.760597  1
  Ru  Ru18  1  0.000000  0.591451  0.239438  1
  Ru  Ru19  1  0.000000  0.501007  0.499858  1
  Ru  Ru20  1  0.000000  0.905656  0.744414  1
  Ru  Ru21  1  0.000000  0.100117  0.251641  1
