# generated using pymatgen
data_Tb16Lu4Sn15Pb
_symmetry_space_group_name_H-M   'P 1'
_cell_length_a   8.01725072
_cell_length_b   8.17174068
_cell_length_c   15.48911355
_cell_angle_alpha   90.03514277
_cell_angle_beta   90.03722112
_cell_angle_gamma   89.96898420
_symmetry_Int_Tables_number   1
_chemical_formula_structural   Tb16Lu4Sn15Pb
_chemical_formula_sum   'Tb16 Lu4 Sn15 Pb1'
_cell_volume   1014.76707623
_cell_formula_units_Z   1
loop_
 _symmetry_equiv_pos_site_id
 _symmetry_equiv_pos_as_xyz
  1  'x, y, z'
loop_
 _atom_site_type_symbol
 _atom_site_label
 _atom_site_symmetry_multiplicity
 _atom_site_fract_x
 _atom_site_fract_y
 _atom_site_fract_z
 _atom_site_occupancy
  Tb  Tb0  1  0.366702  0.836480  0.876540  1
  Tb  Tb1  1  0.866104  0.662902  0.622069  1
  Tb  Tb2  1  0.634626  0.162368  0.377570  1
  Tb  Tb3  1  0.132992  0.340117  0.122939  1
  Tb  Tb4  1  0.635824  0.161990  0.122729  1
  Tb  Tb5  1  0.134326  0.338013  0.377711  1
  Tb  Tb6  1  0.366094  0.837573  0.622552  1
  Tb  Tb7  1  0.866532  0.662541  0.877469  1
  Tb  Tb8  1  0.520896  0.322274  0.902300  1
  Tb  Tb9  1  0.019464  0.179351  0.596778  1
  Tb  Tb10  1  0.480848  0.679219  0.403389  1
  Tb  Tb11  1  0.977362  0.818241  0.097455  1
  Tb  Tb12  1  0.481035  0.676673  0.097300  1
  Tb  Tb13  1  0.980691  0.820676  0.403415  1
  Tb  Tb14  1  0.519136  0.320479  0.596668  1
  Tb  Tb15  1  0.017478  0.181011  0.901894  1
  Lu  Lu16  1  0.197408  0.503073  0.749928  1
  Lu  Lu17  1  0.697391  0.997106  0.749815  1
  Lu  Lu18  1  0.802650  0.496837  0.250186  1
  Lu  Lu19  1  0.303245  0.003103  0.251973  1
  Sn  Sn20  1  0.794118  0.463741  0.457485  1
  Sn  Sn21  1  0.705863  0.963820  0.542890  1
  Sn  Sn22  1  0.206206  0.536244  0.957332  1
  Sn  Sn23  1  0.706330  0.963739  0.956791  1
  Sn  Sn24  1  0.206423  0.536680  0.542947  1
  Sn  Sn25  1  0.294170  0.036364  0.457754  1
  Sn  Sn26  1  0.793346  0.463254  0.042394  1
  Sn  Sn27  1  0.562611  0.617039  0.749602  1
  Sn  Sn28  1  0.062534  0.882768  0.749805  1
  Sn  Sn29  1  0.437443  0.381865  0.250023  1
  Sn  Sn30  1  0.938662  0.117421  0.249860  1
  Sn  Sn31  1  0.328759  0.150247  0.749919  1
  Sn  Sn32  1  0.828465  0.350342  0.749278  1
  Sn  Sn33  1  0.670655  0.849746  0.250293  1
  Sn  Sn34  1  0.171383  0.650628  0.250352  1
  Pb  Pb35  1  0.292230  0.036075  0.042596  1
