# generated using pymatgen
data_Tb2Y6GaPd24
_symmetry_space_group_name_H-M   'P 1'
_cell_length_a   8.37893200
_cell_length_b   8.37882801
_cell_length_c   8.37882801
_cell_angle_alpha   89.99580137
_cell_angle_beta   90.00000000
_cell_angle_gamma   90.00000000
_symmetry_Int_Tables_number   1
_chemical_formula_structural   Tb2Y6GaPd24
_chemical_formula_sum   'Tb2 Y6 Ga1 Pd24'
_cell_volume   588.24089805
_cell_formula_units_Z   1
loop_
 _symmetry_equiv_pos_site_id
 _symmetry_equiv_pos_as_xyz
  1  'x, y, z'
loop_
 _atom_site_type_symbol
 _atom_site_label
 _atom_site_symmetry_multiplicity
 _atom_site_fract_x
 _atom_site_fract_y
 _atom_site_fract_z
 _atom_site_occupancy
  Tb  Tb0  1  0.251787  0.748208  0.748208  1
  Tb  Tb1  1  0.251787  0.251792  0.251792  1
  Y  Y2  1  0.251762  0.251760  0.748240  1
  Y  Y3  1  0.251762  0.748240  0.251760  1
  Y  Y4  1  0.748241  0.251765  0.251765  1
  Y  Y5  1  0.748241  0.748235  0.748235  1
  Y  Y6  1  0.748233  0.748236  0.251764  1
  Y  Y7  1  0.748233  0.251764  0.748236  1
  Ga  Ga8  1  0.999977  0.000000  0.000000  1
  Pd  Pd9  1  0.499981  0.500024  0.746896  1
  Pd  Pd10  1  0.499981  0.253104  0.499976  1
  Pd  Pd11  1  0.253111  0.500000  0.500000  1
  Pd  Pd12  1  0.499981  0.499976  0.253104  1
  Pd  Pd13  1  0.499981  0.746896  0.500024  1
  Pd  Pd14  1  0.746906  0.500000  0.500000  1
  Pd  Pd15  1  0.000006  0.999989  0.708056  1
  Pd  Pd16  1  0.000006  0.291944  0.000011  1
  Pd  Pd17  1  0.291955  0.000000  0.000000  1
  Pd  Pd18  1  0.000006  0.000011  0.291944  1
  Pd  Pd19  1  0.000006  0.708056  0.999989  1
  Pd  Pd20  1  0.708066  0.000000  0.000000  1
  Pd  Pd21  1  0.000013  0.500030  0.739637  1
  Pd  Pd22  1  0.499982  0.260360  0.000017  1
  Pd  Pd23  1  0.260364  0.000000  0.500000  1
  Pd  Pd24  1  0.000013  0.260363  0.499970  1
  Pd  Pd25  1  0.499982  0.999983  0.739640  1
  Pd  Pd26  1  0.260364  0.500000  0.000000  1
  Pd  Pd27  1  0.000013  0.499970  0.260363  1
  Pd  Pd28  1  0.499982  0.739640  0.999983  1
  Pd  Pd29  1  0.000013  0.739637  0.500030  1
  Pd  Pd30  1  0.499982  0.000017  0.260360  1
  Pd  Pd31  1  0.739642  0.000000  0.500000  1
  Pd  Pd32  1  0.739642  0.500000  0.000000  1
