# generated using pymatgen
data_Pr2NiGeI
_symmetry_space_group_name_H-M   'P 1'
_cell_length_a   4.23869800
_cell_length_b   4.23869651
_cell_length_c   16.95603800
_cell_angle_alpha   90.00000000
_cell_angle_beta   90.00000000
_cell_angle_gamma   119.99999605
_symmetry_Int_Tables_number   1
_chemical_formula_structural   Pr2NiGeI
_chemical_formula_sum   'Pr4 Ni2 Ge2 I2'
_cell_volume   263.82735717
_cell_formula_units_Z   2
loop_
 _symmetry_equiv_pos_site_id
 _symmetry_equiv_pos_as_xyz
  1  'x, y, z'
loop_
 _atom_site_type_symbol
 _atom_site_label
 _atom_site_symmetry_multiplicity
 _atom_site_fract_x
 _atom_site_fract_y
 _atom_site_fract_z
 _atom_site_occupancy
  Pr  Pr0  1  0.000000  0.000000  0.610021  1
  Pr  Pr1  1  0.000000  0.000000  0.393958  1
  Pr  Pr2  1  0.000000  0.000000  0.110021  1
  Pr  Pr3  1  0.000000  0.000000  0.893958  1
  Ni  Ni4  1  0.666667  0.333333  0.989797  1
  Ni  Ni5  1  0.333333  0.666667  0.489797  1
  Ge  Ge6  1  0.666667  0.333333  0.507391  1
  Ge  Ge7  1  0.333333  0.666667  0.007391  1
  I  I8  1  0.666667  0.333333  0.248834  1
  I  I9  1  0.333333  0.666667  0.748834  1
