# generated using pymatgen
data_Zr6Al14Zn2Pd7
_symmetry_space_group_name_H-M   'P 1'
_cell_length_a   8.81762950
_cell_length_b   8.80523756
_cell_length_c   8.80523665
_cell_angle_alpha   59.90107528
_cell_angle_beta   59.95343395
_cell_angle_gamma   59.95343757
_symmetry_Int_Tables_number   1
_chemical_formula_structural   Zr6Al14Zn2Pd7
_chemical_formula_sum   'Zr6 Al14 Zn2 Pd7'
_cell_volume   482.71150641
_cell_formula_units_Z   1
loop_
 _symmetry_equiv_pos_site_id
 _symmetry_equiv_pos_as_xyz
  1  'x, y, z'
loop_
 _atom_site_type_symbol
 _atom_site_label
 _atom_site_symmetry_multiplicity
 _atom_site_fract_x
 _atom_site_fract_y
 _atom_site_fract_z
 _atom_site_occupancy
  Zr  Zr0  1  0.685910  0.685899  0.314910  1
  Zr  Zr1  1  0.313281  0.685899  0.314910  1
  Zr  Zr2  1  0.686248  0.313752  0.313752  1
  Zr  Zr3  1  0.313281  0.314910  0.685899  1
  Zr  Zr4  1  0.685910  0.314910  0.685899  1
  Zr  Zr5  1  0.314710  0.685290  0.685290  1
  Al  Al6  1  0.360763  0.879914  0.879914  1
  Al  Al7  1  0.879411  0.879914  0.879914  1
  Al  Al8  1  0.118919  0.121527  0.640635  1
  Al  Al9  1  0.118919  0.640635  0.121527  1
  Al  Al10  1  0.641772  0.120287  0.120287  1
  Al  Al11  1  0.117653  0.120287  0.120287  1
  Al  Al12  1  0.666971  0.663430  0.002628  1
  Al  Al13  1  0.666971  0.002628  0.663430  1
  Al  Al14  1  0.001051  0.665123  0.665123  1
  Al  Al15  1  0.668702  0.665123  0.665123  1
  Al  Al16  1  0.334908  0.334189  0.995995  1
  Al  Al17  1  0.334908  0.995995  0.334189  1
  Al  Al18  1  0.995016  0.334711  0.334711  1
  Al  Al19  1  0.335562  0.334711  0.334711  1
  Zn  Zn20  1  0.879382  0.880033  0.361204  1
  Zn  Zn21  1  0.879382  0.361204  0.880033  1
  Pd  Pd22  1  0.004160  0.995840  0.995840  1
  Pd  Pd23  1  0.001812  0.000880  0.502479  1
  Pd  Pd24  1  0.494828  0.000880  0.502479  1
  Pd  Pd25  1  0.002887  0.497113  0.497113  1
  Pd  Pd26  1  0.494828  0.502479  0.000880  1
  Pd  Pd27  1  0.001812  0.502479  0.000880  1
  Pd  Pd28  1  0.500040  0.999960  0.999960  1
