# generated using pymatgen
data_Lu8ReSi16Mo11
_symmetry_space_group_name_H-M   'P 1'
_cell_length_a   6.67658175
_cell_length_b   6.88944288
_cell_length_c   12.82752100
_cell_angle_alpha   90.00000000
_cell_angle_beta   90.00000000
_cell_angle_gamma   90.12159242
_symmetry_Int_Tables_number   1
_chemical_formula_structural   Lu8ReSi16Mo11
_chemical_formula_sum   'Lu8 Re1 Si16 Mo11'
_cell_volume   590.03806704
_cell_formula_units_Z   1
loop_
 _symmetry_equiv_pos_site_id
 _symmetry_equiv_pos_as_xyz
  1  'x, y, z'
loop_
 _atom_site_type_symbol
 _atom_site_label
 _atom_site_symmetry_multiplicity
 _atom_site_fract_x
 _atom_site_fract_y
 _atom_site_fract_z
 _atom_site_occupancy
  Lu  Lu0  1  0.496638  0.332148  0.093838  1
  Lu  Lu1  1  0.997089  0.167860  0.406323  1
  Lu  Lu2  1  0.502779  0.667615  0.593503  1
  Lu  Lu3  1  0.004667  0.832041  0.906609  1
  Lu  Lu4  1  0.502779  0.667615  0.906497  1
  Lu  Lu5  1  0.004667  0.832041  0.593391  1
  Lu  Lu6  1  0.496638  0.332148  0.406162  1
  Lu  Lu7  1  0.997089  0.167860  0.093677  1
  Re  Re8  1  0.669310  0.989546  0.750000  1
  Si  Si9  1  0.660335  0.040580  0.547893  1
  Si  Si10  1  0.159802  0.459498  0.953650  1
  Si  Si11  1  0.338934  0.960273  0.046139  1
  Si  Si12  1  0.839517  0.540061  0.453596  1
  Si  Si13  1  0.338934  0.960273  0.453861  1
  Si  Si14  1  0.839517  0.540061  0.046404  1
  Si  Si15  1  0.660335  0.040580  0.952107  1
  Si  Si16  1  0.159802  0.459498  0.546350  1
  Si  Si17  1  0.533191  0.367773  0.750000  1
  Si  Si18  1  0.031058  0.131937  0.750000  1
  Si  Si19  1  0.466679  0.631661  0.250000  1
  Si  Si20  1  0.965703  0.868270  0.250000  1
  Si  Si21  1  0.801697  0.635327  0.750000  1
  Si  Si22  1  0.305522  0.867671  0.750000  1
  Si  Si23  1  0.197874  0.366503  0.250000  1
  Si  Si24  1  0.698471  0.132997  0.250000  1
  Mo  Mo25  1  0.828590  0.336657  0.624942  1
  Mo  Mo26  1  0.329323  0.164857  0.874893  1
  Mo  Mo27  1  0.171106  0.664304  0.124167  1
  Mo  Mo28  1  0.669673  0.835059  0.376882  1
  Mo  Mo29  1  0.171106  0.664304  0.375833  1
  Mo  Mo30  1  0.669673  0.835059  0.123118  1
  Mo  Mo31  1  0.828590  0.336657  0.875058  1
  Mo  Mo32  1  0.329323  0.164857  0.625107  1
  Mo  Mo33  1  0.166605  0.506798  0.750000  1
  Mo  Mo34  1  0.333905  0.003881  0.250000  1
  Mo  Mo35  1  0.833081  0.495729  0.250000  1
