# generated using pymatgen
data_Ca6La9Pr5Sn16
_symmetry_space_group_name_H-M   'P 1'
_cell_length_a   8.09398293
_cell_length_b   8.54002938
_cell_length_c   16.15262100
_cell_angle_alpha   89.99933580
_cell_angle_beta   90.12060180
_cell_angle_gamma   90.03259406
_symmetry_Int_Tables_number   1
_chemical_formula_structural   Ca6La9Pr5Sn16
_chemical_formula_sum   'Ca6 La9 Pr5 Sn16'
_cell_volume   1116.51257742
_cell_formula_units_Z   1
loop_
 _symmetry_equiv_pos_site_id
 _symmetry_equiv_pos_as_xyz
  1  'x, y, z'
loop_
 _atom_site_type_symbol
 _atom_site_label
 _atom_site_symmetry_multiplicity
 _atom_site_fract_x
 _atom_site_fract_y
 _atom_site_fract_z
 _atom_site_occupancy
  Ca  Ca0  1  0.170010  0.330020  0.376900  1
  Ca  Ca1  1  0.330004  0.829430  0.622738  1
  Ca  Ca2  1  0.162799  0.497394  0.748555  1
  Ca  Ca3  1  0.661309  0.002817  0.748659  1
  Ca  Ca4  1  0.838787  0.502782  0.250935  1
  Ca  Ca5  1  0.337201  0.998796  0.251267  1
  La  La6  1  0.834725  0.673912  0.876279  1
  La  La7  1  0.490879  0.315495  0.903962  1
  La  La8  1  0.993284  0.183320  0.594776  1
  La  La9  1  0.506676  0.683931  0.404419  1
  La  La10  1  0.009522  0.815878  0.097083  1
  La  La11  1  0.507846  0.682722  0.096384  1
  La  La12  1  0.010289  0.815532  0.404088  1
  La  La13  1  0.489421  0.315382  0.594704  1
  La  La14  1  0.991945  0.182189  0.904419  1
  Pr  Pr15  1  0.333698  0.827013  0.875588  1
  Pr  Pr16  1  0.833375  0.672543  0.624062  1
  Pr  Pr17  1  0.666540  0.172565  0.375600  1
  Pr  Pr18  1  0.166289  0.327219  0.124978  1
  Pr  Pr19  1  0.666051  0.173274  0.124504  1
  Sn  Sn20  1  0.325118  0.036987  0.037704  1
  Sn  Sn21  1  0.828562  0.463421  0.461888  1
  Sn  Sn22  1  0.671246  0.962940  0.537627  1
  Sn  Sn23  1  0.176037  0.535434  0.962693  1
  Sn  Sn24  1  0.672608  0.964276  0.963077  1
  Sn  Sn25  1  0.169991  0.534319  0.538580  1
  Sn  Sn26  1  0.328701  0.034572  0.461098  1
  Sn  Sn27  1  0.825932  0.462337  0.038395  1
  Sn  Sn28  1  0.529710  0.602730  0.749450  1
  Sn  Sn29  1  0.032499  0.896537  0.749127  1
  Sn  Sn30  1  0.468950  0.395479  0.250702  1
  Sn  Sn31  1  0.969545  0.103329  0.250124  1
  Sn  Sn32  1  0.290253  0.141252  0.749979  1
  Sn  Sn33  1  0.788592  0.360930  0.749695  1
  Sn  Sn34  1  0.710948  0.861816  0.250063  1
  Sn  Sn35  1  0.210654  0.641427  0.249898  1
