# generated using pymatgen
data_Nb8PdRhSe16
_symmetry_space_group_name_H-M   'P 1'
_cell_length_a   7.02281500
_cell_length_b   7.02281471
_cell_length_c   12.83307000
_cell_angle_alpha   90.00000000
_cell_angle_beta   90.00000000
_cell_angle_gamma   120.00001548
_symmetry_Int_Tables_number   1
_chemical_formula_structural   Nb8PdRhSe16
_chemical_formula_sum   'Nb8 Pd1 Rh1 Se16'
_cell_volume   548.12999155
_cell_formula_units_Z   1
loop_
 _symmetry_equiv_pos_site_id
 _symmetry_equiv_pos_as_xyz
  1  'x, y, z'
loop_
 _atom_site_type_symbol
 _atom_site_label
 _atom_site_symmetry_multiplicity
 _atom_site_fract_x
 _atom_site_fract_y
 _atom_site_fract_z
 _atom_site_occupancy
  Nb  Nb0  1  0.000000  0.000000  0.249538  1
  Nb  Nb1  1  0.000000  0.000000  0.750462  1
  Nb  Nb2  1  0.510842  0.021683  0.246491  1
  Nb  Nb3  1  0.978317  0.489158  0.246491  1
  Nb  Nb4  1  0.510842  0.489158  0.246491  1
  Nb  Nb5  1  0.489158  0.978317  0.753509  1
  Nb  Nb6  1  0.021683  0.510842  0.753509  1
  Nb  Nb7  1  0.489158  0.510842  0.753509  1
  Pd  Pd8  1  0.000000  0.000000  0.500000  1
  Rh  Rh9  1  0.000000  0.000000  0.000000  1
  Se  Se10  1  0.333333  0.666667  0.891687  1
  Se  Se11  1  0.666667  0.333333  0.108313  1
  Se  Se12  1  0.666667  0.333333  0.384533  1
  Se  Se13  1  0.333333  0.666667  0.615467  1
  Se  Se14  1  0.170936  0.829064  0.373996  1
  Se  Se15  1  0.170936  0.341872  0.373996  1
  Se  Se16  1  0.658128  0.829064  0.373996  1
  Se  Se17  1  0.829064  0.170936  0.626004  1
  Se  Se18  1  0.829064  0.658128  0.626004  1
  Se  Se19  1  0.341872  0.170936  0.626004  1
  Se  Se20  1  0.833041  0.166959  0.880186  1
  Se  Se21  1  0.833041  0.666081  0.880186  1
  Se  Se22  1  0.333919  0.166959  0.880186  1
  Se  Se23  1  0.166959  0.833041  0.119814  1
  Se  Se24  1  0.166959  0.333919  0.119814  1
  Se  Se25  1  0.666081  0.833041  0.119814  1
