# generated using pymatgen
data_Nd2In2Cu7Ni3
_symmetry_space_group_name_H-M   'P 1'
_cell_length_a   4.99147900
_cell_length_b   4.99148045
_cell_length_c   20.19660600
_cell_angle_alpha   90.00000000
_cell_angle_beta   90.00000000
_cell_angle_gamma   119.99999703
_symmetry_Int_Tables_number   1
_chemical_formula_structural   Nd2In2Cu7Ni3
_chemical_formula_sum   'Nd4 In4 Cu14 Ni6'
_cell_volume   435.78036725
_cell_formula_units_Z   2
loop_
 _symmetry_equiv_pos_site_id
 _symmetry_equiv_pos_as_xyz
  1  'x, y, z'
loop_
 _atom_site_type_symbol
 _atom_site_label
 _atom_site_symmetry_multiplicity
 _atom_site_fract_x
 _atom_site_fract_y
 _atom_site_fract_z
 _atom_site_occupancy
  Nd  Nd0  1  0.333333  0.666667  0.750664  1
  Nd  Nd1  1  0.666667  0.333333  0.249650  1
  Nd  Nd2  1  0.000000  0.000000  0.999608  1
  Nd  Nd3  1  0.000000  0.000000  0.502554  1
  In  In4  1  0.333333  0.666667  0.583097  1
  In  In5  1  0.666667  0.333333  0.417828  1
  In  In6  1  0.666667  0.333333  0.081833  1
  In  In7  1  0.333333  0.666667  0.918417  1
  Cu  Cu8  1  0.333333  0.666667  0.453150  1
  Cu  Cu9  1  0.666667  0.333333  0.749883  1
  Cu  Cu10  1  0.166248  0.332496  0.148046  1
  Cu  Cu11  1  0.833876  0.667753  0.852486  1
  Cu  Cu12  1  0.667504  0.833752  0.148046  1
  Cu  Cu13  1  0.834095  0.668189  0.647734  1
  Cu  Cu14  1  0.332247  0.166124  0.852486  1
  Cu  Cu15  1  0.165963  0.331926  0.350839  1
  Cu  Cu16  1  0.166248  0.833752  0.148046  1
  Cu  Cu17  1  0.331811  0.165905  0.647734  1
  Cu  Cu18  1  0.833876  0.166124  0.852486  1
  Cu  Cu19  1  0.668074  0.834037  0.350839  1
  Cu  Cu20  1  0.834095  0.165905  0.647734  1
  Cu  Cu21  1  0.165963  0.834037  0.350839  1
  Ni  Ni22  1  0.333333  0.666667  0.046030  1
  Ni  Ni23  1  0.666667  0.333333  0.954295  1
  Ni  Ni24  1  0.666667  0.333333  0.546648  1
  Ni  Ni25  1  0.000000  0.000000  0.249413  1
  Ni  Ni26  1  0.000000  0.000000  0.750064  1
  Ni  Ni27  1  0.333333  0.666667  0.249549  1
