# generated using pymatgen
data_Mg4HgAsPd10
_symmetry_space_group_name_H-M   'P 1'
_cell_length_a   4.14394700
_cell_length_b   5.62094454
_cell_length_c   11.01169418
_cell_angle_alpha   92.05754157
_cell_angle_beta   90.00000000
_cell_angle_gamma   90.00000000
_symmetry_Int_Tables_number   1
_chemical_formula_structural   Mg4HgAsPd10
_chemical_formula_sum   'Mg4 Hg1 As1 Pd10'
_cell_volume   256.32888176
_cell_formula_units_Z   1
loop_
 _symmetry_equiv_pos_site_id
 _symmetry_equiv_pos_as_xyz
  1  'x, y, z'
loop_
 _atom_site_type_symbol
 _atom_site_label
 _atom_site_symmetry_multiplicity
 _atom_site_fract_x
 _atom_site_fract_y
 _atom_site_fract_z
 _atom_site_occupancy
  Mg  Mg0  1  0.500000  0.169008  0.138733  1
  Mg  Mg1  1  0.500000  0.830992  0.861267  1
  Mg  Mg2  1  0.500000  0.308973  0.638392  1
  Mg  Mg3  1  0.500000  0.691027  0.361608  1
  Hg  Hg4  1  0.000000  0.000000  0.500000  1
  As  As5  1  0.000000  0.500000  0.000000  1
  Pd  Pd6  1  0.500000  0.215555  0.376505  1
  Pd  Pd7  1  0.500000  0.784445  0.623495  1
  Pd  Pd8  1  0.500000  0.315805  0.897065  1
  Pd  Pd9  1  0.500000  0.684195  0.102935  1
  Pd  Pd10  1  0.000000  0.434436  0.234735  1
  Pd  Pd11  1  0.000000  0.565564  0.765265  1
  Pd  Pd12  1  0.000000  0.070570  0.750898  1
  Pd  Pd13  1  0.000000  0.929430  0.249102  1
  Pd  Pd14  1  0.000000  0.000000  0.000000  1
  Pd  Pd15  1  0.000000  0.500000  0.500000  1
