# generated using pymatgen
data_Tb4Al6ReRh
_symmetry_space_group_name_H-M   'P 1'
_cell_length_a   5.53317600
_cell_length_b   5.53317602
_cell_length_c   8.85081700
_cell_angle_alpha   90.00000000
_cell_angle_beta   90.00000000
_cell_angle_gamma   119.99999989
_symmetry_Int_Tables_number   1
_chemical_formula_structural   Tb4Al6ReRh
_chemical_formula_sum   'Tb4 Al6 Re1 Rh1'
_cell_volume   234.67291282
_cell_formula_units_Z   1
loop_
 _symmetry_equiv_pos_site_id
 _symmetry_equiv_pos_as_xyz
  1  'x, y, z'
loop_
 _atom_site_type_symbol
 _atom_site_label
 _atom_site_symmetry_multiplicity
 _atom_site_fract_x
 _atom_site_fract_y
 _atom_site_fract_z
 _atom_site_occupancy
  Tb  Tb0  1  0.666665  0.333333  0.051052  1
  Tb  Tb1  1  0.666665  0.333333  0.445929  1
  Tb  Tb2  1  0.333334  0.666667  0.554071  1
  Tb  Tb3  1  0.333334  0.666667  0.948949  1
  Al  Al4  1  0.162213  0.324426  0.248434  1
  Al  Al5  1  0.162213  0.837787  0.248434  1
  Al  Al6  1  0.675574  0.837787  0.248434  1
  Al  Al7  1  0.324425  0.162213  0.751566  1
  Al  Al8  1  0.837788  0.162213  0.751566  1
  Al  Al9  1  0.837786  0.675574  0.751566  1
  Re  Re10  1  0.000000  0.000000  0.500000  1
  Rh  Rh11  1  0.000000  0.000000  0.000000  1
