# generated using pymatgen
data_La4Y2TcI10
_symmetry_space_group_name_H-M   'P 1'
_cell_length_a   8.03452670
_cell_length_b   10.01306598
_cell_length_c   10.05416044
_cell_angle_alpha   107.59508909
_cell_angle_beta   95.44428622
_cell_angle_gamma   104.48520904
_symmetry_Int_Tables_number   1
_chemical_formula_structural   La4Y2TcI10
_chemical_formula_sum   'La4 Y2 Tc1 I10'
_cell_volume   733.66173680
_cell_formula_units_Z   1
loop_
 _symmetry_equiv_pos_site_id
 _symmetry_equiv_pos_as_xyz
  1  'x, y, z'
loop_
 _atom_site_type_symbol
 _atom_site_label
 _atom_site_symmetry_multiplicity
 _atom_site_fract_x
 _atom_site_fract_y
 _atom_site_fract_z
 _atom_site_occupancy
  La  La0  1  0.117965  0.042073  0.758834  1
  La  La1  1  0.882035  0.957927  0.241166  1
  La  La2  1  0.968521  0.275315  0.083962  1
  La  La3  1  0.031479  0.724685  0.916038  1
  Y  Y4  1  0.356547  0.127829  0.169083  1
  Y  Y5  1  0.643453  0.872171  0.830917  1
  Tc  Tc6  1  0.000000  0.000000  0.000000  1
  I  I7  1  0.355586  0.441683  0.269363  1
  I  I8  1  0.644414  0.558317  0.730637  1
  I  I9  1  0.263765  0.087432  0.451143  1
  I  I10  1  0.736235  0.912568  0.548857  1
  I  I11  1  0.087076  0.370132  0.817096  1
  I  I12  1  0.912924  0.629868  0.182904  1
  I  I13  1  0.453396  0.823509  0.086987  1
  I  I14  1  0.546604  0.176491  0.913013  1
  I  I15  1  0.761455  0.254305  0.345922  1
  I  I16  1  0.238545  0.745695  0.654078  1
