# generated using pymatgen
data_KZnGaF6
_symmetry_space_group_name_H-M   'P 1'
_cell_length_a   9.98649600
_cell_length_b   6.99350654
_cell_length_c   7.40940948
_cell_angle_alpha   89.73173385
_cell_angle_beta   90.00000000
_cell_angle_gamma   90.00000000
_symmetry_Int_Tables_number   1
_chemical_formula_structural   KZnGaF6
_chemical_formula_sum   'K4 Zn4 Ga4 F24'
_cell_volume   517.47211713
_cell_formula_units_Z   4
loop_
 _symmetry_equiv_pos_site_id
 _symmetry_equiv_pos_as_xyz
  1  'x, y, z'
loop_
 _atom_site_type_symbol
 _atom_site_label
 _atom_site_symmetry_multiplicity
 _atom_site_fract_x
 _atom_site_fract_y
 _atom_site_fract_z
 _atom_site_occupancy
  K  K0  1  0.114587  0.494937  0.240534  1
  K  K1  1  0.885413  0.505063  0.759466  1
  K  K2  1  0.614587  0.005063  0.759466  1
  K  K3  1  0.385413  0.994937  0.240534  1
  Zn  Zn4  1  0.728436  0.189356  0.252114  1
  Zn  Zn5  1  0.228436  0.310644  0.747886  1
  Zn  Zn6  1  0.271564  0.810644  0.747886  1
  Zn  Zn7  1  0.771564  0.689356  0.252114  1
  Ga  Ga8  1  0.000000  0.000000  0.500000  1
  Ga  Ga9  1  0.500000  0.500000  0.000000  1
  Ga  Ga10  1  0.000000  0.000000  0.000000  1
  Ga  Ga11  1  0.500000  0.500000  0.500000  1
  F  F12  1  0.929387  0.756396  0.431897  1
  F  F13  1  0.975786  0.918555  0.750091  1
  F  F14  1  0.824827  0.107741  0.500257  1
  F  F15  1  0.172778  0.886703  0.002025  1
  F  F16  1  0.827222  0.113297  0.997975  1
  F  F17  1  0.338011  0.078143  0.752824  1
  F  F18  1  0.475786  0.581445  0.249909  1
  F  F19  1  0.524214  0.418555  0.750091  1
  F  F20  1  0.570613  0.256396  0.431897  1
  F  F21  1  0.070613  0.243604  0.568103  1
  F  F22  1  0.327222  0.386703  0.002025  1
  F  F23  1  0.324827  0.392259  0.499743  1
  F  F24  1  0.161989  0.578143  0.752824  1
  F  F25  1  0.672778  0.613297  0.997975  1
  F  F26  1  0.425437  0.742668  0.933653  1
  F  F27  1  0.024214  0.081445  0.249909  1
  F  F28  1  0.175173  0.892259  0.499743  1
  F  F29  1  0.675173  0.607741  0.500257  1
  F  F30  1  0.838011  0.421857  0.247176  1
  F  F31  1  0.074563  0.242668  0.933653  1
  F  F32  1  0.661989  0.921857  0.247176  1
  F  F33  1  0.574563  0.257332  0.066347  1
  F  F34  1  0.925437  0.757332  0.066347  1
  F  F35  1  0.429387  0.743604  0.568103  1
