# generated using pymatgen
data_Zr6Al6Ga2FePt3
_symmetry_space_group_name_H-M   'P 1'
_cell_length_a   6.77260400
_cell_length_b   6.77260340
_cell_length_c   8.05370100
_cell_angle_alpha   90.00000000
_cell_angle_beta   90.00000000
_cell_angle_gamma   120.00000161
_symmetry_Int_Tables_number   1
_chemical_formula_structural   Zr6Al6Ga2FePt3
_chemical_formula_sum   'Zr6 Al6 Ga2 Fe1 Pt3'
_cell_volume   319.91709964
_cell_formula_units_Z   1
loop_
 _symmetry_equiv_pos_site_id
 _symmetry_equiv_pos_as_xyz
  1  'x, y, z'
loop_
 _atom_site_type_symbol
 _atom_site_label
 _atom_site_symmetry_multiplicity
 _atom_site_fract_x
 _atom_site_fract_y
 _atom_site_fract_z
 _atom_site_occupancy
  Zr  Zr0  1  0.013134  0.587316  0.739289  1
  Zr  Zr1  1  0.013193  0.587290  0.260713  1
  Zr  Zr2  1  0.574097  0.986807  0.260713  1
  Zr  Zr3  1  0.574182  0.986866  0.739289  1
  Zr  Zr4  1  0.412710  0.425903  0.260713  1
  Zr  Zr5  1  0.412684  0.425818  0.739289  1
  Al  Al6  1  0.016373  0.254921  0.500006  1
  Al  Al7  1  0.749112  0.757432  0.999995  1
  Al  Al8  1  0.008319  0.250888  0.999995  1
  Al  Al9  1  0.238549  0.983627  0.500006  1
  Al  Al10  1  0.242568  0.991681  0.999995  1
  Al  Al11  1  0.745079  0.761451  0.500006  1
  Ga  Ga12  1  0.666667  0.333333  0.499956  1
  Ga  Ga13  1  0.666667  0.333333  0.000068  1
  Fe  Fe14  1  0.333333  0.666667  0.500010  1
  Pt  Pt15  1  0.000000  0.000000  0.249644  1
  Pt  Pt16  1  0.000000  0.000000  0.750349  1
  Pt  Pt17  1  0.333333  0.666667  0.999962  1
