# generated using pymatgen
data_Er3Al12CoRu3
_symmetry_space_group_name_H-M   'P 1'
_cell_length_a   8.70022600
_cell_length_b   8.70022710
_cell_length_c   9.48380200
_cell_angle_alpha   90.00000000
_cell_angle_beta   90.00000000
_cell_angle_gamma   119.99999583
_symmetry_Int_Tables_number   1
_chemical_formula_structural   Er3Al12CoRu3
_chemical_formula_sum   'Er6 Al24 Co2 Ru6'
_cell_volume   621.69052898
_cell_formula_units_Z   2
loop_
 _symmetry_equiv_pos_site_id
 _symmetry_equiv_pos_as_xyz
  1  'x, y, z'
loop_
 _atom_site_type_symbol
 _atom_site_label
 _atom_site_symmetry_multiplicity
 _atom_site_fract_x
 _atom_site_fract_y
 _atom_site_fract_z
 _atom_site_occupancy
  Er  Er0  1  0.194045  0.388091  0.250000  1
  Er  Er1  1  0.805955  0.611909  0.750000  1
  Er  Er2  1  0.611909  0.805955  0.250000  1
  Er  Er3  1  0.388091  0.194045  0.750000  1
  Er  Er4  1  0.194045  0.805955  0.250000  1
  Er  Er5  1  0.805955  0.194045  0.750000  1
  Al  Al6  1  0.333333  0.666667  0.016655  1
  Al  Al7  1  0.666667  0.333333  0.983345  1
  Al  Al8  1  0.666667  0.333333  0.516655  1
  Al  Al9  1  0.333333  0.666667  0.483345  1
  Al  Al10  1  0.159726  0.319451  0.576901  1
  Al  Al11  1  0.840274  0.680549  0.423099  1
  Al  Al12  1  0.680549  0.840274  0.576901  1
  Al  Al13  1  0.840274  0.680549  0.076901  1
  Al  Al14  1  0.319451  0.159726  0.423099  1
  Al  Al15  1  0.159726  0.319451  0.923099  1
  Al  Al16  1  0.159726  0.840274  0.576901  1
  Al  Al17  1  0.319451  0.159726  0.076901  1
  Al  Al18  1  0.840274  0.159726  0.423099  1
  Al  Al19  1  0.680549  0.840274  0.923099  1
  Al  Al20  1  0.840274  0.159726  0.076901  1
  Al  Al21  1  0.159726  0.840274  0.923099  1
  Al  Al22  1  0.561058  0.122117  0.250000  1
  Al  Al23  1  0.438942  0.877883  0.750000  1
  Al  Al24  1  0.877883  0.438942  0.250000  1
  Al  Al25  1  0.122117  0.561058  0.750000  1
  Al  Al26  1  0.561058  0.438942  0.250000  1
  Al  Al27  1  0.438942  0.561058  0.750000  1
  Al  Al28  1  0.000000  0.000000  0.250000  1
  Al  Al29  1  0.000000  0.000000  0.750000  1
  Co  Co30  1  0.000000  0.000000  0.000000  1
  Co  Co31  1  0.000000  0.000000  0.500000  1
  Ru  Ru32  1  0.500000  0.000000  0.000000  1
  Ru  Ru33  1  0.000000  0.500000  0.000000  1
  Ru  Ru34  1  0.500000  0.000000  0.500000  1
  Ru  Ru35  1  0.500000  0.500000  0.000000  1
  Ru  Ru36  1  0.000000  0.500000  0.500000  1
  Ru  Ru37  1  0.500000  0.500000  0.500000  1
