# generated using pymatgen
data_Nd16MgCo2Hg3Ir2
_symmetry_space_group_name_H-M   'P 1'
_cell_length_a   9.84531538
_cell_length_b   9.79982266
_cell_length_c   9.84530199
_cell_angle_alpha   60.28682812
_cell_angle_beta   60.51521734
_cell_angle_gamma   60.28690813
_symmetry_Int_Tables_number   1
_chemical_formula_structural   Nd16MgCo2Hg3Ir2
_chemical_formula_sum   'Nd16 Mg1 Co2 Hg3 Ir2'
_cell_volume   677.18705675
_cell_formula_units_Z   1
loop_
 _symmetry_equiv_pos_site_id
 _symmetry_equiv_pos_as_xyz
  1  'x, y, z'
loop_
 _atom_site_type_symbol
 _atom_site_label
 _atom_site_symmetry_multiplicity
 _atom_site_fract_x
 _atom_site_fract_y
 _atom_site_fract_z
 _atom_site_occupancy
  Nd  Nd0  1  0.655446  0.042548  0.655444  1
  Nd  Nd1  1  0.807836  0.191790  0.807836  1
  Nd  Nd2  1  0.185796  0.810228  0.806393  1
  Nd  Nd3  1  0.061944  0.440854  0.435788  1
  Nd  Nd4  1  0.060831  0.059812  0.437411  1
  Nd  Nd5  1  0.439728  0.060800  0.439729  1
  Nd  Nd6  1  0.810655  0.193959  0.183508  1
  Nd  Nd7  1  0.437412  0.059812  0.060831  1
  Nd  Nd8  1  0.188715  0.812389  0.188718  1
  Nd  Nd9  1  0.435787  0.440855  0.061944  1
  Nd  Nd10  1  0.806393  0.810227  0.185797  1
  Nd  Nd11  1  0.183506  0.193960  0.810654  1
  Nd  Nd12  1  0.040106  0.649377  0.659246  1
  Nd  Nd13  1  0.653430  0.644454  0.653428  1
  Nd  Nd14  1  0.062696  0.437029  0.062697  1
  Nd  Nd15  1  0.659247  0.649377  0.040107  1
  Mg  Mg16  1  0.430090  0.431514  0.430091  1
  Co  Co17  1  0.859729  0.856266  0.859728  1
  Co  Co18  1  0.858436  0.421136  0.858435  1
  Hg  Hg19  1  0.412663  0.413767  0.754435  1
  Hg  Hg20  1  0.754435  0.413767  0.412663  1
  Hg  Hg21  1  0.413808  0.753118  0.413808  1
  Ir  Ir22  1  0.857600  0.856479  0.423712  1
  Ir  Ir23  1  0.423712  0.856479  0.857599  1
