# generated using pymatgen
data_NdSm(ZnCu)5
_symmetry_space_group_name_H-M   'P 1'
_cell_length_a   4.22519900
_cell_length_b   5.20628000
_cell_length_c   8.98790800
_cell_angle_alpha   90.00000000
_cell_angle_beta   90.00000000
_cell_angle_gamma   90.00000000
_symmetry_Int_Tables_number   1
_chemical_formula_structural   NdSm(ZnCu)5
_chemical_formula_sum   'Nd1 Sm1 Zn5 Cu5'
_cell_volume   197.71212684
_cell_formula_units_Z   1
loop_
 _symmetry_equiv_pos_site_id
 _symmetry_equiv_pos_as_xyz
  1  'x, y, z'
loop_
 _atom_site_type_symbol
 _atom_site_label
 _atom_site_symmetry_multiplicity
 _atom_site_fract_x
 _atom_site_fract_y
 _atom_site_fract_z
 _atom_site_occupancy
  Nd  Nd0  1  0.000000  0.000000  0.500000  1
  Sm  Sm1  1  0.000000  0.500000  0.000000  1
  Zn  Zn2  1  0.500000  0.500000  0.500000  1
  Zn  Zn3  1  0.500000  0.748414  0.243265  1
  Zn  Zn4  1  0.500000  0.251586  0.756735  1
  Zn  Zn5  1  0.500000  0.251586  0.243265  1
  Zn  Zn6  1  0.500000  0.748414  0.756735  1
  Cu  Cu7  1  0.000000  0.500000  0.331860  1
  Cu  Cu8  1  0.000000  0.000000  0.839269  1
  Cu  Cu9  1  0.000000  0.000000  0.160731  1
  Cu  Cu10  1  0.000000  0.500000  0.668140  1
  Cu  Cu11  1  0.500000  0.000000  0.000000  1
