# generated using pymatgen
data_HfZr5Ti6In2Ga8Rh7
_symmetry_space_group_name_H-M   'P 1'
_cell_length_a   8.93406398
_cell_length_b   8.90170398
_cell_length_c   8.90170550
_cell_angle_alpha   59.59642649
_cell_angle_beta   59.87967467
_cell_angle_gamma   59.87967678
_symmetry_Int_Tables_number   1
_chemical_formula_structural   HfZr5Ti6In2Ga8Rh7
_chemical_formula_sum   'Hf1 Zr5 Ti6 In2 Ga8 Rh7'
_cell_volume   498.13935328
_cell_formula_units_Z   1
loop_
 _symmetry_equiv_pos_site_id
 _symmetry_equiv_pos_as_xyz
  1  'x, y, z'
loop_
 _atom_site_type_symbol
 _atom_site_label
 _atom_site_symmetry_multiplicity
 _atom_site_fract_x
 _atom_site_fract_y
 _atom_site_fract_z
 _atom_site_occupancy
  Hf  Hf0  1  0.307277  0.692723  0.692723  1
  Zr  Zr1  1  0.687190  0.691678  0.311735  1
  Zr  Zr2  1  0.309398  0.691678  0.311735  1
  Zr  Zr3  1  0.690542  0.309458  0.309458  1
  Zr  Zr4  1  0.309398  0.311735  0.691678  1
  Zr  Zr5  1  0.687190  0.311735  0.691678  1
  Ti  Ti6  1  0.877274  0.874236  0.371217  1
  Ti  Ti7  1  0.877274  0.371217  0.874236  1
  Ti  Ti8  1  0.372762  0.876199  0.876199  1
  Ti  Ti9  1  0.874841  0.876199  0.876199  1
  Ti  Ti10  1  0.123576  0.124526  0.628321  1
  Ti  Ti11  1  0.123576  0.628321  0.124526  1
  In  In12  1  0.649064  0.118401  0.118401  1
  In  In13  1  0.114135  0.118401  0.118401  1
  Ga  Ga14  1  0.659855  0.657038  0.023252  1
  Ga  Ga15  1  0.659855  0.023252  0.657038  1
  Ga  Ga16  1  0.024813  0.658354  0.658354  1
  Ga  Ga17  1  0.658478  0.658354  0.658354  1
  Ga  Ga18  1  0.340188  0.343956  0.975669  1
  Ga  Ga19  1  0.340188  0.975669  0.343956  1
  Ga  Ga20  1  0.972155  0.343848  0.343848  1
  Ga  Ga21  1  0.340150  0.343848  0.343848  1
  Rh  Rh22  1  0.022328  0.977672  0.977672  1
  Rh  Rh23  1  0.997691  0.998630  0.512931  1
  Rh  Rh24  1  0.490748  0.998630  0.512931  1
  Rh  Rh25  1  0.998228  0.501772  0.501772  1
  Rh  Rh26  1  0.490748  0.512931  0.998630  1
  Rh  Rh27  1  0.997691  0.512931  0.998630  1
  Rh  Rh28  1  0.503392  0.996608  0.996608  1
