# generated using pymatgen
data_Dy16MgTl(InIr2)2
_symmetry_space_group_name_H-M   'P 1'
_cell_length_a   9.68671482
_cell_length_b   9.68671444
_cell_length_c   9.67742030
_cell_angle_alpha   60.05311194
_cell_angle_beta   60.05310842
_cell_angle_gamma   60.03633676
_symmetry_Int_Tables_number   1
_chemical_formula_structural   Dy16MgTl(InIr2)2
_chemical_formula_sum   'Dy16 Mg1 Tl1 In2 Ir4'
_cell_volume   642.78405978
_cell_formula_units_Z   1
loop_
 _symmetry_equiv_pos_site_id
 _symmetry_equiv_pos_as_xyz
  1  'x, y, z'
loop_
 _atom_site_type_symbol
 _atom_site_label
 _atom_site_symmetry_multiplicity
 _atom_site_fract_x
 _atom_site_fract_y
 _atom_site_fract_z
 _atom_site_occupancy
  Dy  Dy0  1  0.598503  0.598503  0.598930  1
  Dy  Dy1  1  0.598072  0.598072  0.205919  1
  Dy  Dy2  1  0.598693  0.205186  0.598351  1
  Dy  Dy3  1  0.205186  0.598693  0.598351  1
  Dy  Dy4  1  0.058955  0.440239  0.442040  1
  Dy  Dy5  1  0.439317  0.060799  0.061273  1
  Dy  Dy6  1  0.440239  0.058955  0.442040  1
  Dy  Dy7  1  0.060799  0.439317  0.061273  1
  Dy  Dy8  1  0.441154  0.441154  0.059175  1
  Dy  Dy9  1  0.061693  0.061693  0.439761  1
  Dy  Dy10  1  0.187739  0.812730  0.812280  1
  Dy  Dy11  1  0.809278  0.190408  0.189639  1
  Dy  Dy12  1  0.812730  0.187739  0.812280  1
  Dy  Dy13  1  0.190408  0.809278  0.189639  1
  Dy  Dy14  1  0.812386  0.812386  0.187024  1
  Dy  Dy15  1  0.189691  0.189691  0.809966  1
  Mg  Mg16  1  0.826756  0.826756  0.826999  1
  Tl  Tl17  1  0.834889  0.834889  0.496777  1
  In  In18  1  0.832836  0.499928  0.833988  1
  In  In19  1  0.499928  0.832836  0.833988  1
  Ir  Ir20  1  0.391611  0.391611  0.391618  1
  Ir  Ir21  1  0.391191  0.391191  0.826188  1
  Ir  Ir22  1  0.391356  0.826591  0.391252  1
  Ir  Ir23  1  0.826591  0.391356  0.391252  1
