# generated using pymatgen
data_LaNd3(ZnSi3)2
_symmetry_space_group_name_H-M   'P 1'
_cell_length_a   4.24134100
_cell_length_b   4.23196200
_cell_length_c   14.08679400
_cell_angle_alpha   90.00000000
_cell_angle_beta   90.00000000
_cell_angle_gamma   90.00000000
_symmetry_Int_Tables_number   1
_chemical_formula_structural   LaNd3(ZnSi3)2
_chemical_formula_sum   'La1 Nd3 Zn2 Si6'
_cell_volume   252.84659751
_cell_formula_units_Z   1
loop_
 _symmetry_equiv_pos_site_id
 _symmetry_equiv_pos_as_xyz
  1  'x, y, z'
loop_
 _atom_site_type_symbol
 _atom_site_label
 _atom_site_symmetry_multiplicity
 _atom_site_fract_x
 _atom_site_fract_y
 _atom_site_fract_z
 _atom_site_occupancy
  La  La0  1  0.500000  0.500000  0.004324  1
  Nd  Nd1  1  0.000000  0.000000  0.503955  1
  Nd  Nd2  1  0.500000  0.000000  0.745149  1
  Nd  Nd3  1  0.000000  0.500000  0.248469  1
  Zn  Zn4  1  0.000000  0.000000  0.914248  1
  Zn  Zn5  1  0.500000  0.500000  0.415992  1
  Si  Si6  1  0.000000  0.500000  0.831093  1
  Si  Si7  1  0.500000  0.000000  0.334370  1
  Si  Si8  1  0.000000  0.000000  0.086126  1
  Si  Si9  1  0.500000  0.500000  0.584217  1
  Si  Si10  1  0.500000  0.000000  0.167561  1
  Si  Si11  1  0.000000  0.500000  0.664494  1
