# generated using pymatgen
data_Zr6Sc8Al8Ir4Ru3
_symmetry_space_group_name_H-M   'P 1'
_cell_length_a   9.06837684
_cell_length_b   9.09217656
_cell_length_c   9.07132916
_cell_angle_alpha   59.90245328
_cell_angle_beta   60.16289845
_cell_angle_gamma   60.08392500
_symmetry_Int_Tables_number   1
_chemical_formula_structural   Zr6Sc8Al8Ir4Ru3
_chemical_formula_sum   'Zr6 Sc8 Al8 Ir4 Ru3'
_cell_volume   529.46610627
_cell_formula_units_Z   1
loop_
 _symmetry_equiv_pos_site_id
 _symmetry_equiv_pos_as_xyz
  1  'x, y, z'
loop_
 _atom_site_type_symbol
 _atom_site_label
 _atom_site_symmetry_multiplicity
 _atom_site_fract_x
 _atom_site_fract_y
 _atom_site_fract_z
 _atom_site_occupancy
  Zr  Zr0  1  0.676506  0.676506  0.323494  1
  Zr  Zr1  1  0.326287  0.673713  0.326460  1
  Zr  Zr2  1  0.678961  0.321039  0.321154  1
  Zr  Zr3  1  0.323494  0.323494  0.676506  1
  Zr  Zr4  1  0.673713  0.326287  0.673540  1
  Zr  Zr5  1  0.321039  0.678961  0.678846  1
  Sc  Sc6  1  0.879066  0.874826  0.371874  1
  Sc  Sc7  1  0.878745  0.369431  0.873658  1
  Sc  Sc8  1  0.369431  0.878745  0.878167  1
  Sc  Sc9  1  0.874826  0.879066  0.874236  1
  Sc  Sc10  1  0.120934  0.125174  0.628126  1
  Sc  Sc11  1  0.121255  0.630569  0.126342  1
  Sc  Sc12  1  0.630569  0.121255  0.121833  1
  Sc  Sc13  1  0.125174  0.120934  0.125764  1
  Al  Al14  1  0.662387  0.661230  0.014810  1
  Al  Al15  1  0.661729  0.014595  0.661198  1
  Al  Al16  1  0.014595  0.661729  0.662477  1
  Al  Al17  1  0.661230  0.662387  0.661572  1
  Al  Al18  1  0.337613  0.338770  0.985190  1
  Al  Al19  1  0.338271  0.985405  0.338802  1
  Al  Al20  1  0.985405  0.338271  0.337523  1
  Al  Al21  1  0.338770  0.337613  0.338428  1
  Ir  Ir22  1  0.000000  0.000000  0.000000  1
  Ir  Ir23  1  0.500000  0.000000  0.500000  1
  Ir  Ir24  1  0.500000  0.500000  0.000000  1
  Ir  Ir25  1  0.000000  0.500000  0.000000  1
  Ru  Ru26  1  0.000000  0.000000  0.500000  1
  Ru  Ru27  1  0.000000  0.500000  0.500000  1
  Ru  Ru28  1  0.500000  0.000000  0.000000  1
