# generated using pymatgen
data_Y3Lu2Pa(Al3Os)8
_symmetry_space_group_name_H-M   'P 1'
_cell_length_a   8.82023800
_cell_length_b   8.82648906
_cell_length_c   9.53159000
_cell_angle_alpha   90.00000000
_cell_angle_beta   90.00000000
_cell_angle_gamma   119.97656769
_symmetry_Int_Tables_number   1
_chemical_formula_structural   Y3Lu2Pa(Al3Os)8
_chemical_formula_sum   'Y3 Lu2 Pa1 Al24 Os8'
_cell_volume   642.78653822
_cell_formula_units_Z   1
loop_
 _symmetry_equiv_pos_site_id
 _symmetry_equiv_pos_as_xyz
  1  'x, y, z'
loop_
 _atom_site_type_symbol
 _atom_site_label
 _atom_site_symmetry_multiplicity
 _atom_site_fract_x
 _atom_site_fract_y
 _atom_site_fract_z
 _atom_site_occupancy
  Y  Y0  1  0.809891  0.619782  0.750000  1
  Y  Y1  1  0.387635  0.192257  0.750000  1
  Y  Y2  1  0.804622  0.192257  0.750000  1
  Lu  Lu3  1  0.602607  0.795317  0.250000  1
  Lu  Lu4  1  0.192710  0.795317  0.250000  1
  Pa  Pa5  1  0.197013  0.394027  0.250000  1
  Al  Al6  1  0.336571  0.673143  0.018695  1
  Al  Al7  1  0.668522  0.337044  0.984700  1
  Al  Al8  1  0.668522  0.337044  0.515300  1
  Al  Al9  1  0.336571  0.673143  0.481305  1
  Al  Al10  1  0.163236  0.326473  0.576274  1
  Al  Al11  1  0.837681  0.675363  0.422300  1
  Al  Al12  1  0.674012  0.836497  0.573340  1
  Al  Al13  1  0.837681  0.675363  0.077700  1
  Al  Al14  1  0.325165  0.160965  0.421161  1
  Al  Al15  1  0.163236  0.326473  0.923726  1
  Al  Al16  1  0.162485  0.836497  0.573340  1
  Al  Al17  1  0.325165  0.160965  0.078839  1
  Al  Al18  1  0.835800  0.160965  0.421161  1
  Al  Al19  1  0.674012  0.836497  0.926660  1
  Al  Al20  1  0.835800  0.160965  0.078839  1
  Al  Al21  1  0.162485  0.836497  0.926660  1
  Al  Al22  1  0.557944  0.115888  0.250000  1
  Al  Al23  1  0.438103  0.876206  0.750000  1
  Al  Al24  1  0.872807  0.436739  0.250000  1
  Al  Al25  1  0.119181  0.559528  0.750000  1
  Al  Al26  1  0.563933  0.436739  0.250000  1
  Al  Al27  1  0.440347  0.559528  0.750000  1
  Al  Al28  1  0.997956  0.995912  0.250000  1
  Al  Al29  1  0.002282  0.004563  0.750000  1
  Os  Os30  1  0.501774  0.003550  0.997943  1
  Os  Os31  1  0.004166  0.501330  0.005538  1
  Os  Os32  1  0.501774  0.003550  0.502057  1
  Os  Os33  1  0.497164  0.501330  0.005538  1
  Os  Os34  1  0.004166  0.501330  0.494462  1
  Os  Os35  1  0.497164  0.501330  0.494462  1
  Os  Os36  1  0.999907  0.999814  0.999379  1
  Os  Os37  1  0.999907  0.999814  0.500621  1
