# generated using pymatgen
data_Dy5BRh7Au8
_symmetry_space_group_name_H-M   'P 1'
_cell_length_a   4.16130500
_cell_length_b   4.16130500
_cell_length_c   21.46770800
_cell_angle_alpha   90.00000000
_cell_angle_beta   90.00000000
_cell_angle_gamma   90.00000000
_symmetry_Int_Tables_number   1
_chemical_formula_structural   Dy5BRh7Au8
_chemical_formula_sum   'Dy5 B1 Rh7 Au8'
_cell_volume   371.74469191
_cell_formula_units_Z   1
loop_
 _symmetry_equiv_pos_site_id
 _symmetry_equiv_pos_as_xyz
  1  'x, y, z'
loop_
 _atom_site_type_symbol
 _atom_site_label
 _atom_site_symmetry_multiplicity
 _atom_site_fract_x
 _atom_site_fract_y
 _atom_site_fract_z
 _atom_site_occupancy
  Dy  Dy0  1  0.000000  0.000000  0.906910  1
  Dy  Dy1  1  0.000000  0.000000  0.093090  1
  Dy  Dy2  1  0.000000  0.000000  0.297573  1
  Dy  Dy3  1  0.000000  0.000000  0.500000  1
  Dy  Dy4  1  0.000000  0.000000  0.702427  1
  B  B5  1  0.500000  0.500000  0.000000  1
  Rh  Rh6  1  0.500000  0.500000  0.899831  1
  Rh  Rh7  1  0.500000  0.500000  0.100169  1
  Rh  Rh8  1  0.500000  0.500000  0.299159  1
  Rh  Rh9  1  0.500000  0.500000  0.500000  1
  Rh  Rh10  1  0.500000  0.500000  0.700841  1
  Rh  Rh11  1  0.500000  0.000000  0.000000  1
  Rh  Rh12  1  0.000000  0.500000  0.000000  1
  Au  Au13  1  0.500000  0.000000  0.197921  1
  Au  Au14  1  0.500000  0.000000  0.399268  1
  Au  Au15  1  0.500000  0.000000  0.600732  1
  Au  Au16  1  0.500000  0.000000  0.802079  1
  Au  Au17  1  0.000000  0.500000  0.197921  1
  Au  Au18  1  0.000000  0.500000  0.399268  1
  Au  Au19  1  0.000000  0.500000  0.600732  1
  Au  Au20  1  0.000000  0.500000  0.802079  1
