# generated using pymatgen
data_Rb2CdH12Ir2Pb
_symmetry_space_group_name_H-M   'P 1'
_cell_length_a   7.82531100
_cell_length_b   7.82531100
_cell_length_c   7.81696100
_cell_angle_alpha   90.00000000
_cell_angle_beta   90.00000000
_cell_angle_gamma   90.00000000
_symmetry_Int_Tables_number   1
_chemical_formula_structural   Rb2CdH12Ir2Pb
_chemical_formula_sum   'Rb4 Cd2 H24 Ir4 Pb2'
_cell_volume   478.67545471
_cell_formula_units_Z   2
loop_
 _symmetry_equiv_pos_site_id
 _symmetry_equiv_pos_as_xyz
  1  'x, y, z'
loop_
 _atom_site_type_symbol
 _atom_site_label
 _atom_site_symmetry_multiplicity
 _atom_site_fract_x
 _atom_site_fract_y
 _atom_site_fract_z
 _atom_site_occupancy
  Rb  Rb0  1  0.000000  0.000000  0.500000  1
  Rb  Rb1  1  0.000000  0.500000  0.000000  1
  Rb  Rb2  1  0.500000  0.000000  0.000000  1
  Rb  Rb3  1  0.000000  0.000000  0.000000  1
  Cd  Cd4  1  0.500000  0.500000  0.500000  1
  Cd  Cd5  1  0.500000  0.500000  0.000000  1
  H  H6  1  0.728340  0.728340  0.487606  1
  H  H7  1  0.271660  0.271660  0.487606  1
  H  H8  1  0.070679  0.725536  0.738454  1
  H  H9  1  0.274464  0.929321  0.738454  1
  H  H10  1  0.725536  0.070679  0.738454  1
  H  H11  1  0.929321  0.274464  0.738454  1
  H  H12  1  0.723771  0.499651  0.731555  1
  H  H13  1  0.499651  0.723771  0.731555  1
  H  H14  1  0.500349  0.276229  0.731555  1
  H  H15  1  0.276229  0.500349  0.731555  1
  H  H16  1  0.284109  0.715891  0.942354  1
  H  H17  1  0.715891  0.284109  0.942354  1
  H  H18  1  0.715891  0.715891  0.057646  1
  H  H19  1  0.284109  0.284109  0.057646  1
  H  H20  1  0.276229  0.499651  0.268445  1
  H  H21  1  0.500349  0.723771  0.268445  1
  H  H22  1  0.499651  0.276229  0.268445  1
  H  H23  1  0.723771  0.500349  0.268445  1
  H  H24  1  0.929321  0.725536  0.261546  1
  H  H25  1  0.725536  0.929321  0.261546  1
  H  H26  1  0.274464  0.070679  0.261546  1
  H  H27  1  0.070679  0.274464  0.261546  1
  H  H28  1  0.271660  0.728340  0.512394  1
  H  H29  1  0.728340  0.271660  0.512394  1
  Ir  Ir30  1  0.286481  0.713519  0.726341  1
  Ir  Ir31  1  0.713519  0.286481  0.726341  1
  Ir  Ir32  1  0.713519  0.713519  0.273659  1
  Ir  Ir33  1  0.286481  0.286481  0.273659  1
  Pb  Pb34  1  0.000000  0.500000  0.500000  1
  Pb  Pb35  1  0.500000  0.000000  0.500000  1
