# generated using pymatgen
data_K4Rb6Ba2Ta2As3P5
_symmetry_space_group_name_H-M   'P 1'
_cell_length_a   10.53329905
_cell_length_b   10.53329944
_cell_length_c   7.98845100
_cell_angle_alpha   89.07016536
_cell_angle_beta   89.07016533
_cell_angle_gamma   120.35981921
_symmetry_Int_Tables_number   1
_chemical_formula_structural   K4Rb6Ba2Ta2As3P5
_chemical_formula_sum   'K4 Rb6 Ba2 Ta2 As3 P5'
_cell_volume   764.37165942
_cell_formula_units_Z   1
loop_
 _symmetry_equiv_pos_site_id
 _symmetry_equiv_pos_as_xyz
  1  'x, y, z'
loop_
 _atom_site_type_symbol
 _atom_site_label
 _atom_site_symmetry_multiplicity
 _atom_site_fract_x
 _atom_site_fract_y
 _atom_site_fract_z
 _atom_site_occupancy
  K  K0  1  0.465803  0.526717  0.503845  1
  K  K1  1  0.058377  0.527420  0.503161  1
  K  K2  1  0.525645  0.467038  0.002953  1
  K  K3  1  0.524828  0.056256  0.001072  1
  Rb  Rb4  1  0.866980  0.138340  0.685716  1
  Rb  Rb5  1  0.290778  0.152454  0.713861  1
  Rb  Rb6  1  0.856060  0.720457  0.661962  1
  Rb  Rb7  1  0.139259  0.866711  0.179708  1
  Rb  Rb8  1  0.718720  0.852427  0.160550  1
  Rb  Rb9  1  0.156413  0.292736  0.212391  1
  Ba  Ba10  1  0.464473  0.936328  0.496730  1
  Ba  Ba11  1  0.940055  0.469845  0.993578  1
  Ta  Ta12  1  0.666119  0.334054  0.387070  1
  Ta  Ta13  1  0.332461  0.667790  0.885842  1
  As  As14  1  0.677409  0.336069  0.701786  1
  As  As15  1  0.334517  0.678837  0.201439  1
  As  As16  1  0.793633  0.198891  0.283548  1
  P  P17  1  0.412054  0.199889  0.311172  1
  P  P18  1  0.793482  0.581039  0.273523  1
  P  P19  1  0.203211  0.789791  0.785795  1
  P  P20  1  0.580058  0.793810  0.772802  1
  P  P21  1  0.199665  0.413101  0.810077  1
