# generated using pymatgen
data_CeNp(Si2Rh3)2
_symmetry_space_group_name_H-M   'P 1'
_cell_length_a   6.66361481
_cell_length_b   6.66361308
_cell_length_c   6.66361350
_cell_angle_alpha   130.28760235
_cell_angle_beta   114.93622738
_cell_angle_gamma   86.08743951
_symmetry_Int_Tables_number   1
_chemical_formula_structural   CeNp(Si2Rh3)2
_chemical_formula_sum   'Ce1 Np1 Si4 Rh6'
_cell_volume   195.52684714
_cell_formula_units_Z   1
loop_
 _symmetry_equiv_pos_site_id
 _symmetry_equiv_pos_as_xyz
  1  'x, y, z'
loop_
 _atom_site_type_symbol
 _atom_site_label
 _atom_site_symmetry_multiplicity
 _atom_site_fract_x
 _atom_site_fract_y
 _atom_site_fract_z
 _atom_site_occupancy
  Ce  Ce0  1  0.750000  0.038302  0.288302  1
  Np  Np1  1  0.250000  0.960027  0.710027  1
  Si  Si2  1  0.080631  0.271456  0.190825  1
  Si  Si3  1  0.923943  0.730969  0.807026  1
  Si  Si4  1  0.419369  0.610194  0.190825  1
  Si  Si5  1  0.576057  0.383083  0.807026  1
  Rh  Rh6  1  0.502272  0.502427  0.504700  1
  Rh  Rh7  1  0.997728  0.502427  0.000155  1
  Rh  Rh8  1  0.286721  0.999584  0.287692  1
  Rh  Rh9  1  0.711892  0.999584  0.712865  1
  Rh  Rh10  1  0.213279  0.500973  0.712865  1
  Rh  Rh11  1  0.788108  0.500973  0.287692  1
