# generated using pymatgen
data_Ho3TmFe16(P3Ru)4
_symmetry_space_group_name_H-M   'P 1'
_cell_length_a   3.70489800
_cell_length_b   10.34724504
_cell_length_c   11.79922503
_cell_angle_alpha   89.99114177
_cell_angle_beta   90.00000000
_cell_angle_gamma   90.00000000
_symmetry_Int_Tables_number   1
_chemical_formula_structural   Ho3TmFe16(P3Ru)4
_chemical_formula_sum   'Ho3 Tm1 Fe16 P12 Ru4'
_cell_volume   452.32903753
_cell_formula_units_Z   1
loop_
 _symmetry_equiv_pos_site_id
 _symmetry_equiv_pos_as_xyz
  1  'x, y, z'
loop_
 _atom_site_type_symbol
 _atom_site_label
 _atom_site_symmetry_multiplicity
 _atom_site_fract_x
 _atom_site_fract_y
 _atom_site_fract_z
 _atom_site_occupancy
  Ho  Ho0  1  0.250000  0.918143  0.204076  1
  Ho  Ho1  1  0.750000  0.418325  0.295919  1
  Ho  Ho2  1  0.750000  0.081944  0.796198  1
  Tm  Tm3  1  0.250000  0.581514  0.703652  1
  Fe  Fe4  1  0.250000  0.405659  0.489355  1
  Fe  Fe5  1  0.250000  0.094802  0.989195  1
  Fe  Fe6  1  0.750000  0.594642  0.511355  1
  Fe  Fe7  1  0.750000  0.905337  0.010933  1
  Fe  Fe8  1  0.250000  0.219764  0.175420  1
  Fe  Fe9  1  0.250000  0.280648  0.675355  1
  Fe  Fe10  1  0.750000  0.779914  0.824569  1
  Fe  Fe11  1  0.750000  0.719760  0.324913  1
  Fe  Fe12  1  0.250000  0.876734  0.704327  1
  Fe  Fe13  1  0.250000  0.622166  0.203878  1
  Fe  Fe14  1  0.750000  0.122496  0.295878  1
  Fe  Fe15  1  0.750000  0.378223  0.795266  1
  Fe  Fe16  1  0.250000  0.462979  0.931936  1
  Fe  Fe17  1  0.250000  0.037284  0.432762  1
  Fe  Fe18  1  0.750000  0.537320  0.066836  1
  Fe  Fe19  1  0.750000  0.962331  0.567904  1
  P  P20  1  0.250000  0.424888  0.114319  1
  P  P21  1  0.250000  0.075093  0.614849  1
  P  P22  1  0.750000  0.575242  0.884526  1
  P  P23  1  0.750000  0.924741  0.385579  1
  P  P24  1  0.250000  0.266634  0.867244  1
  P  P25  1  0.250000  0.233600  0.367407  1
  P  P26  1  0.750000  0.733197  0.132923  1
  P  P27  1  0.750000  0.765386  0.632822  1
  P  P28  1  0.250000  0.595839  0.394915  1
  P  P29  1  0.250000  0.904480  0.895526  1
  P  P30  1  0.750000  0.405043  0.605017  1
  P  P31  1  0.750000  0.095684  0.104889  1
  Ru  Ru32  1  0.250000  0.707736  0.988271  1
  Ru  Ru33  1  0.250000  0.792117  0.488543  1
  Ru  Ru34  1  0.750000  0.292378  0.011537  1
  Ru  Ru35  1  0.750000  0.207957  0.511906  1
