# generated using pymatgen
data_TmBi4Pt3F28
_symmetry_space_group_name_H-M   'P 1'
_cell_length_a   5.71234399
_cell_length_b   9.26813238
_cell_length_c   12.40812504
_cell_angle_alpha   62.17852857
_cell_angle_beta   89.87268054
_cell_angle_gamma   89.98032688
_symmetry_Int_Tables_number   1
_chemical_formula_structural   TmBi4Pt3F28
_chemical_formula_sum   'Tm1 Bi4 Pt3 F28'
_cell_volume   580.98281026
_cell_formula_units_Z   1
loop_
 _symmetry_equiv_pos_site_id
 _symmetry_equiv_pos_as_xyz
  1  'x, y, z'
loop_
 _atom_site_type_symbol
 _atom_site_label
 _atom_site_symmetry_multiplicity
 _atom_site_fract_x
 _atom_site_fract_y
 _atom_site_fract_z
 _atom_site_occupancy
  Tm  Tm0  1  0.754751  0.279738  0.953595  1
  Bi  Bi1  1  0.765616  0.814886  0.764643  1
  Bi  Bi2  1  0.261063  0.182967  0.739235  1
  Bi  Bi3  1  0.246640  0.193042  0.227478  1
  Bi  Bi4  1  0.735326  0.826594  0.252889  1
  Pt  Pt5  1  0.259526  0.730830  0.540689  1
  Pt  Pt6  1  0.236785  0.728402  0.042172  1
  Pt  Pt7  1  0.743561  0.272941  0.457315  1
  F  F8  1  0.421429  0.704234  0.917825  1
  F  F9  1  0.925307  0.294700  0.582265  1
  F  F10  1  0.544528  0.284964  0.095346  1
  F  F11  1  0.075381  0.708030  0.417043  1
  F  F12  1  0.450943  0.280291  0.537357  1
  F  F13  1  0.939445  0.726487  0.960135  1
  F  F14  1  0.550905  0.724600  0.458442  1
  F  F15  1  0.071111  0.271160  0.051634  1
  F  F16  1  0.783449  0.536090  0.857220  1
  F  F17  1  0.269467  0.493322  0.634345  1
  F  F18  1  0.217610  0.490511  0.140924  1
  F  F19  1  0.734035  0.508751  0.362661  1
  F  F20  1  0.759527  0.015478  0.063582  1
  F  F21  1  0.259477  0.968487  0.451654  1
  F  F22  1  0.245634  0.968750  0.949714  1
  F  F23  1  0.744136  0.033909  0.549236  1
  F  F24  1  0.970107  0.733633  0.626187  1
  F  F25  1  0.456330  0.266212  0.856035  1
  F  F26  1  0.031843  0.269800  0.374060  1
  F  F27  1  0.525277  0.723575  0.130251  1
  F  F28  1  0.059357  0.743661  0.173142  1
  F  F29  1  0.565214  0.255166  0.328994  1
  F  F30  1  0.957366  0.239921  0.825124  1
  F  F31  1  0.441668  0.747811  0.669365  1
  F  F32  1  0.403066  0.968783  0.229944  1
  F  F33  1  0.910903  0.024860  0.270860  1
  F  F34  1  0.591014  0.025428  0.774823  1
  F  F35  1  0.092202  0.961984  0.733814  1
