# generated using pymatgen
data_Dy2Er10Ni5Pb
_symmetry_space_group_name_H-M   'P 1'
_cell_length_a   8.24930587
_cell_length_b   8.24946823
_cell_length_c   8.24337200
_cell_angle_alpha   110.82628375
_cell_angle_beta   110.69960572
_cell_angle_gamma   106.94850257
_symmetry_Int_Tables_number   1
_chemical_formula_structural   Dy2Er10Ni5Pb
_chemical_formula_sum   'Dy2 Er10 Ni5 Pb1'
_cell_volume   431.04605749
_cell_formula_units_Z   1
loop_
 _symmetry_equiv_pos_site_id
 _symmetry_equiv_pos_as_xyz
  1  'x, y, z'
loop_
 _atom_site_type_symbol
 _atom_site_label
 _atom_site_symmetry_multiplicity
 _atom_site_fract_x
 _atom_site_fract_y
 _atom_site_fract_z
 _atom_site_occupancy
  Dy  Dy0  1  0.292946  0.181306  0.474265  1
  Dy  Dy1  1  0.707054  0.818694  0.525735  1
  Er  Er2  1  0.293282  0.817456  0.110937  1
  Er  Er3  1  0.706718  0.182544  0.889063  1
  Er  Er4  1  0.627570  0.319801  0.306708  1
  Er  Er5  1  0.372430  0.680199  0.693292  1
  Er  Er6  1  0.013241  0.320802  0.693285  1
  Er  Er7  1  0.986759  0.679198  0.306715  1
  Er  Er8  1  0.211109  0.403140  0.190653  1
  Er  Er9  1  0.788891  0.596860  0.809347  1
  Er  Er10  1  0.212389  0.020148  0.809238  1
  Er  Er11  1  0.787611  0.979852  0.190762  1
  Ni  Ni12  1  0.999023  0.364491  0.362737  1
  Ni  Ni13  1  0.000977  0.635509  0.637263  1
  Ni  Ni14  1  0.375074  0.875603  0.500553  1
  Ni  Ni15  1  0.624926  0.124397  0.499447  1
  Ni  Ni16  1  0.000000  0.000000  0.000000  1
  Pb  Pb17  1  0.500000  0.500000  0.000000  1
