# generated using pymatgen
data_Ta12Al8CrCo3N4
_symmetry_space_group_name_H-M   'P 1'
_cell_length_a   8.16255389
_cell_length_b   8.19579900
_cell_length_c   8.16255400
_cell_angle_alpha   60.13409239
_cell_angle_beta   59.99999957
_cell_angle_gamma   60.13409486
_symmetry_Int_Tables_number   1
_chemical_formula_structural   Ta12Al8CrCo3N4
_chemical_formula_sum   'Ta12 Al8 Cr1 Co3 N4'
_cell_volume   386.90620990
_cell_formula_units_Z   1
loop_
 _symmetry_equiv_pos_site_id
 _symmetry_equiv_pos_as_xyz
  1  'x, y, z'
loop_
 _atom_site_type_symbol
 _atom_site_label
 _atom_site_symmetry_multiplicity
 _atom_site_fract_x
 _atom_site_fract_y
 _atom_site_fract_z
 _atom_site_occupancy
  Ta  Ta0  1  0.561763  0.936870  0.561763  1
  Ta  Ta1  1  0.306601  0.686944  0.699853  1
  Ta  Ta2  1  0.688237  0.313130  0.310397  1
  Ta  Ta3  1  0.306601  0.686944  0.306601  1
  Ta  Ta4  1  0.699853  0.686944  0.306601  1
  Ta  Ta5  1  0.310397  0.313130  0.688237  1
  Ta  Ta6  1  0.550147  0.563056  0.943399  1
  Ta  Ta7  1  0.943399  0.563056  0.550147  1
  Ta  Ta8  1  0.561763  0.936870  0.939603  1
  Ta  Ta9  1  0.939603  0.936870  0.561763  1
  Ta  Ta10  1  0.688237  0.313130  0.688237  1
  Ta  Ta11  1  0.943399  0.563056  0.943399  1
  Al  Al12  1  0.914996  0.924745  0.914996  1
  Al  Al13  1  0.004735  0.325255  0.335004  1
  Al  Al14  1  0.333809  0.998570  0.333809  1
  Al  Al15  1  0.335004  0.325255  0.004735  1
  Al  Al16  1  0.916191  0.251430  0.916191  1
  Al  Al17  1  0.914996  0.924745  0.245265  1
  Al  Al18  1  0.245265  0.924745  0.914996  1
  Al  Al19  1  0.335004  0.325255  0.335004  1
  Cr  Cr20  1  0.125000  0.625000  0.125000  1
  Co  Co21  1  0.125000  0.125000  0.125000  1
  Co  Co22  1  0.625000  0.125000  0.125000  1
  Co  Co23  1  0.125000  0.125000  0.625000  1
  N  N24  1  0.625000  0.625000  0.625000  1
  N  N25  1  0.125000  0.625000  0.625000  1
  N  N26  1  0.625000  0.125000  0.625000  1
  N  N27  1  0.625000  0.625000  0.125000  1
