# generated using pymatgen
data_TbNd2Si3(Ni3Sn)3
_symmetry_space_group_name_H-M   'P 1'
_cell_length_a   3.94010400
_cell_length_b   9.28863120
_cell_length_c   9.28863101
_cell_angle_alpha   60.00555682
_cell_angle_beta   90.00000000
_cell_angle_gamma   90.00000000
_symmetry_Int_Tables_number   1
_chemical_formula_structural   TbNd2Si3(Ni3Sn)3
_chemical_formula_sum   'Tb1 Nd2 Si3 Ni9 Sn3'
_cell_volume   294.41915560
_cell_formula_units_Z   1
loop_
 _symmetry_equiv_pos_site_id
 _symmetry_equiv_pos_as_xyz
  1  'x, y, z'
loop_
 _atom_site_type_symbol
 _atom_site_label
 _atom_site_symmetry_multiplicity
 _atom_site_fract_x
 _atom_site_fract_y
 _atom_site_fract_z
 _atom_site_occupancy
  Tb  Tb0  1  0.000000  0.000093  0.999907  1
  Nd  Nd1  1  0.500000  0.333219  0.333375  1
  Nd  Nd2  1  0.500000  0.666625  0.666781  1
  Si  Si3  1  0.500000  0.753025  0.246975  1
  Si  Si4  1  0.500000  0.246935  0.999954  1
  Si  Si5  1  0.500000  0.000046  0.753065  1
  Ni  Ni6  1  0.000000  0.214309  0.150885  1
  Ni  Ni7  1  0.000000  0.150850  0.634608  1
  Ni  Ni8  1  0.000000  0.634718  0.214374  1
  Ni  Ni9  1  0.000000  0.849115  0.785691  1
  Ni  Ni10  1  0.000000  0.365392  0.849150  1
  Ni  Ni11  1  0.000000  0.785626  0.365282  1
  Ni  Ni12  1  0.500000  0.259824  0.740176  1
  Ni  Ni13  1  0.500000  0.740296  0.999989  1
  Ni  Ni14  1  0.500000  0.000011  0.259704  1
  Sn  Sn15  1  0.000000  0.458765  0.541235  1
  Sn  Sn16  1  0.000000  0.541134  0.000086  1
  Sn  Sn17  1  0.000000  0.999914  0.458866  1
