# generated using pymatgen
data_Ti8VGaBi4
_symmetry_space_group_name_H-M   'P 1'
_cell_length_a   7.92950156
_cell_length_b   7.92944012
_cell_length_c   7.92950225
_cell_angle_alpha   95.76852569
_cell_angle_beta   95.77556084
_cell_angle_gamma   143.02187822
_symmetry_Int_Tables_number   1
_chemical_formula_structural   Ti8VGaBi4
_chemical_formula_sum   'Ti8 V1 Ga1 Bi4'
_cell_volume   284.41981433
_cell_formula_units_Z   1
loop_
 _symmetry_equiv_pos_site_id
 _symmetry_equiv_pos_as_xyz
  1  'x, y, z'
loop_
 _atom_site_type_symbol
 _atom_site_label
 _atom_site_symmetry_multiplicity
 _atom_site_fract_x
 _atom_site_fract_y
 _atom_site_fract_z
 _atom_site_occupancy
  Ti  Ti0  1  0.709844  0.593370  0.283881  1
  Ti  Ti1  1  0.309548  0.425932  0.716178  1
  Ti  Ti2  1  0.593391  0.309511  0.883581  1
  Ti  Ti3  1  0.074071  0.190489  0.283881  1
  Ti  Ti4  1  0.790245  0.074068  0.883616  1
  Ti  Ti5  1  0.425829  0.709730  0.116352  1
  Ti  Ti6  1  0.906623  0.790270  0.716098  1
  Ti  Ti7  1  0.190511  0.906630  0.116474  1
  V  V8  1  0.749954  0.750000  0.999954  1
  Ga  Ga9  1  0.249981  0.250000  0.999981  1
  Bi  Bi10  1  0.139531  0.639578  0.779138  1
  Bi  Bi11  1  0.360481  0.139558  0.499989  1
  Bi  Bi12  1  0.860431  0.360442  0.220922  1
  Bi  Bi13  1  0.639560  0.860422  0.499953  1
