# generated using pymatgen
data_Pr4Er6Sn5Bi3
_symmetry_space_group_name_H-M   'P 1'
_cell_length_a   8.25561000
_cell_length_b   8.25237098
_cell_length_c   15.57778362
_cell_angle_alpha   90.09730568
_cell_angle_beta   90.00000000
_cell_angle_gamma   90.00000000
_symmetry_Int_Tables_number   1
_chemical_formula_structural   Pr4Er6Sn5Bi3
_chemical_formula_sum   'Pr8 Er12 Sn10 Bi6'
_cell_volume   1061.28726280
_cell_formula_units_Z   2
loop_
 _symmetry_equiv_pos_site_id
 _symmetry_equiv_pos_as_xyz
  1  'x, y, z'
loop_
 _atom_site_type_symbol
 _atom_site_label
 _atom_site_symmetry_multiplicity
 _atom_site_fract_x
 _atom_site_fract_y
 _atom_site_fract_z
 _atom_site_occupancy
  Pr  Pr0  1  0.524857  0.323471  0.899816  1
  Pr  Pr1  1  0.024857  0.176529  0.600184  1
  Pr  Pr2  1  0.476823  0.681068  0.398484  1
  Pr  Pr3  1  0.976823  0.818932  0.101516  1
  Pr  Pr4  1  0.482522  0.675554  0.100598  1
  Pr  Pr5  1  0.982522  0.824446  0.399402  1
  Pr  Pr6  1  0.520164  0.319922  0.600645  1
  Pr  Pr7  1  0.020164  0.180078  0.899355  1
  Er  Er8  1  0.364282  0.838373  0.873450  1
  Er  Er9  1  0.864282  0.661627  0.626550  1
  Er  Er10  1  0.631153  0.160790  0.373727  1
  Er  Er11  1  0.131153  0.339210  0.126273  1
  Er  Er12  1  0.638088  0.166127  0.125472  1
  Er  Er13  1  0.138088  0.333873  0.374528  1
  Er  Er14  1  0.363308  0.840533  0.625063  1
  Er  Er15  1  0.863308  0.659467  0.874937  1
  Er  Er16  1  0.195029  0.500680  0.749763  1
  Er  Er17  1  0.695029  0.999320  0.750237  1
  Er  Er18  1  0.805032  0.498541  0.247596  1
  Er  Er19  1  0.305032  0.001459  0.252404  1
  Sn  Sn20  1  0.295796  0.039234  0.457188  1
  Sn  Sn21  1  0.795796  0.460766  0.042812  1
  Sn  Sn22  1  0.561125  0.627029  0.749655  1
  Sn  Sn23  1  0.061125  0.872971  0.750345  1
  Sn  Sn24  1  0.437782  0.373725  0.249809  1
  Sn  Sn25  1  0.937782  0.126275  0.250191  1
  Sn  Sn26  1  0.328967  0.142718  0.750373  1
  Sn  Sn27  1  0.828967  0.357282  0.749627  1
  Sn  Sn28  1  0.671825  0.858258  0.249900  1
  Sn  Sn29  1  0.171825  0.641742  0.250100  1
  Bi  Bi30  1  0.293961  0.039876  0.042673  1
  Bi  Bi31  1  0.793961  0.460124  0.457327  1
  Bi  Bi32  1  0.703918  0.960031  0.542247  1
  Bi  Bi33  1  0.203918  0.539969  0.957753  1
  Bi  Bi34  1  0.705368  0.960401  0.957180  1
  Bi  Bi35  1  0.205368  0.539599  0.542820  1
