# generated using pymatgen
data_Hf11Th8TaSi16
_symmetry_space_group_name_H-M   'P 1'
_cell_length_a   7.37621094
_cell_length_b   7.37621094
_cell_length_c   13.61362579
_cell_angle_alpha   89.93975258
_cell_angle_beta   89.93975258
_cell_angle_gamma   89.91715014
_symmetry_Int_Tables_number   1
_chemical_formula_structural   Hf11Th8TaSi16
_chemical_formula_sum   'Hf11 Th8 Ta1 Si16'
_cell_volume   740.69520055
_cell_formula_units_Z   1
loop_
 _symmetry_equiv_pos_site_id
 _symmetry_equiv_pos_as_xyz
  1  'x, y, z'
loop_
 _atom_site_type_symbol
 _atom_site_label
 _atom_site_symmetry_multiplicity
 _atom_site_fract_x
 _atom_site_fract_y
 _atom_site_fract_z
 _atom_site_occupancy
  Hf  Hf0  1  0.170760  0.171544  0.999471  1
  Hf  Hf1  1  0.828456  0.829240  0.500529  1
  Hf  Hf2  1  0.328810  0.671190  0.250000  1
  Hf  Hf3  1  0.158534  0.996195  0.375356  1
  Hf  Hf4  1  0.840860  0.005886  0.873312  1
  Hf  Hf5  1  0.504553  0.656553  0.626548  1
  Hf  Hf6  1  0.343447  0.495447  0.873452  1
  Hf  Hf7  1  0.496105  0.341934  0.124456  1
  Hf  Hf8  1  0.658066  0.503895  0.375544  1
  Hf  Hf9  1  0.994114  0.159140  0.626688  1
  Hf  Hf10  1  0.003805  0.841466  0.124644  1
  Th  Th11  1  0.998281  0.338497  0.216889  1
  Th  Th12  1  0.000315  0.660750  0.717159  1
  Th  Th13  1  0.161478  0.497877  0.467417  1
  Th  Th14  1  0.502123  0.838522  0.032583  1
  Th  Th15  1  0.837764  0.500326  0.966303  1
  Th  Th16  1  0.499674  0.162236  0.533697  1
  Th  Th17  1  0.339250  0.999685  0.782841  1
  Th  Th18  1  0.661503  0.001719  0.283111  1
  Ta  Ta19  1  0.670997  0.329003  0.750000  1
  Si  Si20  1  0.292295  0.041182  0.184570  1
  Si  Si21  1  0.707005  0.960525  0.685231  1
  Si  Si22  1  0.458668  0.792752  0.435387  1
  Si  Si23  1  0.207248  0.541332  0.064613  1
  Si  Si24  1  0.542674  0.208276  0.933611  1
  Si  Si25  1  0.791724  0.457326  0.566389  1
  Si  Si26  1  0.039475  0.292995  0.814769  1
  Si  Si27  1  0.958818  0.707705  0.315430  1
  Si  Si28  1  0.371575  0.297345  0.316578  1
  Si  Si29  1  0.629029  0.699823  0.816351  1
  Si  Si30  1  0.202004  0.871572  0.566278  1
  Si  Si31  1  0.128428  0.797996  0.933722  1
  Si  Si32  1  0.797761  0.128429  0.066035  1
  Si  Si33  1  0.871571  0.202239  0.433965  1
  Si  Si34  1  0.300177  0.370971  0.683649  1
  Si  Si35  1  0.702655  0.628425  0.183422  1
