# generated using pymatgen
data_Zn2SbP6IN12
_symmetry_space_group_name_H-M   'P 1'
_cell_length_a   7.30573748
_cell_length_b   7.39963965
_cell_length_c   7.30573784
_cell_angle_alpha   109.94763861
_cell_angle_beta   108.93122163
_cell_angle_gamma   109.94761617
_symmetry_Int_Tables_number   1
_chemical_formula_structural   Zn2SbP6IN12
_chemical_formula_sum   'Zn2 Sb1 P6 I1 N12'
_cell_volume   302.44772844
_cell_formula_units_Z   1
loop_
 _symmetry_equiv_pos_site_id
 _symmetry_equiv_pos_as_xyz
  1  'x, y, z'
loop_
 _atom_site_type_symbol
 _atom_site_label
 _atom_site_symmetry_multiplicity
 _atom_site_fract_x
 _atom_site_fract_y
 _atom_site_fract_z
 _atom_site_occupancy
  Zn  Zn0  1  0.002426  0.003694  0.383545  1
  Zn  Zn1  1  0.383545  0.003694  0.002426  1
  Sb  Sb2  1  0.012555  0.357119  0.012555  1
  P  P3  1  0.497440  0.261409  0.751484  1
  P  P4  1  0.253264  0.759443  0.500872  1
  P  P5  1  0.740628  0.505888  0.257790  1
  P  P6  1  0.751484  0.261409  0.497440  1
  P  P7  1  0.500872  0.759443  0.253264  1
  P  P8  1  0.257790  0.505888  0.740628  1
  I  I9  1  0.984976  0.890180  0.984976  1
  N  N10  1  0.405094  0.697887  0.405094  1
  N  N11  1  0.715144  0.436918  0.435219  1
  N  N12  1  0.435219  0.436918  0.715144  1
  N  N13  1  0.724006  0.290798  0.724006  1
  N  N14  1  0.993606  0.578304  0.280677  1
  N  N15  1  0.280677  0.578304  0.993606  1
  N  N16  1  0.280735  0.006710  0.568097  1
  N  N17  1  0.001680  0.282339  0.564844  1
  N  N18  1  0.718495  0.727301  0.287417  1
  N  N19  1  0.568097  0.006710  0.280735  1
  N  N20  1  0.287417  0.727301  0.718495  1
  N  N21  1  0.564844  0.282339  0.001680  1
