# generated using pymatgen
data_NdTl2Cd(Ir2O7)2
_symmetry_space_group_name_H-M   'P 1'
_cell_length_a   7.37632205
_cell_length_b   7.39293624
_cell_length_c   7.37632238
_cell_angle_alpha   58.99259967
_cell_angle_beta   59.11292921
_cell_angle_gamma   58.99259708
_symmetry_Int_Tables_number   1
_chemical_formula_structural   NdTl2Cd(Ir2O7)2
_chemical_formula_sum   'Nd1 Tl2 Cd1 Ir4 O14'
_cell_volume   278.15863591
_cell_formula_units_Z   1
loop_
 _symmetry_equiv_pos_site_id
 _symmetry_equiv_pos_as_xyz
  1  'x, y, z'
loop_
 _atom_site_type_symbol
 _atom_site_label
 _atom_site_symmetry_multiplicity
 _atom_site_fract_x
 _atom_site_fract_y
 _atom_site_fract_z
 _atom_site_occupancy
  Nd  Nd0  1  0.125000  0.125000  0.125000  1
  Tl  Tl1  1  0.625000  0.125000  0.125000  1
  Tl  Tl2  1  0.125000  0.125000  0.625000  1
  Cd  Cd3  1  0.125000  0.625000  0.125000  1
  Ir  Ir4  1  0.125000  0.625000  0.625000  1
  Ir  Ir5  1  0.625000  0.125000  0.625000  1
  Ir  Ir6  1  0.625000  0.625000  0.125000  1
  Ir  Ir7  1  0.625000  0.625000  0.625000  1
  O  O8  1  0.690762  0.704709  0.301997  1
  O  O9  1  0.297475  0.296280  0.701283  1
  O  O10  1  0.703084  0.295225  0.703084  1
  O  O11  1  0.296161  0.705021  0.296161  1
  O  O12  1  0.301997  0.704709  0.690762  1
  O  O13  1  0.701283  0.296280  0.297475  1
  O  O14  1  0.559238  0.545291  0.948003  1
  O  O15  1  0.952525  0.953720  0.548717  1
  O  O16  1  0.546916  0.954775  0.546916  1
  O  O17  1  0.953839  0.544979  0.953839  1
  O  O18  1  0.948003  0.545291  0.559238  1
  O  O19  1  0.548717  0.953720  0.952525  1
  O  O20  1  0.247368  0.263898  0.247368  1
  O  O21  1  0.002632  0.986102  0.002632  1
