# generated using pymatgen
data_ZrScP7Ru12
_symmetry_space_group_name_H-M   'P 1'
_cell_length_a   9.36282300
_cell_length_b   9.36282176
_cell_length_c   3.91383300
_cell_angle_alpha   90.00000000
_cell_angle_beta   90.00000000
_cell_angle_gamma   119.99999379
_symmetry_Int_Tables_number   1
_chemical_formula_structural   ZrScP7Ru12
_chemical_formula_sum   'Zr1 Sc1 P7 Ru12'
_cell_volume   297.13001069
_cell_formula_units_Z   1
loop_
 _symmetry_equiv_pos_site_id
 _symmetry_equiv_pos_as_xyz
  1  'x, y, z'
loop_
 _atom_site_type_symbol
 _atom_site_label
 _atom_site_symmetry_multiplicity
 _atom_site_fract_x
 _atom_site_fract_y
 _atom_site_fract_z
 _atom_site_occupancy
  Zr  Zr0  1  0.333333  0.666667  0.000000  1
  Sc  Sc1  1  0.666667  0.333333  0.500000  1
  P  P2  1  0.597942  0.717435  0.500000  1
  P  P3  1  0.000000  0.000000  0.000000  1
  P  P4  1  0.282565  0.880507  0.500000  1
  P  P5  1  0.119493  0.402058  0.500000  1
  P  P6  1  0.880778  0.572171  0.000000  1
  P  P7  1  0.427829  0.308608  0.000000  1
  P  P8  1  0.691392  0.119222  0.000000  1
  Ru  Ru9  1  0.551802  0.942878  0.500000  1
  Ru  Ru10  1  0.391077  0.448198  0.500000  1
  Ru  Ru11  1  0.912689  0.123093  0.500000  1
  Ru  Ru12  1  0.210403  0.087311  0.500000  1
  Ru  Ru13  1  0.876907  0.789597  0.500000  1
  Ru  Ru14  1  0.725081  0.891003  0.000000  1
  Ru  Ru15  1  0.108997  0.834077  0.000000  1
  Ru  Ru16  1  0.165923  0.274919  0.000000  1
  Ru  Ru17  1  0.428193  0.068285  0.000000  1
  Ru  Ru18  1  0.931715  0.359909  0.000000  1
  Ru  Ru19  1  0.640091  0.571807  0.000000  1
  Ru  Ru20  1  0.057122  0.608923  0.500000  1
