# generated using pymatgen
data_SmY2AuO7
_symmetry_space_group_name_H-M   'P 1'
_cell_length_a   6.53443224
_cell_length_b   6.53443271
_cell_length_c   7.51739600
_cell_angle_alpha   90.00000000
_cell_angle_beta   90.00000000
_cell_angle_gamma   108.95895935
_symmetry_Int_Tables_number   1
_chemical_formula_structural   SmY2AuO7
_chemical_formula_sum   'Sm2 Y4 Au2 O14'
_cell_volume   303.57096584
_cell_formula_units_Z   2
loop_
 _symmetry_equiv_pos_site_id
 _symmetry_equiv_pos_as_xyz
  1  'x, y, z'
loop_
 _atom_site_type_symbol
 _atom_site_label
 _atom_site_symmetry_multiplicity
 _atom_site_fract_x
 _atom_site_fract_y
 _atom_site_fract_z
 _atom_site_occupancy
  Sm  Sm0  1  0.500000  0.500000  0.500000  1
  Sm  Sm1  1  0.500000  0.500000  0.000000  1
  Y  Y2  1  0.528013  0.998238  0.750000  1
  Y  Y3  1  0.998238  0.528013  0.250000  1
  Y  Y4  1  0.471987  0.001762  0.250000  1
  Y  Y5  1  0.001762  0.471987  0.750000  1
  Au  Au6  1  0.000000  0.000000  0.500000  1
  Au  Au7  1  0.000000  0.000000  0.000000  1
  O  O8  1  0.671676  0.921451  0.476249  1
  O  O9  1  0.921451  0.671676  0.523751  1
  O  O10  1  0.671676  0.921451  0.023751  1
  O  O11  1  0.921451  0.671676  0.976249  1
  O  O12  1  0.328324  0.078549  0.523751  1
  O  O13  1  0.078549  0.328324  0.476249  1
  O  O14  1  0.328324  0.078549  0.976249  1
  O  O15  1  0.078549  0.328324  0.023751  1
  O  O16  1  0.922895  0.077105  0.750000  1
  O  O17  1  0.077105  0.922895  0.250000  1
  O  O18  1  0.364774  0.635225  0.750000  1
  O  O19  1  0.635225  0.364774  0.250000  1
  O  O20  1  0.641292  0.358708  0.750000  1
  O  O21  1  0.358708  0.641292  0.250000  1
