# generated using pymatgen
data_Pr3Sm2Pt19
_symmetry_space_group_name_H-M   'P 1'
_cell_length_a   5.42807752
_cell_length_b   5.42807832
_cell_length_c   18.24883320
_cell_angle_alpha   81.44701446
_cell_angle_beta   81.44701351
_cell_angle_gamma   60.00000451
_symmetry_Int_Tables_number   1
_chemical_formula_structural   Pr3Sm2Pt19
_chemical_formula_sum   'Pr3 Sm2 Pt19'
_cell_volume   458.73039019
_cell_formula_units_Z   1
loop_
 _symmetry_equiv_pos_site_id
 _symmetry_equiv_pos_as_xyz
  1  'x, y, z'
loop_
 _atom_site_type_symbol
 _atom_site_label
 _atom_site_symmetry_multiplicity
 _atom_site_fract_x
 _atom_site_fract_y
 _atom_site_fract_z
 _atom_site_occupancy
  Pr  Pr0  1  0.000000  0.000000  0.000000  1
  Pr  Pr1  1  0.077895  0.077895  0.766313  1
  Pr  Pr2  1  0.922105  0.922105  0.233687  1
  Sm  Sm3  1  0.152410  0.152410  0.542769  1
  Sm  Sm4  1  0.847590  0.847590  0.457231  1
  Pt  Pt5  1  0.500000  0.500000  0.500000  1
  Pt  Pt6  1  0.249653  0.249653  0.251040  1
  Pt  Pt7  1  0.750347  0.750347  0.748960  1
  Pt  Pt8  1  0.333348  0.333348  0.999955  1
  Pt  Pt9  1  0.666652  0.666652  0.000045  1
  Pt  Pt10  1  0.416720  0.416720  0.749839  1
  Pt  Pt11  1  0.583280  0.583280  0.250161  1
  Pt  Pt12  1  0.122370  0.627222  0.623184  1
  Pt  Pt13  1  0.627222  0.627222  0.623184  1
  Pt  Pt14  1  0.627222  0.122370  0.623184  1
  Pt  Pt15  1  0.877630  0.372778  0.376816  1
  Pt  Pt16  1  0.372778  0.372778  0.376816  1
  Pt  Pt17  1  0.372778  0.877630  0.376816  1
  Pt  Pt18  1  0.041154  0.541489  0.875869  1
  Pt  Pt19  1  0.541489  0.541489  0.875869  1
  Pt  Pt20  1  0.541489  0.041154  0.875869  1
  Pt  Pt21  1  0.958846  0.458511  0.124131  1
  Pt  Pt22  1  0.458511  0.458511  0.124131  1
  Pt  Pt23  1  0.458511  0.958846  0.124131  1
