# generated using pymatgen
data_PrDy(Th2In5)2
_symmetry_space_group_name_H-M   'P 1'
_cell_length_a   6.61398614
_cell_length_b   6.61398597
_cell_length_c   10.37113400
_cell_angle_alpha   90.00000000
_cell_angle_beta   90.00000000
_cell_angle_gamma   102.38096802
_symmetry_Int_Tables_number   1
_chemical_formula_structural   PrDy(Th2In5)2
_chemical_formula_sum   'Pr1 Dy1 Th4 In10'
_cell_volume   443.13224055
_cell_formula_units_Z   1
loop_
 _symmetry_equiv_pos_site_id
 _symmetry_equiv_pos_as_xyz
  1  'x, y, z'
loop_
 _atom_site_type_symbol
 _atom_site_label
 _atom_site_symmetry_multiplicity
 _atom_site_fract_x
 _atom_site_fract_y
 _atom_site_fract_z
 _atom_site_occupancy
  Pr  Pr0  1  0.870962  0.870962  0.250000  1
  Dy  Dy1  1  0.130288  0.130288  0.750000  1
  Th  Th2  1  0.707338  0.295518  0.999435  1
  Th  Th3  1  0.707338  0.295518  0.500565  1
  Th  Th4  1  0.295518  0.707338  0.999435  1
  Th  Th5  1  0.295518  0.707338  0.500565  1
  In  In6  1  0.509396  0.509396  0.750000  1
  In  In7  1  0.485569  0.485569  0.250000  1
  In  In8  1  0.810545  0.810545  0.553114  1
  In  In9  1  0.192632  0.192632  0.456590  1
  In  In10  1  0.810545  0.810545  0.946886  1
  In  In11  1  0.192632  0.192632  0.043410  1
  In  In12  1  0.994145  0.563600  0.750000  1
  In  In13  1  0.425879  0.008092  0.250000  1
  In  In14  1  0.008092  0.425879  0.250000  1
  In  In15  1  0.563600  0.994145  0.750000  1
