# generated using pymatgen
data_Ho6FeCo17(Si5P)2
_symmetry_space_group_name_H-M   'P 1'
_cell_length_a   3.74578000
_cell_length_b   10.68725200
_cell_length_c   12.29529300
_cell_angle_alpha   90.00000000
_cell_angle_beta   90.00000000
_cell_angle_gamma   90.00000000
_symmetry_Int_Tables_number   1
_chemical_formula_structural   Ho6FeCo17(Si5P)2
_chemical_formula_sum   'Ho6 Fe1 Co17 Si10 P2'
_cell_volume   492.20633493
_cell_formula_units_Z   1
loop_
 _symmetry_equiv_pos_site_id
 _symmetry_equiv_pos_as_xyz
  1  'x, y, z'
loop_
 _atom_site_type_symbol
 _atom_site_label
 _atom_site_symmetry_multiplicity
 _atom_site_fract_x
 _atom_site_fract_y
 _atom_site_fract_z
 _atom_site_occupancy
  Ho  Ho0  1  0.000000  0.500000  0.524279  1
  Ho  Ho1  1  0.500000  0.000000  0.472973  1
  Ho  Ho2  1  0.500000  0.817411  0.204018  1
  Ho  Ho3  1  0.500000  0.182589  0.204018  1
  Ho  Ho4  1  0.000000  0.680674  0.796109  1
  Ho  Ho5  1  0.000000  0.319326  0.796109  1
  Fe  Fe6  1  0.500000  0.500000  0.156112  1
  Co  Co7  1  0.000000  0.500000  0.978961  1
  Co  Co8  1  0.500000  0.000000  0.017116  1
  Co  Co9  1  0.500000  0.306072  0.428254  1
  Co  Co10  1  0.500000  0.693928  0.428254  1
  Co  Co11  1  0.000000  0.200014  0.570166  1
  Co  Co12  1  0.000000  0.799986  0.570166  1
  Co  Co13  1  0.500000  0.881997  0.708298  1
  Co  Co14  1  0.500000  0.118003  0.708298  1
  Co  Co15  1  0.000000  0.615610  0.292163  1
  Co  Co16  1  0.000000  0.384390  0.292163  1
  Co  Co17  1  0.500000  0.334778  0.992285  1
  Co  Co18  1  0.500000  0.665222  0.992285  1
  Co  Co19  1  0.000000  0.169993  0.006397  1
  Co  Co20  1  0.000000  0.830007  0.006397  1
  Co  Co21  1  0.000000  0.000000  0.849120  1
  Co  Co22  1  0.500000  0.500000  0.702472  1
  Co  Co23  1  0.000000  0.000000  0.303048  1
  Si  Si24  1  0.500000  0.306932  0.614976  1
  Si  Si25  1  0.500000  0.693068  0.614976  1
  Si  Si26  1  0.000000  0.196233  0.384737  1
  Si  Si27  1  0.000000  0.803767  0.384737  1
  Si  Si28  1  0.000000  0.000000  0.116757  1
  Si  Si29  1  0.500000  0.851663  0.894014  1
  Si  Si30  1  0.500000  0.148337  0.894014  1
  Si  Si31  1  0.000000  0.646078  0.106462  1
  Si  Si32  1  0.000000  0.353922  0.106462  1
  Si  Si33  1  0.000000  0.000000  0.660993  1
  P  P34  1  0.500000  0.500000  0.883254  1
  P  P35  1  0.500000  0.500000  0.339157  1
