# generated using pymatgen
data_Li8Ac7SmSi8
_symmetry_space_group_name_H-M   'P 1'
_cell_length_a   9.23152300
_cell_length_b   9.23156156
_cell_length_c   7.95334700
_cell_angle_alpha   90.00026276
_cell_angle_beta   90.00014652
_cell_angle_gamma   120.00046336
_symmetry_Int_Tables_number   1
_chemical_formula_structural   Li8Ac7SmSi8
_chemical_formula_sum   'Li8 Ac7 Sm1 Si8'
_cell_volume   586.98507799
_cell_formula_units_Z   1
loop_
 _symmetry_equiv_pos_site_id
 _symmetry_equiv_pos_as_xyz
  1  'x, y, z'
loop_
 _atom_site_type_symbol
 _atom_site_label
 _atom_site_symmetry_multiplicity
 _atom_site_fract_x
 _atom_site_fract_y
 _atom_site_fract_z
 _atom_site_occupancy
  Li  Li0  1  0.835076  0.164944  0.725852  1
  Li  Li1  1  0.835065  0.670138  0.725849  1
  Li  Li2  1  0.329862  0.164915  0.725855  1
  Li  Li3  1  0.163729  0.836259  0.203727  1
  Li  Li4  1  0.163734  0.327481  0.203731  1
  Li  Li5  1  0.672524  0.836252  0.203728  1
  Li  Li6  1  0.666673  0.333337  0.325830  1
  Li  Li7  1  0.333344  0.666674  0.835145  1
  Ac  Ac8  1  0.487696  0.512306  0.503506  1
  Ac  Ac9  1  0.487696  0.975397  0.503498  1
  Ac  Ac10  1  0.024606  0.512303  0.503510  1
  Ac  Ac11  1  0.512949  0.487042  0.004512  1
  Ac  Ac12  1  0.512947  0.025895  0.004514  1
  Ac  Ac13  1  0.974104  0.487051  0.004500  1
  Ac  Ac14  1  0.999999  0.000005  0.493226  1
  Sm  Sm15  1  0.999997  0.999999  0.988949  1
  Si  Si16  1  0.834509  0.165483  0.269820  1
  Si  Si17  1  0.834508  0.669024  0.269819  1
  Si  Si18  1  0.330979  0.165493  0.269827  1
  Si  Si19  1  0.163312  0.836701  0.785572  1
  Si  Si20  1  0.163299  0.326606  0.785573  1
  Si  Si21  1  0.673388  0.836689  0.785571  1
  Si  Si22  1  0.666669  0.333337  0.713944  1
  Si  Si23  1  0.333333  0.666667  0.221956  1
