# generated using pymatgen
data_LaSmRu2F14
_symmetry_space_group_name_H-M   'P 1'
_cell_length_a   5.72805700
_cell_length_b   9.20842479
_cell_length_c   12.28245658
_cell_angle_alpha   63.06839485
_cell_angle_beta   90.00000000
_cell_angle_gamma   90.00000000
_symmetry_Int_Tables_number   1
_chemical_formula_structural   LaSmRu2F14
_chemical_formula_sum   'La2 Sm2 Ru4 F28'
_cell_volume   577.59384732
_cell_formula_units_Z   2
loop_
 _symmetry_equiv_pos_site_id
 _symmetry_equiv_pos_as_xyz
  1  'x, y, z'
loop_
 _atom_site_type_symbol
 _atom_site_label
 _atom_site_symmetry_multiplicity
 _atom_site_fract_x
 _atom_site_fract_y
 _atom_site_fract_z
 _atom_site_occupancy
  La  La0  1  0.242090  0.194026  0.730685  1
  La  La1  1  0.742090  0.805974  0.769315  1
  Sm  Sm2  1  0.758345  0.810690  0.268321  1
  Sm  Sm3  1  0.258345  0.189310  0.231679  1
  Ru  Ru4  1  0.247068  0.730236  0.538425  1
  Ru  Ru5  1  0.747068  0.269764  0.961575  1
  Ru  Ru6  1  0.755342  0.276805  0.449971  1
  Ru  Ru7  1  0.255342  0.723195  0.050029  1
  F  F8  1  0.962573  0.716278  0.451295  1
  F  F9  1  0.462573  0.283722  0.048705  1
  F  F10  1  0.035188  0.289781  0.538740  1
  F  F11  1  0.535188  0.710219  0.961260  1
  F  F12  1  0.055585  0.704681  0.926769  1
  F  F13  1  0.555585  0.295319  0.573231  1
  F  F14  1  0.949675  0.291824  0.082555  1
  F  F15  1  0.449675  0.708176  0.417445  1
  F  F16  1  0.739422  0.501801  0.866199  1
  F  F17  1  0.239422  0.498199  0.633801  1
  F  F18  1  0.260302  0.490539  0.142926  1
  F  F19  1  0.760302  0.509461  0.357074  1
  F  F20  1  0.742699  0.037988  0.051542  1
  F  F21  1  0.242699  0.962012  0.448458  1
  F  F22  1  0.258816  0.954078  0.957542  1
  F  F23  1  0.758816  0.045922  0.542458  1
  F  F24  1  0.049950  0.747638  0.663926  1
  F  F25  1  0.549950  0.252362  0.836074  1
  F  F26  1  0.956616  0.254386  0.327751  1
  F  F27  1  0.456616  0.745614  0.172249  1
  F  F28  1  0.025166  0.266008  0.869118  1
  F  F29  1  0.525166  0.733992  0.630882  1
  F  F30  1  0.978147  0.733469  0.141820  1
  F  F31  1  0.478147  0.266531  0.358180  1
  F  F32  1  0.072827  0.975187  0.233334  1
  F  F33  1  0.572827  0.024813  0.266666  1
  F  F34  1  0.910188  0.032325  0.768911  1
  F  F35  1  0.410188  0.967675  0.731089  1
