# generated using pymatgen
data_LaSm2MoO7
_symmetry_space_group_name_H-M   'P 1'
_cell_length_a   6.61250348
_cell_length_b   6.61250276
_cell_length_c   7.72469600
_cell_angle_alpha   90.00000000
_cell_angle_beta   90.00000000
_cell_angle_gamma   108.98743944
_symmetry_Int_Tables_number   1
_chemical_formula_structural   LaSm2MoO7
_chemical_formula_sum   'La2 Sm4 Mo2 O14'
_cell_volume   319.38610175
_cell_formula_units_Z   2
loop_
 _symmetry_equiv_pos_site_id
 _symmetry_equiv_pos_as_xyz
  1  'x, y, z'
loop_
 _atom_site_type_symbol
 _atom_site_label
 _atom_site_symmetry_multiplicity
 _atom_site_fract_x
 _atom_site_fract_y
 _atom_site_fract_z
 _atom_site_occupancy
  La  La0  1  0.500000  0.500000  0.500000  1
  La  La1  1  0.500000  0.500000  0.000000  1
  Sm  Sm2  1  0.536564  0.000225  0.750000  1
  Sm  Sm3  1  0.000225  0.536564  0.250000  1
  Sm  Sm4  1  0.463436  0.999775  0.250000  1
  Sm  Sm5  1  0.999775  0.463436  0.750000  1
  Mo  Mo6  1  0.000000  0.000000  0.500000  1
  Mo  Mo7  1  0.000000  0.000000  0.000000  1
  O  O8  1  0.684949  0.931732  0.471082  1
  O  O9  1  0.931732  0.684949  0.528918  1
  O  O10  1  0.684949  0.931732  0.028918  1
  O  O11  1  0.931732  0.684949  0.971082  1
  O  O12  1  0.315051  0.068268  0.528918  1
  O  O13  1  0.068268  0.315051  0.471082  1
  O  O14  1  0.315051  0.068268  0.971082  1
  O  O15  1  0.068268  0.315051  0.028918  1
  O  O16  1  0.933276  0.066724  0.750000  1
  O  O17  1  0.066724  0.933276  0.250000  1
  O  O18  1  0.366209  0.633790  0.750000  1
  O  O19  1  0.633790  0.366209  0.250000  1
  O  O20  1  0.638542  0.361458  0.750000  1
  O  O21  1  0.361458  0.638542  0.250000  1
