# generated using pymatgen
data_Ti4Mn24Si
_symmetry_space_group_name_H-M   'P 1'
_cell_length_a   7.57454663
_cell_length_b   7.57454608
_cell_length_c   7.57454600
_cell_angle_alpha   109.47122310
_cell_angle_beta   109.47122164
_cell_angle_gamma   109.47121732
_symmetry_Int_Tables_number   1
_chemical_formula_structural   Ti4Mn24Si
_chemical_formula_sum   'Ti4 Mn24 Si1'
_cell_volume   334.53993704
_cell_formula_units_Z   1
loop_
 _symmetry_equiv_pos_site_id
 _symmetry_equiv_pos_as_xyz
  1  'x, y, z'
loop_
 _atom_site_type_symbol
 _atom_site_label
 _atom_site_symmetry_multiplicity
 _atom_site_fract_x
 _atom_site_fract_y
 _atom_site_fract_z
 _atom_site_occupancy
  Ti  Ti0  1  0.627137  0.000000  0.000000  1
  Ti  Ti1  1  0.000000  0.627137  0.000000  1
  Ti  Ti2  1  0.000000  0.000000  0.627137  1
  Ti  Ti3  1  0.372863  0.372863  0.372863  1
  Mn  Mn4  1  0.388341  0.670389  0.000000  1
  Mn  Mn5  1  0.717952  0.329611  0.329611  1
  Mn  Mn6  1  0.388341  0.000000  0.670389  1
  Mn  Mn7  1  0.670389  0.388341  0.000000  1
  Mn  Mn8  1  0.000000  0.388341  0.670389  1
  Mn  Mn9  1  0.329611  0.717952  0.329611  1
  Mn  Mn10  1  0.329611  0.329611  0.717952  1
  Mn  Mn11  1  0.000000  0.670389  0.388341  1
  Mn  Mn12  1  0.670389  0.000000  0.388341  1
  Mn  Mn13  1  0.611659  0.611659  0.282048  1
  Mn  Mn14  1  0.282048  0.611659  0.611659  1
  Mn  Mn15  1  0.611659  0.282048  0.611659  1
  Mn  Mn16  1  0.371361  0.193395  0.000000  1
  Mn  Mn17  1  0.177966  0.806605  0.806605  1
  Mn  Mn18  1  0.371361  0.000000  0.193395  1
  Mn  Mn19  1  0.193395  0.371361  0.000000  1
  Mn  Mn20  1  0.000000  0.371361  0.193395  1
  Mn  Mn21  1  0.806605  0.177966  0.806605  1
  Mn  Mn22  1  0.806605  0.806605  0.177966  1
  Mn  Mn23  1  0.000000  0.193395  0.371361  1
  Mn  Mn24  1  0.193395  0.000000  0.371361  1
  Mn  Mn25  1  0.628639  0.628639  0.822034  1
  Mn  Mn26  1  0.822034  0.628639  0.628639  1
  Mn  Mn27  1  0.628639  0.822034  0.628639  1
  Si  Si28  1  0.000000  0.000000  0.000000  1
