# generated using pymatgen
data_Tb3Er3MnTe2
_symmetry_space_group_name_H-M   'P 1'
_cell_length_a   8.24479900
_cell_length_b   8.24479842
_cell_length_c   4.09740800
_cell_angle_alpha   90.00000000
_cell_angle_beta   90.00000000
_cell_angle_gamma   119.99999832
_symmetry_Int_Tables_number   1
_chemical_formula_structural   Tb3Er3MnTe2
_chemical_formula_sum   'Tb3 Er3 Mn1 Te2'
_cell_volume   241.21258579
_cell_formula_units_Z   1
loop_
 _symmetry_equiv_pos_site_id
 _symmetry_equiv_pos_as_xyz
  1  'x, y, z'
loop_
 _atom_site_type_symbol
 _atom_site_label
 _atom_site_symmetry_multiplicity
 _atom_site_fract_x
 _atom_site_fract_y
 _atom_site_fract_z
 _atom_site_occupancy
  Tb  Tb0  1  0.393999  0.000000  0.500000  1
  Tb  Tb1  1  0.000000  0.393999  0.500000  1
  Tb  Tb2  1  0.606001  0.606001  0.500000  1
  Er  Er3  1  0.764220  0.000000  0.000000  1
  Er  Er4  1  0.000000  0.764220  0.000000  1
  Er  Er5  1  0.235780  0.235780  0.000000  1
  Mn  Mn6  1  0.000000  0.000000  0.500000  1
  Te  Te7  1  0.333333  0.666667  0.000000  1
  Te  Te8  1  0.666667  0.333333  0.000000  1
