# generated using pymatgen
data_Dy20Rh11Au
_symmetry_space_group_name_H-M   'P 1'
_cell_length_a   10.96963335
_cell_length_b   10.96963386
_cell_length_c   6.33044256
_cell_angle_alpha   89.98694762
_cell_angle_beta   89.98694292
_cell_angle_gamma   89.49090929
_symmetry_Int_Tables_number   1
_chemical_formula_structural   Dy20Rh11Au
_chemical_formula_sum   'Dy20 Rh11 Au1'
_cell_volume   761.73015883
_cell_formula_units_Z   1
loop_
 _symmetry_equiv_pos_site_id
 _symmetry_equiv_pos_as_xyz
  1  'x, y, z'
loop_
 _atom_site_type_symbol
 _atom_site_label
 _atom_site_symmetry_multiplicity
 _atom_site_fract_x
 _atom_site_fract_y
 _atom_site_fract_z
 _atom_site_occupancy
  Dy  Dy0  1  0.289153  0.088786  0.377234  1
  Dy  Dy1  1  0.292465  0.910104  0.877024  1
  Dy  Dy2  1  0.704707  0.084997  0.866079  1
  Dy  Dy3  1  0.705737  0.904162  0.381087  1
  Dy  Dy4  1  0.588978  0.790150  0.880257  1
  Dy  Dy5  1  0.580483  0.210177  0.378306  1
  Dy  Dy6  1  0.409740  0.790317  0.378806  1
  Dy  Dy7  1  0.408686  0.208453  0.879239  1
  Dy  Dy8  1  0.209850  0.411022  0.619743  1
  Dy  Dy9  1  0.209683  0.590260  0.121194  1
  Dy  Dy10  1  0.789823  0.419517  0.121694  1
  Dy  Dy11  1  0.791547  0.591314  0.620761  1
  Dy  Dy12  1  0.911214  0.710847  0.122766  1
  Dy  Dy13  1  0.915003  0.295293  0.633921  1
  Dy  Dy14  1  0.089896  0.707535  0.622976  1
  Dy  Dy15  1  0.095838  0.294263  0.118913  1
  Dy  Dy16  1  0.002812  0.995413  0.500520  1
  Dy  Dy17  1  0.004587  0.997188  0.999480  1
  Dy  Dy18  1  0.498644  0.498965  0.998341  1
  Dy  Dy19  1  0.501035  0.501356  0.501659  1
  Rh  Rh20  1  0.846406  0.847896  0.749379  1
  Rh  Rh21  1  0.152104  0.153594  0.750621  1
  Rh  Rh22  1  0.155939  0.844061  0.250000  1
  Rh  Rh23  1  0.655412  0.344588  0.750000  1
  Rh  Rh24  1  0.654076  0.652399  0.248397  1
  Rh  Rh25  1  0.347601  0.345924  0.251603  1
  Rh  Rh26  1  0.345963  0.654037  0.750000  1
  Rh  Rh27  1  0.500140  0.999672  0.125882  1
  Rh  Rh28  1  0.499288  0.000249  0.622198  1
  Rh  Rh29  1  0.999751  0.500712  0.877802  1
  Rh  Rh30  1  0.000328  0.499860  0.374118  1
  Au  Au31  1  0.843109  0.156891  0.250000  1
