# generated using pymatgen
data_Tm2Fe4P6Ir5W
_symmetry_space_group_name_H-M   'P 1'
_cell_length_a   3.85054800
_cell_length_b   10.46505900
_cell_length_c   12.32551300
_cell_angle_alpha   90.00000000
_cell_angle_beta   90.00000000
_cell_angle_gamma   90.00000000
_symmetry_Int_Tables_number   1
_chemical_formula_structural   Tm2Fe4P6Ir5W
_chemical_formula_sum   'Tm4 Fe8 P12 Ir10 W2'
_cell_volume   496.67148489
_cell_formula_units_Z   2
loop_
 _symmetry_equiv_pos_site_id
 _symmetry_equiv_pos_as_xyz
  1  'x, y, z'
loop_
 _atom_site_type_symbol
 _atom_site_label
 _atom_site_symmetry_multiplicity
 _atom_site_fract_x
 _atom_site_fract_y
 _atom_site_fract_z
 _atom_site_occupancy
  Tm  Tm0  1  0.250000  0.582561  0.712711  1
  Tm  Tm1  1  0.250000  0.917439  0.212711  1
  Tm  Tm2  1  0.750000  0.423099  0.288914  1
  Tm  Tm3  1  0.750000  0.076901  0.788914  1
  Fe  Fe4  1  0.250000  0.878328  0.695358  1
  Fe  Fe5  1  0.250000  0.621672  0.195358  1
  Fe  Fe6  1  0.750000  0.120934  0.302834  1
  Fe  Fe7  1  0.750000  0.379066  0.802834  1
  Fe  Fe8  1  0.250000  0.454497  0.938951  1
  Fe  Fe9  1  0.250000  0.045503  0.438951  1
  Fe  Fe10  1  0.750000  0.533376  0.062890  1
  Fe  Fe11  1  0.750000  0.966624  0.562890  1
  P  P12  1  0.250000  0.438798  0.115142  1
  P  P13  1  0.250000  0.061202  0.615142  1
  P  P14  1  0.750000  0.563297  0.889299  1
  P  P15  1  0.750000  0.936703  0.389299  1
  P  P16  1  0.250000  0.269977  0.861184  1
  P  P17  1  0.250000  0.230023  0.361184  1
  P  P18  1  0.750000  0.724062  0.134337  1
  P  P19  1  0.750000  0.775938  0.634337  1
  P  P20  1  0.250000  0.601595  0.379156  1
  P  P21  1  0.250000  0.898405  0.879156  1
  P  P22  1  0.750000  0.402569  0.621622  1
  P  P23  1  0.750000  0.097431  0.121622  1
  Ir  Ir24  1  0.750000  0.287234  0.011351  1
  Ir  Ir25  1  0.750000  0.212766  0.511351  1
  Ir  Ir26  1  0.250000  0.407208  0.474739  1
  Ir  Ir27  1  0.250000  0.092792  0.974739  1
  Ir  Ir28  1  0.750000  0.594480  0.525627  1
  Ir  Ir29  1  0.750000  0.905520  0.025627  1
  Ir  Ir30  1  0.250000  0.229067  0.174432  1
  Ir  Ir31  1  0.250000  0.270933  0.674432  1
  Ir  Ir32  1  0.750000  0.768575  0.823196  1
  Ir  Ir33  1  0.750000  0.731425  0.323196  1
  W  W34  1  0.250000  0.706424  0.988254  1
  W  W35  1  0.250000  0.793576  0.488254  1
