# generated using pymatgen
data_CeDyU2(InIr2)2
_symmetry_space_group_name_H-M   'P 1'
_cell_length_a   7.71993062
_cell_length_b   7.71993101
_cell_length_c   3.60439500
_cell_angle_alpha   90.00000000
_cell_angle_beta   90.00000000
_cell_angle_gamma   86.41571492
_symmetry_Int_Tables_number   1
_chemical_formula_structural   CeDyU2(InIr2)2
_chemical_formula_sum   'Ce1 Dy1 U2 In2 Ir4'
_cell_volume   214.39213329
_cell_formula_units_Z   1
loop_
 _symmetry_equiv_pos_site_id
 _symmetry_equiv_pos_as_xyz
  1  'x, y, z'
loop_
 _atom_site_type_symbol
 _atom_site_label
 _atom_site_symmetry_multiplicity
 _atom_site_fract_x
 _atom_site_fract_y
 _atom_site_fract_z
 _atom_site_occupancy
  Ce  Ce0  1  0.331894  0.831894  0.500000  1
  Dy  Dy1  1  0.668471  0.168471  0.500000  1
  U  U2  1  0.165268  0.333477  0.500000  1
  U  U3  1  0.833477  0.665268  0.500000  1
  In  In4  1  0.501739  0.495510  0.000000  1
  In  In5  1  0.995510  0.001739  0.000000  1
  Ir  Ir6  1  0.130711  0.630711  0.000000  1
  Ir  Ir7  1  0.879124  0.379124  0.000000  1
  Ir  Ir8  1  0.644431  0.849376  0.000000  1
  Ir  Ir9  1  0.349376  0.144431  0.000000  1
