# generated using pymatgen
data_Tb3Al3Si4Ni3
_symmetry_space_group_name_H-M   'P 1'
_cell_length_a   13.43164198
_cell_length_b   13.43164231
_cell_length_c   4.02457300
_cell_angle_alpha   90.00000000
_cell_angle_beta   90.00000000
_cell_angle_gamma   162.56960662
_symmetry_Int_Tables_number   1
_chemical_formula_structural   Tb3Al3Si4Ni3
_chemical_formula_sum   'Tb3 Al3 Si4 Ni3'
_cell_volume   217.49181777
_cell_formula_units_Z   1
loop_
 _symmetry_equiv_pos_site_id
 _symmetry_equiv_pos_as_xyz
  1  'x, y, z'
loop_
 _atom_site_type_symbol
 _atom_site_label
 _atom_site_symmetry_multiplicity
 _atom_site_fract_x
 _atom_site_fract_y
 _atom_site_fract_z
 _atom_site_occupancy
  Tb  Tb0  1  0.000032  0.999968  0.000000  1
  Tb  Tb1  1  0.692730  0.307270  0.500000  1
  Tb  Tb2  1  0.316188  0.683812  0.500000  1
  Al  Al3  1  0.595359  0.404641  0.000000  1
  Al  Al4  1  0.906107  0.093893  0.500000  1
  Al  Al5  1  0.094703  0.905297  0.500000  1
  Si  Si6  1  0.405606  0.594394  0.000000  1
  Si  Si7  1  0.774696  0.225304  0.000000  1
  Si  Si8  1  0.229419  0.770581  0.000000  1
  Si  Si9  1  0.533204  0.466796  0.500000  1
  Ni  Ni10  1  0.859371  0.140629  0.000000  1
  Ni  Ni11  1  0.142588  0.857412  0.000000  1
  Ni  Ni12  1  0.449996  0.550004  0.500000  1
