# generated using pymatgen
data_Rb3CuSi4
_symmetry_space_group_name_H-M   'P 1'
_cell_length_a   5.76041900
_cell_length_b   6.90575000
_cell_length_c   12.58909800
_cell_angle_alpha   90.00000000
_cell_angle_beta   90.00000000
_cell_angle_gamma   90.00000000
_symmetry_Int_Tables_number   1
_chemical_formula_structural   Rb3CuSi4
_chemical_formula_sum   'Rb6 Cu2 Si8'
_cell_volume   500.79448851
_cell_formula_units_Z   2
loop_
 _symmetry_equiv_pos_site_id
 _symmetry_equiv_pos_as_xyz
  1  'x, y, z'
loop_
 _atom_site_type_symbol
 _atom_site_label
 _atom_site_symmetry_multiplicity
 _atom_site_fract_x
 _atom_site_fract_y
 _atom_site_fract_z
 _atom_site_occupancy
  Rb  Rb0  1  0.432754  0.500000  0.500000  1
  Rb  Rb1  1  0.567246  0.000000  0.000000  1
  Rb  Rb2  1  0.163642  0.000000  0.234183  1
  Rb  Rb3  1  0.163642  0.000000  0.765817  1
  Rb  Rb4  1  0.836358  0.500000  0.265817  1
  Rb  Rb5  1  0.836358  0.500000  0.734183  1
  Cu  Cu6  1  0.692542  0.500000  0.000000  1
  Cu  Cu7  1  0.307458  0.000000  0.500000  1
  Si  Si8  1  0.948474  0.181955  0.500000  1
  Si  Si9  1  0.665045  0.000000  0.599991  1
  Si  Si10  1  0.334955  0.500000  0.099991  1
  Si  Si11  1  0.334955  0.500000  0.900009  1
  Si  Si12  1  0.051526  0.681955  0.000000  1
  Si  Si13  1  0.051526  0.318045  0.000000  1
  Si  Si14  1  0.665045  0.000000  0.400009  1
  Si  Si15  1  0.948474  0.818045  0.500000  1
