# generated using pymatgen
data_Ti19Si16Os
_symmetry_space_group_name_H-M   'P 1'
_cell_length_a   6.68051704
_cell_length_b   6.68051704
_cell_length_c   12.16623043
_cell_angle_alpha   89.91040998
_cell_angle_beta   90.08959002
_cell_angle_gamma   89.93756354
_symmetry_Int_Tables_number   1
_chemical_formula_structural   Ti19Si16Os
_chemical_formula_sum   'Ti19 Si16 Os1'
_cell_volume   542.96879248
_cell_formula_units_Z   1
loop_
 _symmetry_equiv_pos_site_id
 _symmetry_equiv_pos_as_xyz
  1  'x, y, z'
loop_
 _atom_site_type_symbol
 _atom_site_label
 _atom_site_symmetry_multiplicity
 _atom_site_fract_x
 _atom_site_fract_y
 _atom_site_fract_z
 _atom_site_occupancy
  Ti  Ti0  1  0.996291  0.147551  0.623911  1
  Ti  Ti1  1  0.352288  0.499609  0.869804  1
  Ti  Ti2  1  0.648929  0.503975  0.371021  1
  Ti  Ti3  1  0.499609  0.352288  0.130196  1
  Ti  Ti4  1  0.503975  0.648929  0.628979  1
  Ti  Ti5  1  0.004936  0.848835  0.120292  1
  Ti  Ti6  1  0.147551  0.996291  0.376089  1
  Ti  Ti7  1  0.848835  0.004936  0.879708  1
  Ti  Ti8  1  0.001882  0.346433  0.220324  1
  Ti  Ti9  1  0.154534  0.501911  0.468553  1
  Ti  Ti10  1  0.840580  0.500495  0.969758  1
  Ti  Ti11  1  0.501911  0.154534  0.531447  1
  Ti  Ti12  1  0.500495  0.840580  0.030242  1
  Ti  Ti13  1  0.997998  0.656330  0.720386  1
  Ti  Ti14  1  0.346433  0.001882  0.779676  1
  Ti  Ti15  1  0.656330  0.997998  0.279614  1
  Ti  Ti16  1  0.328059  0.671204  0.247681  1
  Ti  Ti17  1  0.671204  0.328059  0.752319  1
  Ti  Ti18  1  0.828524  0.828524  0.500000  1
  Si  Si19  1  0.046701  0.299873  0.815720  1
  Si  Si20  1  0.199380  0.539857  0.062701  1
  Si  Si21  1  0.801195  0.454231  0.564049  1
  Si  Si22  1  0.539857  0.199380  0.937299  1
  Si  Si23  1  0.454231  0.801195  0.435951  1
  Si  Si24  1  0.955425  0.698450  0.313948  1
  Si  Si25  1  0.299873  0.046701  0.184280  1
  Si  Si26  1  0.698450  0.955425  0.686052  1
  Si  Si27  1  0.294474  0.356702  0.673244  1
  Si  Si28  1  0.141517  0.795409  0.921545  1
  Si  Si29  1  0.857387  0.205319  0.423808  1
  Si  Si30  1  0.795409  0.141517  0.078455  1
  Si  Si31  1  0.205319  0.857387  0.576192  1
  Si  Si32  1  0.706076  0.644334  0.173313  1
  Si  Si33  1  0.356702  0.294474  0.326756  1
  Si  Si34  1  0.644334  0.706076  0.826687  1
  Os  Os35  1  0.173309  0.173309  0.000000  1
