# generated using pymatgen
data_MnZn2P6IN12
_symmetry_space_group_name_H-M   'P 1'
_cell_length_a   7.29339163
_cell_length_b   7.26638629
_cell_length_c   7.29339151
_cell_angle_alpha   109.44768669
_cell_angle_beta   110.59503773
_cell_angle_gamma   109.44766406
_symmetry_Int_Tables_number   1
_chemical_formula_structural   MnZn2P6IN12
_chemical_formula_sum   'Mn1 Zn2 P6 I1 N12'
_cell_volume   293.49723739
_cell_formula_units_Z   1
loop_
 _symmetry_equiv_pos_site_id
 _symmetry_equiv_pos_as_xyz
  1  'x, y, z'
loop_
 _atom_site_type_symbol
 _atom_site_label
 _atom_site_symmetry_multiplicity
 _atom_site_fract_x
 _atom_site_fract_y
 _atom_site_fract_z
 _atom_site_occupancy
  Mn  Mn0  1  0.046954  0.435221  0.046954  1
  Zn  Zn1  1  0.002059  0.997071  0.373575  1
  Zn  Zn2  1  0.373575  0.997071  0.002059  1
  P  P3  1  0.510502  0.258312  0.756526  1
  P  P4  1  0.243997  0.747114  0.495784  1
  P  P5  1  0.733569  0.494372  0.261751  1
  P  P6  1  0.756526  0.258312  0.510502  1
  P  P7  1  0.495784  0.747114  0.243997  1
  P  P8  1  0.261751  0.494372  0.733569  1
  I  I9  1  0.992692  0.990526  0.992692  1
  N  N10  1  0.353380  0.646948  0.353380  1
  N  N11  1  0.712016  0.434998  0.446327  1
  N  N12  1  0.446327  0.434998  0.712016  1
  N  N13  1  0.747824  0.291907  0.747824  1
  N  N14  1  0.981481  0.562046  0.281646  1
  N  N15  1  0.281646  0.562046  0.981481  1
  N  N16  1  0.289347  0.000511  0.555917  1
  N  N17  1  0.001184  0.274896  0.550334  1
  N  N18  1  0.722374  0.728379  0.300757  1
  N  N19  1  0.555917  0.000511  0.289347  1
  N  N20  1  0.300757  0.728379  0.722374  1
  N  N21  1  0.550334  0.274896  0.001184  1
