# generated using pymatgen
data_LaYb(TaS2)6
_symmetry_space_group_name_H-M   'P 1'
_cell_length_a   5.80468000
_cell_length_b   5.80468020
_cell_length_c   14.38329300
_cell_angle_alpha   90.00000000
_cell_angle_beta   90.00000000
_cell_angle_gamma   120.00001023
_symmetry_Int_Tables_number   1
_chemical_formula_structural   LaYb(TaS2)6
_chemical_formula_sum   'La1 Yb1 Ta6 S12'
_cell_volume   419.70630721
_cell_formula_units_Z   1
loop_
 _symmetry_equiv_pos_site_id
 _symmetry_equiv_pos_as_xyz
  1  'x, y, z'
loop_
 _atom_site_type_symbol
 _atom_site_label
 _atom_site_symmetry_multiplicity
 _atom_site_fract_x
 _atom_site_fract_y
 _atom_site_fract_z
 _atom_site_occupancy
  La  La0  1  0.000000  0.000000  0.500000  1
  Yb  Yb1  1  0.000000  0.000000  0.000000  1
  Ta  Ta2  1  0.333333  0.666667  0.246800  1
  Ta  Ta3  1  0.666667  0.333333  0.753200  1
  Ta  Ta4  1  0.666667  0.333333  0.246800  1
  Ta  Ta5  1  0.333333  0.666667  0.753200  1
  Ta  Ta6  1  0.000000  0.000000  0.248369  1
  Ta  Ta7  1  0.000000  0.000000  0.751631  1
  S  S8  1  0.335204  0.000000  0.138282  1
  S  S9  1  0.000000  0.335204  0.138282  1
  S  S10  1  0.664796  0.664796  0.138282  1
  S  S11  1  0.339577  0.339577  0.643501  1
  S  S12  1  0.660423  0.660423  0.356499  1
  S  S13  1  0.660423  0.000000  0.643501  1
  S  S14  1  0.000000  0.660423  0.643501  1
  S  S15  1  0.000000  0.664796  0.861718  1
  S  S16  1  0.335204  0.335204  0.861718  1
  S  S17  1  0.000000  0.339577  0.356499  1
  S  S18  1  0.339577  0.000000  0.356499  1
  S  S19  1  0.664796  0.000000  0.861718  1
