# generated using pymatgen
data_Dy2Ho6In2IrPt
_symmetry_space_group_name_H-M   'P 1'
_cell_length_a   9.63579399
_cell_length_b   9.65816762
_cell_length_c   9.66049825
_cell_angle_alpha   60.23594185
_cell_angle_beta   60.09485032
_cell_angle_gamma   60.07896728
_symmetry_Int_Tables_number   1
_chemical_formula_structural   Dy2Ho6In2IrPt
_chemical_formula_sum   'Dy4 Ho12 In4 Ir2 Pt2'
_cell_volume   637.68539615
_cell_formula_units_Z   2
loop_
 _symmetry_equiv_pos_site_id
 _symmetry_equiv_pos_as_xyz
  1  'x, y, z'
loop_
 _atom_site_type_symbol
 _atom_site_label
 _atom_site_symmetry_multiplicity
 _atom_site_fract_x
 _atom_site_fract_y
 _atom_site_fract_z
 _atom_site_occupancy
  Dy  Dy0  1  0.441164  0.436276  0.060955  1
  Dy  Dy1  1  0.650641  0.645497  0.053388  1
  Dy  Dy2  1  0.187457  0.808398  0.194323  1
  Dy  Dy3  1  0.061572  0.436327  0.061014  1
  Ho  Ho4  1  0.191559  0.808529  0.808216  1
  Ho  Ho5  1  0.061617  0.438178  0.438510  1
  Ho  Ho6  1  0.809726  0.190163  0.190288  1
  Ho  Ho7  1  0.654329  0.649712  0.649584  1
  Ho  Ho8  1  0.809941  0.194188  0.808243  1
  Ho  Ho9  1  0.187579  0.194311  0.808169  1
  Ho  Ho10  1  0.046303  0.649680  0.649738  1
  Ho  Ho11  1  0.439325  0.060708  0.060793  1
  Ho  Ho12  1  0.061523  0.060921  0.436568  1
  Ho  Ho13  1  0.650605  0.053254  0.645561  1
  Ho  Ho14  1  0.809753  0.808418  0.194243  1
  Ho  Ho15  1  0.441098  0.060845  0.436513  1
  In  In16  1  0.416465  0.416795  0.417096  1
  In  In17  1  0.416725  0.417339  0.749231  1
  In  In18  1  0.416563  0.749542  0.417408  1
  In  In19  1  0.749666  0.416833  0.417067  1
  Ir  Ir20  1  0.857387  0.425237  0.860019  1
  Ir  Ir21  1  0.856854  0.860284  0.425727  1
  Pt  Pt22  1  0.426691  0.859297  0.858531  1
  Pt  Pt23  1  0.855453  0.859271  0.858816  1
