# generated using pymatgen
data_Th4Al4Ru3Rh
_symmetry_space_group_name_H-M   'P 1'
_cell_length_a   4.24713100
_cell_length_b   6.98574594
_cell_length_c   8.27009633
_cell_angle_alpha   89.88236672
_cell_angle_beta   90.00000000
_cell_angle_gamma   90.00000000
_symmetry_Int_Tables_number   1
_chemical_formula_structural   Th4Al4Ru3Rh
_chemical_formula_sum   'Th4 Al4 Ru3 Rh1'
_cell_volume   245.36809818
_cell_formula_units_Z   1
loop_
 _symmetry_equiv_pos_site_id
 _symmetry_equiv_pos_as_xyz
  1  'x, y, z'
loop_
 _atom_site_type_symbol
 _atom_site_label
 _atom_site_symmetry_multiplicity
 _atom_site_fract_x
 _atom_site_fract_y
 _atom_site_fract_z
 _atom_site_occupancy
  Th  Th0  1  0.250000  0.962907  0.315498  1
  Th  Th1  1  0.750000  0.536465  0.820922  1
  Th  Th2  1  0.250000  0.461719  0.182413  1
  Th  Th3  1  0.750000  0.042029  0.681945  1
  Al  Al4  1  0.750000  0.627522  0.442605  1
  Al  Al5  1  0.750000  0.128485  0.057267  1
  Al  Al6  1  0.250000  0.370413  0.557609  1
  Al  Al7  1  0.250000  0.871992  0.942508  1
  Ru  Ru8  1  0.750000  0.753772  0.123237  1
  Ru  Ru9  1  0.750000  0.254188  0.378207  1
  Ru  Ru10  1  0.250000  0.246595  0.876215  1
  Rh  Rh11  1  0.250000  0.743914  0.621574  1
