# generated using pymatgen
data_LiY2(ScSn2)2
_symmetry_space_group_name_H-M   'P 1'
_cell_length_a   7.44555600
_cell_length_b   7.97642300
_cell_length_c   15.05969500
_cell_angle_alpha   90.00000000
_cell_angle_beta   90.00000000
_cell_angle_gamma   90.00000000
_symmetry_Int_Tables_number   1
_chemical_formula_structural   LiY2(ScSn2)2
_chemical_formula_sum   'Li4 Y8 Sc8 Sn16'
_cell_volume   894.37878252
_cell_formula_units_Z   4
loop_
 _symmetry_equiv_pos_site_id
 _symmetry_equiv_pos_as_xyz
  1  'x, y, z'
loop_
 _atom_site_type_symbol
 _atom_site_label
 _atom_site_symmetry_multiplicity
 _atom_site_fract_x
 _atom_site_fract_y
 _atom_site_fract_z
 _atom_site_occupancy
  Li  Li0  1  0.172851  0.497889  0.750000  1
  Li  Li1  1  0.672851  0.002111  0.750000  1
  Li  Li2  1  0.827149  0.502111  0.250000  1
  Li  Li3  1  0.327149  0.997889  0.250000  1
  Y  Y4  1  0.505103  0.318884  0.906391  1
  Y  Y5  1  0.005103  0.181116  0.593609  1
  Y  Y6  1  0.494897  0.681116  0.406391  1
  Y  Y7  1  0.994897  0.818884  0.093609  1
  Y  Y8  1  0.494897  0.681116  0.093609  1
  Y  Y9  1  0.994897  0.818884  0.406391  1
  Y  Y10  1  0.505103  0.318884  0.593609  1
  Y  Y11  1  0.005103  0.181116  0.906391  1
  Sc  Sc12  1  0.339823  0.833037  0.873546  1
  Sc  Sc13  1  0.839823  0.666963  0.626454  1
  Sc  Sc14  1  0.660177  0.166963  0.373546  1
  Sc  Sc15  1  0.160177  0.333037  0.126454  1
  Sc  Sc16  1  0.660177  0.166963  0.126454  1
  Sc  Sc17  1  0.160177  0.333037  0.373546  1
  Sc  Sc18  1  0.339823  0.833037  0.626454  1
  Sc  Sc19  1  0.839823  0.666963  0.873546  1
  Sn  Sn20  1  0.319259  0.042263  0.039991  1
  Sn  Sn21  1  0.819259  0.457737  0.460009  1
  Sn  Sn22  1  0.680741  0.957737  0.539991  1
  Sn  Sn23  1  0.180741  0.542263  0.960009  1
  Sn  Sn24  1  0.680741  0.957737  0.960009  1
  Sn  Sn25  1  0.180741  0.542263  0.539991  1
  Sn  Sn26  1  0.319259  0.042263  0.460009  1
  Sn  Sn27  1  0.819259  0.457737  0.039991  1
  Sn  Sn28  1  0.530253  0.614125  0.750000  1
  Sn  Sn29  1  0.030253  0.885875  0.750000  1
  Sn  Sn30  1  0.469747  0.385875  0.250000  1
  Sn  Sn31  1  0.969747  0.114125  0.250000  1
  Sn  Sn32  1  0.310164  0.139224  0.750000  1
  Sn  Sn33  1  0.810164  0.360776  0.750000  1
  Sn  Sn34  1  0.689836  0.860776  0.250000  1
  Sn  Sn35  1  0.189836  0.639224  0.250000  1
