# generated using pymatgen
data_Nd2HoTm5(Si3Pt)4
_symmetry_space_group_name_H-M   'P 1'
_cell_length_a   8.11902500
_cell_length_b   8.12446066
_cell_length_c   8.17892900
_cell_angle_alpha   90.00000000
_cell_angle_beta   90.00000000
_cell_angle_gamma   120.02214126
_symmetry_Int_Tables_number   1
_chemical_formula_structural   Nd2HoTm5(Si3Pt)4
_chemical_formula_sum   'Nd2 Ho1 Tm5 Si12 Pt4'
_cell_volume   467.12009442
_cell_formula_units_Z   1
loop_
 _symmetry_equiv_pos_site_id
 _symmetry_equiv_pos_as_xyz
  1  'x, y, z'
loop_
 _atom_site_type_symbol
 _atom_site_label
 _atom_site_symmetry_multiplicity
 _atom_site_fract_x
 _atom_site_fract_y
 _atom_site_fract_z
 _atom_site_occupancy
  Nd  Nd0  1  0.999785  0.999892  0.250000  1
  Nd  Nd1  1  0.999810  0.999905  0.750000  1
  Ho  Ho2  1  0.000934  0.500467  0.750000  1
  Tm  Tm3  1  0.500599  0.499578  0.250000  1
  Tm  Tm4  1  0.500599  0.001021  0.250000  1
  Tm  Tm5  1  0.999044  0.499523  0.250000  1
  Tm  Tm6  1  0.499569  0.500494  0.750000  1
  Tm  Tm7  1  0.499569  0.999073  0.750000  1
  Si  Si8  1  0.166571  0.833562  0.499072  1
  Si  Si9  1  0.166571  0.333010  0.499072  1
  Si  Si10  1  0.667448  0.833724  0.500009  1
  Si  Si11  1  0.833480  0.166463  0.499943  1
  Si  Si12  1  0.833480  0.667016  0.499943  1
  Si  Si13  1  0.332523  0.166261  0.500745  1
  Si  Si14  1  0.833480  0.166463  0.000057  1
  Si  Si15  1  0.833480  0.667016  0.000057  1
  Si  Si16  1  0.332523  0.166261  0.999255  1
  Si  Si17  1  0.166571  0.833562  0.000928  1
  Si  Si18  1  0.166571  0.333010  0.000928  1
  Si  Si19  1  0.667448  0.833724  0.999991  1
  Pt  Pt20  1  0.333942  0.666972  0.497707  1
  Pt  Pt21  1  0.666034  0.333017  0.498885  1
  Pt  Pt22  1  0.666034  0.333017  0.001115  1
  Pt  Pt23  1  0.333942  0.666972  0.002293  1
