# generated using pymatgen
data_ErPa3Al18(OsRh2)2
_symmetry_space_group_name_H-M   'P 1'
_cell_length_a   7.58065435
_cell_length_b   7.58887975
_cell_length_c   9.31318900
_cell_angle_alpha   90.00000000
_cell_angle_beta   90.00000000
_cell_angle_gamma   118.90265461
_symmetry_Int_Tables_number   1
_chemical_formula_structural   ErPa3Al18(OsRh2)2
_chemical_formula_sum   'Er1 Pa3 Al18 Os2 Rh4'
_cell_volume   469.04037471
_cell_formula_units_Z   1
loop_
 _symmetry_equiv_pos_site_id
 _symmetry_equiv_pos_as_xyz
  1  'x, y, z'
loop_
 _atom_site_type_symbol
 _atom_site_label
 _atom_site_symmetry_multiplicity
 _atom_site_fract_x
 _atom_site_fract_y
 _atom_site_fract_z
 _atom_site_occupancy
  Er  Er0  1  0.320323  0.005128  0.250000  1
  Pa  Pa1  1  0.992117  0.691468  0.750000  1
  Pa  Pa2  1  0.000928  0.316659  0.250000  1
  Pa  Pa3  1  0.691570  0.993257  0.750000  1
  Al  Al4  1  0.148874  0.147104  0.750000  1
  Al  Al5  1  0.866857  0.867129  0.250000  1
  Al  Al6  1  0.005474  0.345076  0.580301  1
  Al  Al7  1  0.999771  0.664005  0.420072  1
  Al  Al8  1  0.999771  0.664005  0.079928  1
  Al  Al9  1  0.341840  0.003099  0.922663  1
  Al  Al10  1  0.005474  0.345076  0.919699  1
  Al  Al11  1  0.656693  0.995226  0.080385  1
  Al  Al12  1  0.656693  0.995226  0.419615  1
  Al  Al13  1  0.341840  0.003099  0.577337  1
  Al  Al14  1  0.329758  0.327377  0.050931  1
  Al  Al15  1  0.659905  0.659696  0.959017  1
  Al  Al16  1  0.659905  0.659696  0.540983  1
  Al  Al17  1  0.329758  0.327377  0.449069  1
  Al  Al18  1  0.348099  0.559606  0.750000  1
  Al  Al19  1  0.656666  0.443213  0.250000  1
  Al  Al20  1  0.558767  0.346148  0.750000  1
  Al  Al21  1  0.441774  0.651783  0.250000  1
  Os  Os22  1  0.993153  0.996233  0.507509  1
  Os  Os23  1  0.993153  0.996233  0.992491  1
  Rh  Rh24  1  0.674363  0.326877  0.500051  1
  Rh  Rh25  1  0.326056  0.671663  0.500260  1
  Rh  Rh26  1  0.326056  0.671663  0.999740  1
  Rh  Rh27  1  0.674363  0.326877  0.999949  1
