# generated using pymatgen
data_Tb16Mg2Cd2OsPd3
_symmetry_space_group_name_H-M   'P 1'
_cell_length_a   9.79870030
_cell_length_b   9.79869992
_cell_length_c   9.81201979
_cell_angle_alpha   59.33486417
_cell_angle_beta   59.33486372
_cell_angle_gamma   59.25678717
_symmetry_Int_Tables_number   1
_chemical_formula_structural   Tb16Mg2Cd2OsPd3
_chemical_formula_sum   'Tb16 Mg2 Cd2 Os1 Pd3'
_cell_volume   655.67854118
_cell_formula_units_Z   1
loop_
 _symmetry_equiv_pos_site_id
 _symmetry_equiv_pos_as_xyz
  1  'x, y, z'
loop_
 _atom_site_type_symbol
 _atom_site_label
 _atom_site_symmetry_multiplicity
 _atom_site_fract_x
 _atom_site_fract_y
 _atom_site_fract_z
 _atom_site_occupancy
  Tb  Tb0  1  0.352027  0.352027  0.353130  1
  Tb  Tb1  1  0.348934  0.348934  0.948349  1
  Tb  Tb2  1  0.347617  0.951571  0.348382  1
  Tb  Tb3  1  0.951571  0.347617  0.348382  1
  Tb  Tb4  1  0.815962  0.188841  0.188107  1
  Tb  Tb5  1  0.187406  0.810373  0.810430  1
  Tb  Tb6  1  0.188841  0.815962  0.188107  1
  Tb  Tb7  1  0.810373  0.187406  0.810430  1
  Tb  Tb8  1  0.189747  0.189747  0.814910  1
  Tb  Tb9  1  0.811719  0.811719  0.185968  1
  Tb  Tb10  1  0.935115  0.566935  0.566537  1
  Tb  Tb11  1  0.559358  0.938193  0.935081  1
  Tb  Tb12  1  0.566935  0.935115  0.566537  1
  Tb  Tb13  1  0.938193  0.559358  0.935081  1
  Tb  Tb14  1  0.567546  0.567546  0.932655  1
  Tb  Tb15  1  0.937135  0.937135  0.558501  1
  Mg  Mg16  1  0.576088  0.576088  0.579459  1
  Mg  Mg17  1  0.576086  0.576086  0.265229  1
  Cd  Cd18  1  0.581689  0.253539  0.580960  1
  Cd  Cd19  1  0.253539  0.581689  0.580960  1
  Os  Os20  1  0.144096  0.144096  0.142447  1
  Pd  Pd21  1  0.144655  0.144655  0.571209  1
  Pd  Pd22  1  0.145196  0.570172  0.144574  1
  Pd  Pd23  1  0.570172  0.145196  0.144574  1
