# generated using pymatgen
data_ErLu3ReB12Rh
_symmetry_space_group_name_H-M   'P 1'
_cell_length_a   3.62389700
_cell_length_b   9.04948150
_cell_length_c   11.43570200
_cell_angle_alpha   90.38747186
_cell_angle_beta   90.00000000
_cell_angle_gamma   90.00000000
_symmetry_Int_Tables_number   1
_chemical_formula_structural   ErLu3ReB12Rh
_chemical_formula_sum   'Er2 Lu6 Re2 B24 Rh2'
_cell_volume   375.01828259
_cell_formula_units_Z   2
loop_
 _symmetry_equiv_pos_site_id
 _symmetry_equiv_pos_as_xyz
  1  'x, y, z'
loop_
 _atom_site_type_symbol
 _atom_site_label
 _atom_site_symmetry_multiplicity
 _atom_site_fract_x
 _atom_site_fract_y
 _atom_site_fract_z
 _atom_site_occupancy
  Er  Er0  1  0.000000  0.317486  0.410885  1
  Er  Er1  1  0.000000  0.682514  0.589115  1
  Lu  Lu2  1  0.000000  0.825623  0.082274  1
  Lu  Lu3  1  0.000000  0.174377  0.917726  1
  Lu  Lu4  1  0.000000  0.945505  0.371869  1
  Lu  Lu5  1  0.000000  0.054495  0.628131  1
  Lu  Lu6  1  0.000000  0.442390  0.126207  1
  Lu  Lu7  1  0.000000  0.557610  0.873793  1
  Re  Re8  1  0.000000  0.138559  0.179491  1
  Re  Re9  1  0.000000  0.861441  0.820509  1
  B  B10  1  0.500000  0.554603  0.434400  1
  B  B11  1  0.500000  0.445397  0.565600  1
  B  B12  1  0.500000  0.052728  0.066669  1
  B  B13  1  0.500000  0.947272  0.933331  1
  B  B14  1  0.500000  0.750336  0.421259  1
  B  B15  1  0.500000  0.249664  0.578741  1
  B  B16  1  0.500000  0.249549  0.080414  1
  B  B17  1  0.500000  0.750451  0.919586  1
  B  B18  1  0.500000  0.792275  0.264340  1
  B  B19  1  0.500000  0.207725  0.735660  1
  B  B20  1  0.500000  0.293696  0.234861  1
  B  B21  1  0.500000  0.706304  0.765139  1
  B  B22  1  0.500000  0.632246  0.182364  1
  B  B23  1  0.500000  0.367754  0.817636  1
  B  B24  1  0.500000  0.131083  0.315462  1
  B  B25  1  0.500000  0.868917  0.684538  1
  B  B26  1  0.500000  0.981410  0.213008  1
  B  B27  1  0.500000  0.018590  0.786992  1
  B  B28  1  0.500000  0.482901  0.287222  1
  B  B29  1  0.500000  0.517099  0.712778  1
  B  B30  1  0.500000  0.604612  0.028987  1
  B  B31  1  0.500000  0.395388  0.971013  1
  B  B32  1  0.500000  0.104627  0.471873  1
  B  B33  1  0.500000  0.895373  0.528127  1
  Rh  Rh34  1  0.000000  0.638653  0.320424  1
  Rh  Rh35  1  0.000000  0.361347  0.679576  1
