# generated using pymatgen
data_Ho6Tm10Al4NiRu3
_symmetry_space_group_name_H-M   'P 1'
_cell_length_a   9.38968252
_cell_length_b   9.42177372
_cell_length_c   9.42471838
_cell_angle_alpha   60.04343786
_cell_angle_beta   59.89444983
_cell_angle_gamma   59.89652410
_symmetry_Int_Tables_number   1
_chemical_formula_structural   Ho6Tm10Al4NiRu3
_chemical_formula_sum   'Ho6 Tm10 Al4 Ni1 Ru3'
_cell_volume   588.83146208
_cell_formula_units_Z   1
loop_
 _symmetry_equiv_pos_site_id
 _symmetry_equiv_pos_as_xyz
  1  'x, y, z'
loop_
 _atom_site_type_symbol
 _atom_site_label
 _atom_site_symmetry_multiplicity
 _atom_site_fract_x
 _atom_site_fract_y
 _atom_site_fract_z
 _atom_site_occupancy
  Ho  Ho0  1  0.938937  0.559755  0.559593  1
  Ho  Ho1  1  0.558733  0.938631  0.938552  1
  Ho  Ho2  1  0.558768  0.938169  0.564635  1
  Ho  Ho3  1  0.938494  0.560071  0.940993  1
  Ho  Ho4  1  0.558816  0.564439  0.938204  1
  Ho  Ho5  1  0.938585  0.941175  0.559878  1
  Tm  Tm6  1  0.352404  0.349827  0.349977  1
  Tm  Tm7  1  0.351180  0.350550  0.948165  1
  Tm  Tm8  1  0.351520  0.948053  0.350504  1
  Tm  Tm9  1  0.950637  0.349641  0.349494  1
  Tm  Tm10  1  0.806847  0.193214  0.193149  1
  Tm  Tm11  1  0.191904  0.806151  0.806205  1
  Tm  Tm12  1  0.192567  0.805766  0.195921  1
  Tm  Tm13  1  0.806396  0.193627  0.806262  1
  Tm  Tm14  1  0.192412  0.195876  0.805880  1
  Tm  Tm15  1  0.806470  0.806409  0.193496  1
  Al  Al16  1  0.577098  0.576780  0.576702  1
  Al  Al17  1  0.577403  0.576661  0.268966  1
  Al  Al18  1  0.577304  0.269057  0.576628  1
  Al  Al19  1  0.267554  0.577655  0.578124  1
  Ni  Ni20  1  0.577886  0.141020  0.140639  1
  Ru  Ru21  1  0.143091  0.138781  0.139080  1
  Ru  Ru22  1  0.142414  0.139504  0.579300  1
  Ru  Ru23  1  0.142580  0.579190  0.139652  1
