# generated using pymatgen
data_Dy2YMg(GaPt)4
_symmetry_space_group_name_H-M   'P 1'
_cell_length_a   4.36344000
_cell_length_b   6.86307687
_cell_length_c   7.71643107
_cell_angle_alpha   93.69291848
_cell_angle_beta   90.00000000
_cell_angle_gamma   90.00000000
_symmetry_Int_Tables_number   1
_chemical_formula_structural   Dy2YMg(GaPt)4
_chemical_formula_sum   'Dy2 Y1 Mg1 Ga4 Pt4'
_cell_volume   230.60124118
_cell_formula_units_Z   1
loop_
 _symmetry_equiv_pos_site_id
 _symmetry_equiv_pos_as_xyz
  1  'x, y, z'
loop_
 _atom_site_type_symbol
 _atom_site_label
 _atom_site_symmetry_multiplicity
 _atom_site_fract_x
 _atom_site_fract_y
 _atom_site_fract_z
 _atom_site_occupancy
  Dy  Dy0  1  0.750000  0.019167  0.677793  1
  Dy  Dy1  1  0.750000  0.527016  0.811548  1
  Y  Y2  1  0.250000  0.478393  0.192676  1
  Mg  Mg3  1  0.250000  0.980807  0.316286  1
  Ga  Ga4  1  0.250000  0.333757  0.565932  1
  Ga  Ga5  1  0.250000  0.848330  0.940233  1
  Ga  Ga6  1  0.750000  0.654846  0.430167  1
  Ga  Ga7  1  0.750000  0.156064  0.066597  1
  Pt  Pt8  1  0.250000  0.226037  0.880670  1
  Pt  Pt9  1  0.250000  0.725210  0.607127  1
  Pt  Pt10  1  0.750000  0.784077  0.122665  1
  Pt  Pt11  1  0.750000  0.266294  0.388306  1
