# generated using pymatgen
data_Er16In2Hg2Pt3Rh
_symmetry_space_group_name_H-M   'P 1'
_cell_length_a   9.57088908
_cell_length_b   9.56745122
_cell_length_c   9.56745101
_cell_angle_alpha   60.36225921
_cell_angle_beta   60.18145788
_cell_angle_gamma   60.18146762
_symmetry_Int_Tables_number   1
_chemical_formula_structural   Er16In2Hg2Pt3Rh
_chemical_formula_sum   'Er16 In2 Hg2 Pt3 Rh1'
_cell_volume   622.86937434
_cell_formula_units_Z   1
loop_
 _symmetry_equiv_pos_site_id
 _symmetry_equiv_pos_as_xyz
  1  'x, y, z'
loop_
 _atom_site_type_symbol
 _atom_site_label
 _atom_site_symmetry_multiplicity
 _atom_site_fract_x
 _atom_site_fract_y
 _atom_site_fract_z
 _atom_site_occupancy
  Er  Er0  1  0.190912  0.190509  0.806944  1
  Er  Er1  1  0.438610  0.060752  0.060752  1
  Er  Er2  1  0.435818  0.062378  0.432865  1
  Er  Er3  1  0.065802  0.435400  0.060582  1
  Er  Er4  1  0.647398  0.057789  0.646424  1
  Er  Er5  1  0.188068  0.809803  0.809803  1
  Er  Er6  1  0.065802  0.060582  0.435400  1
  Er  Er7  1  0.807824  0.191192  0.191192  1
  Er  Er8  1  0.811333  0.808508  0.187563  1
  Er  Er9  1  0.647398  0.646424  0.057789  1
  Er  Er10  1  0.648550  0.649725  0.649725  1
  Er  Er11  1  0.065707  0.434343  0.434343  1
  Er  Er12  1  0.057583  0.647719  0.647719  1
  Er  Er13  1  0.811333  0.187563  0.808508  1
  Er  Er14  1  0.435818  0.432865  0.062378  1
  Er  Er15  1  0.190912  0.806944  0.190509  1
  In  In16  1  0.745965  0.419286  0.419286  1
  In  In17  1  0.415914  0.418558  0.418558  1
  Hg  Hg18  1  0.413814  0.762158  0.414214  1
  Hg  Hg19  1  0.413814  0.414214  0.762158  1
  Pt  Pt20  1  0.858453  0.428308  0.858568  1
  Pt  Pt21  1  0.858453  0.858568  0.428308  1
  Pt  Pt22  1  0.428403  0.859569  0.859569  1
  Rh  Rh23  1  0.856314  0.856843  0.856843  1
