# generated using pymatgen
data_Eu2(Al3Rh)3
_symmetry_space_group_name_H-M   'P 1'
_cell_length_a   7.58387680
_cell_length_b   7.58386314
_cell_length_c   9.65625300
_cell_angle_alpha   90.00000000
_cell_angle_beta   90.00000000
_cell_angle_gamma   118.48344664
_symmetry_Int_Tables_number   1
_chemical_formula_structural   Eu2(Al3Rh)3
_chemical_formula_sum   'Eu4 Al18 Rh6'
_cell_volume   488.15416612
_cell_formula_units_Z   2
loop_
 _symmetry_equiv_pos_site_id
 _symmetry_equiv_pos_as_xyz
  1  'x, y, z'
loop_
 _atom_site_type_symbol
 _atom_site_label
 _atom_site_symmetry_multiplicity
 _atom_site_fract_x
 _atom_site_fract_y
 _atom_site_fract_z
 _atom_site_occupancy
  Eu  Eu0  1  0.993522  0.676719  0.750000  1
  Eu  Eu1  1  0.006478  0.323281  0.250000  1
  Eu  Eu2  1  0.676719  0.993522  0.750000  1
  Eu  Eu3  1  0.323281  0.006478  0.250000  1
  Al  Al4  1  0.136308  0.136308  0.750000  1
  Al  Al5  1  0.863692  0.863692  0.250000  1
  Al  Al6  1  0.002797  0.338409  0.574263  1
  Al  Al7  1  0.997203  0.661591  0.425737  1
  Al  Al8  1  0.997203  0.661591  0.074263  1
  Al  Al9  1  0.338409  0.002797  0.925737  1
  Al  Al10  1  0.002797  0.338409  0.925737  1
  Al  Al11  1  0.661591  0.997203  0.074263  1
  Al  Al12  1  0.661591  0.997203  0.425737  1
  Al  Al13  1  0.338409  0.002797  0.574263  1
  Al  Al14  1  0.333293  0.333293  0.039226  1
  Al  Al15  1  0.666707  0.666707  0.960774  1
  Al  Al16  1  0.666707  0.666707  0.539226  1
  Al  Al17  1  0.333293  0.333293  0.460774  1
  Al  Al18  1  0.340928  0.551420  0.750000  1
  Al  Al19  1  0.659072  0.448580  0.250000  1
  Al  Al20  1  0.551420  0.340928  0.750000  1
  Al  Al21  1  0.448580  0.659072  0.250000  1
  Rh  Rh22  1  0.671123  0.328877  0.500000  1
  Rh  Rh23  1  0.328877  0.671123  0.500000  1
  Rh  Rh24  1  0.328877  0.671123  0.000000  1
  Rh  Rh25  1  0.671123  0.328877  0.000000  1
  Rh  Rh26  1  0.000000  0.000000  0.500000  1
  Rh  Rh27  1  0.000000  0.000000  0.000000  1
