# generated using pymatgen
data_Ho3Cd2In3Ru
_symmetry_space_group_name_H-M   'P 1'
_cell_length_a   8.20767700
_cell_length_b   8.20767830
_cell_length_c   3.65769800
_cell_angle_alpha   90.00000000
_cell_angle_beta   90.00000000
_cell_angle_gamma   119.99999181
_symmetry_Int_Tables_number   1
_chemical_formula_structural   Ho3Cd2In3Ru
_chemical_formula_sum   'Ho3 Cd2 In3 Ru1'
_cell_volume   213.39247248
_cell_formula_units_Z   1
loop_
 _symmetry_equiv_pos_site_id
 _symmetry_equiv_pos_as_xyz
  1  'x, y, z'
loop_
 _atom_site_type_symbol
 _atom_site_label
 _atom_site_symmetry_multiplicity
 _atom_site_fract_x
 _atom_site_fract_y
 _atom_site_fract_z
 _atom_site_occupancy
  Ho  Ho0  1  0.584200  0.626688  0.000000  1
  Ho  Ho1  1  0.373312  0.957512  0.000000  1
  Ho  Ho2  1  0.042488  0.415800  0.000000  1
  Cd  Cd3  1  0.000000  0.000000  0.000000  1
  Cd  Cd4  1  0.666667  0.333333  0.500000  1
  In  In5  1  0.996645  0.712898  0.500000  1
  In  In6  1  0.287102  0.283747  0.500000  1
  In  In7  1  0.716253  0.003355  0.500000  1
  Ru  Ru8  1  0.333333  0.666667  0.500000  1
