# generated using pymatgen
data_YbHo3OsRu7
_symmetry_space_group_name_H-M   'P 1'
_cell_length_a   5.21310332
_cell_length_b   5.32494294
_cell_length_c   8.94116505
_cell_angle_alpha   89.99999910
_cell_angle_beta   90.01150726
_cell_angle_gamma   120.71225817
_symmetry_Int_Tables_number   1
_chemical_formula_structural   YbHo3OsRu7
_chemical_formula_sum   'Yb1 Ho3 Os1 Ru7'
_cell_volume   213.38999426
_cell_formula_units_Z   1
loop_
 _symmetry_equiv_pos_site_id
 _symmetry_equiv_pos_as_xyz
  1  'x, y, z'
loop_
 _atom_site_type_symbol
 _atom_site_label
 _atom_site_symmetry_multiplicity
 _atom_site_fract_x
 _atom_site_fract_y
 _atom_site_fract_z
 _atom_site_occupancy
  Yb  Yb0  1  0.327662  0.663831  0.064655  1
  Ho  Ho1  1  0.329407  0.664704  0.428484  1
  Ho  Ho2  1  0.661902  0.330951  0.567118  1
  Ho  Ho3  1  0.660315  0.330157  0.937984  1
  Os  Os4  1  0.673976  0.836988  0.750576  1
  Ru  Ru5  1  0.985767  0.992884  0.501326  1
  Ru  Ru6  1  0.983945  0.991973  0.999953  1
  Ru  Ru7  1  0.831618  0.165549  0.250106  1
  Ru  Ru8  1  0.831618  0.666069  0.250106  1
  Ru  Ru9  1  0.352593  0.176296  0.251303  1
  Ru  Ru10  1  0.180597  0.829967  0.749195  1
  Ru  Ru11  1  0.180597  0.350632  0.749195  1
