# generated using pymatgen
data_Rb6Na3GaAs4
_symmetry_space_group_name_H-M   'P 1'
_cell_length_a   10.04281500
_cell_length_b   10.04281482
_cell_length_c   10.51067900
_cell_angle_alpha   90.00000000
_cell_angle_beta   90.00000000
_cell_angle_gamma   119.99999729
_symmetry_Int_Tables_number   1
_chemical_formula_structural   Rb6Na3GaAs4
_chemical_formula_sum   'Rb12 Na6 Ga2 As8'
_cell_volume   918.06268108
_cell_formula_units_Z   2
loop_
 _symmetry_equiv_pos_site_id
 _symmetry_equiv_pos_as_xyz
  1  'x, y, z'
loop_
 _atom_site_type_symbol
 _atom_site_label
 _atom_site_symmetry_multiplicity
 _atom_site_fract_x
 _atom_site_fract_y
 _atom_site_fract_z
 _atom_site_occupancy
  Rb  Rb0  1  0.415478  0.207740  0.457145  1
  Rb  Rb1  1  0.792260  0.584522  0.042855  1
  Rb  Rb2  1  0.207740  0.415478  0.542855  1
  Rb  Rb3  1  0.584522  0.792260  0.957145  1
  Rb  Rb4  1  0.207740  0.415478  0.957145  1
  Rb  Rb5  1  0.207740  0.792260  0.957145  1
  Rb  Rb6  1  0.792260  0.584522  0.457145  1
  Rb  Rb7  1  0.207740  0.792260  0.542855  1
  Rb  Rb8  1  0.792260  0.207740  0.042855  1
  Rb  Rb9  1  0.584522  0.792260  0.542855  1
  Rb  Rb10  1  0.415478  0.207740  0.042855  1
  Rb  Rb11  1  0.792260  0.207740  0.457145  1
  Na  Na12  1  0.233547  0.116775  0.750000  1
  Na  Na13  1  0.883225  0.766453  0.750000  1
  Na  Na14  1  0.116775  0.883225  0.250000  1
  Na  Na15  1  0.766453  0.883225  0.250000  1
  Na  Na16  1  0.883225  0.116775  0.750000  1
  Na  Na17  1  0.116775  0.233547  0.250000  1
  Ga  Ga18  1  0.333333  0.666667  0.250000  1
  Ga  Ga19  1  0.666667  0.333333  0.750000  1
  As  As20  1  0.474542  0.949084  0.250000  1
  As  As21  1  0.525458  0.474542  0.750000  1
  As  As22  1  0.949084  0.474542  0.750000  1
  As  As23  1  0.050916  0.525458  0.250000  1
  As  As24  1  0.474542  0.525458  0.250000  1
  As  As25  1  0.525458  0.050916  0.750000  1
  As  As26  1  0.000000  0.000000  0.000000  1
  As  As27  1  0.000000  0.000000  0.500000  1
