# generated using pymatgen
data_SrAs12(IrOs)2
_symmetry_space_group_name_H-M   'P 1'
_cell_length_a   7.49196809
_cell_length_b   7.48043365
_cell_length_c   7.48043363
_cell_angle_alpha   109.40533617
_cell_angle_beta   109.47175353
_cell_angle_gamma   109.47411512
_symmetry_Int_Tables_number   1
_chemical_formula_structural   SrAs12(IrOs)2
_chemical_formula_sum   'Sr1 As12 Ir2 Os2'
_cell_volume   322.96966356
_cell_formula_units_Z   1
loop_
 _symmetry_equiv_pos_site_id
 _symmetry_equiv_pos_as_xyz
  1  'x, y, z'
loop_
 _atom_site_type_symbol
 _atom_site_label
 _atom_site_symmetry_multiplicity
 _atom_site_fract_x
 _atom_site_fract_y
 _atom_site_fract_z
 _atom_site_occupancy
  Sr  Sr0  1  0.000000  0.000000  0.000000  1
  As  As1  1  0.347456  0.200662  0.849617  1
  As  As2  1  0.652544  0.799338  0.150383  1
  As  As3  1  0.652544  0.502162  0.853207  1
  As  As4  1  0.347456  0.497838  0.146793  1
  As  As5  1  0.198014  0.850285  0.347730  1
  As  As6  1  0.801986  0.149715  0.652270  1
  As  As7  1  0.502113  0.852478  0.649635  1
  As  As8  1  0.497887  0.147522  0.350365  1
  As  As9  1  0.852933  0.350694  0.200693  1
  As  As10  1  0.147067  0.649306  0.799307  1
  As  As11  1  0.852933  0.652240  0.502239  1
  As  As12  1  0.147067  0.347760  0.497761  1
  Ir  Ir13  1  0.500000  0.000000  0.000000  1
  Ir  Ir14  1  0.500000  0.500000  0.500000  1
  Os  Os15  1  0.000000  0.000000  0.500000  1
  Os  Os16  1  0.000000  0.500000  0.000000  1
