# generated using pymatgen
data_Ac3Ag5Rh
_symmetry_space_group_name_H-M   'P 1'
_cell_length_a   8.07518500
_cell_length_b   8.07518495
_cell_length_c   4.14303000
_cell_angle_alpha   90.00000000
_cell_angle_beta   90.00000000
_cell_angle_gamma   120.00000431
_symmetry_Int_Tables_number   1
_chemical_formula_structural   Ac3Ag5Rh
_chemical_formula_sum   'Ac3 Ag5 Rh1'
_cell_volume   233.96648439
_cell_formula_units_Z   1
loop_
 _symmetry_equiv_pos_site_id
 _symmetry_equiv_pos_as_xyz
  1  'x, y, z'
loop_
 _atom_site_type_symbol
 _atom_site_label
 _atom_site_symmetry_multiplicity
 _atom_site_fract_x
 _atom_site_fract_y
 _atom_site_fract_z
 _atom_site_occupancy
  Ac  Ac0  1  0.608242  0.023767  0.500000  1
  Ac  Ac1  1  0.415525  0.391758  0.500000  1
  Ac  Ac2  1  0.976233  0.584475  0.500000  1
  Ag  Ag3  1  0.253070  0.995550  0.000000  1
  Ag  Ag4  1  0.742480  0.746930  0.000000  1
  Ag  Ag5  1  0.004450  0.257520  0.000000  1
  Ag  Ag6  1  0.000000  0.000000  0.500000  1
  Ag  Ag7  1  0.333333  0.666667  0.000000  1
  Rh  Rh8  1  0.666667  0.333333  0.000000  1
