# generated using pymatgen
data_SmPa3NiTe12
_symmetry_space_group_name_H-M   'P 1'
_cell_length_a   7.48942713
_cell_length_b   7.48579885
_cell_length_c   11.04155183
_cell_angle_alpha   70.51280017
_cell_angle_beta   70.57067457
_cell_angle_gamma   69.62164150
_symmetry_Int_Tables_number   1
_chemical_formula_structural   SmPa3NiTe12
_chemical_formula_sum   'Sm1 Pa3 Ni1 Te12'
_cell_volume   530.38479526
_cell_formula_units_Z   1
loop_
 _symmetry_equiv_pos_site_id
 _symmetry_equiv_pos_as_xyz
  1  'x, y, z'
loop_
 _atom_site_type_symbol
 _atom_site_label
 _atom_site_symmetry_multiplicity
 _atom_site_fract_x
 _atom_site_fract_y
 _atom_site_fract_z
 _atom_site_occupancy
  Sm  Sm0  1  0.190282  0.688629  0.167394  1
  Pa  Pa1  1  0.810901  0.810892  0.828871  1
  Pa  Pa2  1  0.311824  0.311427  0.830881  1
  Pa  Pa3  1  0.690818  0.191166  0.162735  1
  Ni  Ni4  1  0.810963  0.814685  0.540202  1
  Te  Te5  1  0.998073  0.012539  0.333717  1
  Te  Te6  1  0.504747  0.488205  0.338301  1
  Te  Te7  1  0.490998  0.992713  0.668506  1
  Te  Te8  1  0.994299  0.494364  0.664236  1
  Te  Te9  1  0.266086  0.249929  0.341378  1
  Te  Te10  1  0.746309  0.761719  0.339955  1
  Te  Te11  1  0.245504  0.742336  0.670311  1
  Te  Te12  1  0.742744  0.246202  0.666285  1
  Te  Te13  1  0.018494  0.028988  0.935859  1
  Te  Te14  1  0.527405  0.517301  0.937361  1
  Te  Te15  1  0.484027  0.984211  0.054170  1
  Te  Te16  1  0.977823  0.475993  0.054238  1
