# generated using pymatgen
data_BaV2(SeO3)4
_symmetry_space_group_name_H-M   'P 1'
_cell_length_a   5.33770900
_cell_length_b   10.32418941
_cell_length_c   14.26329605
_cell_angle_alpha   49.34717230
_cell_angle_beta   90.00000000
_cell_angle_gamma   90.00000000
_symmetry_Int_Tables_number   1
_chemical_formula_structural   BaV2(SeO3)4
_chemical_formula_sum   'Ba2 V4 Se8 O24'
_cell_volume   596.32664352
_cell_formula_units_Z   2
loop_
 _symmetry_equiv_pos_site_id
 _symmetry_equiv_pos_as_xyz
  1  'x, y, z'
loop_
 _atom_site_type_symbol
 _atom_site_label
 _atom_site_symmetry_multiplicity
 _atom_site_fract_x
 _atom_site_fract_y
 _atom_site_fract_z
 _atom_site_occupancy
  Ba  Ba0  1  0.066180  0.000000  0.750000  1
  Ba  Ba1  1  0.933820  0.000000  0.250000  1
  V  V2  1  0.000000  0.500000  0.500000  1
  V  V3  1  0.500000  0.000000  0.000000  1
  V  V4  1  0.500000  0.000000  0.500000  1
  V  V5  1  0.000000  0.500000  0.000000  1
  Se  Se6  1  0.492039  0.341345  0.180877  1
  Se  Se7  1  0.007529  0.746083  0.594534  1
  Se  Se8  1  0.007529  0.253917  0.905466  1
  Se  Se9  1  0.992471  0.253917  0.405466  1
  Se  Se10  1  0.507961  0.341345  0.680877  1
  Se  Se11  1  0.507961  0.658655  0.819123  1
  Se  Se12  1  0.492039  0.658655  0.319123  1
  Se  Se13  1  0.992471  0.746083  0.094534  1
  O  O14  1  0.206859  0.700525  0.355020  1
  O  O15  1  0.284050  0.818741  0.024303  1
  O  O16  1  0.793141  0.700525  0.855020  1
  O  O17  1  0.809035  0.910130  0.969973  1
  O  O18  1  0.715950  0.818741  0.524303  1
  O  O19  1  0.309362  0.345888  0.583383  1
  O  O20  1  0.190965  0.089870  0.030027  1
  O  O21  1  0.690638  0.345888  0.083383  1
  O  O22  1  0.793141  0.299475  0.644980  1
  O  O23  1  0.572866  0.137048  0.313345  1
  O  O24  1  0.690638  0.654112  0.416617  1
  O  O25  1  0.284050  0.181259  0.475697  1
  O  O26  1  0.572866  0.862952  0.186655  1
  O  O27  1  0.809035  0.089870  0.530027  1
  O  O28  1  0.427134  0.137048  0.813345  1
  O  O29  1  0.058886  0.420666  0.902602  1
  O  O30  1  0.715950  0.181259  0.975697  1
  O  O31  1  0.941114  0.420666  0.402602  1
  O  O32  1  0.058886  0.579334  0.597398  1
  O  O33  1  0.427134  0.862952  0.686655  1
  O  O34  1  0.309362  0.654112  0.916617  1
  O  O35  1  0.190965  0.910130  0.469973  1
  O  O36  1  0.941114  0.579334  0.097398  1
  O  O37  1  0.206859  0.299475  0.144980  1
