# generated using pymatgen
data_Er5IrPd2
_symmetry_space_group_name_H-M   'P 1'
_cell_length_a   6.27546500
_cell_length_b   11.04094200
_cell_length_c   11.04094200
_cell_angle_alpha   90.00000000
_cell_angle_beta   90.00000000
_cell_angle_gamma   90.00000000
_symmetry_Int_Tables_number   1
_chemical_formula_structural   Er5IrPd2
_chemical_formula_sum   'Er20 Ir4 Pd8'
_cell_volume   764.99424617
_cell_formula_units_Z   4
loop_
 _symmetry_equiv_pos_site_id
 _symmetry_equiv_pos_as_xyz
  1  'x, y, z'
loop_
 _atom_site_type_symbol
 _atom_site_label
 _atom_site_symmetry_multiplicity
 _atom_site_fract_x
 _atom_site_fract_y
 _atom_site_fract_z
 _atom_site_occupancy
  Er  Er0  1  0.363838  0.835384  0.545786  1
  Er  Er1  1  0.863838  0.664616  0.545786  1
  Er  Er2  1  0.863838  0.835384  0.954214  1
  Er  Er3  1  0.363838  0.664616  0.954214  1
  Er  Er4  1  0.863838  0.545786  0.835384  1
  Er  Er5  1  0.363838  0.954214  0.835384  1
  Er  Er6  1  0.363838  0.545786  0.664616  1
  Er  Er7  1  0.863838  0.954214  0.664616  1
  Er  Er8  1  0.636162  0.164616  0.454215  1
  Er  Er9  1  0.136162  0.335384  0.454215  1
  Er  Er10  1  0.136162  0.164616  0.045786  1
  Er  Er11  1  0.636162  0.335384  0.045786  1
  Er  Er12  1  0.136162  0.454215  0.164616  1
  Er  Er13  1  0.636162  0.045786  0.164616  1
  Er  Er14  1  0.636162  0.454215  0.335384  1
  Er  Er15  1  0.136162  0.045786  0.335384  1
  Er  Er16  1  0.500000  0.750000  0.250000  1
  Er  Er17  1  0.000000  0.750000  0.250000  1
  Er  Er18  1  0.000000  0.250000  0.750000  1
  Er  Er19  1  0.500000  0.250000  0.750000  1
  Ir  Ir20  1  0.112117  0.750000  0.750000  1
  Ir  Ir21  1  0.612117  0.750000  0.750000  1
  Ir  Ir22  1  0.887883  0.250000  0.250000  1
  Ir  Ir23  1  0.387883  0.250000  0.250000  1
  Pd  Pd24  1  0.250000  0.904291  0.095709  1
  Pd  Pd25  1  0.750000  0.595709  0.095709  1
  Pd  Pd26  1  0.750000  0.904291  0.404291  1
  Pd  Pd27  1  0.250000  0.595709  0.404291  1
  Pd  Pd28  1  0.750000  0.095709  0.904291  1
  Pd  Pd29  1  0.250000  0.404291  0.904291  1
  Pd  Pd30  1  0.250000  0.095709  0.595709  1
  Pd  Pd31  1  0.750000  0.404291  0.595709  1
