# generated using pymatgen
data_HoLu5TcBi2
_symmetry_space_group_name_H-M   'P 1'
_cell_length_a   8.16608900
_cell_length_b   8.14605632
_cell_length_c   4.25252200
_cell_angle_alpha   90.00000000
_cell_angle_beta   90.00000000
_cell_angle_gamma   120.08138673
_symmetry_Int_Tables_number   1
_chemical_formula_structural   HoLu5TcBi2
_chemical_formula_sum   'Ho1 Lu5 Tc1 Bi2'
_cell_volume   244.78340169
_cell_formula_units_Z   1
loop_
 _symmetry_equiv_pos_site_id
 _symmetry_equiv_pos_as_xyz
  1  'x, y, z'
loop_
 _atom_site_type_symbol
 _atom_site_label
 _atom_site_symmetry_multiplicity
 _atom_site_fract_x
 _atom_site_fract_y
 _atom_site_fract_z
 _atom_site_occupancy
  Ho  Ho0  1  0.611876  0.000000  0.500000  1
  Lu  Lu1  1  0.231723  0.000000  0.000000  1
  Lu  Lu2  1  0.999694  0.614814  0.500000  1
  Lu  Lu3  1  0.384881  0.385186  0.500000  1
  Lu  Lu4  1  0.769579  0.768747  0.000000  1
  Lu  Lu5  1  0.000831  0.231253  0.000000  1
  Tc  Tc6  1  0.002592  0.000000  0.500000  1
  Bi  Bi7  1  0.332097  0.665372  0.000000  1
  Bi  Bi8  1  0.666725  0.334628  0.000000  1
