# generated using pymatgen
data_Tb6Dy2InAgRh2
_symmetry_space_group_name_H-M   'P 1'
_cell_length_a   9.62572338
_cell_length_b   9.62404894
_cell_length_c   9.63410900
_cell_angle_alpha   59.96481339
_cell_angle_beta   59.96870683
_cell_angle_gamma   60.03815311
_symmetry_Int_Tables_number   1
_chemical_formula_structural   Tb6Dy2InAgRh2
_chemical_formula_sum   'Tb12 Dy4 In2 Ag2 Rh4'
_cell_volume   630.94909012
_cell_formula_units_Z   2
loop_
 _symmetry_equiv_pos_site_id
 _symmetry_equiv_pos_as_xyz
  1  'x, y, z'
loop_
 _atom_site_type_symbol
 _atom_site_label
 _atom_site_symmetry_multiplicity
 _atom_site_fract_x
 _atom_site_fract_y
 _atom_site_fract_z
 _atom_site_occupancy
  Tb  Tb0  1  0.063407  0.063624  0.436923  1
  Tb  Tb1  1  0.438763  0.438383  0.061359  1
  Tb  Tb2  1  0.649978  0.649798  0.649755  1
  Tb  Tb3  1  0.810866  0.189168  0.190421  1
  Tb  Tb4  1  0.190004  0.810937  0.809607  1
  Tb  Tb5  1  0.052258  0.648638  0.648360  1
  Tb  Tb6  1  0.438067  0.066884  0.059047  1
  Tb  Tb7  1  0.437247  0.066651  0.435896  1
  Tb  Tb8  1  0.066809  0.437768  0.059378  1
  Tb  Tb9  1  0.649641  0.649567  0.051659  1
  Tb  Tb10  1  0.189062  0.811106  0.190467  1
  Tb  Tb11  1  0.066624  0.437036  0.435966  1
  Dy  Dy12  1  0.808243  0.808464  0.191887  1
  Dy  Dy13  1  0.810708  0.190053  0.809652  1
  Dy  Dy14  1  0.188268  0.188327  0.812752  1
  Dy  Dy15  1  0.648797  0.052243  0.648455  1
  In  In16  1  0.417005  0.742354  0.420780  1
  In  In17  1  0.742330  0.416616  0.421014  1
  Ag  Ag18  1  0.416671  0.416442  0.418175  1
  Ag  Ag19  1  0.416639  0.416251  0.749093  1
  Rh  Rh20  1  0.857630  0.426756  0.857153  1
  Rh  Rh21  1  0.856816  0.857727  0.858573  1
  Rh  Rh22  1  0.856769  0.857265  0.426830  1
  Rh  Rh23  1  0.427394  0.857940  0.856797  1
