# generated using pymatgen
data_Tb10GaHgBi4
_symmetry_space_group_name_H-M   'P 1'
_cell_length_a   9.06796864
_cell_length_b   9.06796811
_cell_length_c   6.56636600
_cell_angle_alpha   90.00000000
_cell_angle_beta   90.00000000
_cell_angle_gamma   120.21946957
_symmetry_Int_Tables_number   1
_chemical_formula_structural   Tb10GaHgBi4
_chemical_formula_sum   'Tb10 Ga1 Hg1 Bi4'
_cell_volume   466.56376386
_cell_formula_units_Z   1
loop_
 _symmetry_equiv_pos_site_id
 _symmetry_equiv_pos_as_xyz
  1  'x, y, z'
loop_
 _atom_site_type_symbol
 _atom_site_label
 _atom_site_symmetry_multiplicity
 _atom_site_fract_x
 _atom_site_fract_y
 _atom_site_fract_z
 _atom_site_occupancy
  Tb  Tb0  1  0.654843  0.343196  0.997526  1
  Tb  Tb1  1  0.343196  0.654843  0.997526  1
  Tb  Tb2  1  0.343196  0.654843  0.502474  1
  Tb  Tb3  1  0.654843  0.343196  0.502474  1
  Tb  Tb4  1  0.752844  0.752844  0.750000  1
  Tb  Tb5  1  0.244712  0.017790  0.750000  1
  Tb  Tb6  1  0.017790  0.244712  0.750000  1
  Tb  Tb7  1  0.241909  0.241909  0.250000  1
  Tb  Tb8  1  0.756603  0.987731  0.250000  1
  Tb  Tb9  1  0.987731  0.756603  0.250000  1
  Ga  Ga10  1  0.394985  0.394985  0.750000  1
  Hg  Hg11  1  0.605214  0.605214  0.250000  1
  Bi  Bi12  1  0.612695  0.007475  0.750000  1
  Bi  Bi13  1  0.007475  0.612695  0.750000  1
  Bi  Bi14  1  0.388781  0.993183  0.250000  1
  Bi  Bi15  1  0.993183  0.388781  0.250000  1
