# generated using pymatgen
data_Y4Al4Ir3Pt
_symmetry_space_group_name_H-M   'P 1'
_cell_length_a   4.31795800
_cell_length_b   6.87983601
_cell_length_c   7.87671002
_cell_angle_alpha   90.00670989
_cell_angle_beta   90.00000000
_cell_angle_gamma   90.00000000
_symmetry_Int_Tables_number   1
_chemical_formula_structural   Y4Al4Ir3Pt
_chemical_formula_sum   'Y4 Al4 Ir3 Pt1'
_cell_volume   233.99218571
_cell_formula_units_Z   1
loop_
 _symmetry_equiv_pos_site_id
 _symmetry_equiv_pos_as_xyz
  1  'x, y, z'
loop_
 _atom_site_type_symbol
 _atom_site_label
 _atom_site_symmetry_multiplicity
 _atom_site_fract_x
 _atom_site_fract_y
 _atom_site_fract_z
 _atom_site_occupancy
  Y  Y0  1  0.250000  0.026456  0.678513  1
  Y  Y1  1  0.250000  0.533214  0.817783  1
  Y  Y2  1  0.750000  0.971569  0.319462  1
  Y  Y3  1  0.750000  0.473187  0.184176  1
  Al  Al4  1  0.250000  0.140948  0.065277  1
  Al  Al5  1  0.250000  0.641963  0.436858  1
  Al  Al6  1  0.750000  0.854966  0.936861  1
  Al  Al7  1  0.750000  0.359088  0.560888  1
  Ir  Ir8  1  0.250000  0.269662  0.382453  1
  Ir  Ir9  1  0.250000  0.769753  0.116773  1
  Ir  Ir10  1  0.750000  0.730526  0.618622  1
  Pt  Pt11  1  0.750000  0.228667  0.882333  1
