# generated using pymatgen
data_Y2Th2Al6ReRu
_symmetry_space_group_name_H-M   'P 1'
_cell_length_a   5.55998200
_cell_length_b   5.55998093
_cell_length_c   9.01666800
_cell_angle_alpha   90.00000000
_cell_angle_beta   90.00000000
_cell_angle_gamma   119.99999446
_symmetry_Int_Tables_number   1
_chemical_formula_structural   Y2Th2Al6ReRu
_chemical_formula_sum   'Y2 Th2 Al6 Re1 Ru1'
_cell_volume   241.39230548
_cell_formula_units_Z   1
loop_
 _symmetry_equiv_pos_site_id
 _symmetry_equiv_pos_as_xyz
  1  'x, y, z'
loop_
 _atom_site_type_symbol
 _atom_site_label
 _atom_site_symmetry_multiplicity
 _atom_site_fract_x
 _atom_site_fract_y
 _atom_site_fract_z
 _atom_site_occupancy
  Y  Y0  1  0.666667  0.333333  0.943136  1
  Y  Y1  1  0.333333  0.666667  0.056864  1
  Th  Th2  1  0.333333  0.666667  0.455260  1
  Th  Th3  1  0.666667  0.333333  0.544740  1
  Al  Al4  1  0.837917  0.162083  0.242005  1
  Al  Al5  1  0.837917  0.675834  0.242005  1
  Al  Al6  1  0.324166  0.162083  0.242005  1
  Al  Al7  1  0.162083  0.837917  0.757995  1
  Al  Al8  1  0.162083  0.324166  0.757995  1
  Al  Al9  1  0.675834  0.837917  0.757995  1
  Re  Re10  1  0.000000  0.000000  0.500000  1
  Ru  Ru11  1  0.000000  0.000000  0.000000  1
