# generated using pymatgen
data_SmFe4ReTc7
_symmetry_space_group_name_H-M   'P 1'
_cell_length_a   4.79957777
_cell_length_b   6.74869676
_cell_length_c   6.73450674
_cell_angle_alpha   82.89144894
_cell_angle_beta   69.12428537
_cell_angle_gamma   69.17020804
_symmetry_Int_Tables_number   1
_chemical_formula_structural   SmFe4ReTc7
_chemical_formula_sum   'Sm1 Fe4 Re1 Tc7'
_cell_volume   190.49483975
_cell_formula_units_Z   1
loop_
 _symmetry_equiv_pos_site_id
 _symmetry_equiv_pos_as_xyz
  1  'x, y, z'
loop_
 _atom_site_type_symbol
 _atom_site_label
 _atom_site_symmetry_multiplicity
 _atom_site_fract_x
 _atom_site_fract_y
 _atom_site_fract_z
 _atom_site_occupancy
  Sm  Sm0  1  0.000013  0.999426  0.000548  1
  Fe  Fe1  1  0.000148  0.000185  0.500358  1
  Fe  Fe2  1  0.499309  0.000185  0.500358  1
  Fe  Fe3  1  0.500655  0.499651  0.999831  1
  Fe  Fe4  1  0.999863  0.499651  0.999831  1
  Re  Re5  1  0.999889  0.358970  0.641252  1
  Tc  Tc6  1  0.000103  0.642439  0.357356  1
  Tc  Tc7  1  0.641621  0.358579  0.358179  1
  Tc  Tc8  1  0.358380  0.641615  0.641626  1
  Tc  Tc9  1  0.500182  0.782663  0.216973  1
  Tc  Tc10  1  0.499830  0.216379  0.783962  1
  Tc  Tc11  1  0.717566  0.782388  0.782480  1
  Tc  Tc12  1  0.282442  0.217870  0.217245  1
