# generated using pymatgen
data_Hf9Zr(AlSn2)2
_symmetry_space_group_name_H-M   'P 1'
_cell_length_a   8.26412668
_cell_length_b   8.26412700
_cell_length_c   8.26412700
_cell_angle_alpha   96.30924024
_cell_angle_beta   96.30923351
_cell_angle_gamma   141.27989099
_symmetry_Int_Tables_number   1
_chemical_formula_structural   Hf9Zr(AlSn2)2
_chemical_formula_sum   'Hf9 Zr1 Al2 Sn4'
_cell_volume   333.08144922
_cell_formula_units_Z   1
loop_
 _symmetry_equiv_pos_site_id
 _symmetry_equiv_pos_as_xyz
  1  'x, y, z'
loop_
 _atom_site_type_symbol
 _atom_site_label
 _atom_site_symmetry_multiplicity
 _atom_site_fract_x
 _atom_site_fract_y
 _atom_site_fract_z
 _atom_site_occupancy
  Hf  Hf0  1  0.750000  0.250000  0.500000  1
  Hf  Hf1  1  0.785670  0.925220  0.709036  1
  Hf  Hf2  1  0.923365  0.214330  0.139550  1
  Hf  Hf3  1  0.074780  0.783816  0.860450  1
  Hf  Hf4  1  0.216184  0.076635  0.290964  1
  Hf  Hf5  1  0.576635  0.716184  0.290964  1
  Hf  Hf6  1  0.425220  0.285670  0.709036  1
  Hf  Hf7  1  0.283816  0.574780  0.860450  1
  Hf  Hf8  1  0.714330  0.423365  0.139550  1
  Zr  Zr9  1  0.250000  0.750000  0.500000  1
  Al  Al10  1  0.750000  0.750000  0.000000  1
  Al  Al11  1  0.250000  0.250000  0.000000  1
  Sn  Sn12  1  0.332867  0.832867  0.169568  1
  Sn  Sn13  1  0.836700  0.667133  0.500000  1
  Sn  Sn14  1  0.167133  0.336700  0.500000  1
  Sn  Sn15  1  0.663300  0.163300  0.830432  1
