# generated using pymatgen
data_Ca6Sb7Pd16Se
_symmetry_space_group_name_H-M   'P 1'
_cell_length_a   9.39444026
_cell_length_b   9.39443982
_cell_length_c   9.39443900
_cell_angle_alpha   59.99999936
_cell_angle_beta   60.00000093
_cell_angle_gamma   60.00000109
_symmetry_Int_Tables_number   1
_chemical_formula_structural   Ca6Sb7Pd16Se
_chemical_formula_sum   'Ca6 Sb7 Pd16 Se1'
_cell_volume   586.26997834
_cell_formula_units_Z   1
loop_
 _symmetry_equiv_pos_site_id
 _symmetry_equiv_pos_as_xyz
  1  'x, y, z'
loop_
 _atom_site_type_symbol
 _atom_site_label
 _atom_site_symmetry_multiplicity
 _atom_site_fract_x
 _atom_site_fract_y
 _atom_site_fract_z
 _atom_site_occupancy
  Ca  Ca0  1  0.715596  0.284404  0.284404  1
  Ca  Ca1  1  0.284404  0.715596  0.715596  1
  Ca  Ca2  1  0.284404  0.715596  0.284404  1
  Ca  Ca3  1  0.715596  0.284404  0.715596  1
  Ca  Ca4  1  0.284404  0.284404  0.715596  1
  Ca  Ca5  1  0.715596  0.715596  0.284404  1
  Sb  Sb6  1  0.000000  0.000000  0.000000  1
  Sb  Sb7  1  0.500000  0.000000  0.000000  1
  Sb  Sb8  1  0.000000  0.500000  0.500000  1
  Sb  Sb9  1  0.000000  0.500000  0.000000  1
  Sb  Sb10  1  0.500000  0.000000  0.500000  1
  Sb  Sb11  1  0.000000  0.000000  0.500000  1
  Sb  Sb12  1  0.500000  0.500000  0.000000  1
  Pd  Pd13  1  0.119127  0.119127  0.119127  1
  Pd  Pd14  1  0.880873  0.880873  0.880873  1
  Pd  Pd15  1  0.119127  0.119127  0.642619  1
  Pd  Pd16  1  0.119127  0.642619  0.119127  1
  Pd  Pd17  1  0.880873  0.880873  0.357381  1
  Pd  Pd18  1  0.880873  0.357381  0.880873  1
  Pd  Pd19  1  0.642619  0.119127  0.119127  1
  Pd  Pd20  1  0.357381  0.880873  0.880873  1
  Pd  Pd21  1  0.330604  0.330604  0.330604  1
  Pd  Pd22  1  0.669396  0.669396  0.669396  1
  Pd  Pd23  1  0.330604  0.330604  0.008187  1
  Pd  Pd24  1  0.330604  0.008187  0.330604  1
  Pd  Pd25  1  0.669396  0.669396  0.991813  1
  Pd  Pd26  1  0.669396  0.991813  0.669396  1
  Pd  Pd27  1  0.008187  0.330604  0.330604  1
  Pd  Pd28  1  0.991813  0.669396  0.669396  1
  Se  Se29  1  0.500000  0.500000  0.500000  1
