# generated using pymatgen
data_Tb3Tm13CdIn3Rh4
_symmetry_space_group_name_H-M   'P 1'
_cell_length_a   9.55879675
_cell_length_b   9.51805099
_cell_length_c   9.53593426
_cell_angle_alpha   60.09138233
_cell_angle_beta   60.14915107
_cell_angle_gamma   60.16826338
_symmetry_Int_Tables_number   1
_chemical_formula_structural   Tb3Tm13CdIn3Rh4
_chemical_formula_sum   'Tb3 Tm13 Cd1 In3 Rh4'
_cell_volume   615.37182116
_cell_formula_units_Z   1
loop_
 _symmetry_equiv_pos_site_id
 _symmetry_equiv_pos_as_xyz
  1  'x, y, z'
loop_
 _atom_site_type_symbol
 _atom_site_label
 _atom_site_symmetry_multiplicity
 _atom_site_fract_x
 _atom_site_fract_y
 _atom_site_fract_z
 _atom_site_occupancy
  Tb  Tb0  1  0.060698  0.060667  0.439103  1
  Tb  Tb1  1  0.435946  0.067259  0.433886  1
  Tb  Tb2  1  0.062552  0.438728  0.061137  1
  Tm  Tm3  1  0.050305  0.648189  0.648941  1
  Tm  Tm4  1  0.437754  0.436510  0.063619  1
  Tm  Tm5  1  0.648629  0.048922  0.649759  1
  Tm  Tm6  1  0.188230  0.812617  0.188006  1
  Tm  Tm7  1  0.187634  0.188165  0.813679  1
  Tm  Tm8  1  0.810004  0.810668  0.190539  1
  Tm  Tm9  1  0.440779  0.060151  0.058702  1
  Tm  Tm10  1  0.812509  0.188571  0.187785  1
  Tm  Tm11  1  0.063340  0.438419  0.437280  1
  Tm  Tm12  1  0.809262  0.190607  0.811640  1
  Tm  Tm13  1  0.190560  0.809443  0.811106  1
  Tm  Tm14  1  0.648673  0.649227  0.049416  1
  Tm  Tm15  1  0.652128  0.652344  0.652193  1
  Cd  Cd16  1  0.417022  0.418501  0.417599  1
  In  In17  1  0.746913  0.418221  0.418136  1
  In  In18  1  0.418701  0.746126  0.417692  1
  In  In19  1  0.418474  0.417016  0.747747  1
  Rh  Rh20  1  0.859976  0.856868  0.426219  1
  Rh  Rh21  1  0.856411  0.857508  0.857542  1
  Rh  Rh22  1  0.425534  0.858212  0.860761  1
  Rh  Rh23  1  0.857969  0.427061  0.857515  1
