# generated using pymatgen
data_Tm4Sc4B24Os3W
_symmetry_space_group_name_H-M   'P 1'
_cell_length_a   3.54111900
_cell_length_b   8.97801574
_cell_length_c   11.35100965
_cell_angle_alpha   89.93501539
_cell_angle_beta   90.00000000
_cell_angle_gamma   90.00000000
_symmetry_Int_Tables_number   1
_chemical_formula_structural   Tm4Sc4B24Os3W
_chemical_formula_sum   'Tm4 Sc4 B24 Os3 W1'
_cell_volume   360.87358796
_cell_formula_units_Z   1
loop_
 _symmetry_equiv_pos_site_id
 _symmetry_equiv_pos_as_xyz
  1  'x, y, z'
loop_
 _atom_site_type_symbol
 _atom_site_label
 _atom_site_symmetry_multiplicity
 _atom_site_fract_x
 _atom_site_fract_y
 _atom_site_fract_z
 _atom_site_occupancy
  Tm  Tm0  1  0.000000  0.318947  0.413618  1
  Tm  Tm1  1  0.000000  0.680221  0.586673  1
  Tm  Tm2  1  0.000000  0.818894  0.086761  1
  Tm  Tm3  1  0.000000  0.180292  0.914849  1
  Sc  Sc4  1  0.000000  0.946207  0.374022  1
  Sc  Sc5  1  0.000000  0.056693  0.627651  1
  Sc  Sc6  1  0.000000  0.444143  0.124999  1
  Sc  Sc7  1  0.000000  0.555304  0.872933  1
  B  B8  1  0.500000  0.550446  0.436716  1
  B  B9  1  0.500000  0.445304  0.568086  1
  B  B10  1  0.500000  0.054000  0.066132  1
  B  B11  1  0.500000  0.945727  0.933434  1
  B  B12  1  0.500000  0.756173  0.422359  1
  B  B13  1  0.500000  0.247984  0.581122  1
  B  B14  1  0.500000  0.252246  0.079846  1
  B  B15  1  0.500000  0.747241  0.918963  1
  B  B16  1  0.500000  0.797814  0.263575  1
  B  B17  1  0.500000  0.206311  0.735174  1
  B  B18  1  0.500000  0.292305  0.233430  1
  B  B19  1  0.500000  0.706921  0.764982  1
  B  B20  1  0.500000  0.628851  0.179756  1
  B  B21  1  0.500000  0.370613  0.817518  1
  B  B22  1  0.500000  0.129274  0.316430  1
  B  B23  1  0.500000  0.871707  0.683018  1
  B  B24  1  0.500000  0.981664  0.213381  1
  B  B25  1  0.500000  0.019403  0.786578  1
  B  B26  1  0.500000  0.475380  0.284753  1
  B  B27  1  0.500000  0.518749  0.714436  1
  B  B28  1  0.500000  0.599445  0.025315  1
  B  B29  1  0.500000  0.399460  0.971807  1
  B  B30  1  0.500000  0.100926  0.473182  1
  B  B31  1  0.500000  0.902685  0.528487  1
  Os  Os32  1  0.000000  0.359791  0.682252  1
  Os  Os33  1  0.000000  0.138845  0.179653  1
  Os  Os34  1  0.000000  0.860987  0.818721  1
  W  W35  1  0.000000  0.639046  0.319388  1
