# generated using pymatgen
data_Lu4ReB12Rh
_symmetry_space_group_name_H-M   'P 1'
_cell_length_a   3.61562300
_cell_length_b   9.03820748
_cell_length_c   11.41495081
_cell_angle_alpha   90.38646047
_cell_angle_beta   90.00000000
_cell_angle_gamma   90.00000000
_symmetry_Int_Tables_number   1
_chemical_formula_structural   Lu4ReB12Rh
_chemical_formula_sum   'Lu8 Re2 B24 Rh2'
_cell_volume   373.01784812
_cell_formula_units_Z   2
loop_
 _symmetry_equiv_pos_site_id
 _symmetry_equiv_pos_as_xyz
  1  'x, y, z'
loop_
 _atom_site_type_symbol
 _atom_site_label
 _atom_site_symmetry_multiplicity
 _atom_site_fract_x
 _atom_site_fract_y
 _atom_site_fract_z
 _atom_site_occupancy
  Lu  Lu0  1  0.000000  0.316899  0.410827  1
  Lu  Lu1  1  0.000000  0.683101  0.589173  1
  Lu  Lu2  1  0.000000  0.825552  0.082533  1
  Lu  Lu3  1  0.000000  0.174448  0.917467  1
  Lu  Lu4  1  0.000000  0.945702  0.372050  1
  Lu  Lu5  1  0.000000  0.054298  0.627950  1
  Lu  Lu6  1  0.000000  0.442542  0.126492  1
  Lu  Lu7  1  0.000000  0.557458  0.873508  1
  Re  Re8  1  0.000000  0.139081  0.179836  1
  Re  Re9  1  0.000000  0.860919  0.820164  1
  B  B10  1  0.500000  0.554349  0.435107  1
  B  B11  1  0.500000  0.445651  0.564893  1
  B  B12  1  0.500000  0.052808  0.066713  1
  B  B13  1  0.500000  0.947192  0.933287  1
  B  B14  1  0.500000  0.749991  0.421971  1
  B  B15  1  0.500000  0.250009  0.578029  1
  B  B16  1  0.500000  0.249801  0.080513  1
  B  B17  1  0.500000  0.750199  0.919487  1
  B  B18  1  0.500000  0.792425  0.264510  1
  B  B19  1  0.500000  0.207575  0.735490  1
  B  B20  1  0.500000  0.294239  0.235518  1
  B  B21  1  0.500000  0.705761  0.764482  1
  B  B22  1  0.500000  0.632201  0.182675  1
  B  B23  1  0.500000  0.367799  0.817325  1
  B  B24  1  0.500000  0.131656  0.315796  1
  B  B25  1  0.500000  0.868344  0.684204  1
  B  B26  1  0.500000  0.981710  0.213148  1
  B  B27  1  0.500000  0.018290  0.786852  1
  B  B28  1  0.500000  0.482544  0.287919  1
  B  B29  1  0.500000  0.517456  0.712081  1
  B  B30  1  0.500000  0.604147  0.029012  1
  B  B31  1  0.500000  0.395853  0.970988  1
  B  B32  1  0.500000  0.105470  0.471579  1
  B  B33  1  0.500000  0.894530  0.528421  1
  Rh  Rh34  1  0.000000  0.638355  0.321282  1
  Rh  Rh35  1  0.000000  0.361645  0.678718  1
