# generated using pymatgen
data_Ta2Nb4AlCo6
_symmetry_space_group_name_H-M   'P 1'
_cell_length_a   4.95622280
_cell_length_b   4.95622033
_cell_length_c   9.10218351
_cell_angle_alpha   74.20151370
_cell_angle_beta   74.20152248
_cell_angle_gamma   59.99999596
_symmetry_Int_Tables_number   1
_chemical_formula_structural   Ta2Nb4AlCo6
_chemical_formula_sum   'Ta2 Nb4 Al1 Co6'
_cell_volume   183.81499794
_cell_formula_units_Z   1
loop_
 _symmetry_equiv_pos_site_id
 _symmetry_equiv_pos_as_xyz
  1  'x, y, z'
loop_
 _atom_site_type_symbol
 _atom_site_label
 _atom_site_symmetry_multiplicity
 _atom_site_fract_x
 _atom_site_fract_y
 _atom_site_fract_z
 _atom_site_occupancy
  Ta  Ta0  1  0.169155  0.169155  0.492533  1
  Ta  Ta1  1  0.830845  0.830845  0.507467  1
  Nb  Nb2  1  0.345482  0.345482  0.963553  1
  Nb  Nb3  1  0.654518  0.654518  0.036447  1
  Nb  Nb4  1  0.449699  0.449699  0.650904  1
  Nb  Nb5  1  0.550301  0.550301  0.349096  1
  Al  Al6  1  0.000000  0.000000  0.000000  1
  Co  Co7  1  0.587722  0.089599  0.233081  1
  Co  Co8  1  0.089599  0.089599  0.233081  1
  Co  Co9  1  0.089599  0.587722  0.233081  1
  Co  Co10  1  0.412278  0.910401  0.766919  1
  Co  Co11  1  0.910401  0.910401  0.766919  1
  Co  Co12  1  0.910401  0.412278  0.766919  1
