# generated using pymatgen
data_Lu(Co3Si2)2
_symmetry_space_group_name_H-M   'P 1'
_cell_length_a   6.59185300
_cell_length_b   6.59185311
_cell_length_c   3.57252900
_cell_angle_alpha   90.00000000
_cell_angle_beta   90.00000000
_cell_angle_gamma   120.00000444
_symmetry_Int_Tables_number   1
_chemical_formula_structural   Lu(Co3Si2)2
_chemical_formula_sum   'Lu1 Co6 Si4'
_cell_volume   134.43780423
_cell_formula_units_Z   1
loop_
 _symmetry_equiv_pos_site_id
 _symmetry_equiv_pos_as_xyz
  1  'x, y, z'
loop_
 _atom_site_type_symbol
 _atom_site_label
 _atom_site_symmetry_multiplicity
 _atom_site_fract_x
 _atom_site_fract_y
 _atom_site_fract_z
 _atom_site_occupancy
  Lu  Lu0  1  0.000000  0.000000  0.000000  1
  Co  Co1  1  0.534135  0.068270  0.000000  1
  Co  Co2  1  0.534134  0.465865  0.000000  1
  Co  Co3  1  0.931730  0.465865  0.000000  1
  Co  Co4  1  0.203624  0.407249  0.500001  1
  Co  Co5  1  0.203625  0.796377  0.500001  1
  Co  Co6  1  0.592751  0.796377  0.500001  1
  Si  Si7  1  0.333334  0.666667  0.000000  1
  Si  Si8  1  0.396118  0.198059  0.500001  1
  Si  Si9  1  0.801942  0.198059  0.500001  1
  Si  Si10  1  0.801941  0.603882  0.500001  1
