# generated using pymatgen
data_Y5In2Sb
_symmetry_space_group_name_H-M   'P 1'
_cell_length_a   6.62021300
_cell_length_b   9.00856728
_cell_length_c   9.01402339
_cell_angle_alpha   119.97998422
_cell_angle_beta   89.99988226
_cell_angle_gamma   90.00023358
_symmetry_Int_Tables_number   1
_chemical_formula_structural   Y5In2Sb
_chemical_formula_sum   'Y10 In4 Sb2'
_cell_volume   465.65531060
_cell_formula_units_Z   2
loop_
 _symmetry_equiv_pos_site_id
 _symmetry_equiv_pos_as_xyz
  1  'x, y, z'
loop_
 _atom_site_type_symbol
 _atom_site_label
 _atom_site_symmetry_multiplicity
 _atom_site_fract_x
 _atom_site_fract_y
 _atom_site_fract_z
 _atom_site_occupancy
  Y  Y0  1  0.502626  0.331457  0.665282  1
  Y  Y1  1  0.502626  0.666175  0.334718  1
  Y  Y2  1  0.997376  0.666173  0.334721  1
  Y  Y3  1  0.997376  0.331451  0.665279  1
  Y  Y4  1  0.750000  0.238149  0.000000  1
  Y  Y5  1  0.749999  0.760138  0.760656  1
  Y  Y6  1  0.749999  0.999482  0.239344  1
  Y  Y7  1  0.250000  0.759974  0.000000  1
  Y  Y8  1  0.250000  0.239999  0.235887  1
  Y  Y9  1  0.250000  0.004112  0.764113  1
  In  In10  1  0.750000  0.600538  0.000000  1
  In  In11  1  0.750000  0.394213  0.395573  1
  In  In12  1  0.750000  0.998639  0.604427  1
  In  In13  1  0.249997  0.403073  0.000000  1
  Sb  Sb14  1  0.250000  0.606371  0.606316  1
  Sb  Sb15  1  0.250000  0.000056  0.393684  1
