# generated using pymatgen
data_Er12In2Tc2Ni
_symmetry_space_group_name_H-M   'P 1'
_cell_length_a   8.35784742
_cell_length_b   8.35784871
_cell_length_c   8.35784800
_cell_angle_alpha   108.75299415
_cell_angle_beta   108.75299714
_cell_angle_gamma   110.91741695
_symmetry_Int_Tables_number   1
_chemical_formula_structural   Er12In2Tc2Ni
_chemical_formula_sum   'Er12 In2 Tc2 Ni1'
_cell_volume   449.21410928
_cell_formula_units_Z   1
loop_
 _symmetry_equiv_pos_site_id
 _symmetry_equiv_pos_as_xyz
  1  'x, y, z'
loop_
 _atom_site_type_symbol
 _atom_site_label
 _atom_site_symmetry_multiplicity
 _atom_site_fract_x
 _atom_site_fract_y
 _atom_site_fract_z
 _atom_site_occupancy
  Er  Er0  1  0.300661  0.300661  0.611133  1
  Er  Er1  1  0.689527  0.689527  0.388867  1
  Er  Er2  1  0.689527  0.300661  0.000000  1
  Er  Er3  1  0.300661  0.689527  0.000000  1
  Er  Er4  1  0.190753  0.431584  0.240831  1
  Er  Er5  1  0.808377  0.568447  0.760070  1
  Er  Er6  1  0.190753  0.949921  0.759169  1
  Er  Er7  1  0.949921  0.190753  0.759169  1
  Er  Er8  1  0.808377  0.048308  0.239930  1
  Er  Er9  1  0.048308  0.808377  0.239930  1
  Er  Er10  1  0.431584  0.190753  0.240831  1
  Er  Er11  1  0.568447  0.808377  0.760070  1
  In  In12  1  0.998032  0.498032  0.500000  1
  In  In13  1  0.498032  0.998032  0.500000  1
  Tc  Tc14  1  0.384396  0.384396  0.000000  1
  Tc  Tc15  1  0.000238  0.000238  0.000000  1
  Ni  Ni16  1  0.642409  0.642409  0.000000  1
