# generated using pymatgen
data_YLu7Hg4
_symmetry_space_group_name_H-M   'P 1'
_cell_length_a   5.05583200
_cell_length_b   6.84697707
_cell_length_c   9.11164401
_cell_angle_alpha   90.15486652
_cell_angle_beta   90.00000000
_cell_angle_gamma   90.00000000
_symmetry_Int_Tables_number   1
_chemical_formula_structural   YLu7Hg4
_chemical_formula_sum   'Y1 Lu7 Hg4'
_cell_volume   315.41813898
_cell_formula_units_Z   1
loop_
 _symmetry_equiv_pos_site_id
 _symmetry_equiv_pos_as_xyz
  1  'x, y, z'
loop_
 _atom_site_type_symbol
 _atom_site_label
 _atom_site_symmetry_multiplicity
 _atom_site_fract_x
 _atom_site_fract_y
 _atom_site_fract_z
 _atom_site_occupancy
  Y  Y0  1  0.750000  0.328950  0.925364  1
  Lu  Lu1  1  0.250000  0.015495  0.803400  1
  Lu  Lu2  1  0.250000  0.518776  0.691518  1
  Lu  Lu3  1  0.750000  0.980125  0.199190  1
  Lu  Lu4  1  0.750000  0.482927  0.305435  1
  Lu  Lu5  1  0.250000  0.166776  0.427313  1
  Lu  Lu6  1  0.250000  0.669064  0.073250  1
  Lu  Lu7  1  0.750000  0.832152  0.575083  1
  Hg  Hg8  1  0.250000  0.732830  0.396571  1
  Hg  Hg9  1  0.250000  0.230384  0.107244  1
  Hg  Hg10  1  0.750000  0.267219  0.597120  1
  Hg  Hg11  1  0.750000  0.775304  0.898514  1
