# generated using pymatgen
data_PrSm7(GeBr6)2
_symmetry_space_group_name_H-M   'P 1'
_cell_length_a   4.17009700
_cell_length_b   13.66036932
_cell_length_c   14.45709820
_cell_angle_alpha   90.25483417
_cell_angle_beta   90.00000000
_cell_angle_gamma   90.00000000
_symmetry_Int_Tables_number   1
_chemical_formula_structural   PrSm7(GeBr6)2
_chemical_formula_sum   'Pr1 Sm7 Ge2 Br12'
_cell_volume   823.54139447
_cell_formula_units_Z   1
loop_
 _symmetry_equiv_pos_site_id
 _symmetry_equiv_pos_as_xyz
  1  'x, y, z'
loop_
 _atom_site_type_symbol
 _atom_site_label
 _atom_site_symmetry_multiplicity
 _atom_site_fract_x
 _atom_site_fract_y
 _atom_site_fract_z
 _atom_site_occupancy
  Pr  Pr0  1  0.000000  0.378769  0.080800  1
  Sm  Sm1  1  0.500000  0.118086  0.341859  1
  Sm  Sm2  1  0.500000  0.881414  0.658728  1
  Sm  Sm3  1  0.500000  0.619730  0.159222  1
  Sm  Sm4  1  0.500000  0.381266  0.840102  1
  Sm  Sm5  1  0.000000  0.119147  0.579753  1
  Sm  Sm6  1  0.000000  0.880774  0.420360  1
  Sm  Sm7  1  0.000000  0.620489  0.919660  1
  Ge  Ge8  1  0.500000  0.999632  0.500490  1
  Ge  Ge9  1  0.500000  0.501785  0.998812  1
  Br  Br10  1  0.500000  0.240197  0.165598  1
  Br  Br11  1  0.500000  0.755896  0.836178  1
  Br  Br12  1  0.500000  0.745618  0.336824  1
  Br  Br13  1  0.500000  0.254732  0.662894  1
  Br  Br14  1  0.000000  0.252330  0.412262  1
  Br  Br15  1  0.000000  0.747606  0.587979  1
  Br  Br16  1  0.000000  0.752978  0.088606  1
  Br  Br17  1  0.000000  0.246122  0.907400  1
  Br  Br18  1  0.000000  0.002032  0.246148  1
  Br  Br19  1  0.000000  0.997480  0.754139  1
  Br  Br20  1  0.000000  0.506749  0.256918  1
  Br  Br21  1  0.000000  0.497164  0.745267  1
