# generated using pymatgen
data_Sc4BeB7Ru10
_symmetry_space_group_name_H-M   'P 1'
_cell_length_a   3.02185100
_cell_length_b   8.50684782
_cell_length_c   10.12346220
_cell_angle_alpha   90.12642072
_cell_angle_beta   90.00000000
_cell_angle_gamma   90.00000000
_symmetry_Int_Tables_number   1
_chemical_formula_structural   Sc4BeB7Ru10
_chemical_formula_sum   'Sc4 Be1 B7 Ru10'
_cell_volume   260.23740442
_cell_formula_units_Z   1
loop_
 _symmetry_equiv_pos_site_id
 _symmetry_equiv_pos_as_xyz
  1  'x, y, z'
loop_
 _atom_site_type_symbol
 _atom_site_label
 _atom_site_symmetry_multiplicity
 _atom_site_fract_x
 _atom_site_fract_y
 _atom_site_fract_z
 _atom_site_occupancy
  Sc  Sc0  1  0.500000  0.842663  0.182752  1
  Sc  Sc1  1  0.500000  0.156094  0.818216  1
  Sc  Sc2  1  0.500000  0.656493  0.681282  1
  Sc  Sc3  1  0.500000  0.343024  0.320729  1
  Be  Be4  1  0.500000  0.964111  0.591010  1
  B  B5  1  0.500000  0.036620  0.407691  1
  B  B6  1  0.500000  0.852165  0.897248  1
  B  B7  1  0.500000  0.147761  0.100987  1
  B  B8  1  0.500000  0.650649  0.399365  1
  B  B9  1  0.500000  0.349934  0.599395  1
  B  B10  1  0.500000  0.465781  0.910211  1
  B  B11  1  0.500000  0.534610  0.089716  1
  Ru  Ru12  1  0.000000  0.657229  0.955774  1
  Ru  Ru13  1  0.000000  0.340760  0.045927  1
  Ru  Ru14  1  0.000000  0.839745  0.446922  1
  Ru  Ru15  1  0.000000  0.165035  0.543917  1
  Ru  Ru16  1  0.000000  0.999988  0.002290  1
  Ru  Ru17  1  0.000000  0.404019  0.761045  1
  Ru  Ru18  1  0.000000  0.594460  0.238443  1
  Ru  Ru19  1  0.000000  0.501860  0.499915  1
  Ru  Ru20  1  0.000000  0.898908  0.746751  1
  Ru  Ru21  1  0.000000  0.098090  0.260414  1
