# generated using pymatgen
data_RbNdB12
_symmetry_space_group_name_H-M   'P 1'
_cell_length_a   4.19769700
_cell_length_b   4.19769700
_cell_length_c   8.42288800
_cell_angle_alpha   90.00000000
_cell_angle_beta   90.00000000
_cell_angle_gamma   90.00000000
_symmetry_Int_Tables_number   1
_chemical_formula_structural   RbNdB12
_chemical_formula_sum   'Rb1 Nd1 B12'
_cell_volume   148.41684654
_cell_formula_units_Z   1
loop_
 _symmetry_equiv_pos_site_id
 _symmetry_equiv_pos_as_xyz
  1  'x, y, z'
loop_
 _atom_site_type_symbol
 _atom_site_label
 _atom_site_symmetry_multiplicity
 _atom_site_fract_x
 _atom_site_fract_y
 _atom_site_fract_z
 _atom_site_occupancy
  Rb  Rb0  1  0.000000  0.000000  0.000000  1
  Nd  Nd1  1  0.000000  0.000000  0.500000  1
  B  B2  1  0.202454  0.500000  0.255468  1
  B  B3  1  0.202454  0.500000  0.744532  1
  B  B4  1  0.500000  0.500000  0.401538  1
  B  B5  1  0.500000  0.500000  0.895541  1
  B  B6  1  0.500000  0.202454  0.255468  1
  B  B7  1  0.500000  0.202454  0.744532  1
  B  B8  1  0.500000  0.500000  0.104459  1
  B  B9  1  0.500000  0.500000  0.598462  1
  B  B10  1  0.500000  0.797546  0.255468  1
  B  B11  1  0.500000  0.797546  0.744532  1
  B  B12  1  0.797546  0.500000  0.255468  1
  B  B13  1  0.797546  0.500000  0.744532  1
