# generated using pymatgen
data_Ho12Tm8FeCo3Sb8
_symmetry_space_group_name_H-M   'P 1'
_cell_length_a   7.81383931
_cell_length_b   8.76005400
_cell_length_c   12.14838348
_cell_angle_alpha   90.00000000
_cell_angle_beta   90.03205726
_cell_angle_gamma   90.00000000
_symmetry_Int_Tables_number   1
_chemical_formula_structural   Ho12Tm8FeCo3Sb8
_chemical_formula_sum   'Ho12 Tm8 Fe1 Co3 Sb8'
_cell_volume   831.55251862
_cell_formula_units_Z   1
loop_
 _symmetry_equiv_pos_site_id
 _symmetry_equiv_pos_as_xyz
  1  'x, y, z'
loop_
 _atom_site_type_symbol
 _atom_site_label
 _atom_site_symmetry_multiplicity
 _atom_site_fract_x
 _atom_site_fract_y
 _atom_site_fract_z
 _atom_site_occupancy
  Ho  Ho0  1  0.155768  0.750000  0.204205  1
  Ho  Ho1  1  0.655008  0.250000  0.296170  1
  Ho  Ho2  1  0.844759  0.250000  0.796569  1
  Ho  Ho3  1  0.345586  0.750000  0.703208  1
  Ho  Ho4  1  0.451548  0.750000  0.997284  1
  Ho  Ho5  1  0.950831  0.250000  0.502750  1
  Ho  Ho6  1  0.547730  0.250000  0.002427  1
  Ho  Ho7  1  0.049410  0.750000  0.496899  1
  Ho  Ho8  1  0.621643  0.750000  0.308947  1
  Ho  Ho9  1  0.123157  0.250000  0.191222  1
  Ho  Ho10  1  0.377185  0.250000  0.691599  1
  Ho  Ho11  1  0.877544  0.750000  0.809338  1
  Tm  Tm12  1  0.824108  0.964040  0.065518  1
  Tm  Tm13  1  0.325314  0.034486  0.435264  1
  Tm  Tm14  1  0.175863  0.463460  0.934577  1
  Tm  Tm15  1  0.675926  0.536892  0.565077  1
  Tm  Tm16  1  0.175863  0.036540  0.934577  1
  Tm  Tm17  1  0.675926  0.963108  0.565077  1
  Tm  Tm18  1  0.824108  0.535960  0.065518  1
  Tm  Tm19  1  0.325314  0.465514  0.435264  1
  Fe  Fe20  1  0.432094  0.750000  0.490576  1
  Co  Co21  1  0.934691  0.250000  0.008735  1
  Co  Co22  1  0.566318  0.250000  0.508800  1
  Co  Co23  1  0.065373  0.750000  0.991667  1
  Sb  Sb24  1  0.930549  0.992549  0.327094  1
  Sb  Sb25  1  0.430861  0.007522  0.172328  1
  Sb  Sb26  1  0.068752  0.492421  0.672581  1
  Sb  Sb27  1  0.569303  0.507598  0.827364  1
  Sb  Sb28  1  0.068752  0.007579  0.672581  1
  Sb  Sb29  1  0.569303  0.992402  0.827364  1
  Sb  Sb30  1  0.930549  0.507451  0.327094  1
  Sb  Sb31  1  0.430861  0.492478  0.172328  1
