# generated using pymatgen
data_Nd2GdDy(TeO6)2
_symmetry_space_group_name_H-M   'P 1'
_cell_length_a   5.44564100
_cell_length_b   9.32074735
_cell_length_c   10.20064839
_cell_angle_alpha   89.96846712
_cell_angle_beta   90.00000000
_cell_angle_gamma   90.00000000
_symmetry_Int_Tables_number   1
_chemical_formula_structural   Nd2GdDy(TeO6)2
_chemical_formula_sum   'Nd4 Gd2 Dy2 Te4 O24'
_cell_volume   517.75876016
_cell_formula_units_Z   2
loop_
 _symmetry_equiv_pos_site_id
 _symmetry_equiv_pos_as_xyz
  1  'x, y, z'
loop_
 _atom_site_type_symbol
 _atom_site_label
 _atom_site_symmetry_multiplicity
 _atom_site_fract_x
 _atom_site_fract_y
 _atom_site_fract_z
 _atom_site_occupancy
  Nd  Nd0  1  0.033776  0.218587  0.861734  1
  Nd  Nd1  1  0.533776  0.281413  0.138266  1
  Nd  Nd2  1  0.965887  0.718798  0.639085  1
  Nd  Nd3  1  0.465887  0.781202  0.360915  1
  Gd  Gd4  1  0.022006  0.103489  0.457528  1
  Gd  Gd5  1  0.522006  0.396511  0.542472  1
  Dy  Dy6  1  0.978064  0.603990  0.041831  1
  Dy  Dy7  1  0.478064  0.896010  0.958169  1
  Te  Te8  1  0.537945  0.007183  0.645486  1
  Te  Te9  1  0.037945  0.492817  0.354514  1
  Te  Te10  1  0.461965  0.509210  0.857163  1
  Te  Te11  1  0.961965  0.990790  0.142837  1
  O  O12  1  0.253186  0.422530  0.995874  1
  O  O13  1  0.753186  0.077470  0.004126  1
  O  O14  1  0.745249  0.919096  0.506632  1
  O  O15  1  0.245249  0.580904  0.493368  1
  O  O16  1  0.224623  0.109338  0.063816  1
  O  O17  1  0.724623  0.390662  0.936184  1
  O  O18  1  0.775449  0.610773  0.434661  1
  O  O19  1  0.275449  0.889227  0.565339  1
  O  O20  1  0.309830  0.358088  0.326361  1
  O  O21  1  0.809830  0.141912  0.673639  1
  O  O22  1  0.688574  0.857350  0.170704  1
  O  O23  1  0.188574  0.642650  0.829296  1
  O  O24  1  0.164825  0.948020  0.292956  1
  O  O25  1  0.664825  0.551980  0.707044  1
  O  O26  1  0.834724  0.450091  0.204452  1
  O  O27  1  0.334724  0.049909  0.795548  1
  O  O28  1  0.178779  0.635893  0.239550  1
  O  O29  1  0.678779  0.864107  0.760450  1
  O  O30  1  0.820324  0.134830  0.257004  1
  O  O31  1  0.320324  0.365170  0.742996  1
  O  O32  1  0.096557  0.840650  0.030555  1
  O  O33  1  0.596557  0.659350  0.969445  1
  O  O34  1  0.908234  0.343358  0.468950  1
  O  O35  1  0.408234  0.156642  0.531050  1
