# generated using pymatgen
data_PrNd(Tm4Bi3)2
_symmetry_space_group_name_H-M   'P 1'
_cell_length_a   8.23408300
_cell_length_b   9.45568300
_cell_length_c   11.98227100
_cell_angle_alpha   90.00000000
_cell_angle_beta   90.00000000
_cell_angle_gamma   90.00000000
_symmetry_Int_Tables_number   1
_chemical_formula_structural   PrNd(Tm4Bi3)2
_chemical_formula_sum   'Pr2 Nd2 Tm16 Bi12'
_cell_volume   932.92618366
_cell_formula_units_Z   2
loop_
 _symmetry_equiv_pos_site_id
 _symmetry_equiv_pos_as_xyz
  1  'x, y, z'
loop_
 _atom_site_type_symbol
 _atom_site_label
 _atom_site_symmetry_multiplicity
 _atom_site_fract_x
 _atom_site_fract_y
 _atom_site_fract_z
 _atom_site_occupancy
  Pr  Pr0  1  0.316938  0.250000  0.219383  1
  Pr  Pr1  1  0.816938  0.250000  0.280617  1
  Nd  Nd2  1  0.683790  0.750000  0.781108  1
  Nd  Nd3  1  0.183790  0.750000  0.718892  1
  Tm  Tm4  1  0.351349  0.750000  0.218643  1
  Tm  Tm5  1  0.851349  0.750000  0.281357  1
  Tm  Tm6  1  0.648542  0.250000  0.780597  1
  Tm  Tm7  1  0.148542  0.250000  0.719403  1
  Tm  Tm8  1  0.690497  0.566164  0.061102  1
  Tm  Tm9  1  0.190497  0.933836  0.438898  1
  Tm  Tm10  1  0.309276  0.065744  0.938689  1
  Tm  Tm11  1  0.809276  0.434256  0.561311  1
  Tm  Tm12  1  0.309276  0.434256  0.938689  1
  Tm  Tm13  1  0.809276  0.065744  0.561311  1
  Tm  Tm14  1  0.690497  0.933836  0.061102  1
  Tm  Tm15  1  0.190497  0.566164  0.438898  1
  Tm  Tm16  1  0.478191  0.250000  0.488992  1
  Tm  Tm17  1  0.978191  0.250000  0.011008  1
  Tm  Tm18  1  0.521083  0.750000  0.512477  1
  Tm  Tm19  1  0.021083  0.750000  0.987523  1
  Bi  Bi20  1  0.402482  0.750000  0.962889  1
  Bi  Bi21  1  0.902482  0.750000  0.537111  1
  Bi  Bi22  1  0.597997  0.250000  0.035231  1
  Bi  Bi23  1  0.097997  0.250000  0.464769  1
  Bi  Bi24  1  0.565314  0.990025  0.328994  1
  Bi  Bi25  1  0.065314  0.509975  0.171006  1
  Bi  Bi26  1  0.434727  0.490820  0.672486  1
  Bi  Bi27  1  0.934727  0.009180  0.827514  1
  Bi  Bi28  1  0.434727  0.009180  0.672486  1
  Bi  Bi29  1  0.934727  0.490820  0.827514  1
  Bi  Bi30  1  0.565314  0.509975  0.328994  1
  Bi  Bi31  1  0.065314  0.990025  0.171006  1
