# generated using pymatgen
data_Tb2Zr6Ti5Si16Mo7
_symmetry_space_group_name_H-M   'P 1'
_cell_length_a   6.81134942
_cell_length_b   6.80187736
_cell_length_c   12.64359326
_cell_angle_alpha   89.95770255
_cell_angle_beta   90.02387351
_cell_angle_gamma   89.77734347
_symmetry_Int_Tables_number   1
_chemical_formula_structural   Tb2Zr6Ti5Si16Mo7
_chemical_formula_sum   'Tb2 Zr6 Ti5 Si16 Mo7'
_cell_volume   585.77257860
_cell_formula_units_Z   1
loop_
 _symmetry_equiv_pos_site_id
 _symmetry_equiv_pos_as_xyz
  1  'x, y, z'
loop_
 _atom_site_type_symbol
 _atom_site_label
 _atom_site_symmetry_multiplicity
 _atom_site_fract_x
 _atom_site_fract_y
 _atom_site_fract_z
 _atom_site_occupancy
  Tb  Tb0  1  0.004663  0.337710  0.531047  1
  Tb  Tb1  1  0.994538  0.663822  0.030650  1
  Zr  Zr2  1  0.344932  0.994643  0.466129  1
  Zr  Zr3  1  0.502513  0.840825  0.719320  1
  Zr  Zr4  1  0.497871  0.161228  0.218902  1
  Zr  Zr5  1  0.840993  0.501717  0.282786  1
  Zr  Zr6  1  0.160933  0.498457  0.783618  1
  Zr  Zr7  1  0.654606  0.005282  0.966428  1
  Ti  Ti8  1  0.332942  0.328394  0.999829  1
  Ti  Ti9  1  0.168519  0.829947  0.250693  1
  Ti  Ti10  1  0.829039  0.168496  0.749808  1
  Ti  Ti11  1  0.665748  0.669473  0.499276  1
  Ti  Ti12  1  0.996043  0.843345  0.627162  1
  Si  Si13  1  0.209972  0.126691  0.681271  1
  Si  Si14  1  0.374298  0.706294  0.928146  1
  Si  Si15  1  0.626925  0.294597  0.428261  1
  Si  Si16  1  0.702562  0.364718  0.071255  1
  Si  Si17  1  0.297950  0.634462  0.571467  1
  Si  Si18  1  0.789949  0.873875  0.180864  1
  Si  Si19  1  0.131125  0.203579  0.319324  1
  Si  Si20  1  0.869208  0.796134  0.818928  1
  Si  Si21  1  0.296804  0.958600  0.064284  1
  Si  Si22  1  0.541505  0.792789  0.313115  1
  Si  Si23  1  0.458173  0.207081  0.813275  1
  Si  Si24  1  0.792163  0.545318  0.687885  1
  Si  Si25  1  0.206869  0.456143  0.186802  1
  Si  Si26  1  0.704171  0.040707  0.564158  1
  Si  Si27  1  0.956596  0.288513  0.936165  1
  Si  Si28  1  0.043410  0.712492  0.437504  1
  Mo  Mo29  1  0.160835  0.004935  0.874070  1
  Mo  Mo30  1  0.494633  0.656202  0.125174  1
  Mo  Mo31  1  0.504048  0.342223  0.624612  1
  Mo  Mo32  1  0.656232  0.492323  0.876097  1
  Mo  Mo33  1  0.343770  0.505901  0.373548  1
  Mo  Mo34  1  0.838891  0.996511  0.372072  1
  Mo  Mo35  1  0.006572  0.156573  0.126072  1
