# generated using pymatgen
data_Sm3Y3IrI10
_symmetry_space_group_name_H-M   'P 1'
_cell_length_a   7.82940103
_cell_length_b   9.82253574
_cell_length_c   9.85876200
_cell_angle_alpha   107.03635409
_cell_angle_beta   96.65331644
_cell_angle_gamma   104.68074046
_symmetry_Int_Tables_number   1
_chemical_formula_structural   Sm3Y3IrI10
_chemical_formula_sum   'Sm3 Y3 Ir1 I10'
_cell_volume   686.27412796
_cell_formula_units_Z   1
loop_
 _symmetry_equiv_pos_site_id
 _symmetry_equiv_pos_as_xyz
  1  'x, y, z'
loop_
 _atom_site_type_symbol
 _atom_site_label
 _atom_site_symmetry_multiplicity
 _atom_site_fract_x
 _atom_site_fract_y
 _atom_site_fract_z
 _atom_site_occupancy
  Sm  Sm0  1  0.114598  0.042206  0.762644  1
  Sm  Sm1  1  0.884650  0.957410  0.236770  1
  Sm  Sm2  1  0.968299  0.290626  0.086634  1
  Y  Y3  1  0.652137  0.874452  0.834091  1
  Y  Y4  1  0.347893  0.123600  0.165613  1
  Y  Y5  1  0.031107  0.713362  0.914364  1
  Ir  Ir6  1  0.999913  0.999965  0.999853  1
  I  I7  1  0.353660  0.448778  0.272672  1
  I  I8  1  0.653267  0.551235  0.729442  1
  I  I9  1  0.740391  0.912396  0.542330  1
  I  I10  1  0.087372  0.376225  0.818822  1
  I  I11  1  0.914643  0.627932  0.177869  1
  I  I12  1  0.452969  0.816877  0.089483  1
  I  I13  1  0.544058  0.180932  0.908558  1
  I  I14  1  0.772611  0.255800  0.345839  1
  I  I15  1  0.223816  0.741674  0.657413  1
  I  I16  1  0.258615  0.086531  0.457607  1
