# generated using pymatgen
data_AlTc6Sb13
_symmetry_space_group_name_H-M   'P 1'
_cell_length_a   8.18391568
_cell_length_b   8.18391485
_cell_length_c   8.17161500
_cell_angle_alpha   109.44078095
_cell_angle_beta   109.44077890
_cell_angle_gamma   109.50164026
_symmetry_Int_Tables_number   1
_chemical_formula_structural   AlTc6Sb13
_chemical_formula_sum   'Al1 Tc6 Sb13'
_cell_volume   421.47448881
_cell_formula_units_Z   1
loop_
 _symmetry_equiv_pos_site_id
 _symmetry_equiv_pos_as_xyz
  1  'x, y, z'
loop_
 _atom_site_type_symbol
 _atom_site_label
 _atom_site_symmetry_multiplicity
 _atom_site_fract_x
 _atom_site_fract_y
 _atom_site_fract_z
 _atom_site_occupancy
  Al  Al0  1  0.000000  0.000000  0.683495  1
  Tc  Tc1  1  0.341893  0.000000  0.338358  1
  Tc  Tc2  1  0.000000  0.341893  0.338358  1
  Tc  Tc3  1  0.000000  0.654597  0.656518  1
  Tc  Tc4  1  0.345403  0.345403  0.001921  1
  Tc  Tc5  1  0.658107  0.658107  0.996467  1
  Tc  Tc6  1  0.654597  0.000000  0.656518  1
  Sb  Sb7  1  0.751907  0.503153  0.251216  1
  Sb  Sb8  1  0.503153  0.751907  0.251216  1
  Sb  Sb9  1  0.496847  0.248754  0.748063  1
  Sb  Sb10  1  0.751246  0.248093  0.499309  1
  Sb  Sb11  1  0.248093  0.751246  0.499309  1
  Sb  Sb12  1  0.248754  0.496847  0.748063  1
  Sb  Sb13  1  0.000000  0.000000  0.347604  1
  Sb  Sb14  1  0.673109  0.000000  0.001504  1
  Sb  Sb15  1  0.000000  0.673109  0.001504  1
  Sb  Sb16  1  0.326891  0.326891  0.328395  1
  Sb  Sb17  1  0.000000  0.316540  0.989575  1
  Sb  Sb18  1  0.683460  0.683460  0.673035  1
  Sb  Sb19  1  0.316540  0.000000  0.989575  1
