# generated using pymatgen
data_Tb4TcBr4
_symmetry_space_group_name_H-M   'P 1'
_cell_length_a   9.07083302
_cell_length_b   9.07083133
_cell_length_c   6.61216447
_cell_angle_alpha   89.60163961
_cell_angle_beta   89.60164280
_cell_angle_gamma   89.42998067
_symmetry_Int_Tables_number   1
_chemical_formula_structural   Tb4TcBr4
_chemical_formula_sum   'Tb8 Tc2 Br8'
_cell_volume   543.99590511
_cell_formula_units_Z   2
loop_
 _symmetry_equiv_pos_site_id
 _symmetry_equiv_pos_as_xyz
  1  'x, y, z'
loop_
 _atom_site_type_symbol
 _atom_site_label
 _atom_site_symmetry_multiplicity
 _atom_site_fract_x
 _atom_site_fract_y
 _atom_site_fract_z
 _atom_site_occupancy
  Tb  Tb0  1  0.247872  0.902303  0.011197  1
  Tb  Tb1  1  0.752128  0.097697  0.988803  1
  Tb  Tb2  1  0.097697  0.752128  0.488803  1
  Tb  Tb3  1  0.902303  0.247872  0.511197  1
  Tb  Tb4  1  0.752590  0.903314  0.505253  1
  Tb  Tb5  1  0.247410  0.096686  0.494747  1
  Tb  Tb6  1  0.096686  0.247410  0.994747  1
  Tb  Tb7  1  0.903314  0.752590  0.005253  1
  Tc  Tc8  1  0.995262  0.004738  0.250000  1
  Tc  Tc9  1  0.004738  0.995262  0.750000  1
  Br  Br10  1  0.415914  0.817875  0.414034  1
  Br  Br11  1  0.584086  0.182125  0.585966  1
  Br  Br12  1  0.182125  0.584086  0.085966  1
  Br  Br13  1  0.817875  0.415914  0.914034  1
  Br  Br14  1  0.411906  0.188377  0.088932  1
  Br  Br15  1  0.588094  0.811623  0.911068  1
  Br  Br16  1  0.811623  0.588094  0.411068  1
  Br  Br17  1  0.188377  0.411906  0.588932  1
