# generated using pymatgen
data_Dy2LuHf3(GaPt)6
_symmetry_space_group_name_H-M   'P 1'
_cell_length_a   7.27597600
_cell_length_b   7.26152502
_cell_length_c   7.32922700
_cell_angle_alpha   90.00000000
_cell_angle_beta   90.00000000
_cell_angle_gamma   120.06226942
_symmetry_Int_Tables_number   1
_chemical_formula_structural   Dy2LuHf3(GaPt)6
_chemical_formula_sum   'Dy2 Lu1 Hf3 Ga6 Pt6'
_cell_volume   335.14678129
_cell_formula_units_Z   1
loop_
 _symmetry_equiv_pos_site_id
 _symmetry_equiv_pos_as_xyz
  1  'x, y, z'
loop_
 _atom_site_type_symbol
 _atom_site_label
 _atom_site_symmetry_multiplicity
 _atom_site_fract_x
 _atom_site_fract_y
 _atom_site_fract_z
 _atom_site_occupancy
  Dy  Dy0  1  0.407823  0.409083  0.750000  1
  Dy  Dy1  1  0.002234  0.592658  0.750000  1
  Lu  Lu2  1  0.591941  0.998125  0.750000  1
  Hf  Hf3  1  0.391370  0.389631  0.250000  1
  Hf  Hf4  1  0.998207  0.608634  0.250000  1
  Hf  Hf5  1  0.610710  0.001776  0.250000  1
  Ga  Ga6  1  0.263541  0.999249  0.006152  1
  Ga  Ga7  1  0.263541  0.999249  0.493848  1
  Ga  Ga8  1  0.999942  0.263229  0.492408  1
  Ga  Ga9  1  0.999942  0.263229  0.007592  1
  Ga  Ga10  1  0.735906  0.737604  0.007581  1
  Ga  Ga11  1  0.735906  0.737604  0.492419  1
  Pt  Pt12  1  0.666298  0.331877  0.474235  1
  Pt  Pt13  1  0.997157  0.999972  0.750000  1
  Pt  Pt14  1  0.666298  0.331877  0.025765  1
  Pt  Pt15  1  0.334396  0.668088  0.030601  1
  Pt  Pt16  1  0.334396  0.668088  0.469399  1
  Pt  Pt17  1  0.000395  0.000026  0.250000  1
