# generated using pymatgen
data_Li29AlSi7Pb
_symmetry_space_group_name_H-M   'P 1'
_cell_length_a   9.24571065
_cell_length_b   9.28674577
_cell_length_c   9.23587863
_cell_angle_alpha   109.46356239
_cell_angle_beta   109.92432084
_cell_angle_gamma   109.47190727
_symmetry_Int_Tables_number   1
_chemical_formula_structural   Li29AlSi7Pb
_chemical_formula_sum   'Li29 Al1 Si7 Pb1'
_cell_volume   607.07017124
_cell_formula_units_Z   1
loop_
 _symmetry_equiv_pos_site_id
 _symmetry_equiv_pos_as_xyz
  1  'x, y, z'
loop_
 _atom_site_type_symbol
 _atom_site_label
 _atom_site_symmetry_multiplicity
 _atom_site_fract_x
 _atom_site_fract_y
 _atom_site_fract_z
 _atom_site_occupancy
  Li  Li0  1  0.114675  0.745292  0.875338  1
  Li  Li1  1  0.733135  0.357512  0.821366  1
  Li  Li2  1  0.620926  0.764090  0.589695  1
  Li  Li3  1  0.033858  0.918044  0.694595  1
  Li  Li4  1  0.087810  0.273531  0.112873  1
  Li  Li5  1  0.916995  0.694063  0.034238  1
  Li  Li6  1  0.270236  0.111852  0.081604  1
  Li  Li7  1  0.197277  0.417814  0.532468  1
  Li  Li8  1  0.778259  0.582935  0.621047  1
  Li  Li9  1  0.699637  0.029216  0.922522  1
  Li  Li10  1  0.526430  0.190581  0.404545  1
  Li  Li11  1  0.620570  0.382716  0.247862  1
  Li  Li12  1  0.473672  0.172893  0.894632  1
  Li  Li13  1  0.886836  0.128236  0.757191  1
  Li  Li14  1  0.972900  0.381051  0.661901  1
  Li  Li15  1  0.412063  0.529179  0.189288  1
  Li  Li16  1  0.117343  0.088368  0.277076  1
  Li  Li17  1  0.298548  0.831988  0.207440  1
  Li  Li18  1  0.758542  0.873420  0.124088  1
  Li  Li19  1  0.886173  0.473847  0.162734  1
  Li  Li20  1  0.584547  0.619277  0.779454  1
  Li  Li21  1  0.381959  0.654557  0.965658  1
  Li  Li22  1  0.804944  0.729503  0.340326  1
  Li  Li23  1  0.659203  0.956882  0.368507  1
  Li  Li24  1  0.141247  0.879255  0.460456  1
  Li  Li25  1  0.225086  0.310575  0.840995  1
  Li  Li26  1  0.370648  0.259698  0.630613  1
  Li  Li27  1  0.843223  0.221004  0.307261  1
  Li  Li28  1  0.244892  0.612696  0.368024  1
  Al  Al29  1  0.330354  0.811238  0.729403  1
  Si  Si30  1  0.586731  0.504943  0.005543  1
  Si  Si31  1  0.493419  0.994086  0.068246  1
  Si  Si32  1  0.999693  0.088229  0.499200  1
  Si  Si33  1  0.008314  0.588155  0.507510  1
  Si  Si34  1  0.082947  0.496623  0.998760  1
  Si  Si35  1  0.418427  0.411656  0.412915  1
  Si  Si36  1  0.919543  0.915441  0.918068  1
  Pb  Pb37  1  0.498937  0.999554  0.586556  1
