# generated using pymatgen
data_Ac8Tb9Ho3Pb16
_symmetry_space_group_name_H-M   'P 1'
_cell_length_a   8.50192900
_cell_length_b   8.57522073
_cell_length_c   16.26226400
_cell_angle_alpha   90.00000000
_cell_angle_beta   90.00000000
_cell_angle_gamma   89.97638071
_symmetry_Int_Tables_number   1
_chemical_formula_structural   Ac8Tb9Ho3Pb16
_chemical_formula_sum   'Ac8 Tb9 Ho3 Pb16'
_cell_volume   1185.61518159
_cell_formula_units_Z   1
loop_
 _symmetry_equiv_pos_site_id
 _symmetry_equiv_pos_as_xyz
  1  'x, y, z'
loop_
 _atom_site_type_symbol
 _atom_site_label
 _atom_site_symmetry_multiplicity
 _atom_site_fract_x
 _atom_site_fract_y
 _atom_site_fract_z
 _atom_site_occupancy
  Ac  Ac0  1  0.520016  0.323027  0.903914  1
  Ac  Ac1  1  0.019737  0.176509  0.595702  1
  Ac  Ac2  1  0.480235  0.676712  0.404001  1
  Ac  Ac3  1  0.980105  0.823201  0.095891  1
  Ac  Ac4  1  0.480235  0.676712  0.095999  1
  Ac  Ac5  1  0.980105  0.823201  0.404109  1
  Ac  Ac6  1  0.520016  0.323027  0.596086  1
  Ac  Ac7  1  0.019737  0.176509  0.904298  1
  Tb  Tb8  1  0.359982  0.843643  0.876655  1
  Tb  Tb9  1  0.859442  0.656338  0.623220  1
  Tb  Tb10  1  0.640189  0.156516  0.376449  1
  Tb  Tb11  1  0.140321  0.344018  0.123525  1
  Tb  Tb12  1  0.640189  0.156516  0.123551  1
  Tb  Tb13  1  0.140321  0.344018  0.376475  1
  Tb  Tb14  1  0.359982  0.843643  0.623345  1
  Tb  Tb15  1  0.859442  0.656338  0.876780  1
  Tb  Tb16  1  0.195032  0.504751  0.750000  1
  Ho  Ho17  1  0.694824  0.994729  0.750000  1
  Ho  Ho18  1  0.804995  0.494819  0.250000  1
  Ho  Ho19  1  0.305125  0.005316  0.250000  1
  Pb  Pb20  1  0.305034  0.045916  0.046112  1
  Pb  Pb21  1  0.804736  0.454131  0.453867  1
  Pb  Pb22  1  0.694958  0.954367  0.545817  1
  Pb  Pb23  1  0.195127  0.545834  0.954423  1
  Pb  Pb24  1  0.694958  0.954367  0.954183  1
  Pb  Pb25  1  0.195127  0.545834  0.545577  1
  Pb  Pb26  1  0.305034  0.045916  0.453888  1
  Pb  Pb27  1  0.804736  0.454131  0.046133  1
  Pb  Pb28  1  0.554678  0.634769  0.750000  1
  Pb  Pb29  1  0.053317  0.865957  0.750000  1
  Pb  Pb30  1  0.446148  0.365715  0.250000  1
  Pb  Pb31  1  0.946427  0.134363  0.250000  1
  Pb  Pb32  1  0.330569  0.145277  0.750000  1
  Pb  Pb33  1  0.830433  0.353562  0.750000  1
  Pb  Pb34  1  0.669325  0.853691  0.250000  1
  Pb  Pb35  1  0.169357  0.646625  0.250000  1
