# generated using pymatgen
data_PrNd3(NbN2)4
_symmetry_space_group_name_H-M   'P 1'
_cell_length_a   3.40750900
_cell_length_b   5.83646002
_cell_length_c   11.12599503
_cell_angle_alpha   89.99158124
_cell_angle_beta   90.00000000
_cell_angle_gamma   90.00000000
_symmetry_Int_Tables_number   1
_chemical_formula_structural   PrNd3(NbN2)4
_chemical_formula_sum   'Pr1 Nd3 Nb4 N8'
_cell_volume   221.27145066
_cell_formula_units_Z   1
loop_
 _symmetry_equiv_pos_site_id
 _symmetry_equiv_pos_as_xyz
  1  'x, y, z'
loop_
 _atom_site_type_symbol
 _atom_site_label
 _atom_site_symmetry_multiplicity
 _atom_site_fract_x
 _atom_site_fract_y
 _atom_site_fract_z
 _atom_site_occupancy
  Pr  Pr0  1  0.250000  0.585660  0.861346  1
  Nd  Nd1  1  0.750000  0.414425  0.139067  1
  Nd  Nd2  1  0.750000  0.914544  0.361325  1
  Nd  Nd3  1  0.250000  0.085443  0.638535  1
  Nb  Nb4  1  0.250000  0.917759  0.108524  1
  Nb  Nb5  1  0.750000  0.082325  0.891721  1
  Nb  Nb6  1  0.750000  0.582190  0.607610  1
  Nb  Nb7  1  0.250000  0.417621  0.392052  1
  N  N8  1  0.250000  0.661910  0.247201  1
  N  N9  1  0.750000  0.336812  0.752123  1
  N  N10  1  0.750000  0.838953  0.746472  1
  N  N11  1  0.250000  0.162016  0.252956  1
  N  N12  1  0.250000  0.728319  0.512657  1
  N  N13  1  0.750000  0.271782  0.486983  1
  N  N14  1  0.750000  0.773450  0.013747  1
  N  N15  1  0.250000  0.226791  0.987680  1
