# generated using pymatgen
data_Li3MnRuO5
_symmetry_space_group_name_H-M   'P 1'
_cell_length_a   5.33761734
_cell_length_b   7.55477861
_cell_length_c   5.31202007
_cell_angle_alpha   97.67024448
_cell_angle_beta   67.80811525
_cell_angle_gamma   110.68814368
_symmetry_Int_Tables_number   1
_chemical_formula_structural   Li3MnRuO5
_chemical_formula_sum   'Li6 Mn2 Ru2 O10'
_cell_volume   185.54789202
_cell_formula_units_Z   2
loop_
 _symmetry_equiv_pos_site_id
 _symmetry_equiv_pos_as_xyz
  1  'x, y, z'
loop_
 _atom_site_type_symbol
 _atom_site_label
 _atom_site_symmetry_multiplicity
 _atom_site_fract_x
 _atom_site_fract_y
 _atom_site_fract_z
 _atom_site_occupancy
  Li  Li0  1  0.004883  0.009754  0.999930  1
  Li  Li1  1  0.599003  0.197858  0.000028  1
  Li  Li2  1  0.200000  0.400000  0.000000  1
  Li  Li3  1  0.800997  0.602142  0.999972  1
  Li  Li4  1  0.395117  0.790246  0.000070  1
  Li  Li5  1  0.700000  0.400000  0.500000  1
  Mn  Mn6  1  0.897758  0.795477  0.499982  1
  Mn  Mn7  1  0.502242  0.004523  0.500018  1
  Ru  Ru8  1  0.288200  0.576389  0.500016  1
  Ru  Ru9  1  0.111800  0.223611  0.499984  1
  O  O10  1  0.851392  0.196750  0.281748  1
  O  O11  1  0.452083  0.399993  0.227857  1
  O  O12  1  0.054710  0.603251  0.281725  1
  O  O13  1  0.620618  0.795046  0.267431  1
  O  O14  1  0.225554  0.004945  0.267433  1
  O  O15  1  0.548608  0.603250  0.718252  1
  O  O16  1  0.174446  0.795055  0.732567  1
  O  O17  1  0.779382  0.004954  0.732569  1
  O  O18  1  0.345290  0.196749  0.718275  1
  O  O19  1  0.947917  0.400007  0.772143  1
