# generated using pymatgen
data_Rb6Li2Sn7Pb
_symmetry_space_group_name_H-M   'P 1'
_cell_length_a   8.97174329
_cell_length_b   8.99634998
_cell_length_c   10.55104500
_cell_angle_alpha   90.00000000
_cell_angle_beta   90.00000000
_cell_angle_gamma   133.47036148
_symmetry_Int_Tables_number   1
_chemical_formula_structural   Rb6Li2Sn7Pb
_chemical_formula_sum   'Rb6 Li2 Sn7 Pb1'
_cell_volume   618.03624235
_cell_formula_units_Z   1
loop_
 _symmetry_equiv_pos_site_id
 _symmetry_equiv_pos_as_xyz
  1  'x, y, z'
loop_
 _atom_site_type_symbol
 _atom_site_label
 _atom_site_symmetry_multiplicity
 _atom_site_fract_x
 _atom_site_fract_y
 _atom_site_fract_z
 _atom_site_occupancy
  Rb  Rb0  1  0.229574  0.771470  0.250000  1
  Rb  Rb1  1  0.770156  0.228495  0.750000  1
  Rb  Rb2  1  0.613928  0.388738  0.050698  1
  Rb  Rb3  1  0.389569  0.615754  0.954329  1
  Rb  Rb4  1  0.389569  0.615754  0.545671  1
  Rb  Rb5  1  0.613928  0.388738  0.449302  1
  Li  Li6  1  0.997511  0.996630  0.001837  1
  Li  Li7  1  0.997511  0.996630  0.498163  1
  Sn  Sn8  1  0.180963  0.258734  0.250000  1
  Sn  Sn9  1  0.815058  0.736144  0.750000  1
  Sn  Sn10  1  0.741755  0.820392  0.250000  1
  Sn  Sn11  1  0.834373  0.165682  0.109542  1
  Sn  Sn12  1  0.161653  0.829674  0.890212  1
  Sn  Sn13  1  0.161653  0.829674  0.609788  1
  Sn  Sn14  1  0.834373  0.165682  0.390458  1
  Pb  Pb15  1  0.268427  0.191807  0.750000  1
