# generated using pymatgen
data_Y2Er2Al24CoPt8
_symmetry_space_group_name_H-M   'P 1'
_cell_length_a   7.49697250
_cell_length_b   7.49758933
_cell_length_c   13.12862207
_cell_angle_alpha   84.53894140
_cell_angle_beta   100.86674394
_cell_angle_gamma   119.69343005
_symmetry_Int_Tables_number   1
_chemical_formula_structural   Y2Er2Al24CoPt8
_chemical_formula_sum   'Y2 Er2 Al24 Co1 Pt8'
_cell_volume   629.55176171
_cell_formula_units_Z   1
loop_
 _symmetry_equiv_pos_site_id
 _symmetry_equiv_pos_as_xyz
  1  'x, y, z'
loop_
 _atom_site_type_symbol
 _atom_site_label
 _atom_site_symmetry_multiplicity
 _atom_site_fract_x
 _atom_site_fract_y
 _atom_site_fract_z
 _atom_site_occupancy
  Y  Y0  1  0.736012  0.000811  0.190473  1
  Y  Y1  1  0.268169  0.004119  0.809448  1
  Er  Er2  1  0.059339  0.668345  0.190783  1
  Er  Er3  1  0.935776  0.327556  0.809238  1
  Al  Al4  1  0.804979  0.865956  0.816974  1
  Al  Al5  1  0.195267  0.133637  0.183020  1
  Al  Al6  1  0.995486  0.665922  0.945589  1
  Al  Al7  1  0.025942  0.343508  0.053244  1
  Al  Al8  1  0.390692  0.662487  0.823513  1
  Al  Al9  1  0.600324  0.336687  0.181859  1
  Al  Al10  1  0.883238  0.664895  0.672883  1
  Al  Al11  1  0.118442  0.335758  0.326825  1
  Al  Al12  1  0.603074  0.459479  0.817864  1
  Al  Al13  1  0.395963  0.551214  0.176827  1
  Al  Al14  1  0.231298  0.341213  0.671084  1
  Al  Al15  1  0.768111  0.659402  0.328832  1
  Al  Al16  1  0.853628  0.333487  0.559163  1
  Al  Al17  1  0.186675  0.999860  0.559109  1
  Al  Al18  1  0.813849  0.999956  0.440909  1
  Al  Al19  1  0.351788  0.985777  0.054526  1
  Al  Al20  1  0.639100  0.992262  0.946703  1
  Al  Al21  1  0.556188  0.991835  0.673080  1
  Al  Al22  1  0.443323  0.006480  0.327119  1
  Al  Al23  1  0.521429  0.667947  0.561474  1
  Al  Al24  1  0.478800  0.331852  0.438268  1
  Al  Al25  1  0.675015  0.668591  0.041505  1
  Al  Al26  1  0.317133  0.338909  0.958449  1
  Al  Al27  1  0.146506  0.666001  0.441099  1
  Co  Co28  1  0.330287  0.669689  0.000052  1
  Pt  Pt29  1  0.546645  0.324979  0.637959  1
  Pt  Pt30  1  0.453320  0.674658  0.361387  1
  Pt  Pt31  1  0.888185  0.008318  0.639142  1
  Pt  Pt32  1  0.112091  0.991375  0.360896  1
  Pt  Pt33  1  0.672593  0.327755  0.000014  1
  Pt  Pt34  1  0.205133  0.666957  0.639846  1
  Pt  Pt35  1  0.795753  0.332895  0.360791  1
  Pt  Pt36  1  0.000448  0.999425  0.000052  1
