# generated using pymatgen
data_Hf10GaSn7
_symmetry_space_group_name_H-M   'P 1'
_cell_length_a   5.86997501
_cell_length_b   8.71171033
_cell_length_c   8.71177100
_cell_angle_alpha   119.99973617
_cell_angle_beta   89.99956957
_cell_angle_gamma   90.00101986
_symmetry_Int_Tables_number   1
_chemical_formula_structural   Hf10GaSn7
_chemical_formula_sum   'Hf10 Ga1 Sn7'
_cell_volume   385.81394105
_cell_formula_units_Z   1
loop_
 _symmetry_equiv_pos_site_id
 _symmetry_equiv_pos_as_xyz
  1  'x, y, z'
loop_
 _atom_site_type_symbol
 _atom_site_label
 _atom_site_symmetry_multiplicity
 _atom_site_fract_x
 _atom_site_fract_y
 _atom_site_fract_z
 _atom_site_occupancy
  Hf  Hf0  1  0.499999  0.333340  0.666681  1
  Hf  Hf1  1  0.500000  0.666659  0.333318  1
  Hf  Hf2  1  0.999999  0.666663  0.333328  1
  Hf  Hf3  1  0.000000  0.333336  0.666672  1
  Hf  Hf4  1  0.736341  0.275349  0.000001  1
  Hf  Hf5  1  0.736358  0.724663  0.724641  1
  Hf  Hf6  1  0.736360  0.000021  0.275359  1
  Hf  Hf7  1  0.263653  0.724653  0.000001  1
  Hf  Hf8  1  0.263644  0.275336  0.275359  1
  Hf  Hf9  1  0.263644  0.999976  0.724640  1
  Ga  Ga10  1  0.500001  0.000000  0.000000  1
  Sn  Sn11  1  0.753381  0.612529  0.000003  1
  Sn  Sn12  1  0.753366  0.387497  0.387498  1
  Sn  Sn13  1  0.753367  0.999993  0.612499  1
  Sn  Sn14  1  0.246616  0.387476  0.000003  1
  Sn  Sn15  1  0.246636  0.612506  0.612498  1
  Sn  Sn16  1  0.246635  0.000001  0.387499  1
  Sn  Sn17  1  0.999999  0.000002  0.000001  1
