# generated using pymatgen
data_LuTh7(Si3Rh)4
_symmetry_space_group_name_H-M   'P 1'
_cell_length_a   8.20195600
_cell_length_b   8.22260873
_cell_length_c   8.39027100
_cell_angle_alpha   90.00000000
_cell_angle_beta   90.00000000
_cell_angle_gamma   119.91694834
_symmetry_Int_Tables_number   1
_chemical_formula_structural   LuTh7(Si3Rh)4
_chemical_formula_sum   'Lu1 Th7 Si12 Rh4'
_cell_volume   490.45201846
_cell_formula_units_Z   1
loop_
 _symmetry_equiv_pos_site_id
 _symmetry_equiv_pos_as_xyz
  1  'x, y, z'
loop_
 _atom_site_type_symbol
 _atom_site_label
 _atom_site_symmetry_multiplicity
 _atom_site_fract_x
 _atom_site_fract_y
 _atom_site_fract_z
 _atom_site_occupancy
  Lu  Lu0  1  0.500977  0.001954  0.750000  1
  Th  Th1  1  0.000014  0.000027  0.250000  1
  Th  Th2  1  0.000028  0.000056  0.750000  1
  Th  Th3  1  0.499258  0.500701  0.250000  1
  Th  Th4  1  0.499305  0.998610  0.250000  1
  Th  Th5  1  0.001443  0.500701  0.250000  1
  Th  Th6  1  0.500881  0.498878  0.750000  1
  Th  Th7  1  0.997996  0.498878  0.750000  1
  Si  Si8  1  0.831446  0.165615  0.501414  1
  Si  Si9  1  0.834685  0.669370  0.497609  1
  Si  Si10  1  0.334169  0.165615  0.501414  1
  Si  Si11  1  0.831446  0.165615  0.998586  1
  Si  Si12  1  0.834685  0.669370  0.002391  1
  Si  Si13  1  0.334169  0.165615  0.998586  1
  Si  Si14  1  0.168607  0.834235  0.997452  1
  Si  Si15  1  0.665629  0.834235  0.997452  1
  Si  Si16  1  0.165469  0.330936  0.001320  1
  Si  Si17  1  0.168607  0.834235  0.502548  1
  Si  Si18  1  0.665629  0.834235  0.502548  1
  Si  Si19  1  0.165469  0.330936  0.498680  1
  Rh  Rh20  1  0.667328  0.334654  0.502740  1
  Rh  Rh21  1  0.667328  0.334654  0.997260  1
  Rh  Rh22  1  0.332717  0.665435  0.990921  1
  Rh  Rh23  1  0.332717  0.665435  0.509079  1
