# generated using pymatgen
data_LiLa5Nd3CdIr2
_symmetry_space_group_name_H-M   'P 1'
_cell_length_a   10.07969211
_cell_length_b   10.07969185
_cell_length_c   10.09482500
_cell_angle_alpha   59.95031999
_cell_angle_beta   59.95032086
_cell_angle_gamma   60.00289901
_symmetry_Int_Tables_number   1
_chemical_formula_structural   LiLa5Nd3CdIr2
_chemical_formula_sum   'Li2 La10 Nd6 Cd2 Ir4'
_cell_volume   724.70506274
_cell_formula_units_Z   2
loop_
 _symmetry_equiv_pos_site_id
 _symmetry_equiv_pos_as_xyz
  1  'x, y, z'
loop_
 _atom_site_type_symbol
 _atom_site_label
 _atom_site_symmetry_multiplicity
 _atom_site_fract_x
 _atom_site_fract_y
 _atom_site_fract_z
 _atom_site_occupancy
  Li  Li0  1  0.571208  0.571208  0.576429  1
  Li  Li1  1  0.571208  0.571208  0.281155  1
  La  La2  1  0.347631  0.347631  0.348061  1
  La  La3  1  0.347631  0.347631  0.956679  1
  La  La4  1  0.346447  0.961326  0.346113  1
  La  La5  1  0.961326  0.346447  0.346113  1
  La  La6  1  0.811282  0.188974  0.189940  1
  La  La7  1  0.188974  0.811282  0.809804  1
  La  La8  1  0.188974  0.811282  0.189940  1
  La  La9  1  0.811282  0.188974  0.809804  1
  La  La10  1  0.192066  0.192066  0.807934  1
  La  La11  1  0.814834  0.814834  0.185166  1
  Nd  Nd12  1  0.937138  0.563762  0.564252  1
  Nd  Nd13  1  0.563762  0.937138  0.934847  1
  Nd  Nd14  1  0.563762  0.937138  0.564252  1
  Nd  Nd15  1  0.937138  0.563762  0.934847  1
  Nd  Nd16  1  0.563937  0.563937  0.936063  1
  Nd  Nd17  1  0.936368  0.936368  0.563632  1
  Cd  Cd18  1  0.583587  0.255941  0.580236  1
  Cd  Cd19  1  0.255941  0.583587  0.580236  1
  Ir  Ir20  1  0.142400  0.142400  0.139771  1
  Ir  Ir21  1  0.142400  0.142400  0.575428  1
  Ir  Ir22  1  0.142914  0.577789  0.139648  1
  Ir  Ir23  1  0.577789  0.142914  0.139648  1
