# generated using pymatgen
data_LaPr2(GaIr)2
_symmetry_space_group_name_H-M   'P 1'
_cell_length_a   5.79038900
_cell_length_b   8.24707500
_cell_length_c   13.73998000
_cell_angle_alpha   90.00000000
_cell_angle_beta   90.00000000
_cell_angle_gamma   90.00000000
_symmetry_Int_Tables_number   1
_chemical_formula_structural   LaPr2(GaIr)2
_chemical_formula_sum   'La4 Pr8 Ga8 Ir8'
_cell_volume   656.13587718
_cell_formula_units_Z   4
loop_
 _symmetry_equiv_pos_site_id
 _symmetry_equiv_pos_as_xyz
  1  'x, y, z'
loop_
 _atom_site_type_symbol
 _atom_site_label
 _atom_site_symmetry_multiplicity
 _atom_site_fract_x
 _atom_site_fract_y
 _atom_site_fract_z
 _atom_site_occupancy
  La  La0  1  0.147902  0.898447  0.596117  1
  La  La1  1  0.852098  0.101553  0.096117  1
  La  La2  1  0.147902  0.601553  0.403883  1
  La  La3  1  0.852098  0.398447  0.903883  1
  Pr  Pr4  1  0.854508  0.106368  0.400989  1
  Pr  Pr5  1  0.145492  0.893632  0.900989  1
  Pr  Pr6  1  0.854508  0.393632  0.599011  1
  Pr  Pr7  1  0.145492  0.606368  0.099011  1
  Pr  Pr8  1  0.371493  0.252586  0.750082  1
  Pr  Pr9  1  0.628507  0.747414  0.250082  1
  Pr  Pr10  1  0.371493  0.247414  0.249918  1
  Pr  Pr11  1  0.628507  0.752586  0.749918  1
  Ga  Ga12  1  0.864262  0.102646  0.750793  1
  Ga  Ga13  1  0.135738  0.897354  0.250793  1
  Ga  Ga14  1  0.864262  0.397354  0.249207  1
  Ga  Ga15  1  0.135738  0.602646  0.749207  1
  Ga  Ga16  1  0.381066  0.250000  0.500000  1
  Ga  Ga17  1  0.618934  0.750000  0.000000  1
  Ga  Ga18  1  0.622435  0.750000  0.500000  1
  Ga  Ga19  1  0.377565  0.250000  0.000000  1
  Ir  Ir20  1  0.644301  0.029383  0.592094  1
  Ir  Ir21  1  0.355699  0.970617  0.092094  1
  Ir  Ir22  1  0.644301  0.470617  0.407906  1
  Ir  Ir23  1  0.355699  0.529383  0.907906  1
  Ir  Ir24  1  0.355208  0.969285  0.408939  1
  Ir  Ir25  1  0.644792  0.030715  0.908939  1
  Ir  Ir26  1  0.355208  0.530715  0.591061  1
  Ir  Ir27  1  0.644792  0.469285  0.091061  1
