# generated using pymatgen
data_K(PPt4)2
_symmetry_space_group_name_H-M   'P 1'
_cell_length_a   6.29534421
_cell_length_b   6.29534468
_cell_length_c   9.43609158
_cell_angle_alpha   55.78797437
_cell_angle_beta   55.78797121
_cell_angle_gamma   37.83924475
_symmetry_Int_Tables_number   1
_chemical_formula_structural   K(PPt4)2
_chemical_formula_sum   'K1 P2 Pt8'
_cell_volume   184.48851629
_cell_formula_units_Z   1
loop_
 _symmetry_equiv_pos_site_id
 _symmetry_equiv_pos_as_xyz
  1  'x, y, z'
loop_
 _atom_site_type_symbol
 _atom_site_label
 _atom_site_symmetry_multiplicity
 _atom_site_fract_x
 _atom_site_fract_y
 _atom_site_fract_z
 _atom_site_occupancy
  K  K0  1  0.500000  0.500000  0.500000  1
  P  P1  1  0.062222  0.062222  0.703363  1
  P  P2  1  0.937778  0.937778  0.296637  1
  Pt  Pt3  1  0.241414  0.241414  0.407818  1
  Pt  Pt4  1  0.820401  0.820401  0.851815  1
  Pt  Pt5  1  0.179599  0.179599  0.148185  1
  Pt  Pt6  1  0.163814  0.163814  0.850617  1
  Pt  Pt7  1  0.473207  0.473207  0.872862  1
  Pt  Pt8  1  0.526793  0.526793  0.127138  1
  Pt  Pt9  1  0.758586  0.758586  0.592182  1
  Pt  Pt10  1  0.836186  0.836186  0.149383  1
