# generated using pymatgen
data_Mn4Nb4Cr3Ga
_symmetry_space_group_name_H-M   'P 1'
_cell_length_a   4.86486500
_cell_length_b   4.83599520
_cell_length_c   8.14231733
_cell_angle_alpha   89.97147039
_cell_angle_beta   90.00000000
_cell_angle_gamma   120.19768267
_symmetry_Int_Tables_number   1
_chemical_formula_structural   Mn4Nb4Cr3Ga
_chemical_formula_sum   'Mn4 Nb4 Cr3 Ga1'
_cell_volume   165.56429349
_cell_formula_units_Z   1
loop_
 _symmetry_equiv_pos_site_id
 _symmetry_equiv_pos_as_xyz
  1  'x, y, z'
loop_
 _atom_site_type_symbol
 _atom_site_label
 _atom_site_symmetry_multiplicity
 _atom_site_fract_x
 _atom_site_fract_y
 _atom_site_fract_z
 _atom_site_occupancy
  Mn  Mn0  1  0.656685  0.827871  0.744863  1
  Mn  Mn1  1  0.997785  0.995570  0.502690  1
  Mn  Mn2  1  0.828138  0.656275  0.254194  1
  Mn  Mn3  1  0.171187  0.827871  0.744863  1
  Nb  Nb4  1  0.334311  0.668623  0.440129  1
  Nb  Nb5  1  0.665856  0.331710  0.930029  1
  Nb  Nb6  1  0.667461  0.334920  0.561532  1
  Nb  Nb7  1  0.333638  0.667278  0.068820  1
  Cr  Cr8  1  0.174099  0.348199  0.743989  1
  Cr  Cr9  1  0.829400  0.172620  0.255225  1
  Cr  Cr10  1  0.343220  0.172620  0.255225  1
  Ga  Ga11  1  0.998221  0.996441  0.998440  1
