# generated using pymatgen
data_Nd2Lu4(CuRh5)3
_symmetry_space_group_name_H-M   'P 1'
_cell_length_a   5.29661900
_cell_length_b   5.29661822
_cell_length_c   16.98863800
_cell_angle_alpha   90.00000000
_cell_angle_beta   90.00000000
_cell_angle_gamma   119.99999861
_symmetry_Int_Tables_number   1
_chemical_formula_structural   Nd2Lu4(CuRh5)3
_chemical_formula_sum   'Nd2 Lu4 Cu3 Rh15'
_cell_volume   412.74954639
_cell_formula_units_Z   1
loop_
 _symmetry_equiv_pos_site_id
 _symmetry_equiv_pos_as_xyz
  1  'x, y, z'
loop_
 _atom_site_type_symbol
 _atom_site_label
 _atom_site_symmetry_multiplicity
 _atom_site_fract_x
 _atom_site_fract_y
 _atom_site_fract_z
 _atom_site_occupancy
  Nd  Nd0  1  0.333333  0.666667  0.750000  1
  Nd  Nd1  1  0.666667  0.333333  0.250000  1
  Lu  Lu2  1  0.333333  0.666667  0.538276  1
  Lu  Lu3  1  0.666667  0.333333  0.038977  1
  Lu  Lu4  1  0.666667  0.333333  0.461023  1
  Lu  Lu5  1  0.333333  0.666667  0.961724  1
  Cu  Cu6  1  0.000000  0.000000  0.250000  1
  Cu  Cu7  1  0.000000  0.000000  0.750000  1
  Cu  Cu8  1  0.333333  0.666667  0.250000  1
  Rh  Rh9  1  0.169147  0.338293  0.125707  1
  Rh  Rh10  1  0.832257  0.664515  0.622395  1
  Rh  Rh11  1  0.661707  0.830853  0.125707  1
  Rh  Rh12  1  0.169147  0.830853  0.125707  1
  Rh  Rh13  1  0.832257  0.167743  0.622395  1
  Rh  Rh14  1  0.335485  0.167743  0.622395  1
  Rh  Rh15  1  0.832257  0.664515  0.877605  1
  Rh  Rh16  1  0.832257  0.167743  0.877605  1
  Rh  Rh17  1  0.335485  0.167743  0.877605  1
  Rh  Rh18  1  0.661707  0.830853  0.374293  1
  Rh  Rh19  1  0.169147  0.830853  0.374293  1
  Rh  Rh20  1  0.169147  0.338293  0.374293  1
  Rh  Rh21  1  0.666667  0.333333  0.750000  1
  Rh  Rh22  1  0.000000  0.000000  0.003179  1
  Rh  Rh23  1  0.000000  0.000000  0.496821  1
