# generated using pymatgen
data_RbCoRhF6
_symmetry_space_group_name_H-M   'P 1'
_cell_length_a   7.49051404
_cell_length_b   7.49051407
_cell_length_c   7.49051362
_cell_angle_alpha   120.58275026
_cell_angle_beta   120.96025870
_cell_angle_gamma   88.66914914
_symmetry_Int_Tables_number   1
_chemical_formula_structural   RbCoRhF6
_chemical_formula_sum   'Rb2 Co2 Rh2 F12'
_cell_volume   293.62464344
_cell_formula_units_Z   2
loop_
 _symmetry_equiv_pos_site_id
 _symmetry_equiv_pos_as_xyz
  1  'x, y, z'
loop_
 _atom_site_type_symbol
 _atom_site_label
 _atom_site_symmetry_multiplicity
 _atom_site_fract_x
 _atom_site_fract_y
 _atom_site_fract_z
 _atom_site_occupancy
  Rb  Rb0  1  0.365436  0.615436  0.750000  1
  Rb  Rb1  1  0.634564  0.384564  0.250000  1
  Co  Co2  1  0.000000  0.000000  0.500000  1
  Co  Co3  1  0.000000  0.500000  0.000000  1
  Rh  Rh4  1  0.000000  0.000000  0.000000  1
  Rh  Rh5  1  0.500000  0.000000  0.500000  1
  F  F6  1  0.326440  0.076440  0.250000  1
  F  F7  1  0.931484  0.681484  0.250000  1
  F  F8  1  0.332013  0.677435  0.254948  1
  F  F9  1  0.922488  0.077065  0.245052  1
  F  F10  1  0.332013  0.077065  0.654577  1
  F  F11  1  0.922488  0.677435  0.845423  1
  F  F12  1  0.673560  0.923560  0.750000  1
  F  F13  1  0.068516  0.318516  0.750000  1
  F  F14  1  0.667987  0.322565  0.745052  1
  F  F15  1  0.077512  0.922935  0.754948  1
  F  F16  1  0.667987  0.922935  0.345423  1
  F  F17  1  0.077512  0.322565  0.154577  1
