# generated using pymatgen
data_PrDy3Co12(CuB3)2
_symmetry_space_group_name_H-M   'P 1'
_cell_length_a   5.07154100
_cell_length_b   5.07154132
_cell_length_c   12.78878300
_cell_angle_alpha   90.00000000
_cell_angle_beta   90.00000000
_cell_angle_gamma   119.99999139
_symmetry_Int_Tables_number   1
_chemical_formula_structural   PrDy3Co12(CuB3)2
_chemical_formula_sum   'Pr1 Dy3 Co12 Cu2 B6'
_cell_volume   284.86546167
_cell_formula_units_Z   1
loop_
 _symmetry_equiv_pos_site_id
 _symmetry_equiv_pos_as_xyz
  1  'x, y, z'
loop_
 _atom_site_type_symbol
 _atom_site_label
 _atom_site_symmetry_multiplicity
 _atom_site_fract_x
 _atom_site_fract_y
 _atom_site_fract_z
 _atom_site_occupancy
  Pr  Pr0  1  0.000000  0.000000  0.000000  1
  Dy  Dy1  1  0.000000  0.000000  0.263198  1
  Dy  Dy2  1  0.000000  0.000000  0.500000  1
  Dy  Dy3  1  0.000000  0.000000  0.736802  1
  Co  Co4  1  0.500000  0.000000  0.613108  1
  Co  Co5  1  0.500000  0.000000  0.837073  1
  Co  Co6  1  0.500000  0.500000  0.837073  1
  Co  Co7  1  0.500000  0.500000  0.386892  1
  Co  Co8  1  0.000000  0.500000  0.613108  1
  Co  Co9  1  0.000000  0.500000  0.162927  1
  Co  Co10  1  0.000000  0.500000  0.837073  1
  Co  Co11  1  0.500000  0.500000  0.162927  1
  Co  Co12  1  0.500000  0.000000  0.386892  1
  Co  Co13  1  0.500000  0.000000  0.162927  1
  Co  Co14  1  0.500000  0.500000  0.613108  1
  Co  Co15  1  0.000000  0.500000  0.386892  1
  Cu  Cu16  1  0.333333  0.666667  0.000000  1
  Cu  Cu17  1  0.666667  0.333333  0.000000  1
  B  B18  1  0.666667  0.333333  0.728725  1
  B  B19  1  0.333333  0.666667  0.728725  1
  B  B20  1  0.333333  0.666667  0.271275  1
  B  B21  1  0.666667  0.333333  0.500000  1
  B  B22  1  0.666667  0.333333  0.271275  1
  B  B23  1  0.333333  0.666667  0.500000  1
