# generated using pymatgen
data_CeNdNp4(Ni3Bi4)2
_symmetry_space_group_name_H-M   'P 1'
_cell_length_a   8.40307976
_cell_length_b   8.40308040
_cell_length_c   8.40307957
_cell_angle_alpha   109.89009742
_cell_angle_beta   109.26218844
_cell_angle_gamma   109.26218908
_symmetry_Int_Tables_number   1
_chemical_formula_structural   CeNdNp4(Ni3Bi4)2
_chemical_formula_sum   'Ce1 Nd1 Np4 Ni6 Bi8'
_cell_volume   456.74748961
_cell_formula_units_Z   1
loop_
 _symmetry_equiv_pos_site_id
 _symmetry_equiv_pos_as_xyz
  1  'x, y, z'
loop_
 _atom_site_type_symbol
 _atom_site_label
 _atom_site_symmetry_multiplicity
 _atom_site_fract_x
 _atom_site_fract_y
 _atom_site_fract_z
 _atom_site_occupancy
  Ce  Ce0  1  0.250000  0.125000  0.875000  1
  Nd  Nd1  1  0.750000  0.375000  0.625000  1
  Np  Np2  1  0.126553  0.875764  0.249996  1
  Np  Np3  1  0.373447  0.623443  0.749211  1
  Np  Np4  1  0.874232  0.250789  0.124236  1
  Np  Np5  1  0.625768  0.750004  0.376557  1
  Ni  Ni6  1  0.621593  0.374190  0.242210  1
  Ni  Ni7  1  0.878407  0.120617  0.752598  1
  Ni  Ni8  1  0.368019  0.247402  0.625810  1
  Ni  Ni9  1  0.131981  0.757790  0.879383  1
  Ni  Ni10  1  0.250000  0.625000  0.375000  1
  Ni  Ni11  1  0.750000  0.875000  0.125000  1
  Bi  Bi12  1  0.334763  0.335957  0.337410  1
  Bi  Bi13  1  0.165237  0.502646  0.001194  1
  Bi  Bi14  1  0.999217  0.162359  0.497430  1
  Bi  Bi15  1  0.835071  0.836859  0.837641  1
  Bi  Bi16  1  0.500783  0.998212  0.163141  1
  Bi  Bi17  1  0.664929  0.502570  0.001788  1
  Bi  Bi18  1  0.501452  0.998806  0.664043  1
  Bi  Bi19  1  0.998548  0.662590  0.497354  1
