# generated using pymatgen
data_CsTl3(SbO3)4
_symmetry_space_group_name_H-M   'P 1'
_cell_length_a   5.41372600
_cell_length_b   5.41372579
_cell_length_c   15.04376800
_cell_angle_alpha   90.00000000
_cell_angle_beta   90.00000000
_cell_angle_gamma   120.00000130
_symmetry_Int_Tables_number   1
_chemical_formula_structural   CsTl3(SbO3)4
_chemical_formula_sum   'Cs1 Tl3 Sb4 O12'
_cell_volume   381.83855612
_cell_formula_units_Z   1
loop_
 _symmetry_equiv_pos_site_id
 _symmetry_equiv_pos_as_xyz
  1  'x, y, z'
loop_
 _atom_site_type_symbol
 _atom_site_label
 _atom_site_symmetry_multiplicity
 _atom_site_fract_x
 _atom_site_fract_y
 _atom_site_fract_z
 _atom_site_occupancy
  Cs  Cs0  1  0.666667  0.333333  0.942805  1
  Tl  Tl1  1  0.333333  0.666667  0.431995  1
  Tl  Tl2  1  0.333333  0.666667  0.081298  1
  Tl  Tl3  1  0.666667  0.333333  0.575138  1
  Sb  Sb4  1  0.666667  0.333333  0.250619  1
  Sb  Sb5  1  0.000000  0.000000  0.249767  1
  Sb  Sb6  1  0.333333  0.666667  0.747476  1
  Sb  Sb7  1  0.000000  0.000000  0.747110  1
  O  O8  1  0.269377  0.333115  0.822835  1
  O  O9  1  0.716375  0.049001  0.323981  1
  O  O10  1  0.719954  0.665809  0.173601  1
  O  O11  1  0.049590  0.333641  0.670847  1
  O  O12  1  0.945855  0.280046  0.173601  1
  O  O13  1  0.334191  0.054145  0.173601  1
  O  O14  1  0.666359  0.715949  0.670847  1
  O  O15  1  0.063738  0.730623  0.822835  1
  O  O16  1  0.332625  0.283625  0.323981  1
  O  O17  1  0.666885  0.936262  0.822835  1
  O  O18  1  0.950999  0.667375  0.323981  1
  O  O19  1  0.284051  0.950410  0.670847  1
