# generated using pymatgen
data_PrHo5Al24Ru5Pt3
_symmetry_space_group_name_H-M   'P 1'
_cell_length_a   8.85412561
_cell_length_b   8.86162279
_cell_length_c   9.52917400
_cell_angle_alpha   90.19894264
_cell_angle_beta   90.01137035
_cell_angle_gamma   119.81577216
_symmetry_Int_Tables_number   1
_chemical_formula_structural   PrHo5Al24Ru5Pt3
_chemical_formula_sum   'Pr1 Ho5 Al24 Ru5 Pt3'
_cell_volume   648.70071444
_cell_formula_units_Z   1
loop_
 _symmetry_equiv_pos_site_id
 _symmetry_equiv_pos_as_xyz
  1  'x, y, z'
loop_
 _atom_site_type_symbol
 _atom_site_label
 _atom_site_symmetry_multiplicity
 _atom_site_fract_x
 _atom_site_fract_y
 _atom_site_fract_z
 _atom_site_occupancy
  Pr  Pr0  1  0.379925  0.189164  0.249798  1
  Ho  Ho1  1  0.808167  0.194743  0.249456  1
  Ho  Ho2  1  0.810044  0.613149  0.248383  1
  Ho  Ho3  1  0.614808  0.809124  0.750825  1
  Ho  Ho4  1  0.192891  0.806099  0.750516  1
  Ho  Ho5  1  0.190481  0.386177  0.751865  1
  Al  Al6  1  0.438300  0.873014  0.245956  1
  Al  Al7  1  0.122017  0.560434  0.250394  1
  Al  Al8  1  0.436944  0.565775  0.250797  1
  Al  Al9  1  0.563243  0.125315  0.753418  1
  Al  Al10  1  0.878737  0.439965  0.749431  1
  Al  Al11  1  0.564764  0.437652  0.749448  1
  Al  Al12  1  0.156970  0.830755  0.424980  1
  Al  Al13  1  0.156913  0.325720  0.425499  1
  Al  Al14  1  0.677717  0.838516  0.422856  1
  Al  Al15  1  0.842433  0.167395  0.577158  1
  Al  Al16  1  0.842317  0.675985  0.577061  1
  Al  Al17  1  0.322011  0.161958  0.581101  1
  Al  Al18  1  0.837604  0.163649  0.923568  1
  Al  Al19  1  0.842452  0.675911  0.922654  1
  Al  Al20  1  0.324275  0.157750  0.920208  1
  Al  Al21  1  0.161316  0.833299  0.073918  1
  Al  Al22  1  0.156620  0.325385  0.075004  1
  Al  Al23  1  0.675873  0.842156  0.075638  1
  Al  Al24  1  0.328153  0.663818  0.529228  1
  Al  Al25  1  0.673859  0.337324  0.475277  1
  Al  Al26  1  0.670914  0.330805  0.021858  1
  Al  Al27  1  0.331275  0.669591  0.973869  1
  Al  Al28  1  0.994669  0.995671  0.249840  1
  Al  Al29  1  0.997821  0.000046  0.750167  1
  Ru  Ru30  1  0.000195  0.000215  0.500369  1
  Ru  Ru31  1  0.000205  0.999990  0.999728  1
  Ru  Ru32  1  0.000841  0.500565  0.500547  1
  Ru  Ru33  1  0.500627  0.998831  0.998186  1
  Ru  Ru34  1  0.000843  0.500381  0.999119  1
  Pt  Pt35  1  0.500941  0.999407  0.501595  1
  Pt  Pt36  1  0.501518  0.502517  0.501712  1
  Pt  Pt37  1  0.501321  0.501751  0.998577  1
