# generated using pymatgen
data_Pr2Gd2Al17GaIr6
_symmetry_space_group_name_H-M   'P 1'
_cell_length_a   7.58450600
_cell_length_b   7.58450465
_cell_length_c   9.57659100
_cell_angle_alpha   90.00000000
_cell_angle_beta   90.00000000
_cell_angle_gamma   119.31358822
_symmetry_Int_Tables_number   1
_chemical_formula_structural   Pr2Gd2Al17GaIr6
_chemical_formula_sum   'Pr2 Gd2 Al17 Ga1 Ir6'
_cell_volume   480.35092381
_cell_formula_units_Z   1
loop_
 _symmetry_equiv_pos_site_id
 _symmetry_equiv_pos_as_xyz
  1  'x, y, z'
loop_
 _atom_site_type_symbol
 _atom_site_label
 _atom_site_symmetry_multiplicity
 _atom_site_fract_x
 _atom_site_fract_y
 _atom_site_fract_z
 _atom_site_occupancy
  Pr  Pr0  1  0.993735  0.674395  0.750000  1
  Pr  Pr1  1  0.674395  0.993735  0.750000  1
  Gd  Gd2  1  0.004726  0.327043  0.250000  1
  Gd  Gd3  1  0.327043  0.004726  0.250000  1
  Al  Al4  1  0.869716  0.869716  0.250000  1
  Al  Al5  1  0.003438  0.336110  0.568446  1
  Al  Al6  1  0.998586  0.663744  0.423135  1
  Al  Al7  1  0.998586  0.663744  0.076865  1
  Al  Al8  1  0.336110  0.003438  0.931554  1
  Al  Al9  1  0.003438  0.336110  0.931554  1
  Al  Al10  1  0.663744  0.998586  0.076865  1
  Al  Al11  1  0.663744  0.998586  0.423135  1
  Al  Al12  1  0.336110  0.003438  0.568446  1
  Al  Al13  1  0.333056  0.333056  0.055129  1
  Al  Al14  1  0.664550  0.664550  0.957301  1
  Al  Al15  1  0.664550  0.664550  0.542699  1
  Al  Al16  1  0.333056  0.333056  0.444871  1
  Al  Al17  1  0.338438  0.546811  0.750000  1
  Al  Al18  1  0.659971  0.450267  0.250000  1
  Al  Al19  1  0.546811  0.338438  0.750000  1
  Al  Al20  1  0.450267  0.659971  0.250000  1
  Ga  Ga21  1  0.138315  0.138315  0.750000  1
  Ir  Ir22  1  0.670388  0.327868  0.498169  1
  Ir  Ir23  1  0.327868  0.670388  0.498169  1
  Ir  Ir24  1  0.327868  0.670388  0.001831  1
  Ir  Ir25  1  0.670388  0.327868  0.001831  1
  Ir  Ir26  1  0.000550  0.000550  0.495014  1
  Ir  Ir27  1  0.000550  0.000550  0.004986  1
