# generated using pymatgen
data_Ho8Cu3Si12Rh
_symmetry_space_group_name_H-M   'P 1'
_cell_length_a   8.02097700
_cell_length_b   8.02097049
_cell_length_c   8.06441800
_cell_angle_alpha   89.99991864
_cell_angle_beta   89.99958681
_cell_angle_gamma   120.00014585
_symmetry_Int_Tables_number   1
_chemical_formula_structural   Ho8Cu3Si12Rh
_chemical_formula_sum   'Ho8 Cu3 Si12 Rh1'
_cell_volume   449.32151377
_cell_formula_units_Z   1
loop_
 _symmetry_equiv_pos_site_id
 _symmetry_equiv_pos_as_xyz
  1  'x, y, z'
loop_
 _atom_site_type_symbol
 _atom_site_label
 _atom_site_symmetry_multiplicity
 _atom_site_fract_x
 _atom_site_fract_y
 _atom_site_fract_z
 _atom_site_occupancy
  Ho  Ho0  1  0.999999  0.999999  0.250132  1
  Ho  Ho1  1  0.999999  0.999999  0.750154  1
  Ho  Ho2  1  0.500431  0.499568  0.248219  1
  Ho  Ho3  1  0.500431  0.000863  0.248219  1
  Ho  Ho4  1  0.999137  0.499568  0.248219  1
  Ho  Ho5  1  0.498022  0.501977  0.751733  1
  Ho  Ho6  1  0.498022  0.996044  0.751733  1
  Ho  Ho7  1  0.003955  0.501977  0.751733  1
  Cu  Cu8  1  0.333340  0.666673  0.495378  1
  Cu  Cu9  1  0.666666  0.333336  0.505432  1
  Cu  Cu10  1  0.666672  0.333334  0.995374  1
  Si  Si11  1  0.168907  0.831092  0.500264  1
  Si  Si12  1  0.168907  0.337815  0.500264  1
  Si  Si13  1  0.662187  0.831093  0.500264  1
  Si  Si14  1  0.830980  0.169019  0.499754  1
  Si  Si15  1  0.830981  0.661961  0.499754  1
  Si  Si16  1  0.338036  0.169018  0.499754  1
  Si  Si17  1  0.831971  0.168028  0.998911  1
  Si  Si18  1  0.831971  0.663942  0.998911  1
  Si  Si19  1  0.336058  0.168029  0.998910  1
  Si  Si20  1  0.167697  0.832302  0.001395  1
  Si  Si21  1  0.167697  0.335394  0.001395  1
  Si  Si22  1  0.664604  0.832302  0.001395  1
  Rh  Rh23  1  0.333330  0.666665  0.002702  1
