# generated using pymatgen
data_La10Co2Si3Sb
_symmetry_space_group_name_H-M   'P 1'
_cell_length_a   8.15191000
_cell_length_b   9.00046184
_cell_length_c   12.42158800
_cell_angle_alpha   90.04553508
_cell_angle_beta   90.00000000
_cell_angle_gamma   90.00000000
_symmetry_Int_Tables_number   1
_chemical_formula_structural   La10Co2Si3Sb
_chemical_formula_sum   'La20 Co4 Si6 Sb2'
_cell_volume   911.38348509
_cell_formula_units_Z   2
loop_
 _symmetry_equiv_pos_site_id
 _symmetry_equiv_pos_as_xyz
  1  'x, y, z'
loop_
 _atom_site_type_symbol
 _atom_site_label
 _atom_site_symmetry_multiplicity
 _atom_site_fract_x
 _atom_site_fract_y
 _atom_site_fract_z
 _atom_site_occupancy
  La  La0  1  0.158957  0.764112  0.205949  1
  La  La1  1  0.658957  0.235888  0.294051  1
  La  La2  1  0.837791  0.250967  0.788028  1
  La  La3  1  0.337791  0.749033  0.711972  1
  La  La4  1  0.462500  0.759127  0.990929  1
  La  La5  1  0.962500  0.240873  0.509071  1
  La  La6  1  0.544275  0.242309  0.996915  1
  La  La7  1  0.044275  0.757691  0.503085  1
  La  La8  1  0.637203  0.763091  0.298854  1
  La  La9  1  0.137203  0.236909  0.201146  1
  La  La10  1  0.360570  0.249084  0.704580  1
  La  La11  1  0.860570  0.750916  0.795420  1
  La  La12  1  0.817546  0.969199  0.067515  1
  La  La13  1  0.317546  0.030801  0.432485  1
  La  La14  1  0.183541  0.475016  0.925874  1
  La  La15  1  0.683541  0.524984  0.574126  1
  La  La16  1  0.178355  0.031078  0.927742  1
  La  La17  1  0.678355  0.968922  0.572258  1
  La  La18  1  0.821029  0.524836  0.059164  1
  La  La19  1  0.321029  0.475164  0.440836  1
  Co  Co20  1  0.418675  0.749951  0.484394  1
  Co  Co21  1  0.918675  0.250049  0.015606  1
  Co  Co22  1  0.581294  0.252063  0.521351  1
  Co  Co23  1  0.081294  0.747937  0.978649  1
  Si  Si24  1  0.935906  0.996282  0.330439  1
  Si  Si25  1  0.435906  0.003718  0.169561  1
  Si  Si26  1  0.066822  0.496431  0.669945  1
  Si  Si27  1  0.566822  0.503569  0.830055  1
  Si  Si28  1  0.065529  0.002477  0.673665  1
  Si  Si29  1  0.565529  0.997523  0.826335  1
  Sb  Sb30  1  0.930008  0.505037  0.326826  1
  Sb  Sb31  1  0.430008  0.494963  0.173174  1
