# generated using pymatgen
data_La19Ho(Bi2Rh)4
_symmetry_space_group_name_H-M   'P 1'
_cell_length_a   8.51322876
_cell_length_b   9.34548500
_cell_length_c   13.02536701
_cell_angle_alpha   90.00000000
_cell_angle_beta   89.85330723
_cell_angle_gamma   90.00000000
_symmetry_Int_Tables_number   1
_chemical_formula_structural   La19Ho(Bi2Rh)4
_chemical_formula_sum   'La19 Ho1 Bi8 Rh4'
_cell_volume   1036.29808086
_cell_formula_units_Z   1
loop_
 _symmetry_equiv_pos_site_id
 _symmetry_equiv_pos_as_xyz
  1  'x, y, z'
loop_
 _atom_site_type_symbol
 _atom_site_label
 _atom_site_symmetry_multiplicity
 _atom_site_fract_x
 _atom_site_fract_y
 _atom_site_fract_z
 _atom_site_occupancy
  La  La0  1  0.845240  0.750000  0.797454  1
  La  La1  1  0.155456  0.250000  0.202116  1
  La  La2  1  0.347855  0.250000  0.705749  1
  La  La3  1  0.654467  0.750000  0.294259  1
  La  La4  1  0.374487  0.750000  0.693225  1
  La  La5  1  0.626940  0.250000  0.305915  1
  La  La6  1  0.872867  0.250000  0.807391  1
  La  La7  1  0.126677  0.750000  0.191606  1
  La  La8  1  0.948281  0.750000  0.503415  1
  La  La9  1  0.051101  0.250000  0.496820  1
  La  La10  1  0.450388  0.250000  0.996139  1
  La  La11  1  0.681934  0.040751  0.566429  1
  La  La12  1  0.317411  0.960205  0.434192  1
  La  La13  1  0.182620  0.957973  0.935441  1
  La  La14  1  0.317411  0.539795  0.434192  1
  La  La15  1  0.816590  0.038574  0.065247  1
  La  La16  1  0.681934  0.459249  0.566429  1
  La  La17  1  0.816590  0.461426  0.065247  1
  La  La18  1  0.182620  0.542027  0.935441  1
  Ho  Ho19  1  0.546804  0.750000  0.002365  1
  Bi  Bi20  1  0.570697  0.498294  0.830916  1
  Bi  Bi21  1  0.432139  0.510034  0.170400  1
  Bi  Bi22  1  0.072257  0.505791  0.673554  1
  Bi  Bi23  1  0.432139  0.989966  0.170400  1
  Bi  Bi24  1  0.929929  0.494037  0.325736  1
  Bi  Bi25  1  0.570697  0.001706  0.830916  1
  Bi  Bi26  1  0.929929  0.005963  0.325736  1
  Bi  Bi27  1  0.072257  0.994209  0.673554  1
  Rh  Rh28  1  0.574189  0.750000  0.509844  1
  Rh  Rh29  1  0.425672  0.250000  0.490340  1
  Rh  Rh30  1  0.077573  0.250000  0.989114  1
  Rh  Rh31  1  0.914848  0.750000  0.010419  1
