# generated using pymatgen
data_Yb2Er2TmIr2
_symmetry_space_group_name_H-M   'P 1'
_cell_length_a   6.48401624
_cell_length_b   7.25516026
_cell_length_c   8.43501489
_cell_angle_alpha   97.24833317
_cell_angle_beta   112.60346729
_cell_angle_gamma   90.00000380
_symmetry_Int_Tables_number   1
_chemical_formula_structural   Yb2Er2TmIr2
_chemical_formula_sum   'Yb4 Er4 Tm2 Ir4'
_cell_volume   362.88778829
_cell_formula_units_Z   2
loop_
 _symmetry_equiv_pos_site_id
 _symmetry_equiv_pos_as_xyz
  1  'x, y, z'
loop_
 _atom_site_type_symbol
 _atom_site_label
 _atom_site_symmetry_multiplicity
 _atom_site_fract_x
 _atom_site_fract_y
 _atom_site_fract_z
 _atom_site_occupancy
  Yb  Yb0  1  0.974125  0.920799  0.182982  1
  Yb  Yb1  1  0.791143  0.579201  0.817018  1
  Yb  Yb2  1  0.025875  0.079201  0.817018  1
  Yb  Yb3  1  0.208857  0.420799  0.182982  1
  Er  Er4  1  0.647129  0.818817  0.439496  1
  Er  Er5  1  0.207633  0.681183  0.560504  1
  Er  Er6  1  0.352871  0.181183  0.560504  1
  Er  Er7  1  0.792367  0.318817  0.439496  1
  Tm  Tm8  1  0.431707  0.750000  0.000000  1
  Tm  Tm9  1  0.568293  0.250000  0.000000  1
  Ir  Ir10  1  0.812584  0.573333  0.227593  1
  Ir  Ir11  1  0.584991  0.926667  0.772407  1
  Ir  Ir12  1  0.187417  0.426667  0.772407  1
  Ir  Ir13  1  0.415009  0.073333  0.227593  1
