# generated using pymatgen
data_CaHoNiIr3
_symmetry_space_group_name_H-M   'P 1'
_cell_length_a   5.37091849
_cell_length_b   5.37091882
_cell_length_c   5.21531542
_cell_angle_alpha   59.00803482
_cell_angle_beta   59.00803399
_cell_angle_gamma   60.00000047
_symmetry_Int_Tables_number   1
_chemical_formula_structural   CaHoNiIr3
_chemical_formula_sum   'Ca1 Ho1 Ni1 Ir3'
_cell_volume   104.75764424
_cell_formula_units_Z   1
loop_
 _symmetry_equiv_pos_site_id
 _symmetry_equiv_pos_as_xyz
  1  'x, y, z'
loop_
 _atom_site_type_symbol
 _atom_site_label
 _atom_site_symmetry_multiplicity
 _atom_site_fract_x
 _atom_site_fract_y
 _atom_site_fract_z
 _atom_site_occupancy
  Ca  Ca0  1  0.000285  0.000285  0.999144  1
  Ho  Ho1  1  0.750590  0.750590  0.748235  1
  Ni  Ni2  1  0.374738  0.374738  0.875785  1
  Ir  Ir3  1  0.874976  0.374706  0.375612  1
  Ir  Ir4  1  0.374706  0.874976  0.375612  1
  Ir  Ir5  1  0.374706  0.374706  0.375612  1
