# generated using pymatgen
data_Ce3PaIn2Ir3Rh
_symmetry_space_group_name_H-M   'P 1'
_cell_length_a   7.74223286
_cell_length_b   7.73009041
_cell_length_c   3.68214600
_cell_angle_alpha   90.00000000
_cell_angle_beta   90.00000000
_cell_angle_gamma   91.00192740
_symmetry_Int_Tables_number   1
_chemical_formula_structural   Ce3PaIn2Ir3Rh
_chemical_formula_sum   'Ce3 Pa1 In2 Ir3 Rh1'
_cell_volume   220.33597011
_cell_formula_units_Z   1
loop_
 _symmetry_equiv_pos_site_id
 _symmetry_equiv_pos_as_xyz
  1  'x, y, z'
loop_
 _atom_site_type_symbol
 _atom_site_label
 _atom_site_symmetry_multiplicity
 _atom_site_fract_x
 _atom_site_fract_y
 _atom_site_fract_z
 _atom_site_occupancy
  Ce  Ce0  1  0.330104  0.828150  0.500000  1
  Ce  Ce1  1  0.169235  0.334349  0.500000  1
  Ce  Ce2  1  0.833051  0.670154  0.500000  1
  Pa  Pa3  1  0.668224  0.163268  0.500000  1
  In  In4  1  0.004686  0.001937  0.000000  1
  In  In5  1  0.501921  0.501757  0.000000  1
  Ir  Ir6  1  0.129373  0.627918  0.000000  1
  Ir  Ir7  1  0.852538  0.352607  0.000000  1
  Ir  Ir8  1  0.637153  0.878854  0.000000  1
  Rh  Rh9  1  0.373716  0.141007  0.000000  1
