# generated using pymatgen
data_NbCl(OF3)2
_symmetry_space_group_name_H-M   'P 1'
_cell_length_a   5.90436300
_cell_length_b   7.18521600
_cell_length_c   7.77208100
_cell_angle_alpha   90.00000000
_cell_angle_beta   90.00000000
_cell_angle_gamma   90.00000000
_symmetry_Int_Tables_number   1
_chemical_formula_structural   NbCl(OF3)2
_chemical_formula_sum   'Nb2 Cl2 O4 F12'
_cell_volume   329.72372418
_cell_formula_units_Z   2
loop_
 _symmetry_equiv_pos_site_id
 _symmetry_equiv_pos_as_xyz
  1  'x, y, z'
loop_
 _atom_site_type_symbol
 _atom_site_label
 _atom_site_symmetry_multiplicity
 _atom_site_fract_x
 _atom_site_fract_y
 _atom_site_fract_z
 _atom_site_occupancy
  Nb  Nb0  1  0.983164  0.000000  0.500000  1
  Nb  Nb1  1  0.016836  0.500000  0.000000  1
  Cl  Cl2  1  0.632528  0.000000  0.000000  1
  Cl  Cl3  1  0.367472  0.500000  0.500000  1
  O  O4  1  0.493540  0.500000  0.656468  1
  O  O5  1  0.506460  0.000000  0.156468  1
  O  O6  1  0.506460  0.000000  0.843532  1
  O  O7  1  0.493540  0.500000  0.343532  1
  F  F8  1  0.759108  0.190691  0.500000  1
  F  F9  1  0.229518  0.189254  0.500000  1
  F  F10  1  0.010622  0.500000  0.751487  1
  F  F11  1  0.759108  0.809309  0.500000  1
  F  F12  1  0.989378  0.000000  0.251487  1
  F  F13  1  0.770482  0.310746  0.000000  1
  F  F14  1  0.989378  0.000000  0.748513  1
  F  F15  1  0.229518  0.810746  0.500000  1
  F  F16  1  0.010622  0.500000  0.248513  1
  F  F17  1  0.770482  0.689254  0.000000  1
  F  F18  1  0.240892  0.309309  0.000000  1
  F  F19  1  0.240892  0.690691  0.000000  1
