# generated using pymatgen
data_DyY4Hf2P12Ir17
_symmetry_space_group_name_H-M   'P 1'
_cell_length_a   12.65785901
_cell_length_b   12.88930953
_cell_length_c   3.98294000
_cell_angle_alpha   90.00000000
_cell_angle_beta   90.00000000
_cell_angle_gamma   119.41194155
_symmetry_Int_Tables_number   1
_chemical_formula_structural   DyY4Hf2P12Ir17
_chemical_formula_sum   'Dy1 Y4 Hf2 P12 Ir17'
_cell_volume   566.06643941
_cell_formula_units_Z   1
loop_
 _symmetry_equiv_pos_site_id
 _symmetry_equiv_pos_as_xyz
  1  'x, y, z'
loop_
 _atom_site_type_symbol
 _atom_site_label
 _atom_site_symmetry_multiplicity
 _atom_site_fract_x
 _atom_site_fract_y
 _atom_site_fract_z
 _atom_site_occupancy
  Dy  Dy0  1  0.668630  0.338376  0.500000  1
  Y  Y1  1  0.330220  0.661631  0.500000  1
  Y  Y2  1  0.000077  0.815422  0.000000  1
  Y  Y3  1  0.184669  0.184576  0.000000  1
  Y  Y4  1  0.813010  0.000016  0.000000  1
  Hf  Hf5  1  0.997513  0.446944  0.500000  1
  Hf  Hf6  1  0.550605  0.553016  0.500000  1
  P  P7  1  0.005370  0.650787  0.500000  1
  P  P8  1  0.354594  0.349244  0.500000  1
  P  P9  1  0.645191  0.999990  0.500000  1
  P  P10  1  0.514983  0.685885  0.000000  1
  P  P11  1  0.309744  0.825329  0.000000  1
  P  P12  1  0.164729  0.480940  0.000000  1
  P  P13  1  0.484536  0.174819  0.000000  1
  P  P14  1  0.683745  0.518941  0.000000  1
  P  P15  1  0.828985  0.314083  0.000000  1
  P  P16  1  0.999432  0.173965  0.500000  1
  P  P17  1  0.825470  0.826026  0.500000  1
  P  P18  1  0.181465  0.999999  0.500000  1
  Ir  Ir19  1  0.505117  0.864642  0.000000  1
  Ir  Ir20  1  0.127263  0.642654  0.000000  1
  Ir  Ir21  1  0.356132  0.495683  0.000000  1
  Ir  Ir22  1  0.484777  0.357335  0.000000  1
  Ir  Ir23  1  0.860195  0.504080  0.000000  1
  Ir  Ir24  1  0.640506  0.135514  0.000000  1
  Ir  Ir25  1  0.464981  0.000066  0.500000  1
  Ir  Ir26  1  0.997012  0.279748  0.000000  1
  Ir  Ir27  1  0.717295  0.720231  0.000000  1
  Ir  Ir28  1  0.289876  0.000036  0.000000  1
  Ir  Ir29  1  0.623809  0.807361  0.500000  1
  Ir  Ir30  1  0.203896  0.825383  0.500000  1
  Ir  Ir31  1  0.177372  0.367113  0.500000  1
  Ir  Ir32  1  0.378620  0.174676  0.500000  1
  Ir  Ir33  1  0.810216  0.632775  0.500000  1
  Ir  Ir34  1  0.816394  0.192704  0.500000  1
  Ir  Ir35  1  0.003569  0.000010  0.500000  1
