# generated using pymatgen
data_CaEu2UO6
_symmetry_space_group_name_H-M   'P 1'
_cell_length_a   6.06785507
_cell_length_b   6.06785512
_cell_length_c   6.18370400
_cell_angle_alpha   119.08784728
_cell_angle_beta   119.08784759
_cell_angle_gamma   60.43669699
_symmetry_Int_Tables_number   1
_chemical_formula_structural   CaEu2UO6
_chemical_formula_sum   'Ca1 Eu2 U1 O6'
_cell_volume   163.72216323
_cell_formula_units_Z   1
loop_
 _symmetry_equiv_pos_site_id
 _symmetry_equiv_pos_as_xyz
  1  'x, y, z'
loop_
 _atom_site_type_symbol
 _atom_site_label
 _atom_site_symmetry_multiplicity
 _atom_site_fract_x
 _atom_site_fract_y
 _atom_site_fract_z
 _atom_site_occupancy
  Ca  Ca0  1  0.000000  0.000000  0.000000  1
  Eu  Eu1  1  0.752324  0.752324  0.287878  1
  Eu  Eu2  1  0.247677  0.247677  0.712122  1
  U  U3  1  0.500000  0.500000  0.500000  1
  O  O4  1  0.277427  0.277427  0.147505  1
  O  O5  1  0.818795  0.334316  0.342106  1
  O  O6  1  0.334316  0.818795  0.342106  1
  O  O7  1  0.665684  0.181205  0.657894  1
  O  O8  1  0.181205  0.665684  0.657894  1
  O  O9  1  0.722572  0.722572  0.852495  1
