# generated using pymatgen
data_Cs4Ho3Bi9S20
_symmetry_space_group_name_H-M   'P 1'
_cell_length_a   4.04594400
_cell_length_b   11.99961892
_cell_length_c   22.28354161
_cell_angle_alpha   90.02082714
_cell_angle_beta   90.00000000
_cell_angle_gamma   90.00000000
_symmetry_Int_Tables_number   1
_chemical_formula_structural   Cs4Ho3Bi9S20
_chemical_formula_sum   'Cs4 Ho3 Bi9 S20'
_cell_volume   1081.86110890
_cell_formula_units_Z   1
loop_
 _symmetry_equiv_pos_site_id
 _symmetry_equiv_pos_as_xyz
  1  'x, y, z'
loop_
 _atom_site_type_symbol
 _atom_site_label
 _atom_site_symmetry_multiplicity
 _atom_site_fract_x
 _atom_site_fract_y
 _atom_site_fract_z
 _atom_site_occupancy
  Cs  Cs0  1  0.250000  0.487014  0.211377  1
  Cs  Cs1  1  0.750000  0.511886  0.788897  1
  Cs  Cs2  1  0.750000  0.987062  0.287009  1
  Cs  Cs3  1  0.250000  0.011756  0.711894  1
  Ho  Ho4  1  0.250000  0.364506  0.023003  1
  Ho  Ho5  1  0.750000  0.635382  0.976784  1
  Ho  Ho6  1  0.750000  0.862748  0.476226  1
  Bi  Bi7  1  0.250000  0.133870  0.524429  1
  Bi  Bi8  1  0.250000  0.800742  0.120080  1
  Bi  Bi9  1  0.750000  0.198756  0.879485  1
  Bi  Bi10  1  0.750000  0.302483  0.378990  1
  Bi  Bi11  1  0.250000  0.697380  0.621647  1
  Bi  Bi12  1  0.250000  0.593755  0.426113  1
  Bi  Bi13  1  0.750000  0.408335  0.573489  1
  Bi  Bi14  1  0.750000  0.095081  0.073485  1
  Bi  Bi15  1  0.250000  0.904838  0.926170  1
  S  S16  1  0.250000  0.809377  0.397130  1
  S  S17  1  0.750000  0.196932  0.608744  1
  S  S18  1  0.750000  0.308904  0.102634  1
  S  S19  1  0.250000  0.690990  0.897142  1
  S  S20  1  0.250000  0.248805  0.305515  1
  S  S21  1  0.750000  0.750326  0.695043  1
  S  S22  1  0.750000  0.748250  0.193668  1
  S  S23  1  0.250000  0.250897  0.805838  1
  S  S24  1  0.250000  0.361270  0.481635  1
  S  S25  1  0.750000  0.646381  0.517062  1
  S  S26  1  0.750000  0.852235  0.017107  1
  S  S27  1  0.250000  0.147724  0.982539  1
  S  S28  1  0.250000  0.024311  0.150920  1
  S  S29  1  0.750000  0.975378  0.848631  1
  S  S30  1  0.750000  0.524713  0.347999  1
  S  S31  1  0.250000  0.476091  0.652194  1
  S  S32  1  0.250000  0.582359  0.055111  1
  S  S33  1  0.750000  0.417538  0.944691  1
  S  S34  1  0.750000  0.079371  0.441118  1
  S  S35  1  0.250000  0.912555  0.556199  1
