# generated using pymatgen
data_Sr2PtRhF12
_symmetry_space_group_name_H-M   'P 1'
_cell_length_a   5.54124576
_cell_length_b   5.51667084
_cell_length_c   10.78502971
_cell_angle_alpha   75.33936907
_cell_angle_beta   75.04335500
_cell_angle_gamma   59.62354383
_symmetry_Int_Tables_number   1
_chemical_formula_structural   Sr2PtRhF12
_chemical_formula_sum   'Sr2 Pt1 Rh1 F12'
_cell_volume   271.80641581
_cell_formula_units_Z   1
loop_
 _symmetry_equiv_pos_site_id
 _symmetry_equiv_pos_as_xyz
  1  'x, y, z'
loop_
 _atom_site_type_symbol
 _atom_site_label
 _atom_site_symmetry_multiplicity
 _atom_site_fract_x
 _atom_site_fract_y
 _atom_site_fract_z
 _atom_site_occupancy
  Sr  Sr0  1  0.499909  0.500538  0.499088  1
  Sr  Sr1  1  0.999747  0.999685  0.000936  1
  Pt  Pt2  1  0.745304  0.753141  0.750015  1
  Rh  Rh3  1  0.254537  0.247043  0.249990  1
  F  F4  1  0.490583  0.799668  0.637523  1
  F  F5  1  0.504871  0.204041  0.361458  1
  F  F6  1  0.791326  0.074420  0.637820  1
  F  F7  1  0.211634  0.927459  0.360655  1
  F  F8  1  0.699959  0.431693  0.862975  1
  F  F9  1  0.297038  0.566252  0.138129  1
  F  F10  1  0.998947  0.707379  0.862788  1
  F  F11  1  0.005698  0.289442  0.138065  1
  F  F12  1  0.576535  0.992843  0.139138  1
  F  F13  1  0.422014  0.010697  0.862932  1
  F  F14  1  0.933339  0.497773  0.362356  1
  F  F15  1  0.068559  0.497925  0.636132  1
