# generated using pymatgen
data_La3NdCoI5
_symmetry_space_group_name_H-M   'P 1'
_cell_length_a   9.91030822
_cell_length_b   9.91030903
_cell_length_c   9.41423409
_cell_angle_alpha   76.76600039
_cell_angle_beta   76.76600042
_cell_angle_gamma   25.54897910
_symmetry_Int_Tables_number   1
_chemical_formula_structural   La3NdCoI5
_chemical_formula_sum   'La3 Nd1 Co1 I5'
_cell_volume   387.62661638
_cell_formula_units_Z   1
loop_
 _symmetry_equiv_pos_site_id
 _symmetry_equiv_pos_as_xyz
  1  'x, y, z'
loop_
 _atom_site_type_symbol
 _atom_site_label
 _atom_site_symmetry_multiplicity
 _atom_site_fract_x
 _atom_site_fract_y
 _atom_site_fract_z
 _atom_site_occupancy
  La  La0  1  0.867101  0.867101  0.066974  1
  La  La1  1  0.132911  0.132911  0.929660  1
  La  La2  1  0.500930  0.500930  0.219386  1
  Nd  Nd3  1  0.499205  0.499205  0.786379  1
  Co  Co4  1  0.000053  0.000053  0.999644  1
  I  I5  1  0.675143  0.675143  0.167874  1
  I  I6  1  0.326890  0.326890  0.828636  1
  I  I7  1  0.667292  0.667292  0.659044  1
  I  I8  1  0.330553  0.330553  0.339398  1
  I  I9  1  0.999921  0.999921  0.503004  1
