# generated using pymatgen
data_HfPa3Ge4(IrPt)2
_symmetry_space_group_name_H-M   'P 1'
_cell_length_a   4.33972300
_cell_length_b   6.88445899
_cell_length_c   7.65124575
_cell_angle_alpha   89.53443077
_cell_angle_beta   90.00000000
_cell_angle_gamma   90.00000000
_symmetry_Int_Tables_number   1
_chemical_formula_structural   HfPa3Ge4(IrPt)2
_chemical_formula_sum   'Hf1 Pa3 Ge4 Ir2 Pt2'
_cell_volume   228.58600671
_cell_formula_units_Z   1
loop_
 _symmetry_equiv_pos_site_id
 _symmetry_equiv_pos_as_xyz
  1  'x, y, z'
loop_
 _atom_site_type_symbol
 _atom_site_label
 _atom_site_symmetry_multiplicity
 _atom_site_fract_x
 _atom_site_fract_y
 _atom_site_fract_z
 _atom_site_occupancy
  Hf  Hf0  1  0.750000  0.503624  0.790832  1
  Pa  Pa1  1  0.250000  0.000213  0.303431  1
  Pa  Pa2  1  0.250000  0.495202  0.207644  1
  Pa  Pa3  1  0.750000  0.000425  0.704450  1
  Ge  Ge4  1  0.250000  0.322888  0.593254  1
  Ge  Ge5  1  0.250000  0.779194  0.906232  1
  Ge  Ge6  1  0.750000  0.681589  0.416189  1
  Ge  Ge7  1  0.750000  0.200624  0.083512  1
  Ir  Ir8  1  0.250000  0.718278  0.580809  1
  Ir  Ir9  1  0.750000  0.275927  0.414080  1
  Pt  Pt10  1  0.250000  0.223542  0.914257  1
  Pt  Pt11  1  0.750000  0.798493  0.085310  1
