# generated using pymatgen
data_Pr12Si8IrRh11
_symmetry_space_group_name_H-M   'P 1'
_cell_length_a   5.77015912
_cell_length_b   7.81851617
_cell_length_c   15.07000800
_cell_angle_alpha   90.00000000
_cell_angle_beta   90.00000000
_cell_angle_gamma   90.02371828
_symmetry_Int_Tables_number   1
_chemical_formula_structural   Pr12Si8IrRh11
_chemical_formula_sum   'Pr12 Si8 Ir1 Rh11'
_cell_volume   679.86952438
_cell_formula_units_Z   1
loop_
 _symmetry_equiv_pos_site_id
 _symmetry_equiv_pos_as_xyz
  1  'x, y, z'
loop_
 _atom_site_type_symbol
 _atom_site_label
 _atom_site_symmetry_multiplicity
 _atom_site_fract_x
 _atom_site_fract_y
 _atom_site_fract_z
 _atom_site_occupancy
  Pr  Pr0  1  0.139926  0.474145  0.891012  1
  Pr  Pr1  1  0.360379  0.974154  0.890499  1
  Pr  Pr2  1  0.616158  0.334234  0.750000  1
  Pr  Pr3  1  0.386658  0.667826  0.250000  1
  Pr  Pr4  1  0.638649  0.027454  0.390753  1
  Pr  Pr5  1  0.860672  0.525224  0.109619  1
  Pr  Pr6  1  0.860672  0.525224  0.390381  1
  Pr  Pr7  1  0.360379  0.974154  0.609501  1
  Pr  Pr8  1  0.883885  0.834346  0.750000  1
  Pr  Pr9  1  0.139926  0.474145  0.608988  1
  Pr  Pr10  1  0.638649  0.027454  0.109247  1
  Pr  Pr11  1  0.106730  0.165455  0.250000  1
  Si  Si12  1  0.368719  0.372833  0.099253  1
  Si  Si13  1  0.633295  0.626988  0.903119  1
  Si  Si14  1  0.866934  0.127280  0.902919  1
  Si  Si15  1  0.368719  0.372833  0.400747  1
  Si  Si16  1  0.866934  0.127280  0.597081  1
  Si  Si17  1  0.633295  0.626988  0.596881  1
  Si  Si18  1  0.132374  0.872909  0.402328  1
  Si  Si19  1  0.132374  0.872909  0.097672  1
  Ir  Ir20  1  0.574118  0.319703  0.250000  1
  Rh  Rh21  1  0.601847  0.337909  0.962862  1
  Rh  Rh22  1  0.394820  0.660755  0.038068  1
  Rh  Rh23  1  0.394820  0.660755  0.461932  1
  Rh  Rh24  1  0.071811  0.180320  0.750000  1
  Rh  Rh25  1  0.107062  0.161108  0.462491  1
  Rh  Rh26  1  0.429040  0.679932  0.750000  1
  Rh  Rh27  1  0.927541  0.819501  0.250000  1
  Rh  Rh28  1  0.107062  0.161108  0.037509  1
  Rh  Rh29  1  0.601847  0.337909  0.537138  1
  Rh  Rh30  1  0.897353  0.838583  0.537338  1
  Rh  Rh31  1  0.897353  0.838583  0.962662  1
