# generated using pymatgen
data_Ba6Sc2SbO12
_symmetry_space_group_name_H-M   'P 1'
_cell_length_a   9.34266249
_cell_length_b   9.34266215
_cell_length_c   7.38291904
_cell_angle_alpha   67.68633998
_cell_angle_beta   67.68634178
_cell_angle_gamma   36.87697669
_symmetry_Int_Tables_number   1
_chemical_formula_structural   Ba6Sc2SbO12
_chemical_formula_sum   'Ba6 Sc2 Sb1 O12'
_cell_volume   354.39352410
_cell_formula_units_Z   1
loop_
 _symmetry_equiv_pos_site_id
 _symmetry_equiv_pos_as_xyz
  1  'x, y, z'
loop_
 _atom_site_type_symbol
 _atom_site_label
 _atom_site_symmetry_multiplicity
 _atom_site_fract_x
 _atom_site_fract_y
 _atom_site_fract_z
 _atom_site_occupancy
  Ba  Ba0  1  0.878469  0.878469  0.711287  1
  Ba  Ba1  1  0.217487  0.217487  0.711860  1
  Ba  Ba2  1  0.548267  0.548267  0.709128  1
  Ba  Ba3  1  0.451733  0.451733  0.290872  1
  Ba  Ba4  1  0.782513  0.782513  0.288140  1
  Ba  Ba5  1  0.121531  0.121531  0.288713  1
  Sc  Sc6  1  0.666541  0.666541  0.000012  1
  Sc  Sc7  1  0.333459  0.333459  0.999988  1
  Sb  Sb8  1  0.000000  0.000000  0.000000  1
  O  O9  1  0.949985  0.949985  0.301760  1
  O  O10  1  0.280233  0.280233  0.316525  1
  O  O11  1  0.613596  0.613596  0.316377  1
  O  O12  1  0.386404  0.386404  0.683623  1
  O  O13  1  0.719767  0.719767  0.683475  1
  O  O14  1  0.050015  0.050015  0.698240  1
  O  O15  1  0.500000  0.000000  0.000000  1
  O  O16  1  0.838428  0.322473  0.000163  1
  O  O17  1  0.161572  0.677527  0.999837  1
  O  O18  1  0.000000  0.500000  0.000000  1
  O  O19  1  0.322473  0.838428  0.000163  1
  O  O20  1  0.677527  0.161572  0.999837  1
