# generated using pymatgen
data_Er16Sc4Ir11Os
_symmetry_space_group_name_H-M   'P 1'
_cell_length_a   10.69917300
_cell_length_b   10.69917300
_cell_length_c   6.25133900
_cell_angle_alpha   90.00000000
_cell_angle_beta   90.00000000
_cell_angle_gamma   90.00000000
_symmetry_Int_Tables_number   1
_chemical_formula_structural   Er16Sc4Ir11Os
_chemical_formula_sum   'Er16 Sc4 Ir11 Os1'
_cell_volume   715.60517144
_cell_formula_units_Z   1
loop_
 _symmetry_equiv_pos_site_id
 _symmetry_equiv_pos_as_xyz
  1  'x, y, z'
loop_
 _atom_site_type_symbol
 _atom_site_label
 _atom_site_symmetry_multiplicity
 _atom_site_fract_x
 _atom_site_fract_y
 _atom_site_fract_z
 _atom_site_occupancy
  Er  Er0  1  0.289298  0.085393  0.374085  1
  Er  Er1  1  0.289864  0.914689  0.878648  1
  Er  Er2  1  0.710136  0.085311  0.878648  1
  Er  Er3  1  0.710702  0.914607  0.374085  1
  Er  Er4  1  0.585311  0.789864  0.878648  1
  Er  Er5  1  0.585393  0.210702  0.374085  1
  Er  Er6  1  0.414607  0.789298  0.374085  1
  Er  Er7  1  0.414689  0.210136  0.878648  1
  Er  Er8  1  0.212095  0.413645  0.623470  1
  Er  Er9  1  0.211998  0.585819  0.123075  1
  Er  Er10  1  0.788002  0.414181  0.123075  1
  Er  Er11  1  0.787905  0.586355  0.623470  1
  Er  Er12  1  0.914181  0.711998  0.123075  1
  Er  Er13  1  0.913645  0.287905  0.623470  1
  Er  Er14  1  0.086355  0.712095  0.623470  1
  Er  Er15  1  0.085819  0.288002  0.123075  1
  Sc  Sc16  1  0.000000  0.000000  0.500050  1
  Sc  Sc17  1  0.000000  0.000000  0.998996  1
  Sc  Sc18  1  0.500000  0.500000  0.998996  1
  Sc  Sc19  1  0.500000  0.500000  0.500050  1
  Ir  Ir20  1  0.852434  0.148805  0.250375  1
  Ir  Ir21  1  0.852448  0.851397  0.749677  1
  Ir  Ir22  1  0.147552  0.148603  0.749677  1
  Ir  Ir23  1  0.147566  0.851195  0.250375  1
  Ir  Ir24  1  0.648603  0.352448  0.749677  1
  Ir  Ir25  1  0.648805  0.647566  0.250375  1
  Ir  Ir26  1  0.351195  0.352434  0.250375  1
  Ir  Ir27  1  0.351397  0.647552  0.749677  1
  Ir  Ir28  1  0.500000  0.000000  0.623084  1
  Ir  Ir29  1  0.000000  0.500000  0.877748  1
  Ir  Ir30  1  0.000000  0.500000  0.378257  1
  Os  Os31  1  0.500000  0.000000  0.125502  1
