# generated using pymatgen
data_Co3Ag2P7Ru9
_symmetry_space_group_name_H-M   'P 1'
_cell_length_a   9.34312300
_cell_length_b   9.34312410
_cell_length_c   3.71736500
_cell_angle_alpha   90.00000000
_cell_angle_beta   90.00000000
_cell_angle_gamma   119.99999163
_symmetry_Int_Tables_number   1
_chemical_formula_structural   Co3Ag2P7Ru9
_chemical_formula_sum   'Co3 Ag2 P7 Ru9'
_cell_volume   281.02830075
_cell_formula_units_Z   1
loop_
 _symmetry_equiv_pos_site_id
 _symmetry_equiv_pos_as_xyz
  1  'x, y, z'
loop_
 _atom_site_type_symbol
 _atom_site_label
 _atom_site_symmetry_multiplicity
 _atom_site_fract_x
 _atom_site_fract_y
 _atom_site_fract_z
 _atom_site_occupancy
  Co  Co0  1  0.809730  0.604690  0.000000  1
  Co  Co1  1  0.395310  0.205040  0.000000  1
  Co  Co2  1  0.794960  0.190270  0.000000  1
  Ag  Ag3  1  0.000000  0.000000  0.000000  1
  Ag  Ag4  1  0.333333  0.666667  0.500000  1
  P  P5  1  0.760608  0.719665  0.500000  1
  P  P6  1  0.280335  0.040942  0.500000  1
  P  P7  1  0.959058  0.239392  0.500000  1
  P  P8  1  0.666667  0.333333  0.000000  1
  P  P9  1  0.063728  0.642060  0.000000  1
  P  P10  1  0.357940  0.421668  0.000000  1
  P  P11  1  0.578332  0.936272  0.000000  1
  Ru  Ru12  1  0.105455  0.417763  0.000000  1
  Ru  Ru13  1  0.582237  0.687692  0.000000  1
  Ru  Ru14  1  0.312308  0.894545  0.000000  1
  Ru  Ru15  1  0.038164  0.785374  0.500000  1
  Ru  Ru16  1  0.214626  0.252791  0.500000  1
  Ru  Ru17  1  0.747209  0.961836  0.500000  1
  Ru  Ru18  1  0.873483  0.433280  0.500000  1
  Ru  Ru19  1  0.566720  0.440203  0.500000  1
  Ru  Ru20  1  0.559797  0.126517  0.500000  1
