# generated using pymatgen
data_Dy9Er7MgNi4Hg3
_symmetry_space_group_name_H-M   'P 1'
_cell_length_a   9.49979834
_cell_length_b   9.45741451
_cell_length_c   9.45741400
_cell_angle_alpha   59.99999477
_cell_angle_beta   60.14747232
_cell_angle_gamma   60.14746790
_symmetry_Int_Tables_number   1
_chemical_formula_structural   Dy9Er7MgNi4Hg3
_chemical_formula_sum   'Dy9 Er7 Mg1 Ni4 Hg3'
_cell_volume   602.15549660
_cell_formula_units_Z   1
loop_
 _symmetry_equiv_pos_site_id
 _symmetry_equiv_pos_as_xyz
  1  'x, y, z'
loop_
 _atom_site_type_symbol
 _atom_site_label
 _atom_site_symmetry_multiplicity
 _atom_site_fract_x
 _atom_site_fract_y
 _atom_site_fract_z
 _atom_site_occupancy
  Dy  Dy0  1  0.184322  0.814840  0.814840  1
  Dy  Dy1  1  0.812535  0.186473  0.186473  1
  Dy  Dy2  1  0.812535  0.186473  0.814520  1
  Dy  Dy3  1  0.184322  0.814840  0.185998  1
  Dy  Dy4  1  0.812535  0.814520  0.186473  1
  Dy  Dy5  1  0.184322  0.185998  0.814840  1
  Dy  Dy6  1  0.598344  0.597639  0.597639  1
  Dy  Dy7  1  0.598344  0.597639  0.206378  1
  Dy  Dy8  1  0.598344  0.206378  0.597639  1
  Er  Er9  1  0.198442  0.600519  0.600519  1
  Er  Er10  1  0.059642  0.439335  0.439335  1
  Er  Er11  1  0.434300  0.064275  0.064275  1
  Er  Er12  1  0.434300  0.064275  0.437152  1
  Er  Er13  1  0.059642  0.439335  0.061688  1
  Er  Er14  1  0.434300  0.437152  0.064275  1
  Er  Er15  1  0.059642  0.061688  0.439335  1
  Mg  Mg16  1  0.535952  0.821349  0.821349  1
  Ni  Ni17  1  0.389763  0.393221  0.393221  1
  Ni  Ni18  1  0.389763  0.393221  0.823795  1
  Ni  Ni19  1  0.389763  0.823795  0.393221  1
  Ni  Ni20  1  0.824308  0.391897  0.391897  1
  Hg  Hg21  1  0.834861  0.835680  0.835680  1
  Hg  Hg22  1  0.834861  0.835680  0.493778  1
  Hg  Hg23  1  0.834861  0.493778  0.835680  1
