# generated using pymatgen
data_Ho9Er11GaBi11
_symmetry_space_group_name_H-M   'P 1'
_cell_length_a   8.17423919
_cell_length_b   9.43706600
_cell_length_c   11.96432007
_cell_angle_alpha   90.00192801
_cell_angle_beta   90.29548410
_cell_angle_gamma   89.99823769
_symmetry_Int_Tables_number   1
_chemical_formula_structural   Ho9Er11GaBi11
_chemical_formula_sum   'Ho9 Er11 Ga1 Bi11'
_cell_volume   922.92536310
_cell_formula_units_Z   1
loop_
 _symmetry_equiv_pos_site_id
 _symmetry_equiv_pos_as_xyz
  1  'x, y, z'
loop_
 _atom_site_type_symbol
 _atom_site_label
 _atom_site_symmetry_multiplicity
 _atom_site_fract_x
 _atom_site_fract_y
 _atom_site_fract_z
 _atom_site_occupancy
  Ho  Ho0  1  0.648533  0.250014  0.784246  1
  Ho  Ho1  1  0.148900  0.250015  0.716453  1
  Ho  Ho2  1  0.193196  0.564558  0.439954  1
  Ho  Ho3  1  0.475489  0.249983  0.488781  1
  Ho  Ho4  1  0.978973  0.250019  0.010501  1
  Ho  Ho5  1  0.314192  0.250002  0.219413  1
  Ho  Ho6  1  0.811953  0.250011  0.281445  1
  Ho  Ho7  1  0.673365  0.750001  0.788717  1
  Ho  Ho8  1  0.190709  0.750042  0.722257  1
  Er  Er9  1  0.355476  0.750060  0.206068  1
  Er  Er10  1  0.852610  0.750039  0.284363  1
  Er  Er11  1  0.684004  0.571101  0.054783  1
  Er  Er12  1  0.193216  0.935297  0.439903  1
  Er  Er13  1  0.309409  0.049602  0.941075  1
  Er  Er14  1  0.807053  0.435726  0.559012  1
  Er  Er15  1  0.309436  0.450409  0.941078  1
  Er  Er16  1  0.806997  0.064263  0.559025  1
  Er  Er17  1  0.684014  0.928884  0.054786  1
  Er  Er18  1  0.525442  0.750036  0.511551  1
  Er  Er19  1  0.036021  0.749998  0.989547  1
  Ga  Ga20  1  0.407985  0.750008  0.960821  1
  Bi  Bi21  1  0.907923  0.750101  0.544523  1
  Bi  Bi22  1  0.593101  0.250003  0.042374  1
  Bi  Bi23  1  0.093061  0.249734  0.457502  1
  Bi  Bi24  1  0.564974  0.995198  0.325590  1
  Bi  Bi25  1  0.064143  0.503556  0.175160  1
  Bi  Bi26  1  0.435334  0.496074  0.674894  1
  Bi  Bi27  1  0.935008  0.002592  0.825257  1
  Bi  Bi28  1  0.435342  0.003962  0.674875  1
  Bi  Bi29  1  0.934978  0.497419  0.825271  1
  Bi  Bi30  1  0.565018  0.504822  0.325570  1
  Bi  Bi31  1  0.064149  0.996470  0.175200  1
