# generated using pymatgen
data_Li3(SnIr)2
_symmetry_space_group_name_H-M   'P 1'
_cell_length_a   7.16174795
_cell_length_b   7.16174822
_cell_length_c   7.16174793
_cell_angle_alpha   36.19625683
_cell_angle_beta   36.19625867
_cell_angle_gamma   36.19625132
_symmetry_Int_Tables_number   1
_chemical_formula_structural   Li3(SnIr)2
_chemical_formula_sum   'Li3 Sn2 Ir2'
_cell_volume   114.62239787
_cell_formula_units_Z   1
loop_
 _symmetry_equiv_pos_site_id
 _symmetry_equiv_pos_as_xyz
  1  'x, y, z'
loop_
 _atom_site_type_symbol
 _atom_site_label
 _atom_site_symmetry_multiplicity
 _atom_site_fract_x
 _atom_site_fract_y
 _atom_site_fract_z
 _atom_site_occupancy
  Li  Li0  1  0.642535  0.642535  0.642535  1
  Li  Li1  1  0.357465  0.357465  0.357465  1
  Li  Li2  1  0.500000  0.500000  0.500000  1
  Sn  Sn3  1  0.917356  0.917356  0.917356  1
  Sn  Sn4  1  0.082644  0.082644  0.082644  1
  Ir  Ir5  1  0.782236  0.782236  0.782236  1
  Ir  Ir6  1  0.217765  0.217765  0.217765  1
