# generated using pymatgen
data_CaYZn14Pd3
_symmetry_space_group_name_H-M   'P 1'
_cell_length_a   6.87134372
_cell_length_b   6.87134392
_cell_length_c   6.87134455
_cell_angle_alpha   82.59673909
_cell_angle_beta   82.59674148
_cell_angle_gamma   82.59674533
_symmetry_Int_Tables_number   1
_chemical_formula_structural   CaYZn14Pd3
_chemical_formula_sum   'Ca1 Y1 Zn14 Pd3'
_cell_volume   316.96130904
_cell_formula_units_Z   1
loop_
 _symmetry_equiv_pos_site_id
 _symmetry_equiv_pos_as_xyz
  1  'x, y, z'
loop_
 _atom_site_type_symbol
 _atom_site_label
 _atom_site_symmetry_multiplicity
 _atom_site_fract_x
 _atom_site_fract_y
 _atom_site_fract_z
 _atom_site_occupancy
  Ca  Ca0  1  0.663885  0.663885  0.663885  1
  Y  Y1  1  0.336569  0.336569  0.336569  1
  Zn  Zn2  1  0.350180  0.350180  0.841073  1
  Zn  Zn3  1  0.841073  0.350180  0.350180  1
  Zn  Zn4  1  0.101647  0.101647  0.101647  1
  Zn  Zn5  1  0.898012  0.898012  0.898012  1
  Zn  Zn6  1  0.298544  0.701482  0.000527  1
  Zn  Zn7  1  0.701482  0.000527  0.298544  1
  Zn  Zn8  1  0.000527  0.298544  0.701482  1
  Zn  Zn9  1  0.701482  0.298544  0.000527  1
  Zn  Zn10  1  0.298544  0.000527  0.701482  1
  Zn  Zn11  1  0.000527  0.701482  0.298544  1
  Zn  Zn12  1  0.159173  0.648553  0.648553  1
  Zn  Zn13  1  0.648553  0.648553  0.159173  1
  Zn  Zn14  1  0.648553  0.159173  0.648553  1
  Zn  Zn15  1  0.350180  0.841073  0.350180  1
  Pd  Pd16  1  0.000907  0.000907  0.499255  1
  Pd  Pd17  1  0.000907  0.499255  0.000907  1
  Pd  Pd18  1  0.499255  0.000907  0.000907  1
