# generated using pymatgen
data_BaSr(IrCl6)2
_symmetry_space_group_name_H-M   'P 1'
_cell_length_a   6.60913895
_cell_length_b   6.60914100
_cell_length_c   10.68196231
_cell_angle_alpha   88.19751613
_cell_angle_beta   88.19750595
_cell_angle_gamma   72.66382552
_symmetry_Int_Tables_number   1
_chemical_formula_structural   BaSr(IrCl6)2
_chemical_formula_sum   'Ba1 Sr1 Ir2 Cl12'
_cell_volume   445.06017563
_cell_formula_units_Z   1
loop_
 _symmetry_equiv_pos_site_id
 _symmetry_equiv_pos_as_xyz
  1  'x, y, z'
loop_
 _atom_site_type_symbol
 _atom_site_label
 _atom_site_symmetry_multiplicity
 _atom_site_fract_x
 _atom_site_fract_y
 _atom_site_fract_z
 _atom_site_occupancy
  Ba  Ba0  1  0.986069  0.013931  0.250000  1
  Sr  Sr1  1  0.012153  0.987847  0.750000  1
  Ir  Ir2  1  0.507032  0.007394  0.509962  1
  Ir  Ir3  1  0.992606  0.492968  0.990038  1
  Cl  Cl4  1  0.411127  0.730871  0.608152  1
  Cl  Cl5  1  0.595368  0.288590  0.410417  1
  Cl  Cl6  1  0.269129  0.588873  0.891848  1
  Cl  Cl7  1  0.711410  0.404632  0.089583  1
  Cl  Cl8  1  0.537427  0.144321  0.704863  1
  Cl  Cl9  1  0.486233  0.867406  0.312233  1
  Cl  Cl10  1  0.855679  0.462573  0.795137  1
  Cl  Cl11  1  0.132594  0.513767  0.187767  1
  Cl  Cl12  1  0.795838  0.855472  0.993335  1
  Cl  Cl13  1  0.193194  0.130386  0.984791  1
  Cl  Cl14  1  0.144528  0.204162  0.506665  1
  Cl  Cl15  1  0.869614  0.806806  0.515209  1
