# generated using pymatgen
data_La3Pa(SbTe)4
_symmetry_space_group_name_H-M   'P 1'
_cell_length_a   4.41429500
_cell_length_b   4.41156122
_cell_length_c   18.94479252
_cell_angle_alpha   90.03173502
_cell_angle_beta   90.00000000
_cell_angle_gamma   90.00000000
_symmetry_Int_Tables_number   1
_chemical_formula_structural   La3Pa(SbTe)4
_chemical_formula_sum   'La3 Pa1 Sb4 Te4'
_cell_volume   368.92955716
_cell_formula_units_Z   1
loop_
 _symmetry_equiv_pos_site_id
 _symmetry_equiv_pos_as_xyz
  1  'x, y, z'
loop_
 _atom_site_type_symbol
 _atom_site_label
 _atom_site_symmetry_multiplicity
 _atom_site_fract_x
 _atom_site_fract_y
 _atom_site_fract_z
 _atom_site_occupancy
  La  La0  1  0.750000  0.258032  0.361513  1
  La  La1  1  0.250000  0.741572  0.637559  1
  La  La2  1  0.750000  0.242902  0.864835  1
  Pa  Pa3  1  0.250000  0.755773  0.135817  1
  Sb  Sb4  1  0.250000  0.252009  0.007271  1
  Sb  Sb5  1  0.750000  0.753613  0.498155  1
  Sb  Sb6  1  0.250000  0.246823  0.498099  1
  Sb  Sb7  1  0.750000  0.751029  0.007307  1
  Te  Te8  1  0.750000  0.256790  0.179156  1
  Te  Te9  1  0.250000  0.758923  0.305796  1
  Te  Te10  1  0.750000  0.240871  0.686423  1
  Te  Te11  1  0.250000  0.741663  0.818070  1
