# generated using pymatgen
data_Cs8Li4Dy3InSb8
_symmetry_space_group_name_H-M   'P 1'
_cell_length_a   11.55468064
_cell_length_b   11.55468115
_cell_length_c   7.30196649
_cell_angle_alpha   89.96491550
_cell_angle_beta   90.03508898
_cell_angle_gamma   101.66883156
_symmetry_Int_Tables_number   1
_chemical_formula_structural   Cs8Li4Dy3InSb8
_chemical_formula_sum   'Cs8 Li4 Dy3 In1 Sb8'
_cell_volume   954.74192084
_cell_formula_units_Z   1
loop_
 _symmetry_equiv_pos_site_id
 _symmetry_equiv_pos_as_xyz
  1  'x, y, z'
loop_
 _atom_site_type_symbol
 _atom_site_label
 _atom_site_symmetry_multiplicity
 _atom_site_fract_x
 _atom_site_fract_y
 _atom_site_fract_z
 _atom_site_occupancy
  Cs  Cs0  1  0.571779  0.927027  0.747832  1
  Cs  Cs1  1  0.927027  0.571779  0.252168  1
  Cs  Cs2  1  0.428139  0.078909  0.255208  1
  Cs  Cs3  1  0.078909  0.428139  0.744792  1
  Cs  Cs4  1  0.669664  0.323642  0.774433  1
  Cs  Cs5  1  0.825409  0.175314  0.280103  1
  Cs  Cs6  1  0.323642  0.669664  0.225567  1
  Cs  Cs7  1  0.175314  0.825409  0.719897  1
  Li  Li8  1  0.618837  0.618837  0.000000  1
  Li  Li9  1  0.878678  0.878678  0.500000  1
  Li  Li10  1  0.378792  0.378792  0.000000  1
  Li  Li11  1  0.123069  0.123069  0.500000  1
  Dy  Dy12  1  0.869624  0.869624  0.000000  1
  Dy  Dy13  1  0.625462  0.625462  0.500000  1
  Dy  Dy14  1  0.131707  0.131707  0.000000  1
  In  In15  1  0.374324  0.374324  0.500000  1
  Sb  Sb16  1  0.342079  0.164606  0.744268  1
  Sb  Sb17  1  0.164606  0.342079  0.255732  1
  Sb  Sb18  1  0.658129  0.838690  0.250434  1
  Sb  Sb19  1  0.838690  0.658129  0.749566  1
  Sb  Sb20  1  0.911765  0.090230  0.760983  1
  Sb  Sb21  1  0.586570  0.407553  0.260936  1
  Sb  Sb22  1  0.090230  0.911765  0.239017  1
  Sb  Sb23  1  0.407553  0.586570  0.739064  1
