# generated using pymatgen
data_La3Ce4Y(AlRh)8
_symmetry_space_group_name_H-M   'P 1'
_cell_length_a   4.24186600
_cell_length_b   7.13827217
_cell_length_c   16.09667457
_cell_angle_alpha   90.44565242
_cell_angle_beta   90.00000000
_cell_angle_gamma   90.00000000
_symmetry_Int_Tables_number   1
_chemical_formula_structural   La3Ce4Y(AlRh)8
_chemical_formula_sum   'La3 Ce4 Y1 Al8 Rh8'
_cell_volume   487.38602759
_cell_formula_units_Z   1
loop_
 _symmetry_equiv_pos_site_id
 _symmetry_equiv_pos_as_xyz
  1  'x, y, z'
loop_
 _atom_site_type_symbol
 _atom_site_label
 _atom_site_symmetry_multiplicity
 _atom_site_fract_x
 _atom_site_fract_y
 _atom_site_fract_z
 _atom_site_occupancy
  La  La0  1  0.250000  0.156256  0.560424  1
  La  La1  1  0.750000  0.842936  0.438834  1
  La  La2  1  0.250000  0.655968  0.941304  1
  Ce  Ce3  1  0.250000  0.029162  0.780650  1
  Ce  Ce4  1  0.750000  0.970320  0.219105  1
  Ce  Ce5  1  0.250000  0.528421  0.721629  1
  Ce  Ce6  1  0.750000  0.470718  0.278083  1
  Y  Y7  1  0.750000  0.339499  0.061107  1
  Al  Al8  1  0.250000  0.147498  0.347451  1
  Al  Al9  1  0.750000  0.852331  0.651524  1
  Al  Al10  1  0.250000  0.640540  0.148305  1
  Al  Al11  1  0.750000  0.352788  0.851228  1
  Al  Al12  1  0.250000  0.011961  0.062203  1
  Al  Al13  1  0.750000  0.998589  0.939389  1
  Al  Al14  1  0.250000  0.504043  0.437409  1
  Al  Al15  1  0.750000  0.495327  0.562356  1
  Rh  Rh16  1  0.750000  0.286972  0.422568  1
  Rh  Rh17  1  0.250000  0.713025  0.576832  1
  Rh  Rh18  1  0.750000  0.782293  0.075716  1
  Rh  Rh19  1  0.250000  0.218265  0.926863  1
  Rh  Rh20  1  0.750000  0.745047  0.812031  1
  Rh  Rh21  1  0.250000  0.259987  0.185660  1
  Rh  Rh22  1  0.750000  0.244395  0.688101  1
  Rh  Rh23  1  0.250000  0.753660  0.311228  1
