# generated using pymatgen
data_Th3Cd3Pd2Ru
_symmetry_space_group_name_H-M   'P 1'
_cell_length_a   7.81899800
_cell_length_b   7.81899995
_cell_length_c   3.94337000
_cell_angle_alpha   90.00000000
_cell_angle_beta   90.00000000
_cell_angle_gamma   120.00000866
_symmetry_Int_Tables_number   1
_chemical_formula_structural   Th3Cd3Pd2Ru
_chemical_formula_sum   'Th3 Cd3 Pd2 Ru1'
_cell_volume   208.78554832
_cell_formula_units_Z   1
loop_
 _symmetry_equiv_pos_site_id
 _symmetry_equiv_pos_as_xyz
  1  'x, y, z'
loop_
 _atom_site_type_symbol
 _atom_site_label
 _atom_site_symmetry_multiplicity
 _atom_site_fract_x
 _atom_site_fract_y
 _atom_site_fract_z
 _atom_site_occupancy
  Th  Th0  1  0.422785  0.405530  0.500000  1
  Th  Th1  1  0.594470  0.017255  0.500000  1
  Th  Th2  1  0.982745  0.577215  0.500000  1
  Cd  Cd3  1  0.746889  0.752796  0.000000  1
  Cd  Cd4  1  0.247204  0.994094  0.000000  1
  Cd  Cd5  1  0.005906  0.253111  0.000000  1
  Pd  Pd6  1  0.333333  0.666667  0.000000  1
  Pd  Pd7  1  0.000000  0.000000  0.500000  1
  Ru  Ru8  1  0.666667  0.333333  0.000000  1
