# generated using pymatgen
data_Tb15Y5Co3TcSb8
_symmetry_space_group_name_H-M   'P 1'
_cell_length_a   7.92073462
_cell_length_b   8.81258700
_cell_length_c   12.23069857
_cell_angle_alpha   90.00000000
_cell_angle_beta   90.30513207
_cell_angle_gamma   90.00000000
_symmetry_Int_Tables_number   1
_chemical_formula_structural   Tb15Y5Co3TcSb8
_chemical_formula_sum   'Tb15 Y5 Co3 Tc1 Sb8'
_cell_volume   853.71710870
_cell_formula_units_Z   1
loop_
 _symmetry_equiv_pos_site_id
 _symmetry_equiv_pos_as_xyz
  1  'x, y, z'
loop_
 _atom_site_type_symbol
 _atom_site_label
 _atom_site_symmetry_multiplicity
 _atom_site_fract_x
 _atom_site_fract_y
 _atom_site_fract_z
 _atom_site_occupancy
  Tb  Tb0  1  0.344442  0.750000  0.709301  1
  Tb  Tb1  1  0.454017  0.750000  0.997546  1
  Tb  Tb2  1  0.046921  0.750000  0.497422  1
  Tb  Tb3  1  0.625725  0.750000  0.300626  1
  Tb  Tb4  1  0.124163  0.250000  0.193984  1
  Tb  Tb5  1  0.376878  0.250000  0.695747  1
  Tb  Tb6  1  0.876670  0.750000  0.806237  1
  Tb  Tb7  1  0.821881  0.964692  0.064823  1
  Tb  Tb8  1  0.319377  0.042359  0.434142  1
  Tb  Tb9  1  0.179149  0.464055  0.935277  1
  Tb  Tb10  1  0.677928  0.534532  0.563915  1
  Tb  Tb11  1  0.179149  0.035945  0.935277  1
  Tb  Tb12  1  0.677928  0.965468  0.563915  1
  Tb  Tb13  1  0.821881  0.535308  0.064823  1
  Tb  Tb14  1  0.319377  0.457641  0.434142  1
  Y  Y15  1  0.158534  0.750000  0.207692  1
  Y  Y16  1  0.655623  0.250000  0.294481  1
  Y  Y17  1  0.845107  0.250000  0.796350  1
  Y  Y18  1  0.950981  0.250000  0.503649  1
  Y  Y19  1  0.544444  0.250000  0.002549  1
  Co  Co20  1  0.937029  0.250000  0.010578  1
  Co  Co21  1  0.573582  0.250000  0.512762  1
  Co  Co22  1  0.067148  0.750000  0.990228  1
  Tc  Tc23  1  0.420951  0.750000  0.484882  1
  Sb  Sb24  1  0.927648  0.993210  0.326811  1
  Sb  Sb25  1  0.427888  0.008735  0.171668  1
  Sb  Sb26  1  0.071266  0.491317  0.673049  1
  Sb  Sb27  1  0.573757  0.506901  0.828297  1
  Sb  Sb28  1  0.071266  0.008683  0.673049  1
  Sb  Sb29  1  0.573757  0.993099  0.828297  1
  Sb  Sb30  1  0.927648  0.506790  0.326811  1
  Sb  Sb31  1  0.427888  0.491265  0.171668  1
