# generated using pymatgen
data_K3CrIrCl9
_symmetry_space_group_name_H-M   'P 1'
_cell_length_a   7.17554100
_cell_length_b   7.17554093
_cell_length_c   17.97190400
_cell_angle_alpha   90.00000000
_cell_angle_beta   90.00000000
_cell_angle_gamma   119.99999571
_symmetry_Int_Tables_number   1
_chemical_formula_structural   K3CrIrCl9
_chemical_formula_sum   'K6 Cr2 Ir2 Cl18'
_cell_volume   801.37176526
_cell_formula_units_Z   2
loop_
 _symmetry_equiv_pos_site_id
 _symmetry_equiv_pos_as_xyz
  1  'x, y, z'
loop_
 _atom_site_type_symbol
 _atom_site_label
 _atom_site_symmetry_multiplicity
 _atom_site_fract_x
 _atom_site_fract_y
 _atom_site_fract_z
 _atom_site_occupancy
  K  K0  1  0.666685  0.333342  0.943618  1
  K  K1  1  0.333315  0.666658  0.443618  1
  K  K2  1  0.666684  0.333342  0.562012  1
  K  K3  1  0.333316  0.666658  0.062012  1
  K  K4  1  0.999987  0.999994  0.748552  1
  K  K5  1  0.000013  0.000006  0.248552  1
  Cr  Cr6  1  0.666461  0.333231  0.337990  1
  Cr  Cr7  1  0.333539  0.666769  0.837990  1
  Ir  Ir8  1  0.333341  0.666670  0.666188  1
  Ir  Ir9  1  0.666659  0.333330  0.166188  1
  Cl  Cl10  1  0.822139  0.644285  0.406765  1
  Cl  Cl11  1  0.177861  0.355715  0.906765  1
  Cl  Cl12  1  0.177861  0.822148  0.906765  1
  Cl  Cl13  1  0.178761  0.357505  0.591477  1
  Cl  Cl14  1  0.644317  0.822159  0.906766  1
  Cl  Cl15  1  0.355683  0.177841  0.406766  1
  Cl  Cl16  1  0.030735  0.515367  0.748971  1
  Cl  Cl17  1  0.822139  0.177852  0.406765  1
  Cl  Cl18  1  0.515357  0.030724  0.248972  1
  Cl  Cl19  1  0.484642  0.515368  0.748971  1
  Cl  Cl20  1  0.515358  0.484632  0.248971  1
  Cl  Cl21  1  0.969265  0.484633  0.248971  1
  Cl  Cl22  1  0.357491  0.178744  0.091477  1
  Cl  Cl23  1  0.484643  0.969276  0.748972  1
  Cl  Cl24  1  0.821239  0.642495  0.091477  1
  Cl  Cl25  1  0.178761  0.821257  0.591477  1
  Cl  Cl26  1  0.642509  0.821256  0.591477  1
  Cl  Cl27  1  0.821239  0.178743  0.091477  1
