# generated using pymatgen
data_CeNd(ZnAs)6
_symmetry_space_group_name_H-M   'P 1'
_cell_length_a   4.18918002
_cell_length_b   4.19774411
_cell_length_c   20.59361348
_cell_angle_alpha   90.01224854
_cell_angle_beta   90.05324243
_cell_angle_gamma   60.07875451
_symmetry_Int_Tables_number   1
_chemical_formula_structural   CeNd(ZnAs)6
_chemical_formula_sum   'Ce1 Nd1 Zn6 As6'
_cell_volume   313.87163499
_cell_formula_units_Z   1
loop_
 _symmetry_equiv_pos_site_id
 _symmetry_equiv_pos_as_xyz
  1  'x, y, z'
loop_
 _atom_site_type_symbol
 _atom_site_label
 _atom_site_symmetry_multiplicity
 _atom_site_fract_x
 _atom_site_fract_y
 _atom_site_fract_z
 _atom_site_occupancy
  Ce  Ce0  1  0.998172  0.000879  0.500035  1
  Nd  Nd1  1  0.998235  0.000903  0.999968  1
  Zn  Zn2  1  0.333950  0.336241  0.128181  1
  Zn  Zn3  1  0.669852  0.665724  0.871766  1
  Zn  Zn4  1  0.669731  0.665604  0.628216  1
  Zn  Zn5  1  0.333516  0.336497  0.371835  1
  Zn  Zn6  1  0.267170  0.364336  0.750505  1
  Zn  Zn7  1  0.635198  0.633489  0.249494  1
  As  As8  1  0.333910  0.333143  0.585641  1
  As  As9  1  0.665736  0.668793  0.414425  1
  As  As10  1  0.666178  0.668749  0.087678  1
  As  As11  1  0.334452  0.333057  0.912261  1
  As  As12  1  0.594951  0.700750  0.749283  1
  As  As13  1  0.299745  0.296935  0.250712  1
