# generated using pymatgen
data_Tb4Dy3FeI12
_symmetry_space_group_name_H-M   'P 1'
_cell_length_a   9.72676419
_cell_length_b   9.78193828
_cell_length_c   9.78729379
_cell_angle_alpha   107.03675051
_cell_angle_beta   107.02541884
_cell_angle_gamma   106.82780223
_symmetry_Int_Tables_number   1
_chemical_formula_structural   Tb4Dy3FeI12
_chemical_formula_sum   'Tb4 Dy3 Fe1 I12'
_cell_volume   776.30749901
_cell_formula_units_Z   1
loop_
 _symmetry_equiv_pos_site_id
 _symmetry_equiv_pos_as_xyz
  1  'x, y, z'
loop_
 _atom_site_type_symbol
 _atom_site_label
 _atom_site_symmetry_multiplicity
 _atom_site_fract_x
 _atom_site_fract_y
 _atom_site_fract_z
 _atom_site_occupancy
  Tb  Tb0  1  0.280205  0.021297  0.088995  1
  Tb  Tb1  1  0.907037  0.706970  0.977402  1
  Tb  Tb2  1  0.978231  0.906563  0.706646  1
  Tb  Tb3  1  0.719958  0.979063  0.911525  1
  Dy  Dy4  1  0.500011  0.500107  0.500057  1
  Dy  Dy5  1  0.092444  0.291397  0.022653  1
  Dy  Dy6  1  0.021806  0.093447  0.291794  1
  Fe  Fe7  1  0.000365  0.000349  0.000436  1
  I  I8  1  0.462475  0.385271  0.161269  1
  I  I9  1  0.160089  0.463069  0.385965  1
  I  I10  1  0.386024  0.161201  0.461965  1
  I  I11  1  0.536512  0.614800  0.838405  1
  I  I12  1  0.839458  0.535977  0.613184  1
  I  I13  1  0.613050  0.838890  0.538055  1
  I  I14  1  0.773295  0.318829  0.927188  1
  I  I15  1  0.927795  0.774759  0.320567  1
  I  I16  1  0.320100  0.928202  0.775399  1
  I  I17  1  0.227600  0.680846  0.072997  1
  I  I18  1  0.072606  0.226863  0.680085  1
  I  I19  1  0.680939  0.072099  0.225413  1
