# generated using pymatgen
data_InNi3F12
_symmetry_space_group_name_H-M   'P 1'
_cell_length_a   7.47763137
_cell_length_b   7.23630983
_cell_length_c   7.23435947
_cell_angle_alpha   60.20601682
_cell_angle_beta   60.99448977
_cell_angle_gamma   60.96783141
_symmetry_Int_Tables_number   1
_chemical_formula_structural   InNi3F12
_chemical_formula_sum   'In1 Ni3 F12'
_cell_volume   281.28151208
_cell_formula_units_Z   1
loop_
 _symmetry_equiv_pos_site_id
 _symmetry_equiv_pos_as_xyz
  1  'x, y, z'
loop_
 _atom_site_type_symbol
 _atom_site_label
 _atom_site_symmetry_multiplicity
 _atom_site_fract_x
 _atom_site_fract_y
 _atom_site_fract_z
 _atom_site_occupancy
  In  In0  1  0.500000  0.000000  0.000000  1
  Ni  Ni1  1  0.000000  0.000000  0.000000  1
  Ni  Ni2  1  0.000000  0.500000  0.000000  1
  Ni  Ni3  1  0.000000  0.000000  0.499999  1
  F  F4  1  0.699106  0.069903  0.069983  1
  F  F5  1  0.050919  0.688286  0.069664  1
  F  F6  1  0.697963  0.661645  0.070329  1
  F  F7  1  0.949173  0.308254  0.311258  1
  F  F8  1  0.302897  0.929862  0.337295  1
  F  F9  1  0.949163  0.930030  0.309951  1
  F  F10  1  0.697102  0.070139  0.662705  1
  F  F11  1  0.050828  0.691745  0.688742  1
  F  F12  1  0.050836  0.069969  0.690051  1
  F  F13  1  0.949080  0.311716  0.930336  1
  F  F14  1  0.300896  0.930096  0.930017  1
  F  F15  1  0.302036  0.338354  0.929673  1
