# generated using pymatgen
data_Ho3Er(B6Ir)2
_symmetry_space_group_name_H-M   'P 1'
_cell_length_a   3.63172100
_cell_length_b   9.16760811
_cell_length_c   11.50744914
_cell_angle_alpha   90.01811905
_cell_angle_beta   90.00000000
_cell_angle_gamma   90.00000000
_symmetry_Int_Tables_number   1
_chemical_formula_structural   Ho3Er(B6Ir)2
_chemical_formula_sum   'Ho6 Er2 B24 Ir4'
_cell_volume   383.13123555
_cell_formula_units_Z   2
loop_
 _symmetry_equiv_pos_site_id
 _symmetry_equiv_pos_as_xyz
  1  'x, y, z'
loop_
 _atom_site_type_symbol
 _atom_site_label
 _atom_site_symmetry_multiplicity
 _atom_site_fract_x
 _atom_site_fract_y
 _atom_site_fract_z
 _atom_site_occupancy
  Ho  Ho0  1  0.000000  0.322280  0.412885  1
  Ho  Ho1  1  0.000000  0.677720  0.587115  1
  Ho  Ho2  1  0.000000  0.821973  0.087041  1
  Ho  Ho3  1  0.000000  0.178027  0.912959  1
  Ho  Ho4  1  0.000000  0.944266  0.374461  1
  Ho  Ho5  1  0.000000  0.055734  0.625539  1
  Er  Er6  1  0.000000  0.444300  0.125369  1
  Er  Er7  1  0.000000  0.555700  0.874631  1
  B  B8  1  0.500000  0.553232  0.433764  1
  B  B9  1  0.500000  0.446768  0.566236  1
  B  B10  1  0.500000  0.053342  0.066191  1
  B  B11  1  0.500000  0.946658  0.933809  1
  B  B12  1  0.500000  0.749282  0.420769  1
  B  B13  1  0.500000  0.250718  0.579231  1
  B  B14  1  0.500000  0.249819  0.079181  1
  B  B15  1  0.500000  0.750181  0.920819  1
  B  B16  1  0.500000  0.793151  0.265426  1
  B  B17  1  0.500000  0.206849  0.734574  1
  B  B18  1  0.500000  0.293620  0.234322  1
  B  B19  1  0.500000  0.706380  0.765678  1
  B  B20  1  0.500000  0.632057  0.184210  1
  B  B21  1  0.500000  0.367943  0.815790  1
  B  B22  1  0.500000  0.132499  0.315509  1
  B  B23  1  0.500000  0.867501  0.684491  1
  B  B24  1  0.500000  0.982057  0.212864  1
  B  B25  1  0.500000  0.017943  0.787136  1
  B  B26  1  0.500000  0.481838  0.286783  1
  B  B27  1  0.500000  0.518162  0.713217  1
  B  B28  1  0.500000  0.610258  0.030219  1
  B  B29  1  0.500000  0.389742  0.969781  1
  B  B30  1  0.500000  0.111269  0.469517  1
  B  B31  1  0.500000  0.888731  0.530483  1
  Ir  Ir32  1  0.000000  0.638155  0.321099  1
  Ir  Ir33  1  0.000000  0.361845  0.678901  1
  Ir  Ir34  1  0.000000  0.138879  0.178615  1
  Ir  Ir35  1  0.000000  0.861121  0.821385  1
