# generated using pymatgen
data_Yb2AsRh3
_symmetry_space_group_name_H-M   'P 1'
_cell_length_a   5.05689830
_cell_length_b   5.05689837
_cell_length_c   5.05689918
_cell_angle_alpha   66.60617486
_cell_angle_beta   66.60617117
_cell_angle_gamma   66.60616888
_symmetry_Int_Tables_number   1
_chemical_formula_structural   Yb2AsRh3
_chemical_formula_sum   'Yb2 As1 Rh3'
_cell_volume   104.43782674
_cell_formula_units_Z   1
loop_
 _symmetry_equiv_pos_site_id
 _symmetry_equiv_pos_as_xyz
  1  'x, y, z'
loop_
 _atom_site_type_symbol
 _atom_site_label
 _atom_site_symmetry_multiplicity
 _atom_site_fract_x
 _atom_site_fract_y
 _atom_site_fract_z
 _atom_site_occupancy
  Yb  Yb0  1  0.752606  0.752606  0.752606  1
  Yb  Yb1  1  0.497394  0.497394  0.497394  1
  As  As2  1  0.125000  0.125000  0.125000  1
  Rh  Rh3  1  0.125000  0.625000  0.125000  1
  Rh  Rh4  1  0.125000  0.125000  0.625000  1
  Rh  Rh5  1  0.625000  0.125000  0.125000  1
