# generated using pymatgen
data_LaPa(GeRh)2
_symmetry_space_group_name_H-M   'P 1'
_cell_length_a   4.43441100
_cell_length_b   7.59282828
_cell_length_c   7.47634188
_cell_angle_alpha   93.39368486
_cell_angle_beta   90.00000000
_cell_angle_gamma   90.00000000
_symmetry_Int_Tables_number   1
_chemical_formula_structural   LaPa(GeRh)2
_chemical_formula_sum   'La2 Pa2 Ge4 Rh4'
_cell_volume   251.28490931
_cell_formula_units_Z   2
loop_
 _symmetry_equiv_pos_site_id
 _symmetry_equiv_pos_as_xyz
  1  'x, y, z'
loop_
 _atom_site_type_symbol
 _atom_site_label
 _atom_site_symmetry_multiplicity
 _atom_site_fract_x
 _atom_site_fract_y
 _atom_site_fract_z
 _atom_site_occupancy
  La  La0  1  0.250000  0.994764  0.764296  1
  La  La1  1  0.750000  0.005236  0.235704  1
  Pa  Pa2  1  0.250000  0.503018  0.696063  1
  Pa  Pa3  1  0.750000  0.496982  0.303937  1
  Ge  Ge4  1  0.250000  0.287725  0.085349  1
  Ge  Ge5  1  0.750000  0.712275  0.914651  1
  Ge  Ge6  1  0.250000  0.781927  0.392867  1
  Ge  Ge7  1  0.750000  0.218073  0.607133  1
  Rh  Rh8  1  0.750000  0.734820  0.567755  1
  Rh  Rh9  1  0.250000  0.265180  0.432245  1
  Rh  Rh10  1  0.750000  0.370125  0.940449  1
  Rh  Rh11  1  0.250000  0.629875  0.059551  1
