# generated using pymatgen
data_Li2La3Tc3(P3Ir4)4
_symmetry_space_group_name_H-M   'P 1'
_cell_length_a   12.65135600
_cell_length_b   12.65135814
_cell_length_c   4.04645100
_cell_angle_alpha   90.00000000
_cell_angle_beta   90.00000000
_cell_angle_gamma   120.00000487
_symmetry_Int_Tables_number   1
_chemical_formula_structural   Li2La3Tc3(P3Ir4)4
_chemical_formula_sum   'Li2 La3 Tc3 P12 Ir16'
_cell_volume   560.89184112
_cell_formula_units_Z   1
loop_
 _symmetry_equiv_pos_site_id
 _symmetry_equiv_pos_as_xyz
  1  'x, y, z'
loop_
 _atom_site_type_symbol
 _atom_site_label
 _atom_site_symmetry_multiplicity
 _atom_site_fract_x
 _atom_site_fract_y
 _atom_site_fract_z
 _atom_site_occupancy
  Li  Li0  1  0.333333  0.666667  0.000000  1
  Li  Li1  1  0.666667  0.333333  0.000000  1
  La  La2  1  0.000000  0.818129  0.500000  1
  La  La3  1  0.181871  0.181871  0.500000  1
  La  La4  1  0.818129  0.000000  0.500000  1
  Tc  Tc5  1  0.000000  0.298517  0.500000  1
  Tc  Tc6  1  0.701483  0.701483  0.500000  1
  Tc  Tc7  1  0.298517  0.000000  0.500000  1
  P  P8  1  0.000000  0.188939  0.000000  1
  P  P9  1  0.811061  0.811061  0.000000  1
  P  P10  1  0.188939  0.000000  0.000000  1
  P  P11  1  0.512481  0.691718  0.500000  1
  P  P12  1  0.308282  0.820762  0.500000  1
  P  P13  1  0.179238  0.487519  0.500000  1
  P  P14  1  0.487519  0.179238  0.500000  1
  P  P15  1  0.691718  0.512481  0.500000  1
  P  P16  1  0.820762  0.308282  0.500000  1
  P  P17  1  0.000000  0.633732  0.000000  1
  P  P18  1  0.366268  0.366268  0.000000  1
  P  P19  1  0.633732  0.000000  0.000000  1
  Ir  Ir20  1  0.617546  0.802067  0.000000  1
  Ir  Ir21  1  0.197933  0.815478  0.000000  1
  Ir  Ir22  1  0.184522  0.382454  0.000000  1
  Ir  Ir23  1  0.382454  0.184522  0.000000  1
  Ir  Ir24  1  0.802067  0.617546  0.000000  1
  Ir  Ir25  1  0.815478  0.197933  0.000000  1
  Ir  Ir26  1  0.506485  0.870277  0.500000  1
  Ir  Ir27  1  0.129723  0.636209  0.500000  1
  Ir  Ir28  1  0.363791  0.493515  0.500000  1
  Ir  Ir29  1  0.493515  0.363791  0.500000  1
  Ir  Ir30  1  0.870277  0.506485  0.500000  1
  Ir  Ir31  1  0.636209  0.129723  0.500000  1
  Ir  Ir32  1  0.000000  0.000000  0.000000  1
  Ir  Ir33  1  0.000000  0.454527  0.000000  1
  Ir  Ir34  1  0.545473  0.545473  0.000000  1
  Ir  Ir35  1  0.454527  0.000000  0.000000  1
