# generated using pymatgen
data_Mg3GeP6N13
_symmetry_space_group_name_H-M   'P 1'
_cell_length_a   7.08689648
_cell_length_b   7.08689742
_cell_length_c   7.08689657
_cell_angle_alpha   109.49417722
_cell_angle_beta   109.49417649
_cell_angle_gamma   109.49417543
_symmetry_Int_Tables_number   1
_chemical_formula_structural   Mg3GeP6N13
_chemical_formula_sum   'Mg3 Ge1 P6 N13'
_cell_volume   273.76427619
_cell_formula_units_Z   1
loop_
 _symmetry_equiv_pos_site_id
 _symmetry_equiv_pos_as_xyz
  1  'x, y, z'
loop_
 _atom_site_type_symbol
 _atom_site_label
 _atom_site_symmetry_multiplicity
 _atom_site_fract_x
 _atom_site_fract_y
 _atom_site_fract_z
 _atom_site_occupancy
  Mg  Mg0  1  0.001660  0.702410  0.001660  1
  Mg  Mg1  1  0.702410  0.001660  0.001660  1
  Mg  Mg2  1  0.001660  0.001660  0.702410  1
  Ge  Ge3  1  0.280017  0.280017  0.280017  1
  P  P4  1  0.499736  0.250138  0.751340  1
  P  P5  1  0.499736  0.751340  0.250138  1
  P  P6  1  0.751340  0.250138  0.499736  1
  P  P7  1  0.250138  0.499736  0.751340  1
  P  P8  1  0.751340  0.499736  0.250138  1
  P  P9  1  0.250138  0.751340  0.499736  1
  N  N10  1  0.006335  0.006335  0.006335  1
  N  N11  1  0.000366  0.732043  0.453223  1
  N  N12  1  0.267576  0.718807  0.267576  1
  N  N13  1  0.282091  0.549088  0.549088  1
  N  N14  1  0.549088  0.549088  0.282091  1
  N  N15  1  0.549088  0.282091  0.549088  1
  N  N16  1  0.732043  0.000366  0.453223  1
  N  N17  1  0.453223  0.000366  0.732043  1
  N  N18  1  0.732043  0.453223  0.000366  1
  N  N19  1  0.267576  0.267576  0.718807  1
  N  N20  1  0.718807  0.267576  0.267576  1
  N  N21  1  0.000366  0.453223  0.732043  1
  N  N22  1  0.453223  0.732043  0.000366  1
