# generated using pymatgen
data_Ac(GaHg)2
_symmetry_space_group_name_H-M   'P 1'
_cell_length_a   6.45302700
_cell_length_b   6.45302715
_cell_length_c   6.45302822
_cell_angle_alpha   137.07130771
_cell_angle_beta   137.07130554
_cell_angle_gamma   62.32835768
_symmetry_Int_Tables_number   1
_chemical_formula_structural   Ac(GaHg)2
_chemical_formula_sum   'Ac1 Ga2 Hg2'
_cell_volume   123.15255840
_cell_formula_units_Z   1
loop_
 _symmetry_equiv_pos_site_id
 _symmetry_equiv_pos_as_xyz
  1  'x, y, z'
loop_
 _atom_site_type_symbol
 _atom_site_label
 _atom_site_symmetry_multiplicity
 _atom_site_fract_x
 _atom_site_fract_y
 _atom_site_fract_z
 _atom_site_occupancy
  Ac  Ac0  1  0.000000  0.000000  0.000000  1
  Ga  Ga1  1  0.386207  0.386207  0.000000  1
  Ga  Ga2  1  0.613793  0.613793  0.000000  1
  Hg  Hg3  1  0.250000  0.750000  0.500000  1
  Hg  Hg4  1  0.750000  0.250000  0.500000  1
