# generated using pymatgen
data_YMnGaO4
_symmetry_space_group_name_H-M   'P 1'
_cell_length_a   11.17937300
_cell_length_b   5.20450900
_cell_length_c   6.46504800
_cell_angle_alpha   90.00001101
_cell_angle_beta   89.99996412
_cell_angle_gamma   89.99988991
_symmetry_Int_Tables_number   1
_chemical_formula_structural   YMnGaO4
_chemical_formula_sum   'Y4 Mn4 Ga4 O16'
_cell_volume   376.15684069
_cell_formula_units_Z   4
loop_
 _symmetry_equiv_pos_site_id
 _symmetry_equiv_pos_as_xyz
  1  'x, y, z'
loop_
 _atom_site_type_symbol
 _atom_site_label
 _atom_site_symmetry_multiplicity
 _atom_site_fract_x
 _atom_site_fract_y
 _atom_site_fract_z
 _atom_site_occupancy
  Y  Y0  1  0.223744  0.506526  0.237119  1
  Y  Y1  1  0.776256  0.493475  0.737119  1
  Y  Y2  1  0.276257  0.006526  0.737118  1
  Y  Y3  1  0.723744  0.993475  0.237118  1
  Mn  Mn4  1  0.500080  0.499773  0.487232  1
  Mn  Mn5  1  0.499920  0.500226  0.987232  1
  Mn  Mn6  1  0.999920  0.999775  0.987234  1
  Mn  Mn7  1  0.000080  0.000226  0.487234  1
  Ga  Ga8  1  0.410927  0.062542  0.237162  1
  Ga  Ga9  1  0.589074  0.937458  0.737162  1
  Ga  Ga10  1  0.089074  0.562542  0.737163  1
  Ga  Ga11  1  0.910926  0.437458  0.237163  1
  O  O12  1  0.409879  0.712651  0.237088  1
  O  O13  1  0.590120  0.287348  0.737089  1
  O  O14  1  0.090120  0.212652  0.737089  1
  O  O15  1  0.909880  0.787348  0.237088  1
  O  O16  1  0.164429  0.735191  0.514920  1
  O  O17  1  0.835571  0.264810  0.014921  1
  O  O18  1  0.335571  0.235191  0.014919  1
  O  O19  1  0.664430  0.764810  0.514919  1
  O  O20  1  0.335580  0.235240  0.459370  1
  O  O21  1  0.664421  0.764759  0.959371  1
  O  O22  1  0.164420  0.735241  0.959371  1
  O  O23  1  0.835580  0.264760  0.459371  1
  O  O24  1  0.558466  0.236528  0.237109  1
  O  O25  1  0.441534  0.763469  0.737109  1
  O  O26  1  0.941534  0.736531  0.737110  1
  O  O27  1  0.058466  0.263470  0.237110  1
