# generated using pymatgen
data_HoHf8Sc5Ga8Ir7
_symmetry_space_group_name_H-M   'P 1'
_cell_length_a   9.11556717
_cell_length_b   9.11556702
_cell_length_c   9.16517900
_cell_angle_alpha   59.81979416
_cell_angle_beta   59.81979473
_cell_angle_gamma   60.36039960
_symmetry_Int_Tables_number   1
_chemical_formula_structural   HoHf8Sc5Ga8Ir7
_chemical_formula_sum   'Ho1 Hf8 Sc5 Ga8 Ir7'
_cell_volume   538.47733644
_cell_formula_units_Z   1
loop_
 _symmetry_equiv_pos_site_id
 _symmetry_equiv_pos_as_xyz
  1  'x, y, z'
loop_
 _atom_site_type_symbol
 _atom_site_label
 _atom_site_symmetry_multiplicity
 _atom_site_fract_x
 _atom_site_fract_y
 _atom_site_fract_z
 _atom_site_occupancy
  Ho  Ho0  1  0.684962  0.684962  0.315038  1
  Hf  Hf1  1  0.874241  0.874241  0.378609  1
  Hf  Hf2  1  0.876056  0.376445  0.873750  1
  Hf  Hf3  1  0.376445  0.876056  0.873750  1
  Hf  Hf4  1  0.874241  0.874241  0.872910  1
  Hf  Hf5  1  0.126250  0.126250  0.623555  1
  Hf  Hf6  1  0.127090  0.621391  0.125759  1
  Hf  Hf7  1  0.621391  0.127090  0.125759  1
  Hf  Hf8  1  0.126250  0.126250  0.123944  1
  Sc  Sc9  1  0.310466  0.688529  0.311471  1
  Sc  Sc10  1  0.688529  0.310466  0.311471  1
  Sc  Sc11  1  0.317033  0.317033  0.682967  1
  Sc  Sc12  1  0.688529  0.310466  0.689534  1
  Sc  Sc13  1  0.310466  0.688529  0.689534  1
  Ga  Ga14  1  0.652177  0.652177  0.036073  1
  Ga  Ga15  1  0.653429  0.042162  0.652205  1
  Ga  Ga16  1  0.042162  0.653429  0.652205  1
  Ga  Ga17  1  0.652177  0.652177  0.659574  1
  Ga  Ga18  1  0.347795  0.347795  0.957838  1
  Ga  Ga19  1  0.340426  0.963927  0.347823  1
  Ga  Ga20  1  0.963927  0.340426  0.347823  1
  Ga  Ga21  1  0.347795  0.347795  0.346571  1
  Ir  Ir22  1  0.999746  0.999746  0.000254  1
  Ir  Ir23  1  0.999318  0.999318  0.500682  1
  Ir  Ir24  1  0.499441  0.000450  0.500559  1
  Ir  Ir25  1  0.000450  0.499441  0.500559  1
  Ir  Ir26  1  0.499318  0.499318  0.000682  1
  Ir  Ir27  1  0.000450  0.499441  0.999550  1
  Ir  Ir28  1  0.499441  0.000450  0.999550  1
