# generated using pymatgen
data_Dy2HoMg3Si2Au
_symmetry_space_group_name_H-M   'P 1'
_cell_length_a   7.24226700
_cell_length_b   7.22910575
_cell_length_c   4.28997700
_cell_angle_alpha   90.00000000
_cell_angle_beta   90.00000000
_cell_angle_gamma   120.06024755
_symmetry_Int_Tables_number   1
_chemical_formula_structural   Dy2HoMg3Si2Au
_chemical_formula_sum   'Dy2 Ho1 Mg3 Si2 Au1'
_cell_volume   194.39304710
_cell_formula_units_Z   1
loop_
 _symmetry_equiv_pos_site_id
 _symmetry_equiv_pos_as_xyz
  1  'x, y, z'
loop_
 _atom_site_type_symbol
 _atom_site_label
 _atom_site_symmetry_multiplicity
 _atom_site_fract_x
 _atom_site_fract_y
 _atom_site_fract_z
 _atom_site_occupancy
  Dy  Dy0  1  0.000342  0.582892  0.000000  1
  Dy  Dy1  1  0.417449  0.417108  0.000000  1
  Ho  Ho2  1  0.583071  0.000000  0.000000  1
  Mg  Mg3  1  0.247445  0.000000  0.500000  1
  Mg  Mg4  1  0.999735  0.247064  0.500000  1
  Mg  Mg5  1  0.752671  0.752936  0.500000  1
  Si  Si6  1  0.333529  0.667154  0.500000  1
  Si  Si7  1  0.666377  0.332846  0.500000  1
  Au  Au8  1  0.999380  0.000000  0.000000  1
