# generated using pymatgen
data_PaMoF10
_symmetry_space_group_name_H-M   'P 1'
_cell_length_a   9.30631213
_cell_length_b   9.30631208
_cell_length_c   5.57438822
_cell_angle_alpha   88.18705191
_cell_angle_beta   88.18705235
_cell_angle_gamma   113.06109834
_symmetry_Int_Tables_number   1
_chemical_formula_structural   PaMoF10
_chemical_formula_sum   'Pa2 Mo2 F20'
_cell_volume   443.47167007
_cell_formula_units_Z   2
loop_
 _symmetry_equiv_pos_site_id
 _symmetry_equiv_pos_as_xyz
  1  'x, y, z'
loop_
 _atom_site_type_symbol
 _atom_site_label
 _atom_site_symmetry_multiplicity
 _atom_site_fract_x
 _atom_site_fract_y
 _atom_site_fract_z
 _atom_site_occupancy
  Pa  Pa0  1  0.797448  0.202552  0.000000  1
  Pa  Pa1  1  0.202552  0.797448  0.000000  1
  Mo  Mo2  1  0.744013  0.744013  0.739023  1
  Mo  Mo3  1  0.255987  0.255987  0.260977  1
  F  F4  1  0.859713  0.859713  0.468774  1
  F  F5  1  0.140287  0.140287  0.531226  1
  F  F6  1  0.672388  0.672388  0.052785  1
  F  F7  1  0.327612  0.327612  0.947215  1
  F  F8  1  0.548538  0.723970  0.630196  1
  F  F9  1  0.276030  0.451462  0.369804  1
  F  F10  1  0.451462  0.276030  0.369804  1
  F  F11  1  0.723970  0.548538  0.630196  1
  F  F12  1  0.776546  0.963828  0.866767  1
  F  F13  1  0.036172  0.223454  0.133233  1
  F  F14  1  0.223454  0.036172  0.133233  1
  F  F15  1  0.963828  0.776546  0.866767  1
  F  F16  1  0.908945  0.294434  0.674429  1
  F  F17  1  0.705566  0.091055  0.325571  1
  F  F18  1  0.091055  0.705566  0.325571  1
  F  F19  1  0.294434  0.908945  0.674429  1
  F  F20  1  0.579806  0.167062  0.879846  1
  F  F21  1  0.832938  0.420194  0.120154  1
  F  F22  1  0.420194  0.832938  0.120154  1
  F  F23  1  0.167062  0.579806  0.879846  1
