# generated using pymatgen
data_Ce2FeIrRu2
_symmetry_space_group_name_H-M   'P 1'
_cell_length_a   5.11931829
_cell_length_b   5.08878393
_cell_length_c   5.11931870
_cell_angle_alpha   65.91544644
_cell_angle_beta   65.73954596
_cell_angle_gamma   65.91544793
_symmetry_Int_Tables_number   1
_chemical_formula_structural   Ce2FeIrRu2
_chemical_formula_sum   'Ce2 Fe1 Ir1 Ru2'
_cell_volume   106.27015227
_cell_formula_units_Z   1
loop_
 _symmetry_equiv_pos_site_id
 _symmetry_equiv_pos_as_xyz
  1  'x, y, z'
loop_
 _atom_site_type_symbol
 _atom_site_label
 _atom_site_symmetry_multiplicity
 _atom_site_fract_x
 _atom_site_fract_y
 _atom_site_fract_z
 _atom_site_occupancy
  Ce  Ce0  1  0.625625  0.630009  0.625625  1
  Ce  Ce1  1  0.374375  0.369991  0.374375  1
  Fe  Fe2  1  0.000000  0.000000  0.000000  1
  Ir  Ir3  1  0.000000  0.500000  0.000000  1
  Ru  Ru4  1  0.500000  0.000000  0.000000  1
  Ru  Ru5  1  0.000000  0.000000  0.500000  1
