# generated using pymatgen
data_YbZrI26
_symmetry_space_group_name_H-M   'P 1'
_cell_length_a   13.17738934
_cell_length_b   11.73217293
_cell_length_c   15.73189193
_cell_angle_alpha   125.16770188
_cell_angle_beta   83.70836310
_cell_angle_gamma   107.67900746
_symmetry_Int_Tables_number   1
_chemical_formula_structural   YbZrI26
_chemical_formula_sum   'Yb1 Zr1 I26'
_cell_volume   1887.63021583
_cell_formula_units_Z   1
loop_
 _symmetry_equiv_pos_site_id
 _symmetry_equiv_pos_as_xyz
  1  'x, y, z'
loop_
 _atom_site_type_symbol
 _atom_site_label
 _atom_site_symmetry_multiplicity
 _atom_site_fract_x
 _atom_site_fract_y
 _atom_site_fract_z
 _atom_site_occupancy
  Yb  Yb0  1  0.317394  0.859505  0.941437  1
  Zr  Zr1  1  0.664255  0.129850  0.051645  1
  I  I2  1  0.378956  0.658128  0.984219  1
  I  I3  1  0.616626  0.332751  0.023214  1
  I  I4  1  0.586360  0.847183  0.422636  1
  I  I5  1  0.429619  0.192904  0.615635  1
  I  I6  1  0.731761  0.707017  0.011964  1
  I  I7  1  0.266342  0.295101  0.990154  1
  I  I8  1  0.708917  0.992791  0.150195  1
  I  I9  1  0.288364  0.016173  0.839056  1
  I  I10  1  0.458653  0.146338  0.141340  1
  I  I11  1  0.563295  0.860021  0.869560  1
  I  I12  1  0.242080  0.639802  0.702380  1
  I  I13  1  0.762305  0.363744  0.268593  1
  I  I14  1  0.091380  0.813444  0.005366  1
  I  I15  1  0.859168  0.161874  0.971900  1
  I  I16  1  0.064818  0.088971  0.211179  1
  I  I17  1  0.904364  0.847219  0.735925  1
  I  I18  1  0.279623  0.909385  0.468134  1
  I  I19  1  0.745614  0.124058  0.563156  1
  I  I20  1  0.335870  0.415125  0.652021  1
  I  I21  1  0.673983  0.611232  0.352302  1
  I  I22  1  0.885032  0.416881  0.722252  1
  I  I23  1  0.141153  0.616338  0.310741  1
  I  I24  1  0.953363  0.607662  0.557811  1
  I  I25  1  0.036833  0.325251  0.416071  1
  I  I26  1  0.252917  0.624086  0.137218  1
  I  I27  1  0.760953  0.397166  0.883897  1
