# generated using pymatgen
data_Tb8ReTc3C8
_symmetry_space_group_name_H-M   'P 1'
_cell_length_a   5.14529600
_cell_length_b   6.59693203
_cell_length_c   9.93259205
_cell_angle_alpha   89.98920163
_cell_angle_beta   90.00000000
_cell_angle_gamma   90.00000000
_symmetry_Int_Tables_number   1
_chemical_formula_structural   Tb8ReTc3C8
_chemical_formula_sum   'Tb8 Re1 Tc3 C8'
_cell_volume   337.14363427
_cell_formula_units_Z   1
loop_
 _symmetry_equiv_pos_site_id
 _symmetry_equiv_pos_as_xyz
  1  'x, y, z'
loop_
 _atom_site_type_symbol
 _atom_site_label
 _atom_site_symmetry_multiplicity
 _atom_site_fract_x
 _atom_site_fract_y
 _atom_site_fract_z
 _atom_site_occupancy
  Tb  Tb0  1  0.750000  0.820063  0.056237  1
  Tb  Tb1  1  0.250000  0.679017  0.555980  1
  Tb  Tb2  1  0.750000  0.320661  0.443304  1
  Tb  Tb3  1  0.250000  0.180685  0.943249  1
  Tb  Tb4  1  0.750000  0.468107  0.783867  1
  Tb  Tb5  1  0.250000  0.031001  0.284356  1
  Tb  Tb6  1  0.750000  0.968416  0.715464  1
  Tb  Tb7  1  0.250000  0.530778  0.215447  1
  Re  Re8  1  0.250000  0.721609  0.864634  1
  Tc  Tc9  1  0.750000  0.278816  0.135393  1
  Tc  Tc10  1  0.250000  0.221734  0.635572  1
  Tc  Tc11  1  0.750000  0.778956  0.364289  1
  C  C12  1  0.750000  0.179393  0.953510  1
  C  C13  1  0.250000  0.819787  0.047654  1
  C  C14  1  0.750000  0.679824  0.546375  1
  C  C15  1  0.250000  0.320088  0.453509  1
  C  C16  1  0.750000  0.045246  0.258183  1
  C  C17  1  0.250000  0.455804  0.759384  1
  C  C18  1  0.750000  0.545558  0.241493  1
  C  C19  1  0.250000  0.954460  0.742098  1
