# generated using pymatgen
data_Tb11YZnCo4Bi
_symmetry_space_group_name_H-M   'P 1'
_cell_length_a   8.41152791
_cell_length_b   8.41152779
_cell_length_c   8.38643795
_cell_angle_alpha   111.66537625
_cell_angle_beta   109.37963011
_cell_angle_gamma   107.52249138
_symmetry_Int_Tables_number   1
_chemical_formula_structural   Tb11YZnCo4Bi
_chemical_formula_sum   'Tb11 Y1 Zn1 Co4 Bi1'
_cell_volume   455.45992980
_cell_formula_units_Z   1
loop_
 _symmetry_equiv_pos_site_id
 _symmetry_equiv_pos_as_xyz
  1  'x, y, z'
loop_
 _atom_site_type_symbol
 _atom_site_label
 _atom_site_symmetry_multiplicity
 _atom_site_fract_x
 _atom_site_fract_y
 _atom_site_fract_z
 _atom_site_occupancy
  Tb  Tb0  1  0.182117  0.287580  0.469696  1
  Tb  Tb1  1  0.181970  0.712397  0.894368  1
  Tb  Tb2  1  0.817787  0.287535  0.105320  1
  Tb  Tb3  1  0.685510  0.377783  0.692365  1
  Tb  Tb4  1  0.314677  0.622313  0.307717  1
  Tb  Tb5  1  0.685405  0.993039  0.307717  1
  Tb  Tb6  1  0.314582  0.006857  0.692365  1
  Tb  Tb7  1  0.576716  0.782909  0.794116  1
  Tb  Tb8  1  0.423221  0.217152  0.205917  1
  Tb  Tb9  1  0.988765  0.782698  0.205917  1
  Tb  Tb10  1  0.011207  0.217399  0.794116  1
  Y  Y11  1  0.817127  0.713092  0.530219  1
  Zn  Zn12  1  0.999950  0.999767  0.999718  1
  Co  Co13  1  0.624233  0.999274  0.623507  1
  Co  Co14  1  0.375823  0.000419  0.376242  1
  Co  Co15  1  0.112514  0.611957  0.500251  1
  Co  Co16  1  0.888294  0.387737  0.500251  1
  Bi  Bi17  1  0.500103  0.500093  0.000196  1
