# generated using pymatgen
data_Er4Tm6Si5Ge
_symmetry_space_group_name_H-M   'P 1'
_cell_length_a   8.35085304
_cell_length_b   8.35085315
_cell_length_c   6.25555200
_cell_angle_alpha   90.00000000
_cell_angle_beta   90.00000000
_cell_angle_gamma   120.02267795
_symmetry_Int_Tables_number   1
_chemical_formula_structural   Er4Tm6Si5Ge
_chemical_formula_sum   'Er4 Tm6 Si5 Ge1'
_cell_volume   377.71016134
_cell_formula_units_Z   1
loop_
 _symmetry_equiv_pos_site_id
 _symmetry_equiv_pos_as_xyz
  1  'x, y, z'
loop_
 _atom_site_type_symbol
 _atom_site_label
 _atom_site_symmetry_multiplicity
 _atom_site_fract_x
 _atom_site_fract_y
 _atom_site_fract_z
 _atom_site_occupancy
  Er  Er0  1  0.758179  0.758179  0.250000  1
  Er  Er1  1  0.242310  0.242310  0.750000  1
  Er  Er2  1  0.757140  0.999973  0.750000  1
  Er  Er3  1  0.999973  0.757140  0.750000  1
  Tm  Tm4  1  0.667520  0.333148  0.500660  1
  Tm  Tm5  1  0.333148  0.667520  0.500660  1
  Tm  Tm6  1  0.333148  0.667520  0.999340  1
  Tm  Tm7  1  0.667520  0.333148  0.999340  1
  Tm  Tm8  1  0.242432  0.998804  0.250000  1
  Tm  Tm9  1  0.998804  0.242432  0.250000  1
  Si  Si10  1  0.605984  0.000057  0.250000  1
  Si  Si11  1  0.000057  0.605984  0.250000  1
  Si  Si12  1  0.606185  0.606185  0.750000  1
  Si  Si13  1  0.394046  0.000094  0.750000  1
  Si  Si14  1  0.000094  0.394046  0.750000  1
  Ge  Ge15  1  0.393459  0.393459  0.250000  1
