# generated using pymatgen
data_Ce2PrMg3Ir2Pd
_symmetry_space_group_name_H-M   'P 1'
_cell_length_a   7.62267534
_cell_length_b   7.40638736
_cell_length_c   4.02544800
_cell_angle_alpha   90.00000000
_cell_angle_beta   90.00000000
_cell_angle_gamma   119.06573522
_symmetry_Int_Tables_number   1
_chemical_formula_structural   Ce2PrMg3Ir2Pd
_chemical_formula_sum   'Ce2 Pr1 Mg3 Ir2 Pd1'
_cell_volume   198.64185355
_cell_formula_units_Z   1
loop_
 _symmetry_equiv_pos_site_id
 _symmetry_equiv_pos_as_xyz
  1  'x, y, z'
loop_
 _atom_site_type_symbol
 _atom_site_label
 _atom_site_symmetry_multiplicity
 _atom_site_fract_x
 _atom_site_fract_y
 _atom_site_fract_z
 _atom_site_occupancy
  Ce  Ce0  1  0.575587  0.002361  0.500000  1
  Ce  Ce1  1  0.424413  0.426775  0.500000  1
  Pr  Pr2  1  0.000000  0.581900  0.500000  1
  Mg  Mg3  1  0.758979  0.760003  0.000000  1
  Mg  Mg4  1  0.241021  0.001025  0.000000  1
  Mg  Mg5  1  0.000000  0.244541  0.000000  1
  Ir  Ir6  1  0.643896  0.312858  0.000000  1
  Ir  Ir7  1  0.356104  0.668964  0.000000  1
  Pd  Pd8  1  0.000000  0.001573  0.500000  1
