# generated using pymatgen
data_Li3La8Y9Si16
_symmetry_space_group_name_H-M   'P 1'
_cell_length_a   7.40079627
_cell_length_b   7.87931430
_cell_length_c   15.01516700
_cell_angle_alpha   90.00000000
_cell_angle_beta   90.00000000
_cell_angle_gamma   90.03140889
_symmetry_Int_Tables_number   1
_chemical_formula_structural   Li3La8Y9Si16
_chemical_formula_sum   'Li3 La8 Y9 Si16'
_cell_volume   875.58230347
_cell_formula_units_Z   1
loop_
 _symmetry_equiv_pos_site_id
 _symmetry_equiv_pos_as_xyz
  1  'x, y, z'
loop_
 _atom_site_type_symbol
 _atom_site_label
 _atom_site_symmetry_multiplicity
 _atom_site_fract_x
 _atom_site_fract_y
 _atom_site_fract_z
 _atom_site_occupancy
  Li  Li0  1  0.655137  0.990111  0.750000  1
  Li  Li1  1  0.845456  0.489970  0.250000  1
  Li  Li2  1  0.345306  0.008047  0.250000  1
  La  La3  1  0.025372  0.186336  0.395599  1
  La  La4  1  0.525119  0.314699  0.394924  1
  La  La5  1  0.484401  0.686498  0.899502  1
  La  La6  1  0.484401  0.686498  0.600498  1
  La  La7  1  0.973047  0.824477  0.600949  1
  La  La8  1  0.973047  0.824477  0.899051  1
  La  La9  1  0.525119  0.314699  0.105076  1
  La  La10  1  0.025372  0.186336  0.104401  1
  Y  Y11  1  0.331487  0.174405  0.625507  1
  Y  Y12  1  0.673453  0.816039  0.372379  1
  Y  Y13  1  0.171007  0.680915  0.373975  1
  Y  Y14  1  0.818902  0.311409  0.875165  1
  Y  Y15  1  0.818902  0.311409  0.624835  1
  Y  Y16  1  0.331487  0.174405  0.874493  1
  Y  Y17  1  0.171007  0.680915  0.126025  1
  Y  Y18  1  0.673453  0.816039  0.127621  1
  Y  Y19  1  0.152160  0.506600  0.750000  1
  Si  Si20  1  0.268808  0.882188  0.750000  1
  Si  Si21  1  0.470308  0.598386  0.250000  1
  Si  Si22  1  0.032512  0.109113  0.750000  1
  Si  Si23  1  0.526065  0.401040  0.750000  1
  Si  Si24  1  0.145857  0.471447  0.539135  1
  Si  Si25  1  0.972224  0.902577  0.250000  1
  Si  Si26  1  0.731455  0.109734  0.250000  1
  Si  Si27  1  0.851271  0.534447  0.032848  1
  Si  Si28  1  0.350933  0.965565  0.036209  1
  Si  Si29  1  0.145857  0.471447  0.960865  1
  Si  Si30  1  0.646426  0.034884  0.530111  1
  Si  Si31  1  0.350933  0.965565  0.463791  1
  Si  Si32  1  0.851271  0.534447  0.467152  1
  Si  Si33  1  0.776168  0.608889  0.750000  1
  Si  Si34  1  0.229848  0.391107  0.250000  1
  Si  Si35  1  0.646426  0.034884  0.969889  1
