# generated using pymatgen
data_TbHo3(CuSi3)2
_symmetry_space_group_name_H-M   'P 1'
_cell_length_a   8.00750985
_cell_length_b   7.98945923
_cell_length_c   5.67439959
_cell_angle_alpha   69.39439017
_cell_angle_beta   69.05357982
_cell_angle_gamma   41.55202322
_symmetry_Int_Tables_number   1
_chemical_formula_structural   TbHo3(CuSi3)2
_chemical_formula_sum   'Tb1 Ho3 Cu2 Si6'
_cell_volume   222.78358732
_cell_formula_units_Z   1
loop_
 _symmetry_equiv_pos_site_id
 _symmetry_equiv_pos_as_xyz
  1  'x, y, z'
loop_
 _atom_site_type_symbol
 _atom_site_label
 _atom_site_symmetry_multiplicity
 _atom_site_fract_x
 _atom_site_fract_y
 _atom_site_fract_z
 _atom_site_occupancy
  Tb  Tb0  1  0.243497  0.756503  0.243497  1
  Ho  Ho1  1  0.249995  0.250005  0.249995  1
  Ho  Ho2  1  0.749995  0.750006  0.749994  1
  Ho  Ho3  1  0.756515  0.243485  0.756515  1
  Cu  Cu4  1  0.666762  0.666630  0.333370  1
  Cu  Cu5  1  0.333371  0.333238  0.666761  1
  Si  Si6  1  0.831299  0.831440  0.168559  1
  Si  Si7  1  0.828809  0.340008  0.171194  1
  Si  Si8  1  0.659993  0.171191  0.340010  1
  Si  Si9  1  0.340010  0.828806  0.659992  1
  Si  Si10  1  0.171195  0.659990  0.828809  1
  Si  Si11  1  0.168560  0.168702  0.831298  1
