# generated using pymatgen
data_La7Nd9(HgIr)4
_symmetry_space_group_name_H-M   'P 1'
_cell_length_a   9.98174062
_cell_length_b   9.99984998
_cell_length_c   10.03093846
_cell_angle_alpha   59.77758028
_cell_angle_beta   60.07274390
_cell_angle_gamma   60.26592309
_symmetry_Int_Tables_number   1
_chemical_formula_structural   La7Nd9(HgIr)4
_chemical_formula_sum   'La7 Nd9 Hg4 Ir4'
_cell_volume   708.58449864
_cell_formula_units_Z   1
loop_
 _symmetry_equiv_pos_site_id
 _symmetry_equiv_pos_as_xyz
  1  'x, y, z'
loop_
 _atom_site_type_symbol
 _atom_site_label
 _atom_site_symmetry_multiplicity
 _atom_site_fract_x
 _atom_site_fract_y
 _atom_site_fract_z
 _atom_site_occupancy
  La  La0  1  0.347420  0.348674  0.351671  1
  La  La1  1  0.350203  0.346413  0.952867  1
  La  La2  1  0.351671  0.952235  0.347420  1
  La  La3  1  0.952867  0.350516  0.350203  1
  La  La4  1  0.809579  0.191146  0.187755  1
  La  La5  1  0.187755  0.811520  0.809579  1
  La  La6  1  0.189833  0.810167  0.189833  1
  Nd  Nd7  1  0.806830  0.193170  0.806830  1
  Nd  Nd8  1  0.191104  0.195974  0.805097  1
  Nd  Nd9  1  0.805097  0.807825  0.191104  1
  Nd  Nd10  1  0.935717  0.564947  0.564050  1
  Nd  Nd11  1  0.564050  0.935287  0.935717  1
  Nd  Nd12  1  0.562870  0.937130  0.562870  1
  Nd  Nd13  1  0.937678  0.562322  0.937678  1
  Nd  Nd14  1  0.562041  0.560981  0.938560  1
  Nd  Nd15  1  0.938560  0.938418  0.562041  1
  Hg  Hg16  1  0.586183  0.583184  0.583703  1
  Hg  Hg17  1  0.586123  0.584989  0.246292  1
  Hg  Hg18  1  0.583703  0.246928  0.586183  1
  Hg  Hg19  1  0.246292  0.582595  0.586123  1
  Ir  Ir20  1  0.138585  0.139001  0.145101  1
  Ir  Ir21  1  0.144345  0.135776  0.576388  1
  Ir  Ir22  1  0.145101  0.577312  0.138585  1
  Ir  Ir23  1  0.576388  0.143490  0.144345  1
