# generated using pymatgen
data_LiCaYbPd2
_symmetry_space_group_name_H-M   'P 1'
_cell_length_a   5.77421101
_cell_length_b   5.77421105
_cell_length_c   7.82590589
_cell_angle_alpha   77.73110767
_cell_angle_beta   77.73110974
_cell_angle_gamma   57.90651525
_symmetry_Int_Tables_number   1
_chemical_formula_structural   LiCaYbPd2
_chemical_formula_sum   'Li2 Ca2 Yb2 Pd4'
_cell_volume   214.43556765
_cell_formula_units_Z   2
loop_
 _symmetry_equiv_pos_site_id
 _symmetry_equiv_pos_as_xyz
  1  'x, y, z'
loop_
 _atom_site_type_symbol
 _atom_site_label
 _atom_site_symmetry_multiplicity
 _atom_site_fract_x
 _atom_site_fract_y
 _atom_site_fract_z
 _atom_site_occupancy
  Li  Li0  1  0.859662  0.140338  0.250000  1
  Li  Li1  1  0.127508  0.872492  0.750000  1
  Ca  Ca2  1  0.493915  0.205561  0.652526  1
  Ca  Ca3  1  0.794439  0.506085  0.847474  1
  Yb  Yb4  1  0.509030  0.793746  0.347595  1
  Yb  Yb5  1  0.206254  0.490970  0.152405  1
  Pd  Pd6  1  0.733922  0.000786  0.009284  1
  Pd  Pd7  1  0.999214  0.266078  0.490716  1
  Pd  Pd8  1  0.263184  0.987128  0.006791  1
  Pd  Pd9  1  0.012872  0.736816  0.493209  1
