# generated using pymatgen
data_DyY3(Re3Tc)2
_symmetry_space_group_name_H-M   'P 1'
_cell_length_a   5.39001000
_cell_length_b   5.39001086
_cell_length_c   8.98106800
_cell_angle_alpha   90.00000000
_cell_angle_beta   90.00000000
_cell_angle_gamma   120.00000701
_symmetry_Int_Tables_number   1
_chemical_formula_structural   DyY3(Re3Tc)2
_chemical_formula_sum   'Dy1 Y3 Re6 Tc2'
_cell_volume   225.96324175
_cell_formula_units_Z   1
loop_
 _symmetry_equiv_pos_site_id
 _symmetry_equiv_pos_as_xyz
  1  'x, y, z'
loop_
 _atom_site_type_symbol
 _atom_site_label
 _atom_site_symmetry_multiplicity
 _atom_site_fract_x
 _atom_site_fract_y
 _atom_site_fract_z
 _atom_site_occupancy
  Dy  Dy0  1  0.333333  0.666667  0.436937  1
  Y  Y1  1  0.666667  0.333333  0.563032  1
  Y  Y2  1  0.666667  0.333333  0.936918  1
  Y  Y3  1  0.333333  0.666667  0.063203  1
  Re  Re4  1  0.828744  0.171256  0.250227  1
  Re  Re5  1  0.828744  0.657488  0.250227  1
  Re  Re6  1  0.342512  0.171256  0.250227  1
  Re  Re7  1  0.171344  0.828656  0.749870  1
  Re  Re8  1  0.171344  0.342689  0.749870  1
  Re  Re9  1  0.657311  0.828656  0.749870  1
  Tc  Tc10  1  0.000000  0.000000  0.499919  1
  Tc  Tc11  1  0.000000  0.000000  0.999701  1
