# generated using pymatgen
data_Er5Tc3(Ni4P3)4
_symmetry_space_group_name_H-M   'P 1'
_cell_length_a   12.01003300
_cell_length_b   12.01003266
_cell_length_c   3.69953900
_cell_angle_alpha   90.00000000
_cell_angle_beta   90.00000000
_cell_angle_gamma   120.00000368
_symmetry_Int_Tables_number   1
_chemical_formula_structural   Er5Tc3(Ni4P3)4
_chemical_formula_sum   'Er5 Tc3 Ni16 P12'
_cell_volume   462.13260950
_cell_formula_units_Z   1
loop_
 _symmetry_equiv_pos_site_id
 _symmetry_equiv_pos_as_xyz
  1  'x, y, z'
loop_
 _atom_site_type_symbol
 _atom_site_label
 _atom_site_symmetry_multiplicity
 _atom_site_fract_x
 _atom_site_fract_y
 _atom_site_fract_z
 _atom_site_occupancy
  Er  Er0  1  0.666667  0.333333  0.000000  1
  Er  Er1  1  0.333333  0.666667  0.000000  1
  Er  Er2  1  0.816281  0.816281  0.500000  1
  Er  Er3  1  0.183719  0.000000  0.500000  1
  Er  Er4  1  0.000000  0.183719  0.500000  1
  Tc  Tc5  1  0.443711  0.443711  0.000000  1
  Tc  Tc6  1  0.556289  0.000000  0.000000  1
  Tc  Tc7  1  0.000000  0.556289  0.000000  1
  Ni  Ni8  1  0.873274  0.356544  0.500000  1
  Ni  Ni9  1  0.643456  0.516731  0.500000  1
  Ni  Ni10  1  0.483269  0.126726  0.500000  1
  Ni  Ni11  1  0.356544  0.873274  0.500000  1
  Ni  Ni12  1  0.516731  0.643456  0.500000  1
  Ni  Ni13  1  0.126726  0.483269  0.500000  1
  Ni  Ni14  1  0.807272  0.183639  0.000000  1
  Ni  Ni15  1  0.816361  0.623632  0.000000  1
  Ni  Ni16  1  0.376368  0.192728  0.000000  1
  Ni  Ni17  1  0.183639  0.807272  0.000000  1
  Ni  Ni18  1  0.623632  0.816361  0.000000  1
  Ni  Ni19  1  0.192728  0.376368  0.000000  1
  Ni  Ni20  1  0.280774  0.280774  0.500000  1
  Ni  Ni21  1  0.719226  0.000000  0.500000  1
  Ni  Ni22  1  0.000000  0.719226  0.500000  1
  Ni  Ni23  1  0.000000  0.000000  0.000000  1
  P  P24  1  0.683981  0.164109  0.500000  1
  P  P25  1  0.835891  0.519872  0.500000  1
  P  P26  1  0.480128  0.316019  0.500000  1
  P  P27  1  0.164109  0.683981  0.500000  1
  P  P28  1  0.519872  0.835891  0.500000  1
  P  P29  1  0.316019  0.480128  0.500000  1
  P  P30  1  0.178190  0.178190  0.000000  1
  P  P31  1  0.821810  0.000000  0.000000  1
  P  P32  1  0.000000  0.821810  0.000000  1
  P  P33  1  0.636423  0.636423  0.000000  1
  P  P34  1  0.363577  0.000000  0.000000  1
  P  P35  1  0.000000  0.363577  0.000000  1
