# generated using pymatgen
data_Nd10Ge3BiIr2
_symmetry_space_group_name_H-M   'P 1'
_cell_length_a   8.08473553
_cell_length_b   9.00561414
_cell_length_c   12.53875900
_cell_angle_alpha   90.00000000
_cell_angle_beta   90.00000000
_cell_angle_gamma   89.66823249
_symmetry_Int_Tables_number   1
_chemical_formula_structural   Nd10Ge3BiIr2
_chemical_formula_sum   'Nd20 Ge6 Bi2 Ir4'
_cell_volume   912.90676853
_cell_formula_units_Z   2
loop_
 _symmetry_equiv_pos_site_id
 _symmetry_equiv_pos_as_xyz
  1  'x, y, z'
loop_
 _atom_site_type_symbol
 _atom_site_label
 _atom_site_symmetry_multiplicity
 _atom_site_fract_x
 _atom_site_fract_y
 _atom_site_fract_z
 _atom_site_occupancy
  Nd  Nd0  1  0.680948  0.462268  0.932655  1
  Nd  Nd1  1  0.179931  0.962241  0.573834  1
  Nd  Nd2  1  0.679324  0.035044  0.922082  1
  Nd  Nd3  1  0.820676  0.464956  0.422082  1
  Nd  Nd4  1  0.961374  0.739853  0.994569  1
  Nd  Nd5  1  0.455215  0.240795  0.496240  1
  Nd  Nd6  1  0.044785  0.259205  0.996240  1
  Nd  Nd7  1  0.538626  0.760147  0.494569  1
  Nd  Nd8  1  0.320069  0.537759  0.073834  1
  Nd  Nd9  1  0.819052  0.037732  0.432655  1
  Nd  Nd10  1  0.328925  0.964295  0.074943  1
  Nd  Nd11  1  0.171075  0.535705  0.574943  1
  Nd  Nd12  1  0.345310  0.758074  0.800638  1
  Nd  Nd13  1  0.862628  0.241682  0.703838  1
  Nd  Nd14  1  0.637372  0.258318  0.203838  1
  Nd  Nd15  1  0.154690  0.741926  0.300638  1
  Nd  Nd16  1  0.832672  0.761213  0.715239  1
  Nd  Nd17  1  0.322216  0.240942  0.785618  1
  Nd  Nd18  1  0.177784  0.259058  0.285618  1
  Nd  Nd19  1  0.667328  0.738787  0.215239  1
  Ge  Ge20  1  0.443243  0.995196  0.325404  1
  Ge  Ge21  1  0.056757  0.504804  0.825404  1
  Ge  Ge22  1  0.443328  0.504970  0.330565  1
  Ge  Ge23  1  0.056672  0.995030  0.830565  1
  Ge  Ge24  1  0.556045  0.005918  0.671810  1
  Ge  Ge25  1  0.943955  0.494082  0.171810  1
  Bi  Bi26  1  0.563150  0.493624  0.672631  1
  Bi  Bi27  1  0.936850  0.006376  0.172631  1
  Ir  Ir28  1  0.572529  0.750302  0.987500  1
  Ir  Ir29  1  0.071679  0.249086  0.512436  1
  Ir  Ir30  1  0.428321  0.250914  0.012436  1
  Ir  Ir31  1  0.927471  0.749698  0.487500  1
