# generated using pymatgen
data_Dy15YCdIn3Rh4
_symmetry_space_group_name_H-M   'P 1'
_cell_length_a   9.65751495
_cell_length_b   9.66217038
_cell_length_c   9.65927500
_cell_angle_alpha   60.00991566
_cell_angle_beta   59.99397456
_cell_angle_gamma   60.04174584
_symmetry_Int_Tables_number   1
_chemical_formula_structural   Dy15YCdIn3Rh4
_chemical_formula_sum   'Dy15 Y1 Cd1 In3 Rh4'
_cell_volume   637.55727013
_cell_formula_units_Z   1
loop_
 _symmetry_equiv_pos_site_id
 _symmetry_equiv_pos_as_xyz
  1  'x, y, z'
loop_
 _atom_site_type_symbol
 _atom_site_label
 _atom_site_symmetry_multiplicity
 _atom_site_fract_x
 _atom_site_fract_y
 _atom_site_fract_z
 _atom_site_occupancy
  Dy  Dy0  1  0.148437  0.549876  0.150844  1
  Dy  Dy1  1  0.689319  0.312206  0.310214  1
  Dy  Dy2  1  0.937326  0.560594  0.564938  1
  Dy  Dy3  1  0.937326  0.560594  0.937142  1
  Dy  Dy4  1  0.690338  0.690608  0.309527  1
  Dy  Dy5  1  0.562978  0.936372  0.937522  1
  Dy  Dy6  1  0.150889  0.150080  0.153060  1
  Dy  Dy7  1  0.310776  0.690883  0.308669  1
  Dy  Dy8  1  0.549103  0.148535  0.151181  1
  Dy  Dy9  1  0.311634  0.310819  0.688774  1
  Dy  Dy10  1  0.310776  0.690883  0.689672  1
  Dy  Dy11  1  0.150889  0.150080  0.545973  1
  Dy  Dy12  1  0.689319  0.312206  0.688262  1
  Dy  Dy13  1  0.936786  0.934283  0.564466  1
  Dy  Dy14  1  0.562978  0.936372  0.563129  1
  Y  Y15  1  0.562692  0.560122  0.938593  1
  Cd  Cd16  1  0.918372  0.246677  0.917475  1
  In  In17  1  0.916929  0.919210  0.916420  1
  In  In18  1  0.247251  0.919754  0.916497  1
  In  In19  1  0.916929  0.919210  0.247440  1
  Rh  Rh20  1  0.357191  0.358319  0.927263  1
  Rh  Rh21  1  0.357191  0.358319  0.357227  1
  Rh  Rh22  1  0.926061  0.358944  0.357497  1
  Rh  Rh23  1  0.358515  0.925054  0.358216  1
