# generated using pymatgen
data_LaPrHg2(Pt2O7)2
_symmetry_space_group_name_H-M   'P 1'
_cell_length_a   7.34044431
_cell_length_b   7.39436933
_cell_length_c   7.40195514
_cell_angle_alpha   61.38150781
_cell_angle_beta   60.27452110
_cell_angle_gamma   60.24094648
_symmetry_Int_Tables_number   1
_chemical_formula_structural   LaPrHg2(Pt2O7)2
_chemical_formula_sum   'La1 Pr1 Hg2 Pt4 O14'
_cell_volume   288.07248674
_cell_formula_units_Z   1
loop_
 _symmetry_equiv_pos_site_id
 _symmetry_equiv_pos_as_xyz
  1  'x, y, z'
loop_
 _atom_site_type_symbol
 _atom_site_label
 _atom_site_symmetry_multiplicity
 _atom_site_fract_x
 _atom_site_fract_y
 _atom_site_fract_z
 _atom_site_occupancy
  La  La0  1  0.125000  0.625000  0.125000  1
  Pr  Pr1  1  0.125000  0.125000  0.625000  1
  Hg  Hg2  1  0.125000  0.125000  0.125000  1
  Hg  Hg3  1  0.625000  0.125000  0.125000  1
  Pt  Pt4  1  0.625000  0.625000  0.125000  1
  Pt  Pt5  1  0.625000  0.625000  0.625000  1
  Pt  Pt6  1  0.625000  0.125000  0.625000  1
  Pt  Pt7  1  0.125000  0.625000  0.625000  1
  O  O8  1  0.700533  0.299282  0.299652  1
  O  O9  1  0.712764  0.298267  0.694107  1
  O  O10  1  0.985489  0.015281  0.013740  1
  O  O11  1  0.295567  0.694892  0.299276  1
  O  O12  1  0.710266  0.694892  0.299276  1
  O  O13  1  0.961249  0.537186  0.540317  1
  O  O14  1  0.288751  0.712814  0.709683  1
  O  O15  1  0.264511  0.234719  0.236260  1
  O  O16  1  0.954433  0.555108  0.950724  1
  O  O17  1  0.537236  0.951733  0.555893  1
  O  O18  1  0.539734  0.555108  0.950724  1
  O  O19  1  0.955138  0.951733  0.555893  1
  O  O20  1  0.549467  0.950718  0.950348  1
  O  O21  1  0.294862  0.298267  0.694107  1
