# generated using pymatgen
data_Li2Tb5Pr(Co4P3)4
_symmetry_space_group_name_H-M   'P 1'
_cell_length_a   3.73293100
_cell_length_b   10.61017600
_cell_length_c   12.24073700
_cell_angle_alpha   90.00000000
_cell_angle_beta   90.00000000
_cell_angle_gamma   90.00000000
_symmetry_Int_Tables_number   1
_chemical_formula_structural   Li2Tb5Pr(Co4P3)4
_chemical_formula_sum   'Li2 Tb5 Pr1 Co16 P12'
_cell_volume   484.81954245
_cell_formula_units_Z   1
loop_
 _symmetry_equiv_pos_site_id
 _symmetry_equiv_pos_as_xyz
  1  'x, y, z'
loop_
 _atom_site_type_symbol
 _atom_site_label
 _atom_site_symmetry_multiplicity
 _atom_site_fract_x
 _atom_site_fract_y
 _atom_site_fract_z
 _atom_site_occupancy
  Li  Li0  1  0.500000  0.500000  0.150641  1
  Li  Li1  1  0.000000  0.000000  0.847311  1
  Tb  Tb2  1  0.500000  0.000000  0.477181  1
  Tb  Tb3  1  0.500000  0.819617  0.205873  1
  Tb  Tb4  1  0.500000  0.180383  0.205873  1
  Tb  Tb5  1  0.000000  0.681169  0.794659  1
  Tb  Tb6  1  0.000000  0.318831  0.794659  1
  Pr  Pr7  1  0.000000  0.500000  0.523781  1
  Co  Co8  1  0.500000  0.500000  0.707505  1
  Co  Co9  1  0.000000  0.000000  0.295306  1
  Co  Co10  1  0.000000  0.500000  0.987535  1
  Co  Co11  1  0.500000  0.000000  0.013059  1
  Co  Co12  1  0.500000  0.332656  0.997091  1
  Co  Co13  1  0.500000  0.667344  0.997091  1
  Co  Co14  1  0.000000  0.166812  0.003021  1
  Co  Co15  1  0.000000  0.833188  0.003021  1
  Co  Co16  1  0.500000  0.293656  0.430157  1
  Co  Co17  1  0.500000  0.706344  0.430157  1
  Co  Co18  1  0.000000  0.200939  0.569469  1
  Co  Co19  1  0.000000  0.799061  0.569469  1
  Co  Co20  1  0.500000  0.880055  0.707617  1
  Co  Co21  1  0.500000  0.119945  0.707617  1
  Co  Co22  1  0.000000  0.621630  0.291654  1
  Co  Co23  1  0.000000  0.378370  0.291654  1
  P  P24  1  0.500000  0.500000  0.886434  1
  P  P25  1  0.000000  0.000000  0.114677  1
  P  P26  1  0.500000  0.500000  0.341159  1
  P  P27  1  0.000000  0.000000  0.654688  1
  P  P28  1  0.500000  0.304951  0.616728  1
  P  P29  1  0.500000  0.695049  0.616728  1
  P  P30  1  0.000000  0.190510  0.384148  1
  P  P31  1  0.000000  0.809490  0.384148  1
  P  P32  1  0.500000  0.843847  0.894462  1
  P  P33  1  0.500000  0.156153  0.894462  1
  P  P34  1  0.000000  0.656981  0.105482  1
  P  P35  1  0.000000  0.343019  0.105482  1
