# generated using pymatgen
data_Tb3Zr(Al8Pt3)3
_symmetry_space_group_name_H-M   'P 1'
_cell_length_a   7.52509858
_cell_length_b   7.53151959
_cell_length_c   13.11053374
_cell_angle_alpha   84.53778134
_cell_angle_beta   79.01528832
_cell_angle_gamma   59.89650377
_symmetry_Int_Tables_number   1
_chemical_formula_structural   Tb3Zr(Al8Pt3)3
_chemical_formula_sum   'Tb3 Zr1 Al24 Pt9'
_cell_volume   631.04594527
_cell_formula_units_Z   1
loop_
 _symmetry_equiv_pos_site_id
 _symmetry_equiv_pos_as_xyz
  1  'x, y, z'
loop_
 _atom_site_type_symbol
 _atom_site_label
 _atom_site_symmetry_multiplicity
 _atom_site_fract_x
 _atom_site_fract_y
 _atom_site_fract_z
 _atom_site_occupancy
  Tb  Tb0  1  0.606440  0.831949  0.191769  1
  Tb  Tb1  1  0.733811  0.498672  0.807808  1
  Tb  Tb2  1  0.266664  0.501280  0.191951  1
  Zr  Zr3  1  0.393387  0.168111  0.809012  1
  Al  Al4  1  0.681755  0.836914  0.942026  1
  Al  Al5  1  0.316430  0.166423  0.053600  1
  Al  Al6  1  0.146414  0.832831  0.562359  1
  Al  Al7  1  0.853286  0.167130  0.438198  1
  Al  Al8  1  0.479921  0.166811  0.560722  1
  Al  Al9  1  0.519328  0.833859  0.441169  1
  Al  Al10  1  0.217023  0.165362  0.330497  1
  Al  Al11  1  0.779525  0.837229  0.672129  1
  Al  Al12  1  0.436258  0.504230  0.672424  1
  Al  Al13  1  0.562278  0.493554  0.330044  1
  Al  Al14  1  0.111661  0.159678  0.671372  1
  Al  Al15  1  0.890111  0.839840  0.331244  1
  Al  Al16  1  0.353528  0.496217  0.942024  1
  Al  Al17  1  0.647901  0.499981  0.055287  1
  Al  Al18  1  0.019005  0.167689  0.950921  1
  Al  Al19  1  0.984763  0.832862  0.046224  1
  Al  Al20  1  0.186735  0.499273  0.441196  1
  Al  Al21  1  0.813747  0.500396  0.559008  1
  Al  Al22  1  0.734286  0.163901  0.183773  1
  Al  Al23  1  0.265570  0.841944  0.816215  1
  Al  Al24  1  0.066914  0.625984  0.814891  1
  Al  Al25  1  0.939067  0.368062  0.184682  1
  Al  Al26  1  0.850559  0.041047  0.815518  1
  Al  Al27  1  0.144230  0.959091  0.183964  1
  Pt  Pt28  1  0.119881  0.491338  0.638980  1
  Pt  Pt29  1  0.879081  0.508135  0.361774  1
  Pt  Pt30  1  0.657650  0.171789  0.998978  1
  Pt  Pt31  1  0.343626  0.827774  0.999251  1
  Pt  Pt32  1  0.537582  0.166614  0.362090  1
  Pt  Pt33  1  0.463045  0.832767  0.638957  1
  Pt  Pt34  1  0.778568  0.176030  0.637689  1
  Pt  Pt35  1  0.220434  0.824905  0.363221  1
  Pt  Pt36  1  0.999538  0.500329  0.999035  1
