# generated using pymatgen
data_Sm4Mn4Co3CuO20
_symmetry_space_group_name_H-M   'P 1'
_cell_length_a   5.74265300
_cell_length_b   7.41918552
_cell_length_c   8.61521100
_cell_angle_alpha   90.51312295
_cell_angle_beta   90.00000000
_cell_angle_gamma   90.00000000
_symmetry_Int_Tables_number   1
_chemical_formula_structural   Sm4Mn4Co3CuO20
_chemical_formula_sum   'Sm4 Mn4 Co3 Cu1 O20'
_cell_volume   367.04330605
_cell_formula_units_Z   1
loop_
 _symmetry_equiv_pos_site_id
 _symmetry_equiv_pos_as_xyz
  1  'x, y, z'
loop_
 _atom_site_type_symbol
 _atom_site_label
 _atom_site_symmetry_multiplicity
 _atom_site_fract_x
 _atom_site_fract_y
 _atom_site_fract_z
 _atom_site_occupancy
  Sm  Sm0  1  0.500000  0.357812  0.326508  1
  Sm  Sm1  1  0.500000  0.643762  0.672103  1
  Sm  Sm2  1  0.500000  0.139500  0.827229  1
  Sm  Sm3  1  0.500000  0.860766  0.174514  1
  Mn  Mn4  1  0.241212  0.002493  0.500937  1
  Mn  Mn5  1  0.758788  0.002493  0.500937  1
  Mn  Mn6  1  0.757935  0.498907  0.998471  1
  Mn  Mn7  1  0.242065  0.498907  0.998471  1
  Co  Co8  1  0.000000  0.087348  0.149732  1
  Co  Co9  1  0.000000  0.911852  0.852191  1
  Co  Co10  1  0.000000  0.412293  0.648114  1
  Cu  Cu11  1  0.000000  0.569364  0.348298  1
  O  O12  1  0.000000  0.340891  0.059009  1
  O  O13  1  0.000000  0.656320  0.935711  1
  O  O14  1  0.000000  0.160305  0.567440  1
  O  O15  1  0.000000  0.851638  0.438382  1
  O  O16  1  0.221871  0.998779  0.001374  1
  O  O17  1  0.778129  0.998779  0.001374  1
  O  O18  1  0.779851  0.499754  0.499086  1
  O  O19  1  0.220149  0.499754  0.499086  1
  O  O20  1  0.252351  0.100994  0.291044  1
  O  O21  1  0.747526  0.901994  0.710424  1
  O  O22  1  0.252474  0.901994  0.710424  1
  O  O23  1  0.746441  0.402378  0.788333  1
  O  O24  1  0.747649  0.100994  0.291044  1
  O  O25  1  0.251017  0.596335  0.209748  1
  O  O26  1  0.748983  0.596335  0.209748  1
  O  O27  1  0.253559  0.402378  0.788333  1
  O  O28  1  0.500000  0.337604  0.050745  1
  O  O29  1  0.500000  0.661646  0.949276  1
  O  O30  1  0.500000  0.165677  0.553794  1
  O  O31  1  0.500000  0.839949  0.448117  1
