# generated using pymatgen
data_Lu20(GaBi3)3
_symmetry_space_group_name_H-M   'P 1'
_cell_length_a   7.99150372
_cell_length_b   9.24706800
_cell_length_c   11.70915060
_cell_angle_alpha   90.00000000
_cell_angle_beta   89.83132143
_cell_angle_gamma   90.00000000
_symmetry_Int_Tables_number   1
_chemical_formula_structural   Lu20(GaBi3)3
_chemical_formula_sum   'Lu20 Ga3 Bi9'
_cell_volume   865.27880707
_cell_formula_units_Z   1
loop_
 _symmetry_equiv_pos_site_id
 _symmetry_equiv_pos_as_xyz
  1  'x, y, z'
loop_
 _atom_site_type_symbol
 _atom_site_label
 _atom_site_symmetry_multiplicity
 _atom_site_fract_x
 _atom_site_fract_y
 _atom_site_fract_z
 _atom_site_occupancy
  Lu  Lu0  1  0.034840  0.250000  0.507481  1
  Lu  Lu1  1  0.963345  0.750000  0.491604  1
  Lu  Lu2  1  0.462212  0.750000  0.009607  1
  Lu  Lu3  1  0.521310  0.250000  0.990629  1
  Lu  Lu4  1  0.347629  0.250000  0.294589  1
  Lu  Lu5  1  0.653951  0.750000  0.704842  1
  Lu  Lu6  1  0.147523  0.750000  0.792840  1
  Lu  Lu7  1  0.844167  0.250000  0.216857  1
  Lu  Lu8  1  0.198941  0.250000  0.776631  1
  Lu  Lu9  1  0.818297  0.750000  0.212188  1
  Lu  Lu10  1  0.320378  0.750000  0.288212  1
  Lu  Lu11  1  0.676006  0.250000  0.708377  1
  Lu  Lu12  1  0.191454  0.050543  0.060973  1
  Lu  Lu13  1  0.814245  0.927573  0.944340  1
  Lu  Lu14  1  0.316991  0.940575  0.555331  1
  Lu  Lu15  1  0.814245  0.572427  0.944340  1
  Lu  Lu16  1  0.682263  0.058451  0.446130  1
  Lu  Lu17  1  0.191454  0.449457  0.060973  1
  Lu  Lu18  1  0.682263  0.441549  0.446130  1
  Lu  Lu19  1  0.316991  0.559425  0.555331  1
  Ga  Ga20  1  0.404631  0.250000  0.538753  1
  Ga  Ga21  1  0.591634  0.750000  0.459205  1
  Ga  Ga22  1  0.091683  0.750000  0.039833  1
  Bi  Bi23  1  0.908085  0.250000  0.954675  1
  Bi  Bi24  1  0.056737  0.000026  0.321972  1
  Bi  Bi25  1  0.942697  0.000067  0.677194  1
  Bi  Bi26  1  0.443767  0.996202  0.822477  1
  Bi  Bi27  1  0.942697  0.499933  0.677194  1
  Bi  Bi28  1  0.559530  0.001835  0.178422  1
  Bi  Bi29  1  0.056737  0.499974  0.321972  1
  Bi  Bi30  1  0.559530  0.498165  0.178422  1
  Bi  Bi31  1  0.443767  0.503798  0.822477  1
