# generated using pymatgen
data_Tb3Lu(TcB2)4
_symmetry_space_group_name_H-M   'P 1'
_cell_length_a   5.26626100
_cell_length_b   5.92741107
_cell_length_c   6.42384100
_cell_angle_alpha   89.89438660
_cell_angle_beta   90.00000000
_cell_angle_gamma   90.00000000
_symmetry_Int_Tables_number   1
_chemical_formula_structural   Tb3Lu(TcB2)4
_chemical_formula_sum   'Tb3 Lu1 Tc4 B8'
_cell_volume   200.52174315
_cell_formula_units_Z   1
loop_
 _symmetry_equiv_pos_site_id
 _symmetry_equiv_pos_as_xyz
  1  'x, y, z'
loop_
 _atom_site_type_symbol
 _atom_site_label
 _atom_site_symmetry_multiplicity
 _atom_site_fract_x
 _atom_site_fract_y
 _atom_site_fract_z
 _atom_site_occupancy
  Tb  Tb0  1  0.250000  0.013093  0.339734  1
  Tb  Tb1  1  0.250000  0.513249  0.159887  1
  Tb  Tb2  1  0.750000  0.985826  0.660078  1
  Lu  Lu3  1  0.750000  0.484713  0.837778  1
  Tc  Tc4  1  0.250000  0.183139  0.814858  1
  Tc  Tc5  1  0.250000  0.679988  0.687117  1
  Tc  Tc6  1  0.750000  0.817386  0.183321  1
  Tc  Tc7  1  0.750000  0.318514  0.313782  1
  B  B8  1  0.077034  0.370518  0.537801  1
  B  B9  1  0.422384  0.870908  0.963338  1
  B  B10  1  0.579038  0.628846  0.465799  1
  B  B11  1  0.921442  0.131772  0.034784  1
  B  B12  1  0.920962  0.628846  0.465799  1
  B  B13  1  0.578558  0.131772  0.034784  1
  B  B14  1  0.422966  0.370518  0.537801  1
  B  B15  1  0.077616  0.870908  0.963338  1
