# generated using pymatgen
data_La5BiPPb2
_symmetry_space_group_name_H-M   'P 1'
_cell_length_a   9.63049000
_cell_length_b   9.64402601
_cell_length_c   7.11270500
_cell_angle_alpha   90.00000000
_cell_angle_beta   90.00000000
_cell_angle_gamma   120.04651582
_symmetry_Int_Tables_number   1
_chemical_formula_structural   La5BiPPb2
_chemical_formula_sum   'La10 Bi2 P2 Pb4'
_cell_volume   571.83196830
_cell_formula_units_Z   2
loop_
 _symmetry_equiv_pos_site_id
 _symmetry_equiv_pos_as_xyz
  1  'x, y, z'
loop_
 _atom_site_type_symbol
 _atom_site_label
 _atom_site_symmetry_multiplicity
 _atom_site_fract_x
 _atom_site_fract_y
 _atom_site_fract_z
 _atom_site_occupancy
  La  La0  1  0.762830  0.760592  0.750000  1
  La  La1  1  0.237170  0.997763  0.750000  1
  La  La2  1  0.000000  0.238956  0.750000  1
  La  La3  1  0.238062  0.237989  0.250000  1
  La  La4  1  0.761938  0.999927  0.250000  1
  La  La5  1  0.000000  0.762391  0.250000  1
  La  La6  1  0.668505  0.334716  0.002576  1
  La  La7  1  0.331495  0.666212  0.002576  1
  La  La8  1  0.331495  0.666212  0.497424  1
  La  La9  1  0.668505  0.334716  0.497424  1
  Bi  Bi10  1  0.398101  0.397850  0.750000  1
  Bi  Bi11  1  0.601899  0.999749  0.750000  1
  P  P12  1  0.000000  0.000860  0.998587  1
  P  P13  1  0.000000  0.000860  0.501413  1
  Pb  Pb14  1  0.000000  0.600299  0.750000  1
  Pb  Pb15  1  0.601045  0.601361  0.250000  1
  Pb  Pb16  1  0.398955  0.000316  0.250000  1
  Pb  Pb17  1  0.000000  0.399230  0.250000  1
