# generated using pymatgen
data_Tb4Co2PbO12
_symmetry_space_group_name_H-M   'P 1'
_cell_length_a   6.74055487
_cell_length_b   6.74055546
_cell_length_c   7.19919600
_cell_angle_alpha   74.83065682
_cell_angle_beta   74.83064665
_cell_angle_gamma   50.55416226
_symmetry_Int_Tables_number   1
_chemical_formula_structural   Tb4Co2PbO12
_chemical_formula_sum   'Tb4 Co2 Pb1 O12'
_cell_volume   241.78461387
_cell_formula_units_Z   1
loop_
 _symmetry_equiv_pos_site_id
 _symmetry_equiv_pos_as_xyz
  1  'x, y, z'
loop_
 _atom_site_type_symbol
 _atom_site_label
 _atom_site_symmetry_multiplicity
 _atom_site_fract_x
 _atom_site_fract_y
 _atom_site_fract_z
 _atom_site_occupancy
  Tb  Tb0  1  0.693817  0.693817  0.145403  1
  Tb  Tb1  1  0.997011  0.997011  0.004562  1
  Tb  Tb2  1  0.308178  0.308178  0.853360  1
  Tb  Tb3  1  0.308574  0.308574  0.335719  1
  Co  Co4  1  0.243569  0.757942  0.501475  1
  Co  Co5  1  0.757942  0.243569  0.501475  1
  Pb  Pb6  1  0.692806  0.692806  0.661479  1
  O  O7  1  0.406056  0.899086  0.915487  1
  O  O8  1  0.581902  0.097572  0.579674  1
  O  O9  1  0.900380  0.418415  0.427618  1
  O  O10  1  0.094134  0.596235  0.076349  1
  O  O11  1  0.004353  0.004353  0.318434  1
  O  O12  1  0.501293  0.501293  0.680499  1
  O  O13  1  0.899086  0.406056  0.915487  1
  O  O14  1  0.097572  0.581902  0.579674  1
  O  O15  1  0.418415  0.900380  0.427618  1
  O  O16  1  0.596235  0.094134  0.076349  1
  O  O17  1  0.499666  0.499666  0.329632  1
  O  O18  1  0.999009  0.999009  0.669704  1
