# generated using pymatgen
data_Tm4Mn15Mo5P12
_symmetry_space_group_name_H-M   'P 1'
_cell_length_a   3.60327500
_cell_length_b   10.84567062
_cell_length_c   12.45054527
_cell_angle_alpha   90.19867828
_cell_angle_beta   90.00000000
_cell_angle_gamma   90.00000000
_symmetry_Int_Tables_number   1
_chemical_formula_structural   Tm4Mn15Mo5P12
_chemical_formula_sum   'Tm4 Mn15 Mo5 P12'
_cell_volume   486.56355962
_cell_formula_units_Z   1
loop_
 _symmetry_equiv_pos_site_id
 _symmetry_equiv_pos_as_xyz
  1  'x, y, z'
loop_
 _atom_site_type_symbol
 _atom_site_label
 _atom_site_symmetry_multiplicity
 _atom_site_fract_x
 _atom_site_fract_y
 _atom_site_fract_z
 _atom_site_occupancy
  Tm  Tm0  1  0.250000  0.588141  0.710736  1
  Tm  Tm1  1  0.250000  0.914521  0.205538  1
  Tm  Tm2  1  0.750000  0.413131  0.287844  1
  Tm  Tm3  1  0.750000  0.084849  0.794227  1
  Mn  Mn4  1  0.250000  0.087983  0.992561  1
  Mn  Mn5  1  0.750000  0.594990  0.508295  1
  Mn  Mn6  1  0.750000  0.911081  0.006748  1
  Mn  Mn7  1  0.250000  0.211770  0.179622  1
  Mn  Mn8  1  0.250000  0.282627  0.686267  1
  Mn  Mn9  1  0.750000  0.787450  0.818298  1
  Mn  Mn10  1  0.750000  0.715635  0.315047  1
  Mn  Mn11  1  0.250000  0.883642  0.695582  1
  Mn  Mn12  1  0.250000  0.618043  0.191122  1
  Mn  Mn13  1  0.750000  0.114768  0.303776  1
  Mn  Mn14  1  0.750000  0.383476  0.809374  1
  Mn  Mn15  1  0.250000  0.464427  0.935106  1
  Mn  Mn16  1  0.250000  0.033840  0.434626  1
  Mn  Mn17  1  0.750000  0.535866  0.064645  1
  Mn  Mn18  1  0.750000  0.964324  0.565563  1
  Mo  Mo19  1  0.250000  0.711722  0.981659  1
  Mo  Mo20  1  0.250000  0.790540  0.483490  1
  Mo  Mo21  1  0.750000  0.288319  0.017834  1
  Mo  Mo22  1  0.750000  0.205681  0.518985  1
  Mo  Mo23  1  0.250000  0.414279  0.492215  1
  P  P24  1  0.250000  0.415164  0.117133  1
  P  P25  1  0.250000  0.082569  0.619837  1
  P  P26  1  0.750000  0.585870  0.883171  1
  P  P27  1  0.750000  0.915220  0.380756  1
  P  P28  1  0.250000  0.261661  0.873320  1
  P  P29  1  0.250000  0.232685  0.367119  1
  P  P30  1  0.750000  0.737778  0.127415  1
  P  P31  1  0.750000  0.765421  0.630601  1
  P  P32  1  0.250000  0.596707  0.375960  1
  P  P33  1  0.250000  0.909645  0.883232  1
  P  P34  1  0.750000  0.406924  0.626357  1
  P  P35  1  0.750000  0.089251  0.115939  1
