# generated using pymatgen
data_Tb15Pr5Bi12
_symmetry_space_group_name_H-M   'P 1'
_cell_length_a   8.39503818
_cell_length_b   9.61203100
_cell_length_c   12.29299826
_cell_angle_alpha   89.99988447
_cell_angle_beta   90.02366887
_cell_angle_gamma   89.99990455
_symmetry_Int_Tables_number   1
_chemical_formula_structural   Tb15Pr5Bi12
_chemical_formula_sum   'Tb15 Pr5 Bi12'
_cell_volume   991.96333841
_cell_formula_units_Z   1
loop_
 _symmetry_equiv_pos_site_id
 _symmetry_equiv_pos_as_xyz
  1  'x, y, z'
loop_
 _atom_site_type_symbol
 _atom_site_label
 _atom_site_symmetry_multiplicity
 _atom_site_fract_x
 _atom_site_fract_y
 _atom_site_fract_z
 _atom_site_occupancy
  Tb  Tb0  1  0.192923  0.936980  0.441504  1
  Tb  Tb1  1  0.307096  0.063106  0.940290  1
  Tb  Tb2  1  0.693093  0.562583  0.058075  1
  Tb  Tb3  1  0.806656  0.437054  0.559492  1
  Tb  Tb4  1  0.806657  0.062946  0.559492  1
  Tb  Tb5  1  0.974705  0.250001  0.011704  1
  Tb  Tb6  1  0.025995  0.750001  0.985940  1
  Tb  Tb7  1  0.473982  0.250000  0.488099  1
  Tb  Tb8  1  0.693095  0.937417  0.058076  1
  Tb  Tb9  1  0.307096  0.436896  0.940290  1
  Tb  Tb10  1  0.192923  0.563021  0.441504  1
  Tb  Tb11  1  0.525379  0.750001  0.512843  1
  Tb  Tb12  1  0.647745  0.250000  0.783392  1
  Tb  Tb13  1  0.351393  0.750000  0.216445  1
  Tb  Tb14  1  0.148066  0.250000  0.716357  1
  Pr  Pr15  1  0.852436  0.750000  0.284464  1
  Pr  Pr16  1  0.684217  0.750000  0.779898  1
  Pr  Pr17  1  0.815546  0.250000  0.279246  1
  Pr  Pr18  1  0.185833  0.750000  0.721739  1
  Pr  Pr19  1  0.316376  0.250000  0.220528  1
  Bi  Bi20  1  0.068087  0.506416  0.169553  1
  Bi  Bi21  1  0.434697  0.490937  0.672513  1
  Bi  Bi22  1  0.561975  0.992902  0.328108  1
  Bi  Bi23  1  0.934745  0.009267  0.827490  1
  Bi  Bi24  1  0.934745  0.490732  0.827489  1
  Bi  Bi25  1  0.561976  0.507096  0.328108  1
  Bi  Bi26  1  0.434697  0.009061  0.672512  1
  Bi  Bi27  1  0.068086  0.993582  0.169554  1
  Bi  Bi28  1  0.908273  0.750001  0.542594  1
  Bi  Bi29  1  0.592052  0.250000  0.037131  1
  Bi  Bi30  1  0.407876  0.749999  0.962912  1
  Bi  Bi31  1  0.091574  0.249999  0.462660  1
