# generated using pymatgen
data_Ca6TbNdBi6
_symmetry_space_group_name_H-M   'P 1'
_cell_length_a   8.33682854
_cell_length_b   8.36009035
_cell_length_c   8.41511478
_cell_angle_alpha   109.56427619
_cell_angle_beta   109.46606599
_cell_angle_gamma   109.12967829
_symmetry_Int_Tables_number   1
_chemical_formula_structural   Ca6TbNdBi6
_chemical_formula_sum   'Ca6 Tb1 Nd1 Bi6'
_cell_volume   452.89433690
_cell_formula_units_Z   1
loop_
 _symmetry_equiv_pos_site_id
 _symmetry_equiv_pos_as_xyz
  1  'x, y, z'
loop_
 _atom_site_type_symbol
 _atom_site_label
 _atom_site_symmetry_multiplicity
 _atom_site_fract_x
 _atom_site_fract_y
 _atom_site_fract_z
 _atom_site_occupancy
  Ca  Ca0  1  0.500155  0.002131  0.356745  1
  Ca  Ca1  1  0.503423  0.001089  0.857483  1
  Ca  Ca2  1  0.642991  0.642773  0.646142  1
  Ca  Ca3  1  0.997698  0.356447  0.497530  1
  Ca  Ca4  1  0.143321  0.143507  0.145736  1
  Ca  Ca5  1  0.856282  0.497569  0.997043  1
  Tb  Tb6  1  0.356998  0.499523  0.999796  1
  Nd  Nd7  1  0.999536  0.856503  0.499585  1
  Bi  Bi8  1  0.127866  0.747558  0.873628  1
  Bi  Bi9  1  0.881807  0.127586  0.753701  1
  Bi  Bi10  1  0.621638  0.379401  0.248429  1
  Bi  Bi11  1  0.373506  0.251634  0.629714  1
  Bi  Bi12  1  0.744238  0.868888  0.123970  1
  Bi  Bi13  1  0.250539  0.625391  0.370501  1
