# generated using pymatgen
data_YTm2ScSi4OsRh3
_symmetry_space_group_name_H-M   'P 1'
_cell_length_a   4.22849600
_cell_length_b   6.81137659
_cell_length_c   7.27065057
_cell_angle_alpha   90.26908582
_cell_angle_beta   90.00000000
_cell_angle_gamma   90.00000000
_symmetry_Int_Tables_number   1
_chemical_formula_structural   YTm2ScSi4OsRh3
_chemical_formula_sum   'Y1 Tm2 Sc1 Si4 Os1 Rh3'
_cell_volume   209.40608599
_cell_formula_units_Z   1
loop_
 _symmetry_equiv_pos_site_id
 _symmetry_equiv_pos_as_xyz
  1  'x, y, z'
loop_
 _atom_site_type_symbol
 _atom_site_label
 _atom_site_symmetry_multiplicity
 _atom_site_fract_x
 _atom_site_fract_y
 _atom_site_fract_z
 _atom_site_occupancy
  Y  Y0  1  0.250000  0.501426  0.681067  1
  Tm  Tm1  1  0.250000  0.996645  0.812254  1
  Tm  Tm2  1  0.750000  0.003490  0.191659  1
  Sc  Sc3  1  0.750000  0.505648  0.305332  1
  Si  Si4  1  0.250000  0.301234  0.115343  1
  Si  Si5  1  0.250000  0.791382  0.382162  1
  Si  Si6  1  0.750000  0.703278  0.902952  1
  Si  Si7  1  0.750000  0.205748  0.604753  1
  Os  Os8  1  0.250000  0.654111  0.070463  1
  Rh  Rh9  1  0.250000  0.153507  0.431656  1
  Rh  Rh10  1  0.750000  0.841667  0.562868  1
  Rh  Rh11  1  0.750000  0.341863  0.939490  1
