# generated using pymatgen
data_Tm2MnCo8TcP6
_symmetry_space_group_name_H-M   'P 1'
_cell_length_a   3.66486400
_cell_length_b   10.30714000
_cell_length_c   11.78002700
_cell_angle_alpha   90.00000000
_cell_angle_beta   90.00000000
_cell_angle_gamma   90.00000000
_symmetry_Int_Tables_number   1
_chemical_formula_structural   Tm2MnCo8TcP6
_chemical_formula_sum   'Tm4 Mn2 Co16 Tc2 P12'
_cell_volume   444.98187726
_cell_formula_units_Z   2
loop_
 _symmetry_equiv_pos_site_id
 _symmetry_equiv_pos_as_xyz
  1  'x, y, z'
loop_
 _atom_site_type_symbol
 _atom_site_label
 _atom_site_symmetry_multiplicity
 _atom_site_fract_x
 _atom_site_fract_y
 _atom_site_fract_z
 _atom_site_occupancy
  Tm  Tm0  1  0.250000  0.582601  0.703863  1
  Tm  Tm1  1  0.250000  0.917399  0.203863  1
  Tm  Tm2  1  0.750000  0.416389  0.294634  1
  Tm  Tm3  1  0.750000  0.083611  0.794634  1
  Mn  Mn4  1  0.750000  0.288081  0.011387  1
  Mn  Mn5  1  0.750000  0.211919  0.511387  1
  Co  Co6  1  0.250000  0.406639  0.486915  1
  Co  Co7  1  0.250000  0.093361  0.986915  1
  Co  Co8  1  0.750000  0.592017  0.511461  1
  Co  Co9  1  0.750000  0.907983  0.011461  1
  Co  Co10  1  0.250000  0.221203  0.177025  1
  Co  Co11  1  0.250000  0.278797  0.677025  1
  Co  Co12  1  0.750000  0.778564  0.822425  1
  Co  Co13  1  0.750000  0.721436  0.322425  1
  Co  Co14  1  0.250000  0.886397  0.701713  1
  Co  Co15  1  0.250000  0.613603  0.201713  1
  Co  Co16  1  0.750000  0.116182  0.300250  1
  Co  Co17  1  0.750000  0.383818  0.800250  1
  Co  Co18  1  0.250000  0.464200  0.932015  1
  Co  Co19  1  0.250000  0.035800  0.432015  1
  Co  Co20  1  0.750000  0.533842  0.068713  1
  Co  Co21  1  0.750000  0.966158  0.568713  1
  Tc  Tc22  1  0.250000  0.710937  0.989711  1
  Tc  Tc23  1  0.250000  0.789063  0.489711  1
  P  P24  1  0.250000  0.417933  0.112995  1
  P  P25  1  0.250000  0.082067  0.612995  1
  P  P26  1  0.750000  0.578819  0.885926  1
  P  P27  1  0.750000  0.921181  0.385926  1
  P  P28  1  0.250000  0.268456  0.867090  1
  P  P29  1  0.250000  0.231544  0.367090  1
  P  P30  1  0.750000  0.731118  0.133634  1
  P  P31  1  0.750000  0.768882  0.633634  1
  P  P32  1  0.250000  0.595681  0.390555  1
  P  P33  1  0.250000  0.904319  0.890555  1
  P  P34  1  0.750000  0.401254  0.609689  1
  P  P35  1  0.750000  0.098746  0.109689  1
