# generated using pymatgen
data_Nd3SmDy2Ta2O14
_symmetry_space_group_name_H-M   'P 1'
_cell_length_a   6.60205625
_cell_length_b   6.59238422
_cell_length_c   7.66188200
_cell_angle_alpha   90.00000000
_cell_angle_beta   90.00000000
_cell_angle_gamma   108.89236793
_symmetry_Int_Tables_number   1
_chemical_formula_structural   Nd3SmDy2Ta2O14
_chemical_formula_sum   'Nd3 Sm1 Dy2 Ta2 O14'
_cell_volume   315.50577601
_cell_formula_units_Z   1
loop_
 _symmetry_equiv_pos_site_id
 _symmetry_equiv_pos_as_xyz
  1  'x, y, z'
loop_
 _atom_site_type_symbol
 _atom_site_label
 _atom_site_symmetry_multiplicity
 _atom_site_fract_x
 _atom_site_fract_y
 _atom_site_fract_z
 _atom_site_occupancy
  Nd  Nd0  1  0.527013  0.526183  0.500645  1
  Nd  Nd1  1  0.527013  0.526183  0.999355  1
  Nd  Nd2  1  0.463807  0.004530  0.250000  1
  Sm  Sm3  1  0.003441  0.463407  0.750000  1
  Dy  Dy4  1  0.003424  0.532053  0.250000  1
  Dy  Dy5  1  0.531770  0.002610  0.750000  1
  Ta  Ta6  1  0.001724  0.001743  0.500540  1
  Ta  Ta7  1  0.001724  0.001743  0.999460  1
  O  O8  1  0.940027  0.061983  0.750000  1
  O  O9  1  0.060166  0.938323  0.250000  1
  O  O10  1  0.357766  0.636057  0.250000  1
  O  O11  1  0.640541  0.357472  0.750000  1
  O  O12  1  0.371490  0.639640  0.750000  1
  O  O13  1  0.642888  0.376600  0.250000  1
  O  O14  1  0.307802  0.057286  0.960178  1
  O  O15  1  0.676981  0.923515  0.478011  1
  O  O16  1  0.307802  0.057286  0.539822  1
  O  O17  1  0.676981  0.923515  0.021989  1
  O  O18  1  0.053074  0.307665  0.461381  1
  O  O19  1  0.925745  0.677271  0.974809  1
  O  O20  1  0.925745  0.677271  0.525191  1
  O  O21  1  0.053074  0.307665  0.038619  1
