# generated using pymatgen
data_Pr4Dy6Co2Br15
_symmetry_space_group_name_H-M   'P 1'
_cell_length_a   9.51731409
_cell_length_b   10.28763578
_cell_length_c   11.05113900
_cell_angle_alpha   92.38168600
_cell_angle_beta   113.79445781
_cell_angle_gamma   110.79492641
_symmetry_Int_Tables_number   1
_chemical_formula_structural   Pr4Dy6Co2Br15
_chemical_formula_sum   'Pr4 Dy6 Co2 Br15'
_cell_volume   903.70003807
_cell_formula_units_Z   1
loop_
 _symmetry_equiv_pos_site_id
 _symmetry_equiv_pos_as_xyz
  1  'x, y, z'
loop_
 _atom_site_type_symbol
 _atom_site_label
 _atom_site_symmetry_multiplicity
 _atom_site_fract_x
 _atom_site_fract_y
 _atom_site_fract_z
 _atom_site_occupancy
  Pr  Pr0  1  0.802488  0.404430  0.272350  1
  Pr  Pr1  1  0.197512  0.595570  0.727650  1
  Pr  Pr2  1  0.669417  0.751111  0.818959  1
  Pr  Pr3  1  0.330583  0.248889  0.181041  1
  Dy  Dy4  1  0.527133  0.709618  0.098672  1
  Dy  Dy5  1  0.472867  0.290382  0.901328  1
  Dy  Dy6  1  0.590550  0.045091  0.331659  1
  Dy  Dy7  1  0.409450  0.954909  0.668341  1
  Dy  Dy8  1  0.722832  0.076305  0.046814  1
  Dy  Dy9  1  0.277168  0.923695  0.953186  1
  Co  Co10  1  0.467069  0.830331  0.882929  1
  Co  Co11  1  0.532931  0.169669  0.117071  1
  Br  Br12  1  0.000000  0.000000  0.000000  1
  Br  Br13  1  0.630987  0.893181  0.580537  1
  Br  Br14  1  0.369013  0.106819  0.419463  1
  Br  Br15  1  0.878987  0.293052  0.526070  1
  Br  Br16  1  0.121013  0.706948  0.473930  1
  Br  Br17  1  0.306932  0.767930  0.187219  1
  Br  Br18  1  0.693068  0.232070  0.812781  1
  Br  Br19  1  0.052271  0.332563  0.216917  1
  Br  Br20  1  0.177210  0.059133  0.703109  1
  Br  Br21  1  0.822790  0.940867  0.296891  1
  Br  Br22  1  0.255452  0.416994  0.950963  1
  Br  Br23  1  0.744548  0.583006  0.049037  1
  Br  Br24  1  0.405901  0.457195  0.670036  1
  Br  Br25  1  0.594099  0.542805  0.329964  1
  Br  Br26  1  0.947729  0.667437  0.783083  1
