# generated using pymatgen
data_PrSmZnSi3
_symmetry_space_group_name_H-M   'P 1'
_cell_length_a   8.25643787
_cell_length_b   8.19122317
_cell_length_c   5.88864236
_cell_angle_alpha   69.61481359
_cell_angle_beta   68.42985742
_cell_angle_gamma   41.95532712
_symmetry_Int_Tables_number   1
_chemical_formula_structural   PrSmZnSi3
_chemical_formula_sum   'Pr2 Sm2 Zn2 Si6'
_cell_volume   245.80024402
_cell_formula_units_Z   2
loop_
 _symmetry_equiv_pos_site_id
 _symmetry_equiv_pos_as_xyz
  1  'x, y, z'
loop_
 _atom_site_type_symbol
 _atom_site_label
 _atom_site_symmetry_multiplicity
 _atom_site_fract_x
 _atom_site_fract_y
 _atom_site_fract_z
 _atom_site_occupancy
  Pr  Pr0  1  0.245103  0.754897  0.245103  1
  Pr  Pr1  1  0.754897  0.245103  0.754897  1
  Sm  Sm2  1  0.250000  0.250000  0.250000  1
  Sm  Sm3  1  0.750000  0.750000  0.750000  1
  Zn  Zn4  1  0.333034  0.333034  0.666966  1
  Zn  Zn5  1  0.666966  0.666966  0.333034  1
  Si  Si6  1  0.167303  0.167303  0.832697  1
  Si  Si7  1  0.832697  0.832697  0.167303  1
  Si  Si8  1  0.833169  0.334720  0.166831  1
  Si  Si9  1  0.665280  0.166831  0.334720  1
  Si  Si10  1  0.334720  0.833169  0.665280  1
  Si  Si11  1  0.166831  0.665280  0.833169  1
