# generated using pymatgen
data_Dy3GeSe2
_symmetry_space_group_name_H-M   'P 1'
_cell_length_a   7.14604836
_cell_length_b   7.14604862
_cell_length_c   7.14604829
_cell_angle_alpha   146.40795573
_cell_angle_beta   132.11920872
_cell_angle_gamma   59.75666678
_symmetry_Int_Tables_number   1
_chemical_formula_structural   Dy3GeSe2
_chemical_formula_sum   'Dy3 Ge1 Se2'
_cell_volume   148.40977329
_cell_formula_units_Z   1
loop_
 _symmetry_equiv_pos_site_id
 _symmetry_equiv_pos_as_xyz
  1  'x, y, z'
loop_
 _atom_site_type_symbol
 _atom_site_label
 _atom_site_symmetry_multiplicity
 _atom_site_fract_x
 _atom_site_fract_y
 _atom_site_fract_z
 _atom_site_occupancy
  Dy  Dy0  1  0.341966  0.341966  0.000000  1
  Dy  Dy1  1  0.000000  0.000000  0.000000  1
  Dy  Dy2  1  0.658034  0.658034  0.000000  1
  Ge  Ge3  1  0.500000  0.000000  0.500000  1
  Se  Se4  1  0.168327  0.668327  0.500000  1
  Se  Se5  1  0.831673  0.331673  0.500000  1
