# generated using pymatgen
data_Zr12Ga9Rh3C4
_symmetry_space_group_name_H-M   'P 1'
_cell_length_a   8.70066820
_cell_length_b   8.70066784
_cell_length_c   8.70726000
_cell_angle_alpha   60.02502844
_cell_angle_beta   60.02503741
_cell_angle_gamma   59.99999108
_symmetry_Int_Tables_number   1
_chemical_formula_structural   Zr12Ga9Rh3C4
_chemical_formula_sum   'Zr12 Ga9 Rh3 C4'
_cell_volume   466.26831376
_cell_formula_units_Z   1
loop_
 _symmetry_equiv_pos_site_id
 _symmetry_equiv_pos_as_xyz
  1  'x, y, z'
loop_
 _atom_site_type_symbol
 _atom_site_label
 _atom_site_symmetry_multiplicity
 _atom_site_fract_x
 _atom_site_fract_y
 _atom_site_fract_z
 _atom_site_occupancy
  Zr  Zr0  1  0.442145  0.442145  0.055522  1
  Zr  Zr1  1  0.060187  0.442145  0.055522  1
  Zr  Zr2  1  0.442145  0.060187  0.055522  1
  Zr  Zr3  1  0.058600  0.058600  0.440584  1
  Zr  Zr4  1  0.442217  0.058600  0.440584  1
  Zr  Zr5  1  0.058600  0.442217  0.440584  1
  Zr  Zr6  1  0.807855  0.807855  0.194478  1
  Zr  Zr7  1  0.189813  0.807855  0.194478  1
  Zr  Zr8  1  0.807855  0.189813  0.194478  1
  Zr  Zr9  1  0.191400  0.191400  0.809416  1
  Zr  Zr10  1  0.807783  0.191400  0.809416  1
  Zr  Zr11  1  0.191400  0.807783  0.809416  1
  Ga  Ga12  1  0.833910  0.833910  0.498273  1
  Ga  Ga13  1  0.839408  0.500419  0.820763  1
  Ga  Ga14  1  0.500419  0.839408  0.820763  1
  Ga  Ga15  1  0.839408  0.839408  0.820763  1
  Ga  Ga16  1  0.416090  0.416090  0.751727  1
  Ga  Ga17  1  0.410592  0.749581  0.429237  1
  Ga  Ga18  1  0.749581  0.410592  0.429237  1
  Ga  Ga19  1  0.410592  0.410592  0.429237  1
  Ga  Ga20  1  0.625000  0.625000  0.125000  1
  Rh  Rh21  1  0.625000  0.125000  0.625000  1
  Rh  Rh22  1  0.125000  0.625000  0.625000  1
  Rh  Rh23  1  0.625000  0.625000  0.625000  1
  C  C24  1  0.125000  0.125000  0.625000  1
  C  C25  1  0.125000  0.625000  0.125000  1
  C  C26  1  0.625000  0.125000  0.125000  1
  C  C27  1  0.125000  0.125000  0.125000  1
