# generated using pymatgen
data_SmCu2AgPd2
_symmetry_space_group_name_H-M   'P 1'
_cell_length_a   5.49792326
_cell_length_b   5.22601024
_cell_length_c   5.22600996
_cell_angle_alpha   58.36094043
_cell_angle_beta   58.26336703
_cell_angle_gamma   58.26336952
_symmetry_Int_Tables_number   1
_chemical_formula_structural   SmCu2AgPd2
_chemical_formula_sum   'Sm1 Cu2 Ag1 Pd2'
_cell_volume   102.03151995
_cell_formula_units_Z   1
loop_
 _symmetry_equiv_pos_site_id
 _symmetry_equiv_pos_as_xyz
  1  'x, y, z'
loop_
 _atom_site_type_symbol
 _atom_site_label
 _atom_site_symmetry_multiplicity
 _atom_site_fract_x
 _atom_site_fract_y
 _atom_site_fract_z
 _atom_site_occupancy
  Sm  Sm0  1  0.997997  0.002003  0.002003  1
  Cu  Cu1  1  0.379509  0.872246  0.368736  1
  Cu  Cu2  1  0.379509  0.368736  0.872246  1
  Ag  Ag3  1  0.741587  0.758413  0.758413  1
  Pd  Pd4  1  0.376683  0.374301  0.374301  1
  Pd  Pd5  1  0.874715  0.374301  0.374301  1
