# generated using pymatgen
data_Tm8Cd2OsPt
_symmetry_space_group_name_H-M   'P 1'
_cell_length_a   9.53237177
_cell_length_b   9.53237089
_cell_length_c   9.61894700
_cell_angle_alpha   59.69910497
_cell_angle_beta   59.69910805
_cell_angle_gamma   59.38623547
_symmetry_Int_Tables_number   1
_chemical_formula_structural   Tm8Cd2OsPt
_chemical_formula_sum   'Tm16 Cd4 Os2 Pt2'
_cell_volume   612.33274442
_cell_formula_units_Z   2
loop_
 _symmetry_equiv_pos_site_id
 _symmetry_equiv_pos_as_xyz
  1  'x, y, z'
loop_
 _atom_site_type_symbol
 _atom_site_label
 _atom_site_symmetry_multiplicity
 _atom_site_fract_x
 _atom_site_fract_y
 _atom_site_fract_z
 _atom_site_occupancy
  Tm  Tm0  1  0.350454  0.350454  0.351542  1
  Tm  Tm1  1  0.350454  0.350454  0.947551  1
  Tm  Tm2  1  0.348117  0.952310  0.349787  1
  Tm  Tm3  1  0.952310  0.348117  0.349787  1
  Tm  Tm4  1  0.814150  0.188168  0.190272  1
  Tm  Tm5  1  0.188168  0.814150  0.807411  1
  Tm  Tm6  1  0.188168  0.814150  0.190272  1
  Tm  Tm7  1  0.814150  0.188168  0.807411  1
  Tm  Tm8  1  0.188054  0.188054  0.811946  1
  Tm  Tm9  1  0.808768  0.808768  0.191232  1
  Tm  Tm10  1  0.938088  0.556983  0.567145  1
  Tm  Tm11  1  0.556983  0.938088  0.937784  1
  Tm  Tm12  1  0.556983  0.938088  0.567145  1
  Tm  Tm13  1  0.938088  0.556983  0.937784  1
  Tm  Tm14  1  0.564565  0.564565  0.935435  1
  Tm  Tm15  1  0.940841  0.940841  0.559159  1
  Cd  Cd16  1  0.579830  0.579830  0.582196  1
  Cd  Cd17  1  0.579830  0.579830  0.258143  1
  Cd  Cd18  1  0.580879  0.254388  0.582367  1
  Cd  Cd19  1  0.254388  0.580879  0.582367  1
  Os  Os20  1  0.144260  0.144260  0.138281  1
  Os  Os21  1  0.144260  0.144260  0.573201  1
  Pt  Pt22  1  0.144449  0.573767  0.140893  1
  Pt  Pt23  1  0.573767  0.144449  0.140893  1
