# generated using pymatgen
data_ErTm3Hf3O12
_symmetry_space_group_name_H-M   'P 1'
_cell_length_a   6.27344922
_cell_length_b   6.31632281
_cell_length_c   6.50847816
_cell_angle_alpha   99.88424110
_cell_angle_beta   98.44005341
_cell_angle_gamma   99.61561121
_symmetry_Int_Tables_number   1
_chemical_formula_structural   ErTm3Hf3O12
_chemical_formula_sum   'Er1 Tm3 Hf3 O12'
_cell_volume   246.38119935
_cell_formula_units_Z   1
loop_
 _symmetry_equiv_pos_site_id
 _symmetry_equiv_pos_as_xyz
  1  'x, y, z'
loop_
 _atom_site_type_symbol
 _atom_site_label
 _atom_site_symmetry_multiplicity
 _atom_site_fract_x
 _atom_site_fract_y
 _atom_site_fract_z
 _atom_site_occupancy
  Er  Er0  1  0.387241  0.699144  0.866581  1
  Tm  Tm1  1  0.694997  0.865349  0.389204  1
  Tm  Tm2  1  0.613044  0.300523  0.133694  1
  Tm  Tm3  1  0.305404  0.134589  0.610902  1
  Hf  Hf4  1  0.000281  0.000466  0.000169  1
  Hf  Hf5  1  0.848123  0.396341  0.668354  1
  Hf  Hf6  1  0.151561  0.603322  0.331168  1
  O  O7  1  0.023120  0.678513  0.881392  1
  O  O8  1  0.685436  0.932901  0.061005  1
  O  O9  1  0.918745  0.084554  0.695044  1
  O  O10  1  0.975286  0.322242  0.117757  1
  O  O11  1  0.314921  0.069296  0.940599  1
  O  O12  1  0.081444  0.915138  0.304538  1
  O  O13  1  0.587427  0.188621  0.432742  1
  O  O14  1  0.171585  0.427059  0.573520  1
  O  O15  1  0.414435  0.582300  0.180411  1
  O  O16  1  0.412543  0.811987  0.566380  1
  O  O17  1  0.828183  0.572390  0.425838  1
  O  O18  1  0.586225  0.415265  0.820702  1
