# generated using pymatgen
data_Ti4AlCo8Si3
_symmetry_space_group_name_H-M   'P 1'
_cell_length_a   13.51504068
_cell_length_b   13.51504086
_cell_length_c   13.51503937
_cell_angle_alpha   17.39421655
_cell_angle_beta   17.39421461
_cell_angle_gamma   17.39421296
_symmetry_Int_Tables_number   1
_chemical_formula_structural   Ti4AlCo8Si3
_chemical_formula_sum   'Ti4 Al1 Co8 Si3'
_cell_volume   192.52445825
_cell_formula_units_Z   1
loop_
 _symmetry_equiv_pos_site_id
 _symmetry_equiv_pos_as_xyz
  1  'x, y, z'
loop_
 _atom_site_type_symbol
 _atom_site_label
 _atom_site_symmetry_multiplicity
 _atom_site_fract_x
 _atom_site_fract_y
 _atom_site_fract_z
 _atom_site_occupancy
  Ti  Ti0  1  0.874717  0.874717  0.874717  1
  Ti  Ti1  1  0.125283  0.125283  0.125283  1
  Ti  Ti2  1  0.375350  0.375350  0.375350  1
  Ti  Ti3  1  0.624650  0.624650  0.624650  1
  Al  Al4  1  0.000000  0.000000  0.000000  1
  Co  Co5  1  0.187613  0.187613  0.187613  1
  Co  Co6  1  0.438077  0.438077  0.438077  1
  Co  Co7  1  0.688968  0.688968  0.688968  1
  Co  Co8  1  0.936262  0.936262  0.936262  1
  Co  Co9  1  0.812387  0.812387  0.812387  1
  Co  Co10  1  0.063738  0.063738  0.063738  1
  Co  Co11  1  0.311032  0.311032  0.311032  1
  Co  Co12  1  0.561923  0.561923  0.561923  1
  Si  Si13  1  0.249709  0.249709  0.249709  1
  Si  Si14  1  0.500000  0.500000  0.500000  1
  Si  Si15  1  0.750291  0.750291  0.750291  1
