# generated using pymatgen
data_TmScNiB6
_symmetry_space_group_name_H-M   'P 1'
_cell_length_a   3.44360900
_cell_length_b   8.92327500
_cell_length_c   11.25940100
_cell_angle_alpha   90.00000000
_cell_angle_beta   90.00000000
_cell_angle_gamma   90.00000000
_symmetry_Int_Tables_number   1
_chemical_formula_structural   TmScNiB6
_chemical_formula_sum   'Tm4 Sc4 Ni4 B24'
_cell_volume   345.98191509
_cell_formula_units_Z   4
loop_
 _symmetry_equiv_pos_site_id
 _symmetry_equiv_pos_as_xyz
  1  'x, y, z'
loop_
 _atom_site_type_symbol
 _atom_site_label
 _atom_site_symmetry_multiplicity
 _atom_site_fract_x
 _atom_site_fract_y
 _atom_site_fract_z
 _atom_site_occupancy
  Tm  Tm0  1  0.500000  0.322525  0.414598  1
  Tm  Tm1  1  0.500000  0.677475  0.585402  1
  Tm  Tm2  1  0.500000  0.177475  0.914598  1
  Tm  Tm3  1  0.500000  0.822525  0.085402  1
  Sc  Sc4  1  0.500000  0.444228  0.128547  1
  Sc  Sc5  1  0.500000  0.555772  0.871453  1
  Sc  Sc6  1  0.500000  0.055772  0.628547  1
  Sc  Sc7  1  0.500000  0.944228  0.371453  1
  Ni  Ni8  1  0.500000  0.141022  0.181543  1
  Ni  Ni9  1  0.500000  0.858978  0.818457  1
  Ni  Ni10  1  0.500000  0.358978  0.681543  1
  Ni  Ni11  1  0.500000  0.641022  0.318457  1
  B  B12  1  0.000000  0.099849  0.473381  1
  B  B13  1  0.000000  0.900151  0.526619  1
  B  B14  1  0.000000  0.400151  0.973381  1
  B  B15  1  0.000000  0.599849  0.026619  1
  B  B16  1  0.000000  0.131975  0.318017  1
  B  B17  1  0.000000  0.868025  0.681983  1
  B  B18  1  0.000000  0.368025  0.818017  1
  B  B19  1  0.000000  0.631975  0.181983  1
  B  B20  1  0.000000  0.054434  0.066319  1
  B  B21  1  0.000000  0.945566  0.933681  1
  B  B22  1  0.000000  0.445566  0.566319  1
  B  B23  1  0.000000  0.554434  0.433681  1
  B  B24  1  0.000000  0.483572  0.286792  1
  B  B25  1  0.000000  0.516428  0.713208  1
  B  B26  1  0.000000  0.016428  0.786792  1
  B  B27  1  0.000000  0.983572  0.213208  1
  B  B28  1  0.000000  0.251589  0.081429  1
  B  B29  1  0.000000  0.748411  0.918571  1
  B  B30  1  0.000000  0.248411  0.581429  1
  B  B31  1  0.000000  0.751589  0.418571  1
  B  B32  1  0.000000  0.295318  0.236689  1
  B  B33  1  0.000000  0.704682  0.763311  1
  B  B34  1  0.000000  0.204682  0.736689  1
  B  B35  1  0.000000  0.795318  0.263311  1
