# generated using pymatgen
data_Zr4TiAl2Tc5
_symmetry_space_group_name_H-M   'P 1'
_cell_length_a   5.23882530
_cell_length_b   5.23882423
_cell_length_c   8.76736800
_cell_angle_alpha   90.00000000
_cell_angle_beta   90.00000000
_cell_angle_gamma   120.10602846
_symmetry_Int_Tables_number   1
_chemical_formula_structural   Zr4TiAl2Tc5
_chemical_formula_sum   'Zr4 Ti1 Al2 Tc5'
_cell_volume   208.16255664
_cell_formula_units_Z   1
loop_
 _symmetry_equiv_pos_site_id
 _symmetry_equiv_pos_as_xyz
  1  'x, y, z'
loop_
 _atom_site_type_symbol
 _atom_site_label
 _atom_site_symmetry_multiplicity
 _atom_site_fract_x
 _atom_site_fract_y
 _atom_site_fract_z
 _atom_site_occupancy
  Zr  Zr0  1  0.335093  0.664907  0.431708  1
  Zr  Zr1  1  0.667955  0.332045  0.939772  1
  Zr  Zr2  1  0.667955  0.332045  0.560228  1
  Zr  Zr3  1  0.335093  0.664907  0.068292  1
  Ti  Ti4  1  0.171252  0.828748  0.750000  1
  Al  Al5  1  0.998689  0.001311  0.999848  1
  Al  Al6  1  0.998689  0.001311  0.500152  1
  Tc  Tc7  1  0.171901  0.341247  0.750000  1
  Tc  Tc8  1  0.827076  0.172924  0.250000  1
  Tc  Tc9  1  0.337044  0.169502  0.250000  1
  Tc  Tc10  1  0.658753  0.828099  0.750000  1
  Tc  Tc11  1  0.830498  0.662956  0.250000  1
