# generated using pymatgen
data_Er7Tm3Si5Bi
_symmetry_space_group_name_H-M   'P 1'
_cell_length_a   8.48314401
_cell_length_b   8.48257282
_cell_length_c   6.27642900
_cell_angle_alpha   90.00164932
_cell_angle_beta   89.99964178
_cell_angle_gamma   120.26919136
_symmetry_Int_Tables_number   1
_chemical_formula_structural   Er7Tm3Si5Bi
_chemical_formula_sum   'Er7 Tm3 Si5 Bi1'
_cell_volume   390.07061922
_cell_formula_units_Z   1
loop_
 _symmetry_equiv_pos_site_id
 _symmetry_equiv_pos_as_xyz
  1  'x, y, z'
loop_
 _atom_site_type_symbol
 _atom_site_label
 _atom_site_symmetry_multiplicity
 _atom_site_fract_x
 _atom_site_fract_y
 _atom_site_fract_z
 _atom_site_occupancy
  Er  Er0  1  0.676983  0.330766  0.505058  1
  Er  Er1  1  0.768606  0.768634  0.249967  1
  Er  Er2  1  0.239073  0.984362  0.249957  1
  Er  Er3  1  0.984395  0.239097  0.249972  1
  Er  Er4  1  0.239363  0.239381  0.750032  1
  Er  Er5  1  0.755574  0.998562  0.750021  1
  Er  Er6  1  0.998633  0.755612  0.750052  1
  Tm  Tm7  1  0.330746  0.677025  0.505038  1
  Tm  Tm8  1  0.330771  0.677015  0.994968  1
  Tm  Tm9  1  0.677017  0.330751  0.994937  1
  Si  Si10  1  0.603697  0.998511  0.249909  1
  Si  Si11  1  0.998735  0.603802  0.249899  1
  Si  Si12  1  0.606927  0.607011  0.750055  1
  Si  Si13  1  0.393474  0.002556  0.750091  1
  Si  Si14  1  0.002774  0.393578  0.750113  1
  Bi  Bi15  1  0.393234  0.393337  0.249932  1
