# generated using pymatgen
data_ErFeCoSi2
_symmetry_space_group_name_H-M   'P 1'
_cell_length_a   5.51664160
_cell_length_b   5.51664155
_cell_length_c   5.51664213
_cell_angle_alpha   138.46129666
_cell_angle_beta   138.46129460
_cell_angle_gamma   60.19723044
_symmetry_Int_Tables_number   1
_chemical_formula_structural   ErFeCoSi2
_chemical_formula_sum   'Er1 Fe1 Co1 Si2'
_cell_volume   73.05952360
_cell_formula_units_Z   1
loop_
 _symmetry_equiv_pos_site_id
 _symmetry_equiv_pos_as_xyz
  1  'x, y, z'
loop_
 _atom_site_type_symbol
 _atom_site_label
 _atom_site_symmetry_multiplicity
 _atom_site_fract_x
 _atom_site_fract_y
 _atom_site_fract_z
 _atom_site_occupancy
  Er  Er0  1  0.000000  0.000000  0.000000  1
  Fe  Fe1  1  0.250000  0.750000  0.500000  1
  Co  Co2  1  0.750000  0.250000  0.500000  1
  Si  Si3  1  0.630724  0.630724  0.000000  1
  Si  Si4  1  0.369276  0.369276  0.000000  1
