# generated using pymatgen
data_Mg2Sc4CoB4Rh9
_symmetry_space_group_name_H-M   'P 1'
_cell_length_a   9.39961132
_cell_length_b   9.39961163
_cell_length_c   3.06152600
_cell_angle_alpha   90.00000000
_cell_angle_beta   90.00000000
_cell_angle_gamma   90.50850277
_symmetry_Int_Tables_number   1
_chemical_formula_structural   Mg2Sc4CoB4Rh9
_chemical_formula_sum   'Mg2 Sc4 Co1 B4 Rh9'
_cell_volume   270.48342287
_cell_formula_units_Z   1
loop_
 _symmetry_equiv_pos_site_id
 _symmetry_equiv_pos_as_xyz
  1  'x, y, z'
loop_
 _atom_site_type_symbol
 _atom_site_label
 _atom_site_symmetry_multiplicity
 _atom_site_fract_x
 _atom_site_fract_y
 _atom_site_fract_z
 _atom_site_occupancy
  Mg  Mg0  1  0.000000  0.000000  0.000000  1
  Mg  Mg1  1  0.500000  0.500000  0.000000  1
  Sc  Sc2  1  0.819964  0.319964  0.000000  1
  Sc  Sc3  1  0.328123  0.171877  0.000000  1
  Sc  Sc4  1  0.671877  0.828123  0.000000  1
  Sc  Sc5  1  0.180036  0.680036  0.000000  1
  Co  Co6  1  0.500000  0.000000  0.500000  1
  B  B7  1  0.613103  0.113103  0.000000  1
  B  B8  1  0.126165  0.373835  0.000000  1
  B  B9  1  0.873835  0.626165  0.000000  1
  B  B10  1  0.386897  0.886897  0.000000  1
  Rh  Rh11  1  0.069483  0.220524  0.500000  1
  Rh  Rh12  1  0.227296  0.934071  0.500000  1
  Rh  Rh13  1  0.772704  0.065929  0.500000  1
  Rh  Rh14  1  0.930517  0.779476  0.500000  1
  Rh  Rh15  1  0.434071  0.727296  0.500000  1
  Rh  Rh16  1  0.565929  0.272704  0.500000  1
  Rh  Rh17  1  0.720524  0.569483  0.500000  1
  Rh  Rh18  1  0.279476  0.430517  0.500000  1
  Rh  Rh19  1  0.000000  0.500000  0.500000  1
