# generated using pymatgen
data_Ti2GeB2Ru4Rh
_symmetry_space_group_name_H-M   'P 1'
_cell_length_a   2.98408100
_cell_length_b   9.20341945
_cell_length_c   9.27293100
_cell_angle_alpha   89.80380908
_cell_angle_beta   90.00000000
_cell_angle_gamma   90.00000000
_symmetry_Int_Tables_number   1
_chemical_formula_structural   Ti2GeB2Ru4Rh
_chemical_formula_sum   'Ti4 Ge2 B4 Ru8 Rh2'
_cell_volume   254.66795746
_cell_formula_units_Z   2
loop_
 _symmetry_equiv_pos_site_id
 _symmetry_equiv_pos_as_xyz
  1  'x, y, z'
loop_
 _atom_site_type_symbol
 _atom_site_label
 _atom_site_symmetry_multiplicity
 _atom_site_fract_x
 _atom_site_fract_y
 _atom_site_fract_z
 _atom_site_occupancy
  Ti  Ti0  1  0.000000  0.826339  0.680900  1
  Ti  Ti1  1  0.000000  0.173661  0.319100  1
  Ti  Ti2  1  0.000000  0.674421  0.170498  1
  Ti  Ti3  1  0.000000  0.325579  0.829502  1
  Ge  Ge4  1  0.000000  0.500000  0.500000  1
  Ge  Ge5  1  0.000000  0.000000  0.000000  1
  B  B6  1  0.000000  0.376232  0.125813  1
  B  B7  1  0.000000  0.623768  0.874187  1
  B  B8  1  0.000000  0.120339  0.626598  1
  B  B9  1  0.000000  0.879661  0.373402  1
  Ru  Ru10  1  0.500000  0.211767  0.072557  1
  Ru  Ru11  1  0.500000  0.788233  0.927443  1
  Ru  Ru12  1  0.500000  0.428371  0.288498  1
  Ru  Ru13  1  0.500000  0.571629  0.711502  1
  Ru  Ru14  1  0.500000  0.926010  0.211961  1
  Ru  Ru15  1  0.500000  0.073990  0.788039  1
  Ru  Ru16  1  0.500000  0.000000  0.500000  1
  Ru  Ru17  1  0.500000  0.500000  0.000000  1
  Rh  Rh18  1  0.500000  0.285769  0.572912  1
  Rh  Rh19  1  0.500000  0.714231  0.427088  1
