# generated using pymatgen
data_Tb6Ho5Er5(In3Co)2
_symmetry_space_group_name_H-M   'P 1'
_cell_length_a   10.34857101
_cell_length_b   10.34857184
_cell_length_c   6.99910301
_cell_angle_alpha   90.00482807
_cell_angle_beta   89.99517376
_cell_angle_gamma   120.00132989
_symmetry_Int_Tables_number   1
_chemical_formula_structural   Tb6Ho5Er5(In3Co)2
_chemical_formula_sum   'Tb6 Ho5 Er5 In6 Co2'
_cell_volume   649.12449480
_cell_formula_units_Z   1
loop_
 _symmetry_equiv_pos_site_id
 _symmetry_equiv_pos_as_xyz
  1  'x, y, z'
loop_
 _atom_site_type_symbol
 _atom_site_label
 _atom_site_symmetry_multiplicity
 _atom_site_fract_x
 _atom_site_fract_y
 _atom_site_fract_z
 _atom_site_occupancy
  Tb  Tb0  1  0.534617  0.069431  0.504420  1
  Tb  Tb1  1  0.930569  0.465383  0.504420  1
  Tb  Tb2  1  0.534738  0.465262  0.504296  1
  Tb  Tb3  1  0.465135  0.930443  0.004196  1
  Tb  Tb4  1  0.069557  0.534865  0.004196  1
  Tb  Tb5  1  0.465289  0.534711  0.004260  1
  Ho  Ho6  1  0.821951  0.178049  0.212455  1
  Ho  Ho7  1  0.666588  0.333412  0.896574  1
  Ho  Ho8  1  0.333336  0.666664  0.396797  1
  Ho  Ho9  1  0.000062  0.999938  0.494204  1
  Ho  Ho10  1  0.000027  0.999973  0.993927  1
  Er  Er11  1  0.178110  0.356214  0.712474  1
  Er  Er12  1  0.643786  0.821890  0.712474  1
  Er  Er13  1  0.178106  0.821894  0.712465  1
  Er  Er14  1  0.821898  0.643741  0.212454  1
  Er  Er15  1  0.356259  0.178102  0.212454  1
  In  In16  1  0.837503  0.675017  0.752380  1
  In  In17  1  0.324983  0.162497  0.752380  1
  In  In18  1  0.837501  0.162499  0.752180  1
  In  In19  1  0.162783  0.325156  0.252422  1
  In  In20  1  0.674844  0.837217  0.252422  1
  In  In21  1  0.162505  0.837495  0.252415  1
  Co  Co22  1  0.666524  0.333476  0.280914  1
  Co  Co23  1  0.333331  0.666669  0.780870  1
