# generated using pymatgen
data_Nd3Y(B2Ir5)2
_symmetry_space_group_name_H-M   'P 1'
_cell_length_a   11.12578376
_cell_length_b   11.12578324
_cell_length_c   11.12578302
_cell_angle_alpha   28.74670941
_cell_angle_beta   28.74671546
_cell_angle_gamma   28.74671661
_symmetry_Int_Tables_number   1
_chemical_formula_structural   Nd3Y(B2Ir5)2
_chemical_formula_sum   'Nd3 Y1 B4 Ir10'
_cell_volume   281.64798666
_cell_formula_units_Z   1
loop_
 _symmetry_equiv_pos_site_id
 _symmetry_equiv_pos_as_xyz
  1  'x, y, z'
loop_
 _atom_site_type_symbol
 _atom_site_label
 _atom_site_symmetry_multiplicity
 _atom_site_fract_x
 _atom_site_fract_y
 _atom_site_fract_z
 _atom_site_occupancy
  Nd  Nd0  1  0.151587  0.151587  0.151587  1
  Nd  Nd1  1  0.950541  0.950541  0.950541  1
  Nd  Nd2  1  0.848458  0.848458  0.848458  1
  Y  Y3  1  0.049621  0.049621  0.049621  1
  B  B4  1  0.618279  0.618279  0.618279  1
  B  B5  1  0.716249  0.716249  0.716249  1
  B  B6  1  0.381775  0.381775  0.381775  1
  B  B7  1  0.283887  0.283887  0.283887  1
  Ir  Ir8  1  0.408046  0.898457  0.408046  1
  Ir  Ir9  1  0.898457  0.408046  0.408046  1
  Ir  Ir10  1  0.500473  0.500473  0.000252  1
  Ir  Ir11  1  0.500473  0.000252  0.500473  1
  Ir  Ir12  1  0.000252  0.500473  0.500473  1
  Ir  Ir13  1  0.499797  0.499797  0.499797  1
  Ir  Ir14  1  0.591409  0.101242  0.591409  1
  Ir  Ir15  1  0.591409  0.591409  0.101242  1
  Ir  Ir16  1  0.101242  0.591409  0.591409  1
  Ir  Ir17  1  0.408046  0.408046  0.898457  1
