# generated using pymatgen
data_HoErTaSb5O18
_symmetry_space_group_name_H-M   'P 1'
_cell_length_a   7.51104476
_cell_length_b   5.35517344
_cell_length_c   8.20953832
_cell_angle_alpha   86.18800187
_cell_angle_beta   89.83225070
_cell_angle_gamma   90.02252869
_symmetry_Int_Tables_number   1
_chemical_formula_structural   HoErTaSb5O18
_chemical_formula_sum   'Ho1 Er1 Ta1 Sb5 O18'
_cell_volume   329.47978808
_cell_formula_units_Z   1
loop_
 _symmetry_equiv_pos_site_id
 _symmetry_equiv_pos_as_xyz
  1  'x, y, z'
loop_
 _atom_site_type_symbol
 _atom_site_label
 _atom_site_symmetry_multiplicity
 _atom_site_fract_x
 _atom_site_fract_y
 _atom_site_fract_z
 _atom_site_occupancy
  Ho  Ho0  1  0.249563  0.965821  0.431468  1
  Er  Er1  1  0.750453  0.034766  0.568764  1
  Ta  Ta2  1  0.500061  0.000183  0.999903  1
  Sb  Sb3  1  0.999947  0.000096  0.999900  1
  Sb  Sb4  1  0.005225  0.530810  0.696506  1
  Sb  Sb5  1  0.495143  0.534565  0.694749  1
  Sb  Sb6  1  0.994352  0.469214  0.303546  1
  Sb  Sb7  1  0.505305  0.465512  0.305326  1
  O  O8  1  0.250198  0.898760  0.984983  1
  O  O9  1  0.937102  0.858694  0.778297  1
  O  O10  1  0.565030  0.855936  0.779074  1
  O  O11  1  0.958339  0.739938  0.472910  1
  O  O12  1  0.541505  0.740207  0.470766  1
  O  O13  1  0.249975  0.670336  0.654369  1
  O  O14  1  0.930536  0.674086  0.113991  1
  O  O15  1  0.557119  0.679577  0.117628  1
  O  O16  1  0.249495  0.593320  0.311692  1
  O  O17  1  0.750488  0.405136  0.688437  1
  O  O18  1  0.069401  0.326029  0.886008  1
  O  O19  1  0.442943  0.320539  0.882390  1
  O  O20  1  0.750026  0.328476  0.346086  1
  O  O21  1  0.040623  0.260259  0.527307  1
  O  O22  1  0.459483  0.260003  0.529411  1
  O  O23  1  0.062433  0.141807  0.221196  1
  O  O24  1  0.435535  0.144656  0.220339  1
  O  O25  1  0.749718  0.101271  0.014953  1
