# generated using pymatgen
data_Ta2BeB2Ru5
_symmetry_space_group_name_H-M   'P 1'
_cell_length_a   9.14409000
_cell_length_b   9.14409000
_cell_length_c   2.97355600
_cell_angle_alpha   90.00000000
_cell_angle_beta   90.00000000
_cell_angle_gamma   90.00000000
_symmetry_Int_Tables_number   1
_chemical_formula_structural   Ta2BeB2Ru5
_chemical_formula_sum   'Ta4 Be2 B4 Ru10'
_cell_volume   248.63204707
_cell_formula_units_Z   2
loop_
 _symmetry_equiv_pos_site_id
 _symmetry_equiv_pos_as_xyz
  1  'x, y, z'
loop_
 _atom_site_type_symbol
 _atom_site_label
 _atom_site_symmetry_multiplicity
 _atom_site_fract_x
 _atom_site_fract_y
 _atom_site_fract_z
 _atom_site_occupancy
  Ta  Ta0  1  0.823826  0.676174  0.000000  1
  Ta  Ta1  1  0.176174  0.323826  0.000000  1
  Ta  Ta2  1  0.323826  0.823826  0.000000  1
  Ta  Ta3  1  0.676174  0.176174  0.000000  1
  Be  Be4  1  0.500000  0.500000  0.000000  1
  Be  Be5  1  0.000000  0.000000  0.000000  1
  B  B6  1  0.628329  0.871671  0.000000  1
  B  B7  1  0.371671  0.128329  0.000000  1
  B  B8  1  0.128329  0.628329  0.000000  1
  B  B9  1  0.871671  0.371671  0.000000  1
  Ru  Ru10  1  0.566148  0.708268  0.500000  1
  Ru  Ru11  1  0.433852  0.291732  0.500000  1
  Ru  Ru12  1  0.066148  0.791732  0.500000  1
  Ru  Ru13  1  0.933852  0.208268  0.500000  1
  Ru  Ru14  1  0.291732  0.566148  0.500000  1
  Ru  Ru15  1  0.708268  0.433852  0.500000  1
  Ru  Ru16  1  0.208268  0.066148  0.500000  1
  Ru  Ru17  1  0.791732  0.933852  0.500000  1
  Ru  Ru18  1  0.500000  0.000000  0.500000  1
  Ru  Ru19  1  0.000000  0.500000  0.500000  1
