# generated using pymatgen
data_Pr18Er2Si15Cl
_symmetry_space_group_name_H-M   'P 1'
_cell_length_a   7.94210718
_cell_length_b   7.87478971
_cell_length_c   15.23780611
_cell_angle_alpha   89.50848586
_cell_angle_beta   89.12758721
_cell_angle_gamma   90.68911859
_symmetry_Int_Tables_number   1
_chemical_formula_structural   Pr18Er2Si15Cl
_chemical_formula_sum   'Pr18 Er2 Si15 Cl1'
_cell_volume   952.79334797
_cell_formula_units_Z   1
loop_
 _symmetry_equiv_pos_site_id
 _symmetry_equiv_pos_as_xyz
  1  'x, y, z'
loop_
 _atom_site_type_symbol
 _atom_site_label
 _atom_site_symmetry_multiplicity
 _atom_site_fract_x
 _atom_site_fract_y
 _atom_site_fract_z
 _atom_site_occupancy
  Pr  Pr0  1  0.795586  0.189799  0.752826  1
  Pr  Pr1  1  0.687869  0.688049  0.497849  1
  Pr  Pr2  1  0.380839  0.002825  0.442006  1
  Pr  Pr3  1  0.499067  0.861325  0.701132  1
  Pr  Pr4  1  0.510037  0.123192  0.196904  1
  Pr  Pr5  1  0.873665  0.483759  0.299709  1
  Pr  Pr6  1  0.124076  0.517106  0.801918  1
  Pr  Pr7  1  0.634854  0.986476  0.953048  1
  Pr  Pr8  1  0.996408  0.382051  0.546050  1
  Pr  Pr9  1  0.994793  0.624463  0.052414  1
  Pr  Pr10  1  0.141313  0.990140  0.873747  1
  Pr  Pr11  1  0.518806  0.631346  0.124750  1
  Pr  Pr12  1  0.473888  0.362425  0.631734  1
  Pr  Pr13  1  0.636494  0.520541  0.876647  1
  Pr  Pr14  1  0.366236  0.475948  0.375521  1
  Pr  Pr15  1  0.871167  0.018778  0.377071  1
  Pr  Pr16  1  0.985052  0.126783  0.123397  1
  Pr  Pr17  1  0.019512  0.874853  0.621384  1
  Er  Er18  1  0.312922  0.311235  0.998827  1
  Er  Er19  1  0.185984  0.807714  0.249800  1
  Si  Si20  1  0.332786  0.695804  0.949609  1
  Si  Si21  1  0.660834  0.303297  0.453524  1
  Si  Si22  1  0.700064  0.334470  0.050837  1
  Si  Si23  1  0.302830  0.665443  0.551341  1
  Si  Si24  1  0.808086  0.829309  0.203425  1
  Si  Si25  1  0.169478  0.189527  0.295435  1
  Si  Si26  1  0.845317  0.804590  0.797875  1
  Si  Si27  1  0.288329  0.924481  0.060573  1
  Si  Si28  1  0.572380  0.784541  0.307569  1
  Si  Si29  1  0.447579  0.209635  0.827232  1
  Si  Si30  1  0.790726  0.578457  0.687825  1
  Si  Si31  1  0.212455  0.425620  0.188180  1
  Si  Si32  1  0.704545  0.073787  0.561312  1
  Si  Si33  1  0.933099  0.291844  0.940852  1
  Si  Si34  1  0.078365  0.712662  0.437859  1
  Cl  Cl35  1  0.144555  0.197730  0.689821  1
