# generated using pymatgen
data_Dy17Lu3(Bi2Ir)4
_symmetry_space_group_name_H-M   'P 1'
_cell_length_a   7.98048972
_cell_length_b   9.01049996
_cell_length_c   12.50541171
_cell_angle_alpha   89.90056018
_cell_angle_beta   90.10261312
_cell_angle_gamma   89.95929717
_symmetry_Int_Tables_number   1
_chemical_formula_structural   Dy17Lu3(Bi2Ir)4
_chemical_formula_sum   'Dy17 Lu3 Bi8 Ir4'
_cell_volume   899.23864960
_cell_formula_units_Z   1
loop_
 _symmetry_equiv_pos_site_id
 _symmetry_equiv_pos_as_xyz
  1  'x, y, z'
loop_
 _atom_site_type_symbol
 _atom_site_label
 _atom_site_symmetry_multiplicity
 _atom_site_fract_x
 _atom_site_fract_y
 _atom_site_fract_z
 _atom_site_occupancy
  Dy  Dy0  1  0.841082  0.750622  0.793090  1
  Dy  Dy1  1  0.159412  0.249619  0.206691  1
  Dy  Dy2  1  0.341254  0.249273  0.706671  1
  Dy  Dy3  1  0.658520  0.750563  0.293602  1
  Dy  Dy4  1  0.377052  0.750992  0.692598  1
  Dy  Dy5  1  0.622812  0.248990  0.307582  1
  Dy  Dy6  1  0.877524  0.249577  0.806968  1
  Dy  Dy7  1  0.123817  0.750696  0.193004  1
  Dy  Dy8  1  0.945627  0.751471  0.501530  1
  Dy  Dy9  1  0.054512  0.248607  0.498469  1
  Dy  Dy10  1  0.445218  0.249096  0.998493  1
  Dy  Dy11  1  0.553077  0.750720  0.001314  1
  Dy  Dy12  1  0.323584  0.541651  0.434229  1
  Dy  Dy13  1  0.824100  0.041821  0.065771  1
  Dy  Dy14  1  0.676454  0.458332  0.565872  1
  Dy  Dy15  1  0.823468  0.458335  0.065745  1
  Dy  Dy16  1  0.176653  0.542172  0.933932  1
  Lu  Lu17  1  0.671826  0.041900  0.565071  1
  Lu  Lu18  1  0.328155  0.958229  0.434907  1
  Lu  Lu19  1  0.172643  0.958016  0.934533  1
  Bi  Bi20  1  0.569174  0.490964  0.827403  1
  Bi  Bi21  1  0.431021  0.509077  0.172629  1
  Bi  Bi22  1  0.069113  0.509101  0.672457  1
  Bi  Bi23  1  0.431133  0.990850  0.173004  1
  Bi  Bi24  1  0.931020  0.491027  0.327386  1
  Bi  Bi25  1  0.568225  0.008841  0.827467  1
  Bi  Bi26  1  0.932551  0.008774  0.327676  1
  Bi  Bi27  1  0.067758  0.991028  0.672638  1
  Ir  Ir28  1  0.569913  0.752613  0.508767  1
  Ir  Ir29  1  0.430035  0.247396  0.491308  1
  Ir  Ir30  1  0.072006  0.248526  0.990636  1
  Ir  Ir31  1  0.931261  0.751122  0.008556  1
