# generated using pymatgen
data_Sc5Bi3P
_symmetry_space_group_name_H-M   'P 1'
_cell_length_a   8.71361100
_cell_length_b   8.71361170
_cell_length_c   6.37615400
_cell_angle_alpha   90.00000000
_cell_angle_beta   90.00000000
_cell_angle_gamma   120.00000115
_symmetry_Int_Tables_number   1
_chemical_formula_structural   Sc5Bi3P
_chemical_formula_sum   'Sc10 Bi6 P2'
_cell_volume   419.26228312
_cell_formula_units_Z   2
loop_
 _symmetry_equiv_pos_site_id
 _symmetry_equiv_pos_as_xyz
  1  'x, y, z'
loop_
 _atom_site_type_symbol
 _atom_site_label
 _atom_site_symmetry_multiplicity
 _atom_site_fract_x
 _atom_site_fract_y
 _atom_site_fract_z
 _atom_site_occupancy
  Sc  Sc0  1  0.764365  0.764365  0.250000  1
  Sc  Sc1  1  0.235635  0.000000  0.250000  1
  Sc  Sc2  1  0.000000  0.235635  0.250000  1
  Sc  Sc3  1  0.235635  0.235635  0.750000  1
  Sc  Sc4  1  0.764365  0.000000  0.750000  1
  Sc  Sc5  1  0.000000  0.764365  0.750000  1
  Sc  Sc6  1  0.666667  0.333333  0.500000  1
  Sc  Sc7  1  0.333333  0.666667  0.500000  1
  Sc  Sc8  1  0.333333  0.666667  0.000000  1
  Sc  Sc9  1  0.666667  0.333333  0.000000  1
  Bi  Bi10  1  0.401448  0.401448  0.250000  1
  Bi  Bi11  1  0.598552  0.000000  0.250000  1
  Bi  Bi12  1  0.000000  0.598552  0.250000  1
  Bi  Bi13  1  0.598552  0.598552  0.750000  1
  Bi  Bi14  1  0.401448  0.000000  0.750000  1
  Bi  Bi15  1  0.000000  0.401448  0.750000  1
  P  P16  1  0.000000  0.000000  0.500000  1
  P  P17  1  0.000000  0.000000  0.000000  1
