# generated using pymatgen
data_Pr3MgCd2IrAu2
_symmetry_space_group_name_H-M   'P 1'
_cell_length_a   7.89486667
_cell_length_b   7.98096939
_cell_length_c   4.01413700
_cell_angle_alpha   90.00000000
_cell_angle_beta   90.00000000
_cell_angle_gamma   119.86704863
_symmetry_Int_Tables_number   1
_chemical_formula_structural   Pr3MgCd2IrAu2
_chemical_formula_sum   'Pr3 Mg1 Cd2 Ir1 Au2'
_cell_volume   219.33277695
_cell_formula_units_Z   1
loop_
 _symmetry_equiv_pos_site_id
 _symmetry_equiv_pos_as_xyz
  1  'x, y, z'
loop_
 _atom_site_type_symbol
 _atom_site_label
 _atom_site_symmetry_multiplicity
 _atom_site_fract_x
 _atom_site_fract_y
 _atom_site_fract_z
 _atom_site_occupancy
  Pr  Pr0  1  0.584394  0.977679  0.000000  1
  Pr  Pr1  1  0.017078  0.596401  0.000000  1
  Pr  Pr2  1  0.399886  0.428395  0.000000  1
  Mg  Mg3  1  0.251342  0.998610  0.500000  1
  Cd  Cd4  1  0.999958  0.256700  0.500000  1
  Cd  Cd5  1  0.745485  0.742196  0.500000  1
  Ir  Ir6  1  0.331776  0.675719  0.500000  1
  Au  Au7  1  0.654082  0.323124  0.500000  1
  Au  Au8  1  0.015999  0.001176  0.000000  1
