# generated using pymatgen
data_Nd3ScMnC6
_symmetry_space_group_name_H-M   'P 1'
_cell_length_a   8.46350500
_cell_length_b   8.46350296
_cell_length_c   5.33520700
_cell_angle_alpha   90.00000000
_cell_angle_beta   90.00000000
_cell_angle_gamma   119.99999415
_symmetry_Int_Tables_number   1
_chemical_formula_structural   Nd3ScMnC6
_chemical_formula_sum   'Nd6 Sc2 Mn2 C12'
_cell_volume   330.96520428
_cell_formula_units_Z   2
loop_
 _symmetry_equiv_pos_site_id
 _symmetry_equiv_pos_as_xyz
  1  'x, y, z'
loop_
 _atom_site_type_symbol
 _atom_site_label
 _atom_site_symmetry_multiplicity
 _atom_site_fract_x
 _atom_site_fract_y
 _atom_site_fract_z
 _atom_site_occupancy
  Nd  Nd0  1  0.610699  0.676526  0.750000  1
  Nd  Nd1  1  0.934173  0.610699  0.250000  1
  Nd  Nd2  1  0.676526  0.065827  0.250000  1
  Nd  Nd3  1  0.323474  0.934173  0.750000  1
  Nd  Nd4  1  0.065827  0.389301  0.750000  1
  Nd  Nd5  1  0.389301  0.323474  0.250000  1
  Sc  Sc6  1  0.000000  0.000000  0.500000  1
  Sc  Sc7  1  0.000000  0.000000  0.000000  1
  Mn  Mn8  1  0.666667  0.333333  0.750000  1
  Mn  Mn9  1  0.333333  0.666667  0.250000  1
  C  C10  1  0.958137  0.751751  0.750000  1
  C  C11  1  0.206386  0.958137  0.250000  1
  C  C12  1  0.751751  0.793614  0.250000  1
  C  C13  1  0.248249  0.206386  0.750000  1
  C  C14  1  0.793614  0.041863  0.750000  1
  C  C15  1  0.041863  0.248249  0.250000  1
  C  C16  1  0.854120  0.566904  0.750000  1
  C  C17  1  0.287215  0.854120  0.250000  1
  C  C18  1  0.566904  0.712785  0.250000  1
  C  C19  1  0.433096  0.287215  0.750000  1
  C  C20  1  0.145880  0.433096  0.250000  1
  C  C21  1  0.712785  0.145880  0.750000  1
