# generated using pymatgen
data_Cs2Sm2CdHgSe6
_symmetry_space_group_name_H-M   'P 1'
_cell_length_a   4.36909600
_cell_length_b   8.44648916
_cell_length_c   11.35041200
_cell_angle_alpha   90.00000000
_cell_angle_beta   90.00000000
_cell_angle_gamma   75.01098500
_symmetry_Int_Tables_number   1
_chemical_formula_structural   Cs2Sm2CdHgSe6
_chemical_formula_sum   'Cs2 Sm2 Cd1 Hg1 Se6'
_cell_volume   404.61830134
_cell_formula_units_Z   1
loop_
 _symmetry_equiv_pos_site_id
 _symmetry_equiv_pos_as_xyz
  1  'x, y, z'
loop_
 _atom_site_type_symbol
 _atom_site_label
 _atom_site_symmetry_multiplicity
 _atom_site_fract_x
 _atom_site_fract_y
 _atom_site_fract_z
 _atom_site_occupancy
  Cs  Cs0  1  0.256089  0.487821  0.250000  1
  Cs  Cs1  1  0.743695  0.512612  0.750000  1
  Sm  Sm2  1  0.999135  0.001730  0.002508  1
  Sm  Sm3  1  0.999135  0.001730  0.497492  1
  Cd  Cd4  1  0.460466  0.079067  0.750000  1
  Hg  Hg5  1  0.542943  0.914115  0.250000  1
  Se  Se6  1  0.620206  0.759591  0.045945  1
  Se  Se7  1  0.936744  0.126514  0.250000  1
  Se  Se8  1  0.620206  0.759591  0.454055  1
  Se  Se9  1  0.380796  0.238409  0.548582  1
  Se  Se10  1  0.059794  0.880411  0.750000  1
  Se  Se11  1  0.380796  0.238409  0.951418  1
