# generated using pymatgen
data_Sr4Ir2Rh4O18F
_symmetry_space_group_name_H-M   'P 1'
_cell_length_a   8.13487071
_cell_length_b   8.08457378
_cell_length_c   8.01260098
_cell_angle_alpha   109.69295519
_cell_angle_beta   109.84446140
_cell_angle_gamma   109.90278005
_symmetry_Int_Tables_number   1
_chemical_formula_structural   Sr4Ir2Rh4O18F
_chemical_formula_sum   'Sr4 Ir2 Rh4 O18 F1'
_cell_volume   400.43472575
_cell_formula_units_Z   1
loop_
 _symmetry_equiv_pos_site_id
 _symmetry_equiv_pos_as_xyz
  1  'x, y, z'
loop_
 _atom_site_type_symbol
 _atom_site_label
 _atom_site_symmetry_multiplicity
 _atom_site_fract_x
 _atom_site_fract_y
 _atom_site_fract_z
 _atom_site_occupancy
  Sr  Sr0  1  0.998338  0.977858  0.322831  1
  Sr  Sr1  1  0.664195  0.675884  0.667944  1
  Sr  Sr2  1  0.006720  0.333497  0.019823  1
  Sr  Sr3  1  0.321737  0.003818  0.985367  1
  Ir  Ir4  1  0.164622  0.503459  0.664976  1
  Ir  Ir5  1  0.658961  0.163673  0.500319  1
  Rh  Rh6  1  0.505646  0.656197  0.164838  1
  Rh  Rh7  1  0.336220  0.835214  0.494564  1
  Rh  Rh8  1  0.837621  0.502322  0.335904  1
  Rh  Rh9  1  0.495934  0.340341  0.840849  1
  O  O10  1  0.669558  0.964606  0.297998  1
  O  O11  1  0.379630  0.731582  0.690673  1
  O  O12  1  0.686645  0.306370  0.034285  1
  O  O13  1  0.666279  0.375986  0.710310  1
  O  O14  1  0.040706  0.673733  0.291937  1
  O  O15  1  0.289826  0.665031  0.963189  1
  O  O16  1  0.301103  0.035907  0.678270  1
  O  O17  1  0.957475  0.298437  0.673026  1
  O  O18  1  0.744721  0.697057  0.388951  1
  O  O19  1  0.360464  0.617617  0.317320  1
  O  O20  1  0.622023  0.296210  0.340340  1
  O  O21  1  0.290867  0.343167  0.616325  1
  O  O22  1  0.643418  0.644200  0.999636  1
  O  O23  1  0.641804  0.013495  0.647724  1
  O  O24  1  0.996635  0.358013  0.363861  1
  O  O25  1  0.360708  0.992152  0.347647  1
  O  O26  1  0.008910  0.643651  0.644060  1
  O  O27  1  0.352789  0.353096  0.998800  1
  F  F28  1  0.996445  0.997427  0.998232  1
