# generated using pymatgen
data_TbTm5(LuAu2)2
_symmetry_space_group_name_H-M   'P 1'
_cell_length_a   4.85617700
_cell_length_b   7.07360249
_cell_length_c   8.82846654
_cell_angle_alpha   90.24729761
_cell_angle_beta   90.00000000
_cell_angle_gamma   90.00000000
_symmetry_Int_Tables_number   1
_chemical_formula_structural   TbTm5(LuAu2)2
_chemical_formula_sum   'Tb1 Tm5 Lu2 Au4'
_cell_volume   303.26087801
_cell_formula_units_Z   1
loop_
 _symmetry_equiv_pos_site_id
 _symmetry_equiv_pos_as_xyz
  1  'x, y, z'
loop_
 _atom_site_type_symbol
 _atom_site_label
 _atom_site_symmetry_multiplicity
 _atom_site_fract_x
 _atom_site_fract_y
 _atom_site_fract_z
 _atom_site_occupancy
  Tb  Tb0  1  0.250000  0.485410  0.176651  1
  Tm  Tm1  1  0.750000  0.148593  0.078442  1
  Tm  Tm2  1  0.750000  0.648896  0.422944  1
  Tm  Tm3  1  0.250000  0.984838  0.324795  1
  Tm  Tm4  1  0.750000  0.516065  0.822467  1
  Tm  Tm5  1  0.750000  0.016288  0.677917  1
  Lu  Lu6  1  0.250000  0.851720  0.921106  1
  Lu  Lu7  1  0.250000  0.351594  0.578423  1
  Au  Au8  1  0.250000  0.253103  0.894336  1
  Au  Au9  1  0.250000  0.754735  0.602468  1
  Au  Au10  1  0.750000  0.745994  0.099238  1
  Au  Au11  1  0.750000  0.242763  0.401213  1
