# generated using pymatgen
data_Lu6ScCo17As12
_symmetry_space_group_name_H-M   'P 1'
_cell_length_a   3.78724700
_cell_length_b   10.91938600
_cell_length_c   12.66951400
_cell_angle_alpha   90.00000000
_cell_angle_beta   90.00000000
_cell_angle_gamma   90.00000000
_symmetry_Int_Tables_number   1
_chemical_formula_structural   Lu6ScCo17As12
_chemical_formula_sum   'Lu6 Sc1 Co17 As12'
_cell_volume   523.94030015
_cell_formula_units_Z   1
loop_
 _symmetry_equiv_pos_site_id
 _symmetry_equiv_pos_as_xyz
  1  'x, y, z'
loop_
 _atom_site_type_symbol
 _atom_site_label
 _atom_site_symmetry_multiplicity
 _atom_site_fract_x
 _atom_site_fract_y
 _atom_site_fract_z
 _atom_site_occupancy
  Lu  Lu0  1  0.000000  0.500000  0.529379  1
  Lu  Lu1  1  0.500000  0.000000  0.474772  1
  Lu  Lu2  1  0.500000  0.823940  0.208837  1
  Lu  Lu3  1  0.500000  0.176060  0.208837  1
  Lu  Lu4  1  0.000000  0.679621  0.795668  1
  Lu  Lu5  1  0.000000  0.320379  0.795668  1
  Sc  Sc6  1  0.500000  0.500000  0.154886  1
  Co  Co7  1  0.000000  0.000000  0.839340  1
  Co  Co8  1  0.500000  0.500000  0.704144  1
  Co  Co9  1  0.000000  0.000000  0.296791  1
  Co  Co10  1  0.000000  0.500000  0.987924  1
  Co  Co11  1  0.500000  0.000000  0.011690  1
  Co  Co12  1  0.500000  0.326466  0.992020  1
  Co  Co13  1  0.500000  0.673534  0.992020  1
  Co  Co14  1  0.000000  0.162687  0.999164  1
  Co  Co15  1  0.000000  0.837313  0.999164  1
  Co  Co16  1  0.500000  0.295296  0.433994  1
  Co  Co17  1  0.500000  0.704704  0.433994  1
  Co  Co18  1  0.000000  0.201436  0.569670  1
  Co  Co19  1  0.000000  0.798564  0.569670  1
  Co  Co20  1  0.500000  0.879528  0.703510  1
  Co  Co21  1  0.500000  0.120472  0.703510  1
  Co  Co22  1  0.000000  0.623312  0.296289  1
  Co  Co23  1  0.000000  0.376688  0.296289  1
  As  As24  1  0.500000  0.500000  0.882357  1
  As  As25  1  0.000000  0.000000  0.118153  1
  As  As26  1  0.500000  0.500000  0.361741  1
  As  As27  1  0.000000  0.000000  0.649814  1
  As  As28  1  0.500000  0.314054  0.618255  1
  As  As29  1  0.500000  0.685946  0.618255  1
  As  As30  1  0.000000  0.185074  0.385072  1
  As  As31  1  0.000000  0.814926  0.385072  1
  As  As32  1  0.500000  0.848748  0.884307  1
  As  As33  1  0.500000  0.151252  0.884307  1
  As  As34  1  0.000000  0.666121  0.107719  1
  As  As35  1  0.000000  0.333879  0.107719  1
