# generated using pymatgen
data_NpAl6ZnCu5
_symmetry_space_group_name_H-M   'P 1'
_cell_length_a   5.06241938
_cell_length_b   6.66531930
_cell_length_c   6.66531888
_cell_angle_alpha   99.06986343
_cell_angle_beta   112.31872124
_cell_angle_gamma   67.68128524
_symmetry_Int_Tables_number   1
_chemical_formula_structural   NpAl6ZnCu5
_chemical_formula_sum   'Np1 Al6 Zn1 Cu5'
_cell_volume   192.44672586
_cell_formula_units_Z   1
loop_
 _symmetry_equiv_pos_site_id
 _symmetry_equiv_pos_as_xyz
  1  'x, y, z'
loop_
 _atom_site_type_symbol
 _atom_site_label
 _atom_site_symmetry_multiplicity
 _atom_site_fract_x
 _atom_site_fract_y
 _atom_site_fract_z
 _atom_site_occupancy
  Np  Np0  1  0.000000  0.000890  0.000890  1
  Al  Al1  1  0.654265  0.340445  0.648976  1
  Al  Al2  1  0.345735  0.648976  0.340445  1
  Al  Al3  1  0.000000  0.344502  0.344502  1
  Al  Al4  1  0.000000  0.653416  0.653416  1
  Al  Al5  1  0.705203  0.798834  0.209239  1
  Al  Al6  1  0.294797  0.209239  0.798834  1
  Zn  Zn7  1  0.500000  0.775255  0.775255  1
  Cu  Cu8  1  0.499609  0.999901  0.500818  1
  Cu  Cu9  1  0.001308  0.999901  0.500818  1
  Cu  Cu10  1  0.500391  0.500818  0.999901  1
  Cu  Cu11  1  0.998692  0.500818  0.999901  1
  Cu  Cu12  1  0.500000  0.227003  0.227003  1
