# generated using pymatgen
data_Y4Tm4B24MoOs3
_symmetry_space_group_name_H-M   'P 1'
_cell_length_a   3.63916800
_cell_length_b   9.14048645
_cell_length_c   11.54215905
_cell_angle_alpha   89.90698141
_cell_angle_beta   90.00000000
_cell_angle_gamma   90.00000000
_symmetry_Int_Tables_number   1
_chemical_formula_structural   Y4Tm4B24MoOs3
_chemical_formula_sum   'Y4 Tm4 B24 Mo1 Os3'
_cell_volume   383.93516949
_cell_formula_units_Z   1
loop_
 _symmetry_equiv_pos_site_id
 _symmetry_equiv_pos_as_xyz
  1  'x, y, z'
loop_
 _atom_site_type_symbol
 _atom_site_label
 _atom_site_symmetry_multiplicity
 _atom_site_fract_x
 _atom_site_fract_y
 _atom_site_fract_z
 _atom_site_occupancy
  Y  Y0  1  0.000000  0.321651  0.413223  1
  Y  Y1  1  0.000000  0.678015  0.584775  1
  Y  Y2  1  0.000000  0.820081  0.087140  1
  Y  Y3  1  0.000000  0.178096  0.914571  1
  Tm  Tm4  1  0.000000  0.944870  0.372597  1
  Tm  Tm5  1  0.000000  0.057549  0.628437  1
  Tm  Tm6  1  0.000000  0.443305  0.127112  1
  Tm  Tm7  1  0.000000  0.556774  0.871275  1
  B  B8  1  0.500000  0.551461  0.435032  1
  B  B9  1  0.500000  0.445884  0.568329  1
  B  B10  1  0.500000  0.053791  0.067452  1
  B  B11  1  0.500000  0.945936  0.932728  1
  B  B12  1  0.500000  0.751546  0.420900  1
  B  B13  1  0.500000  0.251332  0.581709  1
  B  B14  1  0.500000  0.249056  0.080894  1
  B  B15  1  0.500000  0.750636  0.918431  1
  B  B16  1  0.500000  0.794370  0.264946  1
  B  B17  1  0.500000  0.208576  0.734331  1
  B  B18  1  0.500000  0.290906  0.232907  1
  B  B19  1  0.500000  0.709226  0.765921  1
  B  B20  1  0.500000  0.630840  0.183161  1
  B  B21  1  0.500000  0.368981  0.815117  1
  B  B22  1  0.500000  0.130626  0.313944  1
  B  B23  1  0.500000  0.870126  0.685496  1
  B  B24  1  0.500000  0.982961  0.213178  1
  B  B25  1  0.500000  0.017421  0.787542  1
  B  B26  1  0.500000  0.478584  0.286004  1
  B  B27  1  0.500000  0.516649  0.713431  1
  B  B28  1  0.500000  0.603408  0.027234  1
  B  B29  1  0.500000  0.396079  0.970584  1
  B  B30  1  0.500000  0.104314  0.471777  1
  B  B31  1  0.500000  0.898335  0.529590  1
  Mo  Mo32  1  0.000000  0.637819  0.320708  1
  Os  Os33  1  0.000000  0.360782  0.681021  1
  Os  Os34  1  0.000000  0.137870  0.178204  1
  Os  Os35  1  0.000000  0.862142  0.820299  1
