# generated using pymatgen
data_TbGd2WO7
_symmetry_space_group_name_H-M   'P 1'
_cell_length_a   6.54423852
_cell_length_b   6.54423854
_cell_length_c   7.54835443
_cell_angle_alpha   89.97142176
_cell_angle_beta   89.97141691
_cell_angle_gamma   108.94418188
_symmetry_Int_Tables_number   1
_chemical_formula_structural   TbGd2WO7
_chemical_formula_sum   'Tb2 Gd4 W2 O14'
_cell_volume   305.76367003
_cell_formula_units_Z   2
loop_
 _symmetry_equiv_pos_site_id
 _symmetry_equiv_pos_as_xyz
  1  'x, y, z'
loop_
 _atom_site_type_symbol
 _atom_site_label
 _atom_site_symmetry_multiplicity
 _atom_site_fract_x
 _atom_site_fract_y
 _atom_site_fract_z
 _atom_site_occupancy
  Tb  Tb0  1  0.533852  0.000839  0.755839  1
  Tb  Tb1  1  0.999161  0.466148  0.744161  1
  Gd  Gd2  1  0.467225  0.999221  0.253220  1
  Gd  Gd3  1  0.000779  0.532775  0.246780  1
  Gd  Gd4  1  0.478419  0.478675  0.998648  1
  Gd  Gd5  1  0.521325  0.521581  0.501352  1
  W  W6  1  0.999644  0.999920  0.501035  1
  W  W7  1  0.000080  0.000356  0.998965  1
  O  O8  1  0.925931  0.074069  0.750000  1
  O  O9  1  0.637948  0.362052  0.750000  1
  O  O10  1  0.310320  0.058575  0.537971  1
  O  O11  1  0.941425  0.689680  0.962029  1
  O  O12  1  0.630808  0.369192  0.250000  1
  O  O13  1  0.917995  0.674617  0.527387  1
  O  O14  1  0.325383  0.082005  0.972613  1
  O  O15  1  0.079531  0.322618  0.024985  1
  O  O16  1  0.677382  0.920469  0.475015  1
  O  O17  1  0.368123  0.631877  0.750000  1
  O  O18  1  0.684261  0.934736  0.031717  1
  O  O19  1  0.065264  0.315739  0.468283  1
  O  O20  1  0.363839  0.636161  0.250000  1
  O  O21  1  0.071303  0.928697  0.250000  1
