# generated using pymatgen
data_Zr7ScTa11Si16W
_symmetry_space_group_name_H-M   'P 1'
_cell_length_a   6.67604860
_cell_length_b   6.85437863
_cell_length_c   13.12731307
_cell_angle_alpha   89.96332923
_cell_angle_beta   89.96059310
_cell_angle_gamma   90.03255293
_symmetry_Int_Tables_number   1
_chemical_formula_structural   Zr7ScTa11Si16W
_chemical_formula_sum   'Zr7 Sc1 Ta11 Si16 W1'
_cell_volume   600.70764808
_cell_formula_units_Z   1
loop_
 _symmetry_equiv_pos_site_id
 _symmetry_equiv_pos_as_xyz
  1  'x, y, z'
loop_
 _atom_site_type_symbol
 _atom_site_label
 _atom_site_symmetry_multiplicity
 _atom_site_fract_x
 _atom_site_fract_y
 _atom_site_fract_z
 _atom_site_occupancy
  Zr  Zr0  1  0.499233  0.672612  0.593653  1
  Zr  Zr1  1  0.996773  0.827098  0.906494  1
  Zr  Zr2  1  0.502774  0.327220  0.092457  1
  Zr  Zr3  1  0.004711  0.173371  0.406201  1
  Zr  Zr4  1  0.501836  0.326529  0.407339  1
  Zr  Zr5  1  0.004222  0.172081  0.093488  1
  Zr  Zr6  1  0.496710  0.673696  0.906452  1
  Sc  Sc7  1  0.996406  0.827927  0.592941  1
  Ta  Ta8  1  0.661664  0.172006  0.623285  1
  Ta  Ta9  1  0.164780  0.329199  0.876228  1
  Ta  Ta10  1  0.334968  0.830356  0.124855  1
  Ta  Ta11  1  0.834939  0.668881  0.375684  1
  Ta  Ta12  1  0.335097  0.830443  0.375292  1
  Ta  Ta13  1  0.836243  0.668693  0.124419  1
  Ta  Ta14  1  0.663767  0.170634  0.876767  1
  Ta  Ta15  1  0.166051  0.329663  0.624215  1
  Ta  Ta16  1  0.839697  0.494053  0.750982  1
  Ta  Ta17  1  0.339856  0.005459  0.750270  1
  Ta  Ta18  1  0.160485  0.504358  0.250111  1
  Si  Si19  1  0.670838  0.963023  0.459506  1
  Si  Si20  1  0.171056  0.537898  0.038497  1
  Si  Si21  1  0.329154  0.037115  0.961521  1
  Si  Si22  1  0.831460  0.463861  0.539355  1
  Si  Si23  1  0.327602  0.035532  0.538891  1
  Si  Si24  1  0.829299  0.462521  0.961448  1
  Si  Si25  1  0.671285  0.961757  0.040204  1
  Si  Si26  1  0.169846  0.537890  0.461323  1
  Si  Si27  1  0.463358  0.387532  0.750398  1
  Si  Si28  1  0.962764  0.113127  0.749283  1
  Si  Si29  1  0.538132  0.614054  0.250191  1
  Si  Si30  1  0.032464  0.888647  0.250434  1
  Si  Si31  1  0.706697  0.861384  0.748903  1
  Si  Si32  1  0.203423  0.640100  0.748705  1
  Si  Si33  1  0.299008  0.138730  0.249985  1
  Si  Si34  1  0.793951  0.356775  0.250376  1
  W  W35  1  0.659454  0.995775  0.249846  1
