# generated using pymatgen
data_Cs3Rb3(ScSe3)2
_symmetry_space_group_name_H-M   'P 1'
_cell_length_a   14.62449300
_cell_length_b   8.63929472
_cell_length_c   11.33875724
_cell_angle_alpha   52.83726888
_cell_angle_beta   90.00000000
_cell_angle_gamma   90.00000000
_symmetry_Int_Tables_number   1
_chemical_formula_structural   Cs3Rb3(ScSe3)2
_chemical_formula_sum   'Cs6 Rb6 Sc4 Se12'
_cell_volume   1141.67091702
_cell_formula_units_Z   2
loop_
 _symmetry_equiv_pos_site_id
 _symmetry_equiv_pos_as_xyz
  1  'x, y, z'
loop_
 _atom_site_type_symbol
 _atom_site_label
 _atom_site_symmetry_multiplicity
 _atom_site_fract_x
 _atom_site_fract_y
 _atom_site_fract_z
 _atom_site_occupancy
  Cs  Cs0  1  0.364191  0.394197  0.475777  1
  Cs  Cs1  1  0.864191  0.605803  0.024223  1
  Cs  Cs2  1  0.812249  0.130977  0.572627  1
  Cs  Cs3  1  0.312249  0.869023  0.927373  1
  Cs  Cs4  1  0.186658  0.872556  0.428193  1
  Cs  Cs5  1  0.686658  0.127444  0.071807  1
  Rb  Rb6  1  0.928547  0.643811  0.609673  1
  Rb  Rb7  1  0.428547  0.356189  0.890327  1
  Rb  Rb8  1  0.073586  0.354235  0.394830  1
  Rb  Rb9  1  0.573586  0.645765  0.105170  1
  Rb  Rb10  1  0.632099  0.610856  0.523982  1
  Rb  Rb11  1  0.132099  0.389144  0.976018  1
  Sc  Sc12  1  0.557254  0.942560  0.657207  1
  Sc  Sc13  1  0.057254  0.057440  0.842793  1
  Sc  Sc14  1  0.442933  0.059696  0.338050  1
  Sc  Sc15  1  0.942933  0.940304  0.161950  1
  Se  Se16  1  0.104110  0.844776  0.123429  1
  Se  Se17  1  0.604110  0.155224  0.376571  1
  Se  Se18  1  0.895417  0.149888  0.881571  1
  Se  Se19  1  0.395417  0.850112  0.618429  1
  Se  Se20  1  0.046030  0.870784  0.736208  1
  Se  Se21  1  0.546030  0.129216  0.763792  1
  Se  Se22  1  0.961632  0.128297  0.265923  1
  Se  Se23  1  0.461632  0.871703  0.234077  1
  Se  Se24  1  0.662305  0.649731  0.812431  1
  Se  Se25  1  0.162305  0.350269  0.687569  1
  Se  Se26  1  0.332990  0.344853  0.180898  1
  Se  Se27  1  0.832990  0.655147  0.319102  1
