# generated using pymatgen
data_NdScU6(Nb3Si4)4
_symmetry_space_group_name_H-M   'P 1'
_cell_length_a   7.04559955
_cell_length_b   7.05474118
_cell_length_c   13.04405890
_cell_angle_alpha   89.85109105
_cell_angle_beta   89.93789570
_cell_angle_gamma   89.74276661
_symmetry_Int_Tables_number   1
_chemical_formula_structural   NdScU6(Nb3Si4)4
_chemical_formula_sum   'Nd1 Sc1 U6 Nb12 Si16'
_cell_volume   648.34430266
_cell_formula_units_Z   1
loop_
 _symmetry_equiv_pos_site_id
 _symmetry_equiv_pos_as_xyz
  1  'x, y, z'
loop_
 _atom_site_type_symbol
 _atom_site_label
 _atom_site_symmetry_multiplicity
 _atom_site_fract_x
 _atom_site_fract_y
 _atom_site_fract_z
 _atom_site_occupancy
  Nd  Nd0  1  0.996880  0.334787  0.217530  1
  Sc  Sc1  1  0.995775  0.659893  0.716276  1
  U  U2  1  0.170067  0.491915  0.469639  1
  U  U3  1  0.508111  0.831587  0.029090  1
  U  U4  1  0.830711  0.508724  0.967342  1
  U  U5  1  0.490609  0.167774  0.532829  1
  U  U6  1  0.339011  0.002425  0.781502  1
  U  U7  1  0.660636  0.997394  0.282509  1
  Nb  Nb8  1  0.170963  0.168494  0.996410  1
  Nb  Nb9  1  0.829827  0.830016  0.500103  1
  Nb  Nb10  1  0.333463  0.670191  0.250940  1
  Nb  Nb11  1  0.667331  0.330782  0.749855  1
  Nb  Nb12  1  0.158182  0.996455  0.378490  1
  Nb  Nb13  1  0.845875  0.003405  0.873789  1
  Nb  Nb14  1  0.503048  0.655141  0.625260  1
  Nb  Nb15  1  0.348196  0.500318  0.874724  1
  Nb  Nb16  1  0.496847  0.344292  0.123955  1
  Nb  Nb17  1  0.652247  0.503237  0.378608  1
  Nb  Nb18  1  0.000330  0.155954  0.626517  1
  Nb  Nb19  1  0.000611  0.842568  0.124617  1
  Si  Si20  1  0.296893  0.036783  0.183778  1
  Si  Si21  1  0.707534  0.958378  0.684582  1
  Si  Si22  1  0.456898  0.795818  0.437346  1
  Si  Si23  1  0.205694  0.544420  0.061840  1
  Si  Si24  1  0.542413  0.205045  0.935009  1
  Si  Si25  1  0.798770  0.458997  0.566063  1
  Si  Si26  1  0.039521  0.302876  0.813876  1
  Si  Si27  1  0.959699  0.706545  0.316557  1
  Si  Si28  1  0.374408  0.290358  0.317120  1
  Si  Si29  1  0.634467  0.708710  0.814513  1
  Si  Si30  1  0.201453  0.863549  0.571174  1
  Si  Si31  1  0.130315  0.793667  0.929927  1
  Si  Si32  1  0.792327  0.128812  0.064533  1
  Si  Si33  1  0.868111  0.204255  0.435087  1
  Si  Si34  1  0.289728  0.375715  0.684272  1
  Si  Si35  1  0.703049  0.630720  0.184338  1
