# generated using pymatgen
data_CaHo3Al18OsPt5
_symmetry_space_group_name_H-M   'P 1'
_cell_length_a   7.62006720
_cell_length_b   7.61625788
_cell_length_c   9.45796102
_cell_angle_alpha   90.05747546
_cell_angle_beta   90.09585642
_cell_angle_gamma   119.71589003
_symmetry_Int_Tables_number   1
_chemical_formula_structural   CaHo3Al18OsPt5
_chemical_formula_sum   'Ca1 Ho3 Al18 Os1 Pt5'
_cell_volume   476.71986164
_cell_formula_units_Z   1
loop_
 _symmetry_equiv_pos_site_id
 _symmetry_equiv_pos_as_xyz
  1  'x, y, z'
loop_
 _atom_site_type_symbol
 _atom_site_label
 _atom_site_symmetry_multiplicity
 _atom_site_fract_x
 _atom_site_fract_y
 _atom_site_fract_z
 _atom_site_occupancy
  Ca  Ca0  1  0.994748  0.670361  0.248921  1
  Ho  Ho1  1  0.004743  0.330872  0.751090  1
  Ho  Ho2  1  0.670414  0.996502  0.248689  1
  Ho  Ho3  1  0.329770  0.003956  0.751394  1
  Al  Al4  1  0.129343  0.133081  0.249218  1
  Al  Al5  1  0.869954  0.871344  0.750642  1
  Al  Al6  1  0.995415  0.335075  0.074872  1
  Al  Al7  1  0.995129  0.659296  0.925554  1
  Al  Al8  1  0.999072  0.666149  0.577909  1
  Al  Al9  1  0.333567  0.000427  0.422300  1
  Al  Al10  1  0.000490  0.335031  0.423666  1
  Al  Al11  1  0.665286  0.999888  0.577644  1
  Al  Al12  1  0.665949  0.003620  0.924134  1
  Al  Al13  1  0.339756  0.003703  0.074775  1
  Al  Al14  1  0.333394  0.333737  0.560540  1
  Al  Al15  1  0.665445  0.666338  0.441813  1
  Al  Al16  1  0.668610  0.661896  0.052478  1
  Al  Al17  1  0.337073  0.331342  0.945784  1
  Al  Al18  1  0.341811  0.547692  0.249090  1
  Al  Al19  1  0.660351  0.451758  0.753387  1
  Al  Al20  1  0.547288  0.337651  0.245974  1
  Al  Al21  1  0.454691  0.662126  0.750863  1
  Os  Os22  1  0.670559  0.325685  0.998524  1
  Pt  Pt23  1  0.328323  0.671031  0.998611  1
  Pt  Pt24  1  0.327241  0.672277  0.501301  1
  Pt  Pt25  1  0.670640  0.326862  0.501053  1
  Pt  Pt26  1  0.001097  0.000725  0.998860  1
  Pt  Pt27  1  0.999844  0.001578  0.500916  1
