# generated using pymatgen
data_CaB9N
_symmetry_space_group_name_H-M   'P 1'
_cell_length_a   5.55716045
_cell_length_b   5.55716096
_cell_length_c   7.54193617
_cell_angle_alpha   111.61804788
_cell_angle_beta   68.38195108
_cell_angle_gamma   119.99999680
_symmetry_Int_Tables_number   1
_chemical_formula_structural   CaB9N
_chemical_formula_sum   'Ca2 B18 N2'
_cell_volume   182.54415764
_cell_formula_units_Z   2
loop_
 _symmetry_equiv_pos_site_id
 _symmetry_equiv_pos_as_xyz
  1  'x, y, z'
loop_
 _atom_site_type_symbol
 _atom_site_label
 _atom_site_symmetry_multiplicity
 _atom_site_fract_x
 _atom_site_fract_y
 _atom_site_fract_z
 _atom_site_occupancy
  Ca  Ca0  1  0.299977  0.700022  0.100066  1
  Ca  Ca1  1  0.700021  0.299978  0.899934  1
  B  B2  1  0.170593  0.139691  0.108788  1
  B  B3  1  0.860310  0.139690  0.108788  1
  B  B4  1  0.860310  0.829408  0.108788  1
  B  B5  1  0.353515  0.324571  0.295626  1
  B  B6  1  0.675430  0.324570  0.295626  1
  B  B7  1  0.675430  0.646486  0.295626  1
  B  B8  1  0.337250  0.131999  0.457500  1
  B  B9  1  0.337250  0.662750  0.457500  1
  B  B10  1  0.868000  0.662750  0.457500  1
  B  B11  1  0.131999  0.337250  0.542501  1
  B  B12  1  0.662750  0.337250  0.542501  1
  B  B13  1  0.662750  0.868001  0.542501  1
  B  B14  1  0.324571  0.353515  0.704374  1
  B  B15  1  0.324571  0.675430  0.704374  1
  B  B16  1  0.646484  0.675429  0.704374  1
  B  B17  1  0.139691  0.170593  0.891212  1
  B  B18  1  0.139691  0.860310  0.891212  1
  B  B19  1  0.829408  0.860310  0.891212  1
  N  N20  1  0.189813  0.810186  0.430561  1
  N  N21  1  0.810186  0.189813  0.569439  1
