# generated using pymatgen
data_LaNdCdPtAu
_symmetry_space_group_name_H-M   'P 1'
_cell_length_a   8.08414821
_cell_length_b   8.08414895
_cell_length_c   3.92046100
_cell_angle_alpha   90.00000000
_cell_angle_beta   90.00000000
_cell_angle_gamma   90.60264593
_symmetry_Int_Tables_number   1
_chemical_formula_structural   LaNdCdPtAu
_chemical_formula_sum   'La2 Nd2 Cd2 Pt2 Au2'
_cell_volume   256.20151142
_cell_formula_units_Z   2
loop_
 _symmetry_equiv_pos_site_id
 _symmetry_equiv_pos_as_xyz
  1  'x, y, z'
loop_
 _atom_site_type_symbol
 _atom_site_label
 _atom_site_symmetry_multiplicity
 _atom_site_fract_x
 _atom_site_fract_y
 _atom_site_fract_z
 _atom_site_occupancy
  La  La0  1  0.683542  0.183542  0.500000  1
  La  La1  1  0.316458  0.816458  0.500000  1
  Nd  Nd2  1  0.164824  0.335176  0.500000  1
  Nd  Nd3  1  0.835176  0.664824  0.500000  1
  Cd  Cd4  1  0.000000  0.000000  0.000000  1
  Cd  Cd5  1  0.500000  0.500000  0.000000  1
  Pt  Pt6  1  0.126445  0.626445  0.000000  1
  Pt  Pt7  1  0.873555  0.373555  0.000000  1
  Au  Au8  1  0.627944  0.872056  0.000000  1
  Au  Au9  1  0.372056  0.127944  0.000000  1
