# generated using pymatgen
data_Ho12Cd2Tc3
_symmetry_space_group_name_H-M   'P 1'
_cell_length_a   8.39211108
_cell_length_b   8.39230953
_cell_length_c   8.39211202
_cell_angle_alpha   109.69225621
_cell_angle_beta   109.68592978
_cell_angle_gamma   109.03538575
_symmetry_Int_Tables_number   1
_chemical_formula_structural   Ho12Cd2Tc3
_chemical_formula_sum   'Ho12 Cd2 Tc3'
_cell_volume   454.97598409
_cell_formula_units_Z   1
loop_
 _symmetry_equiv_pos_site_id
 _symmetry_equiv_pos_as_xyz
  1  'x, y, z'
loop_
 _atom_site_type_symbol
 _atom_site_label
 _atom_site_symmetry_multiplicity
 _atom_site_fract_x
 _atom_site_fract_y
 _atom_site_fract_z
 _atom_site_occupancy
  Ho  Ho0  1  0.187099  0.431602  0.244503  1
  Ho  Ho1  1  0.812901  0.568398  0.755497  1
  Ho  Ho2  1  0.187102  0.942606  0.755503  1
  Ho  Ho3  1  0.942635  0.187114  0.755522  1
  Ho  Ho4  1  0.812898  0.057394  0.244497  1
  Ho  Ho5  1  0.057365  0.812886  0.244478  1
  Ho  Ho6  1  0.431592  0.187114  0.244480  1
  Ho  Ho7  1  0.568408  0.812886  0.755520  1
  Ho  Ho8  1  0.319073  0.319059  0.638137  1
  Ho  Ho9  1  0.680927  0.680941  0.361863  1
  Ho  Ho10  1  0.680924  0.319059  0.999987  1
  Ho  Ho11  1  0.319076  0.680941  0.000013  1
  Cd  Cd12  1  0.000000  0.500000  0.500000  1
  Cd  Cd13  1  0.500000  0.000000  0.500000  1
  Tc  Tc14  1  0.338413  0.338408  0.999995  1
  Tc  Tc15  1  0.661587  0.661592  0.000005  1
  Tc  Tc16  1  0.000000  0.000000  0.000000  1
