# generated using pymatgen
data_Ti12Nb8Si15As
_symmetry_space_group_name_H-M   'P 1'
_cell_length_a   6.70305414
_cell_length_b   6.69821960
_cell_length_c   12.27896245
_cell_angle_alpha   90.06361563
_cell_angle_beta   89.79975896
_cell_angle_gamma   90.05673353
_symmetry_Int_Tables_number   1
_chemical_formula_structural   Ti12Nb8Si15As
_chemical_formula_sum   'Ti12 Nb8 Si15 As1'
_cell_volume   551.30337183
_cell_formula_units_Z   1
loop_
 _symmetry_equiv_pos_site_id
 _symmetry_equiv_pos_as_xyz
  1  'x, y, z'
loop_
 _atom_site_type_symbol
 _atom_site_label
 _atom_site_symmetry_multiplicity
 _atom_site_fract_x
 _atom_site_fract_y
 _atom_site_fract_z
 _atom_site_occupancy
  Ti  Ti0  1  0.330005  0.330494  0.000192  1
  Ti  Ti1  1  0.169563  0.830583  0.249790  1
  Ti  Ti2  1  0.828800  0.170111  0.750087  1
  Ti  Ti3  1  0.668966  0.669351  0.499587  1
  Ti  Ti4  1  0.153995  0.004053  0.872573  1
  Ti  Ti5  1  0.496810  0.651881  0.121928  1
  Ti  Ti6  1  0.502888  0.347812  0.623231  1
  Ti  Ti7  1  0.653289  0.497831  0.878540  1
  Ti  Ti8  1  0.347065  0.503244  0.377714  1
  Ti  Ti9  1  0.847074  0.997036  0.371785  1
  Ti  Ti10  1  0.003310  0.151911  0.127850  1
  Ti  Ti11  1  0.994635  0.846414  0.626904  1
  Nb  Nb12  1  0.342350  0.993546  0.469886  1
  Nb  Nb13  1  0.508539  0.838381  0.723286  1
  Nb  Nb14  1  0.495295  0.157735  0.221856  1
  Nb  Nb15  1  0.840566  0.504210  0.277825  1
  Nb  Nb16  1  0.157709  0.499222  0.778346  1
  Nb  Nb17  1  0.661768  0.002737  0.973464  1
  Nb  Nb18  1  0.989410  0.345262  0.525876  1
  Nb  Nb19  1  0.005335  0.658383  0.028196  1
  Si  Si20  1  0.363368  0.707396  0.923490  1
  Si  Si21  1  0.635220  0.292463  0.422707  1
  Si  Si22  1  0.707680  0.362672  0.077596  1
  Si  Si23  1  0.292875  0.638033  0.576494  1
  Si  Si24  1  0.792880  0.862437  0.172929  1
  Si  Si25  1  0.136635  0.207544  0.326667  1
  Si  Si26  1  0.864667  0.793140  0.827259  1
  Si  Si27  1  0.299145  0.956188  0.064031  1
  Si  Si28  1  0.544022  0.797225  0.313143  1
  Si  Si29  1  0.463316  0.199893  0.818288  1
  Si  Si30  1  0.797720  0.544120  0.686554  1
  Si  Si31  1  0.201288  0.456199  0.186224  1
  Si  Si32  1  0.700233  0.043354  0.563401  1
  Si  Si33  1  0.956579  0.298450  0.936447  1
  Si  Si34  1  0.043271  0.702267  0.435236  1
  As  As35  1  0.203731  0.138424  0.670621  1
