# generated using pymatgen
data_YbTm4HfH18
_symmetry_space_group_name_H-M   'P 1'
_cell_length_a   6.15040239
_cell_length_b   6.15771837
_cell_length_c   6.42059606
_cell_angle_alpha   89.85616901
_cell_angle_beta   90.06953822
_cell_angle_gamma   119.92807796
_symmetry_Int_Tables_number   1
_chemical_formula_structural   YbTm4HfH18
_chemical_formula_sum   'Yb1 Tm4 Hf1 H18'
_cell_volume   210.73770959
_cell_formula_units_Z   1
loop_
 _symmetry_equiv_pos_site_id
 _symmetry_equiv_pos_as_xyz
  1  'x, y, z'
loop_
 _atom_site_type_symbol
 _atom_site_label
 _atom_site_symmetry_multiplicity
 _atom_site_fract_x
 _atom_site_fract_y
 _atom_site_fract_z
 _atom_site_occupancy
  Yb  Yb0  1  0.335025  0.337134  0.750169  1
  Tm  Tm1  1  0.996237  0.659079  0.749690  1
  Tm  Tm2  1  0.662043  0.663019  0.252756  1
  Tm  Tm3  1  0.001712  0.334689  0.246108  1
  Tm  Tm4  1  0.336652  0.002548  0.251116  1
  Hf  Hf5  1  0.657895  0.998717  0.750133  1
  H  H6  1  0.343043  0.960060  0.904935  1
  H  H7  1  0.650973  0.705277  0.905134  1
  H  H8  1  0.012150  0.349487  0.908112  1
  H  H9  1  0.317034  0.342806  0.404230  1
  H  H10  1  0.030173  0.679682  0.409628  1
  H  H11  1  0.657144  0.973898  0.420259  1
  H  H12  1  0.681583  0.027080  0.079981  1
  H  H13  1  0.348084  0.320806  0.095941  1
  H  H14  1  0.973058  0.658773  0.090032  1
  H  H15  1  0.685587  0.661655  0.591392  1
  H  H16  1  0.939343  0.304610  0.595307  1
  H  H17  1  0.377327  0.023678  0.594728  1
  H  H18  1  0.977596  0.994356  0.750257  1
  H  H19  1  0.999650  0.998798  0.250338  1
  H  H20  1  0.668190  0.313733  0.814782  1
  H  H21  1  0.668291  0.334295  0.307775  1
  H  H22  1  0.332994  0.667233  0.191983  1
  H  H23  1  0.348214  0.688587  0.685215  1
