# generated using pymatgen
data_Sr3Ca2LaPtRhO12
_symmetry_space_group_name_H-M   'P 1'
_cell_length_a   5.95125808
_cell_length_b   5.76286366
_cell_length_c   10.01193600
_cell_angle_alpha   55.41299641
_cell_angle_beta   90.31524468
_cell_angle_gamma   90.06104671
_symmetry_Int_Tables_number   1
_chemical_formula_structural   Sr3Ca2LaPtRhO12
_chemical_formula_sum   'Sr3 Ca2 La1 Pt1 Rh1 O12'
_cell_volume   282.68124509
_cell_formula_units_Z   1
loop_
 _symmetry_equiv_pos_site_id
 _symmetry_equiv_pos_as_xyz
  1  'x, y, z'
loop_
 _atom_site_type_symbol
 _atom_site_label
 _atom_site_symmetry_multiplicity
 _atom_site_fract_x
 _atom_site_fract_y
 _atom_site_fract_z
 _atom_site_occupancy
  Sr  Sr0  1  0.050735  0.259070  0.751724  1
  Sr  Sr1  1  0.948755  0.736701  0.247887  1
  Sr  Sr2  1  0.451625  0.264872  0.248627  1
  Ca  Ca3  1  0.005006  0.000772  0.496305  1
  Ca  Ca4  1  0.497620  0.998515  0.002865  1
  La  La5  1  0.557569  0.738848  0.749293  1
  Pt  Pt6  1  0.999755  0.504271  0.997551  1
  Rh  Rh7  1  0.500447  0.494805  0.502173  1
  O  O8  1  0.528760  0.810700  0.274471  1
  O  O9  1  0.031309  0.182266  0.229145  1
  O  O10  1  0.473330  0.164060  0.732903  1
  O  O11  1  0.960613  0.822702  0.763450  1
  O  O12  1  0.766783  0.632807  0.558060  1
  O  O13  1  0.282579  0.381014  0.942406  1
  O  O14  1  0.227356  0.367047  0.451503  1
  O  O15  1  0.720753  0.639856  0.044114  1
  O  O16  1  0.187459  0.740634  0.040411  1
  O  O17  1  0.688137  0.257738  0.463619  1
  O  O18  1  0.802739  0.278005  0.950125  1
  O  O19  1  0.318673  0.725316  0.553369  1
