# generated using pymatgen
data_K2RbSc(H6Ir)2
_symmetry_space_group_name_H-M   'P 1'
_cell_length_a   8.00299600
_cell_length_b   8.00299600
_cell_length_c   7.40880900
_cell_angle_alpha   90.00000000
_cell_angle_beta   90.00000000
_cell_angle_gamma   90.00000000
_symmetry_Int_Tables_number   1
_chemical_formula_structural   K2RbSc(H6Ir)2
_chemical_formula_sum   'K4 Rb2 Sc2 H24 Ir4'
_cell_volume   474.51899117
_cell_formula_units_Z   2
loop_
 _symmetry_equiv_pos_site_id
 _symmetry_equiv_pos_as_xyz
  1  'x, y, z'
loop_
 _atom_site_type_symbol
 _atom_site_label
 _atom_site_symmetry_multiplicity
 _atom_site_fract_x
 _atom_site_fract_y
 _atom_site_fract_z
 _atom_site_occupancy
  K  K0  1  0.000000  0.000000  0.500000  1
  K  K1  1  0.000000  0.500000  0.000000  1
  K  K2  1  0.500000  0.000000  0.000000  1
  K  K3  1  0.000000  0.000000  0.000000  1
  Rb  Rb4  1  0.000000  0.500000  0.500000  1
  Rb  Rb5  1  0.500000  0.000000  0.500000  1
  Sc  Sc6  1  0.500000  0.500000  0.500000  1
  Sc  Sc7  1  0.500000  0.500000  0.000000  1
  H  H8  1  0.700999  0.700999  0.473151  1
  H  H9  1  0.299001  0.299001  0.473151  1
  H  H10  1  0.093349  0.716623  0.756767  1
  H  H11  1  0.283377  0.906651  0.756767  1
  H  H12  1  0.716623  0.093349  0.756767  1
  H  H13  1  0.906651  0.283377  0.756767  1
  H  H14  1  0.705199  0.512260  0.755417  1
  H  H15  1  0.512260  0.705199  0.755417  1
  H  H16  1  0.487740  0.294801  0.755417  1
  H  H17  1  0.294801  0.487740  0.755417  1
  H  H18  1  0.295587  0.704413  0.981441  1
  H  H19  1  0.704413  0.295587  0.981441  1
  H  H20  1  0.704413  0.704413  0.018559  1
  H  H21  1  0.295587  0.295587  0.018559  1
  H  H22  1  0.294801  0.512260  0.244583  1
  H  H23  1  0.487740  0.705199  0.244583  1
  H  H24  1  0.512260  0.294801  0.244583  1
  H  H25  1  0.705199  0.487740  0.244583  1
  H  H26  1  0.906651  0.716623  0.243233  1
  H  H27  1  0.716623  0.906651  0.243233  1
  H  H28  1  0.283377  0.093349  0.243233  1
  H  H29  1  0.093349  0.283377  0.243233  1
  H  H30  1  0.299001  0.700999  0.526849  1
  H  H31  1  0.700999  0.299001  0.526849  1
  Ir  Ir32  1  0.302762  0.697238  0.755034  1
  Ir  Ir33  1  0.697238  0.302762  0.755034  1
  Ir  Ir34  1  0.697238  0.697238  0.244966  1
  Ir  Ir35  1  0.302762  0.302762  0.244966  1
