# generated using pymatgen
data_Sr2AgBrO2
_symmetry_space_group_name_H-M   'P 1'
_cell_length_a   10.37542030
_cell_length_b   10.37542056
_cell_length_c   10.37542147
_cell_angle_alpha   22.49594736
_cell_angle_beta   22.49594138
_cell_angle_gamma   22.49594776
_symmetry_Int_Tables_number   1
_chemical_formula_structural   Sr2AgBrO2
_chemical_formula_sum   'Sr2 Ag1 Br1 O2'
_cell_volume   143.42334146
_cell_formula_units_Z   1
loop_
 _symmetry_equiv_pos_site_id
 _symmetry_equiv_pos_as_xyz
  1  'x, y, z'
loop_
 _atom_site_type_symbol
 _atom_site_label
 _atom_site_symmetry_multiplicity
 _atom_site_fract_x
 _atom_site_fract_y
 _atom_site_fract_z
 _atom_site_occupancy
  Sr  Sr0  1  0.256707  0.256707  0.256707  1
  Sr  Sr1  1  0.743293  0.743293  0.743293  1
  Ag  Ag2  1  0.500000  0.500000  0.500000  1
  Br  Br3  1  0.000000  0.000000  0.000000  1
  O  O4  1  0.431763  0.431763  0.431763  1
  O  O5  1  0.568237  0.568237  0.568237  1
