# generated using pymatgen
data_Ca2Sc2ReB12Os
_symmetry_space_group_name_H-M   'P 1'
_cell_length_a   3.55408600
_cell_length_b   9.04662979
_cell_length_c   11.40540073
_cell_angle_alpha   90.01259106
_cell_angle_beta   90.00000000
_cell_angle_gamma   90.00000000
_symmetry_Int_Tables_number   1
_chemical_formula_structural   Ca2Sc2ReB12Os
_chemical_formula_sum   'Ca4 Sc4 Re2 B24 Os2'
_cell_volume   366.71214126
_cell_formula_units_Z   2
loop_
 _symmetry_equiv_pos_site_id
 _symmetry_equiv_pos_as_xyz
  1  'x, y, z'
loop_
 _atom_site_type_symbol
 _atom_site_label
 _atom_site_symmetry_multiplicity
 _atom_site_fract_x
 _atom_site_fract_y
 _atom_site_fract_z
 _atom_site_occupancy
  Ca  Ca0  1  0.000000  0.324384  0.415554  1
  Ca  Ca1  1  0.000000  0.675616  0.584446  1
  Ca  Ca2  1  0.000000  0.823375  0.085199  1
  Ca  Ca3  1  0.000000  0.176625  0.914801  1
  Sc  Sc4  1  0.000000  0.943625  0.367070  1
  Sc  Sc5  1  0.000000  0.056375  0.632930  1
  Sc  Sc6  1  0.000000  0.444509  0.132675  1
  Sc  Sc7  1  0.000000  0.555491  0.867325  1
  Re  Re8  1  0.000000  0.144223  0.183474  1
  Re  Re9  1  0.000000  0.855777  0.816526  1
  B  B10  1  0.500000  0.555306  0.431812  1
  B  B11  1  0.500000  0.444694  0.568188  1
  B  B12  1  0.500000  0.054901  0.067747  1
  B  B13  1  0.500000  0.945099  0.932253  1
  B  B14  1  0.500000  0.754090  0.416850  1
  B  B15  1  0.500000  0.245910  0.583150  1
  B  B16  1  0.500000  0.255596  0.081877  1
  B  B17  1  0.500000  0.744404  0.918123  1
  B  B18  1  0.500000  0.795750  0.264103  1
  B  B19  1  0.500000  0.204250  0.735897  1
  B  B20  1  0.500000  0.297399  0.236800  1
  B  B21  1  0.500000  0.702601  0.763200  1
  B  B22  1  0.500000  0.630524  0.183296  1
  B  B23  1  0.500000  0.369476  0.816704  1
  B  B24  1  0.500000  0.129976  0.318149  1
  B  B25  1  0.500000  0.870024  0.681851  1
  B  B26  1  0.500000  0.982376  0.213378  1
  B  B27  1  0.500000  0.017624  0.786622  1
  B  B28  1  0.500000  0.484195  0.286936  1
  B  B29  1  0.500000  0.515805  0.713064  1
  B  B30  1  0.500000  0.592577  0.024813  1
  B  B31  1  0.500000  0.407423  0.975187  1
  B  B32  1  0.500000  0.092414  0.475249  1
  B  B33  1  0.500000  0.907586  0.524751  1
  Os  Os34  1  0.000000  0.643343  0.317336  1
  Os  Os35  1  0.000000  0.356657  0.682664  1
