# generated using pymatgen
data_Sm12Si12HgAu11
_symmetry_space_group_name_H-M   'P 1'
_cell_length_a   4.34298200
_cell_length_b   7.50872915
_cell_length_c   24.15177754
_cell_angle_alpha   90.01896621
_cell_angle_beta   90.00000000
_cell_angle_gamma   90.00000000
_symmetry_Int_Tables_number   1
_chemical_formula_structural   Sm12Si12HgAu11
_chemical_formula_sum   'Sm12 Si12 Hg1 Au11'
_cell_volume   787.59607769
_cell_formula_units_Z   1
loop_
 _symmetry_equiv_pos_site_id
 _symmetry_equiv_pos_as_xyz
  1  'x, y, z'
loop_
 _atom_site_type_symbol
 _atom_site_label
 _atom_site_symmetry_multiplicity
 _atom_site_fract_x
 _atom_site_fract_y
 _atom_site_fract_z
 _atom_site_occupancy
  Sm  Sm0  1  0.250000  0.750426  0.332238  1
  Sm  Sm1  1  0.750000  0.257517  0.670565  1
  Sm  Sm2  1  0.750000  0.249663  0.166357  1
  Sm  Sm3  1  0.250000  0.752182  0.834862  1
  Sm  Sm4  1  0.250000  0.749325  0.166453  1
  Sm  Sm5  1  0.750000  0.248215  0.834762  1
  Sm  Sm6  1  0.750000  0.249357  0.332319  1
  Sm  Sm7  1  0.250000  0.743488  0.669558  1
  Sm  Sm8  1  0.250000  0.749531  0.000312  1
  Sm  Sm9  1  0.750000  0.250597  0.000485  1
  Sm  Sm10  1  0.750000  0.253115  0.497730  1
  Sm  Sm11  1  0.250000  0.747415  0.497015  1
  Si  Si12  1  0.250000  0.083619  0.080183  1
  Si  Si13  1  0.750000  0.916069  0.919614  1
  Si  Si14  1  0.750000  0.584401  0.418580  1
  Si  Si15  1  0.250000  0.423967  0.578113  1
  Si  Si16  1  0.250000  0.082748  0.249739  1
  Si  Si17  1  0.750000  0.917370  0.750279  1
  Si  Si18  1  0.750000  0.582528  0.249765  1
  Si  Si19  1  0.250000  0.417214  0.750287  1
  Si  Si20  1  0.250000  0.084509  0.420587  1
  Si  Si21  1  0.750000  0.906763  0.576610  1
  Si  Si22  1  0.750000  0.583936  0.080218  1
  Si  Si23  1  0.250000  0.416327  0.919301  1
  Hg  Hg24  1  0.250000  0.085156  0.589901  1
  Au  Au25  1  0.250000  0.415763  0.249360  1
  Au  Au26  1  0.750000  0.584734  0.753674  1
  Au  Au27  1  0.750000  0.915925  0.249127  1
  Au  Au28  1  0.250000  0.083522  0.750627  1
  Au  Au29  1  0.250000  0.416410  0.411236  1
  Au  Au30  1  0.750000  0.580712  0.587562  1
  Au  Au31  1  0.750000  0.916490  0.085827  1
  Au  Au32  1  0.250000  0.083649  0.915173  1
  Au  Au33  1  0.250000  0.416559  0.085677  1
  Au  Au34  1  0.750000  0.583205  0.914246  1
  Au  Au35  1  0.750000  0.917593  0.411664  1
