# generated using pymatgen
data_Tb8Er2Os3Ru
_symmetry_space_group_name_H-M   'P 1'
_cell_length_a   6.39370589
_cell_length_b   7.33570062
_cell_length_c   8.47693250
_cell_angle_alpha   96.80193803
_cell_angle_beta   112.20597918
_cell_angle_gamma   89.99254342
_symmetry_Int_Tables_number   1
_chemical_formula_structural   Tb8Er2Os3Ru
_chemical_formula_sum   'Tb8 Er2 Os3 Ru1'
_cell_volume   365.07723829
_cell_formula_units_Z   1
loop_
 _symmetry_equiv_pos_site_id
 _symmetry_equiv_pos_as_xyz
  1  'x, y, z'
loop_
 _atom_site_type_symbol
 _atom_site_label
 _atom_site_symmetry_multiplicity
 _atom_site_fract_x
 _atom_site_fract_y
 _atom_site_fract_z
 _atom_site_occupancy
  Tb  Tb0  1  0.793900  0.583931  0.815999  1
  Tb  Tb1  1  0.975963  0.916396  0.183589  1
  Tb  Tb2  1  0.207225  0.416478  0.185876  1
  Tb  Tb3  1  0.024220  0.084551  0.816619  1
  Tb  Tb4  1  0.205443  0.685057  0.566913  1
  Tb  Tb5  1  0.640078  0.815215  0.433956  1
  Tb  Tb6  1  0.792834  0.314138  0.432172  1
  Tb  Tb7  1  0.360951  0.184158  0.565507  1
  Er  Er8  1  0.423619  0.750130  0.000425  1
  Er  Er9  1  0.577873  0.250041  0.000830  1
  Os  Os10  1  0.602730  0.924751  0.782298  1
  Os  Os11  1  0.820369  0.575393  0.217592  1
  Os  Os12  1  0.397011  0.075431  0.217099  1
  Ru  Ru13  1  0.177782  0.424331  0.781126  1
