# generated using pymatgen
data_TbCeHo2(Co3Si5)2
_symmetry_space_group_name_H-M   'P 1'
_cell_length_a   7.86981235
_cell_length_b   7.86256286
_cell_length_c   7.86256342
_cell_angle_alpha   138.80449659
_cell_angle_beta   105.36752384
_cell_angle_gamma   88.98557616
_symmetry_Int_Tables_number   1
_chemical_formula_structural   TbCeHo2(Co3Si5)2
_chemical_formula_sum   'Tb1 Ce1 Ho2 Co6 Si10'
_cell_volume   296.05754508
_cell_formula_units_Z   1
loop_
 _symmetry_equiv_pos_site_id
 _symmetry_equiv_pos_as_xyz
  1  'x, y, z'
loop_
 _atom_site_type_symbol
 _atom_site_label
 _atom_site_symmetry_multiplicity
 _atom_site_fract_x
 _atom_site_fract_y
 _atom_site_fract_z
 _atom_site_occupancy
  Tb  Tb0  1  0.867807  0.633222  0.234584  1
  Ce  Ce1  1  0.600212  0.866143  0.734069  1
  Ho  Ho2  1  0.132958  0.366889  0.766070  1
  Ho  Ho3  1  0.397299  0.132684  0.264614  1
  Co  Co4  1  0.998596  0.749862  0.751177  1
  Co  Co5  1  0.998596  0.247419  0.248734  1
  Co  Co6  1  0.256692  0.864576  0.392115  1
  Co  Co7  1  0.749887  0.137779  0.612108  1
  Co  Co8  1  0.471568  0.362516  0.109052  1
  Co  Co9  1  0.525300  0.638587  0.886713  1
  Si  Si10  1  0.502628  0.752663  0.247843  1
  Si  Si11  1  0.502628  0.254786  0.749965  1
  Si  Si12  1  0.226295  0.975963  0.748373  1
  Si  Si13  1  0.771140  0.518812  0.749546  1
  Si  Si14  1  0.771140  0.021595  0.252328  1
  Si  Si15  1  0.226295  0.477922  0.250333  1
  Si  Si16  1  0.055779  0.898128  0.157650  1
  Si  Si17  1  0.946891  0.102229  0.844663  1
  Si  Si18  1  0.743485  0.398359  0.345126  1
  Si  Si19  1  0.254803  0.599868  0.654935  1
