# generated using pymatgen
data_Sr6Ca2SbRhO12
_symmetry_space_group_name_H-M   'P 1'
_cell_length_a   6.90726601
_cell_length_b   6.90726574
_cell_length_c   6.90726462
_cell_angle_alpha   91.51736638
_cell_angle_beta   91.51737170
_cell_angle_gamma   91.51736386
_symmetry_Int_Tables_number   1
_chemical_formula_structural   Sr6Ca2SbRhO12
_chemical_formula_sum   'Sr6 Ca2 Sb1 Rh1 O12'
_cell_volume   329.19489762
_cell_formula_units_Z   1
loop_
 _symmetry_equiv_pos_site_id
 _symmetry_equiv_pos_as_xyz
  1  'x, y, z'
loop_
 _atom_site_type_symbol
 _atom_site_label
 _atom_site_symmetry_multiplicity
 _atom_site_fract_x
 _atom_site_fract_y
 _atom_site_fract_z
 _atom_site_occupancy
  Sr  Sr0  1  0.880173  0.605277  0.260728  1
  Sr  Sr1  1  0.119827  0.394723  0.739272  1
  Sr  Sr2  1  0.260728  0.880173  0.605277  1
  Sr  Sr3  1  0.605277  0.260728  0.880173  1
  Sr  Sr4  1  0.394723  0.739272  0.119827  1
  Sr  Sr5  1  0.739272  0.119827  0.394723  1
  Ca  Ca6  1  0.741310  0.741310  0.741310  1
  Ca  Ca7  1  0.258690  0.258690  0.258690  1
  Sb  Sb8  1  0.000000  0.000000  0.000000  1
  Rh  Rh9  1  0.500000  0.500000  0.500000  1
  O  O10  1  0.448225  0.585060  0.790811  1
  O  O11  1  0.585060  0.790811  0.448225  1
  O  O12  1  0.952625  0.280800  0.077355  1
  O  O13  1  0.551775  0.414940  0.209189  1
  O  O14  1  0.209189  0.551775  0.414940  1
  O  O15  1  0.047375  0.719200  0.922645  1
  O  O16  1  0.790811  0.448225  0.585060  1
  O  O17  1  0.719200  0.922645  0.047375  1
  O  O18  1  0.077355  0.952625  0.280800  1
  O  O19  1  0.922645  0.047375  0.719200  1
  O  O20  1  0.414940  0.209189  0.551775  1
  O  O21  1  0.280800  0.077355  0.952625  1
