# generated using pymatgen
data_Ho3Mg3TlAgIr
_symmetry_space_group_name_H-M   'P 1'
_cell_length_a   7.97575300
_cell_length_b   7.97575300
_cell_length_c   3.83012500
_cell_angle_alpha   90.00000000
_cell_angle_beta   90.00000000
_cell_angle_gamma   119.99999586
_symmetry_Int_Tables_number   1
_chemical_formula_structural   Ho3Mg3TlAgIr
_chemical_formula_sum   'Ho3 Mg3 Tl1 Ag1 Ir1'
_cell_volume   211.00220290
_cell_formula_units_Z   1
loop_
 _symmetry_equiv_pos_site_id
 _symmetry_equiv_pos_as_xyz
  1  'x, y, z'
loop_
 _atom_site_type_symbol
 _atom_site_label
 _atom_site_symmetry_multiplicity
 _atom_site_fract_x
 _atom_site_fract_y
 _atom_site_fract_z
 _atom_site_occupancy
  Ho  Ho0  1  0.565665  0.958083  0.000000  1
  Ho  Ho1  1  0.041917  0.607582  0.000000  1
  Ho  Ho2  1  0.392418  0.434335  0.000000  1
  Mg  Mg3  1  0.252240  0.996809  0.500000  1
  Mg  Mg4  1  0.003191  0.255431  0.500000  1
  Mg  Mg5  1  0.744569  0.747760  0.500000  1
  Tl  Tl6  1  0.666667  0.333333  0.500000  1
  Ag  Ag7  1  0.000000  0.000000  0.000000  1
  Ir  Ir8  1  0.333333  0.666667  0.500000  1
