# generated using pymatgen
data_HoEr3(Ga3Pt)2
_symmetry_space_group_name_H-M   'P 1'
_cell_length_a   8.80669700
_cell_length_b   8.80669789
_cell_length_c   6.92308700
_cell_angle_alpha   90.00000000
_cell_angle_beta   90.00000000
_cell_angle_gamma   120.00510148
_symmetry_Int_Tables_number   1
_chemical_formula_structural   HoEr3(Ga3Pt)2
_chemical_formula_sum   'Ho2 Er6 Ga12 Pt4'
_cell_volume   464.97997091
_cell_formula_units_Z   2
loop_
 _symmetry_equiv_pos_site_id
 _symmetry_equiv_pos_as_xyz
  1  'x, y, z'
loop_
 _atom_site_type_symbol
 _atom_site_label
 _atom_site_symmetry_multiplicity
 _atom_site_fract_x
 _atom_site_fract_y
 _atom_site_fract_z
 _atom_site_occupancy
  Ho  Ho0  1  0.000062  0.999938  0.250000  1
  Ho  Ho1  1  0.999938  0.000062  0.750000  1
  Er  Er2  1  0.520105  0.040173  0.250000  1
  Er  Er3  1  0.519994  0.480006  0.250000  1
  Er  Er4  1  0.959827  0.479895  0.250000  1
  Er  Er5  1  0.479895  0.959827  0.750000  1
  Er  Er6  1  0.480006  0.519994  0.750000  1
  Er  Er7  1  0.040173  0.520105  0.750000  1
  Ga  Ga8  1  0.166623  0.333566  0.046461  1
  Ga  Ga9  1  0.166902  0.833098  0.454063  1
  Ga  Ga10  1  0.666434  0.833377  0.453539  1
  Ga  Ga11  1  0.666434  0.833377  0.046461  1
  Ga  Ga12  1  0.166902  0.833098  0.045937  1
  Ga  Ga13  1  0.833377  0.666434  0.953539  1
  Ga  Ga14  1  0.833098  0.166902  0.954063  1
  Ga  Ga15  1  0.333566  0.166623  0.953539  1
  Ga  Ga16  1  0.166623  0.333566  0.453539  1
  Ga  Ga17  1  0.333566  0.166623  0.546461  1
  Ga  Ga18  1  0.833377  0.666434  0.546461  1
  Ga  Ga19  1  0.833098  0.166902  0.545937  1
  Pt  Pt20  1  0.333392  0.666608  0.030503  1
  Pt  Pt21  1  0.333392  0.666608  0.469497  1
  Pt  Pt22  1  0.666608  0.333392  0.969497  1
  Pt  Pt23  1  0.666608  0.333392  0.530503  1
