# generated using pymatgen
data_PrDyErGa8Ag3
_symmetry_space_group_name_H-M   'P 1'
_cell_length_a   4.36011380
_cell_length_b   8.42252588
_cell_length_c   8.42252530
_cell_angle_alpha   69.11054733
_cell_angle_beta   74.99895302
_cell_angle_gamma   74.99895608
_symmetry_Int_Tables_number   1
_chemical_formula_structural   PrDyErGa8Ag3
_chemical_formula_sum   'Pr1 Dy1 Er1 Ga8 Ag3'
_cell_volume   274.32913248
_cell_formula_units_Z   1
loop_
 _symmetry_equiv_pos_site_id
 _symmetry_equiv_pos_as_xyz
  1  'x, y, z'
loop_
 _atom_site_type_symbol
 _atom_site_label
 _atom_site_symmetry_multiplicity
 _atom_site_fract_x
 _atom_site_fract_y
 _atom_site_fract_z
 _atom_site_occupancy
  Pr  Pr0  1  0.500135  0.499865  0.499865  1
  Dy  Dy1  1  0.199425  0.800575  0.800575  1
  Er  Er2  1  0.800749  0.199251  0.199251  1
  Ga  Ga3  1  0.644018  0.072989  0.638976  1
  Ga  Ga4  1  0.355883  0.927679  0.360556  1
  Ga  Ga5  1  0.644018  0.638976  0.072989  1
  Ga  Ga6  1  0.355883  0.360556  0.927679  1
  Ga  Ga7  1  0.838623  0.793532  0.529222  1
  Ga  Ga8  1  0.161805  0.206218  0.470174  1
  Ga  Ga9  1  0.838623  0.529222  0.793532  1
  Ga  Ga10  1  0.161805  0.470174  0.206218  1
  Ag  Ag11  1  0.499685  0.000315  0.000315  1
  Ag  Ag12  1  0.999675  0.805653  0.194998  1
  Ag  Ag13  1  0.999675  0.194998  0.805653  1
