# generated using pymatgen
data_TmIn(SbO4)2
_symmetry_space_group_name_H-M   'P 1'
_cell_length_a   5.33980340
_cell_length_b   7.53122467
_cell_length_c   7.60651400
_cell_angle_alpha   80.51000125
_cell_angle_beta   92.48769234
_cell_angle_gamma   88.43657786
_symmetry_Int_Tables_number   1
_chemical_formula_structural   TmIn(SbO4)2
_chemical_formula_sum   'Tm2 In2 Sb4 O16'
_cell_volume   301.24303069
_cell_formula_units_Z   2
loop_
 _symmetry_equiv_pos_site_id
 _symmetry_equiv_pos_as_xyz
  1  'x, y, z'
loop_
 _atom_site_type_symbol
 _atom_site_label
 _atom_site_symmetry_multiplicity
 _atom_site_fract_x
 _atom_site_fract_y
 _atom_site_fract_z
 _atom_site_occupancy
  Tm  Tm0  1  0.255329  0.620391  0.128486  1
  Tm  Tm1  1  0.744671  0.379609  0.871514  1
  In  In2  1  0.776852  0.870170  0.831401  1
  In  In3  1  0.223148  0.129830  0.168599  1
  Sb  Sb4  1  0.747823  0.810818  0.325652  1
  Sb  Sb5  1  0.252177  0.189182  0.674348  1
  Sb  Sb6  1  0.272381  0.688564  0.660171  1
  Sb  Sb7  1  0.727619  0.311436  0.339829  1
  O  O8  1  0.430028  0.885712  0.187513  1
  O  O9  1  0.569972  0.114288  0.812487  1
  O  O10  1  0.004501  0.611820  0.826950  1
  O  O11  1  0.995499  0.388180  0.173050  1
  O  O12  1  0.926998  0.811052  0.101166  1
  O  O13  1  0.073002  0.188948  0.898834  1
  O  O14  1  0.488860  0.672652  0.888485  1
  O  O15  1  0.511140  0.327348  0.111515  1
  O  O16  1  0.595034  0.565366  0.324775  1
  O  O17  1  0.404966  0.434634  0.675225  1
  O  O18  1  0.122125  0.938471  0.679093  1
  O  O19  1  0.877875  0.061529  0.320907  1
  O  O20  1  0.591665  0.807356  0.563587  1
  O  O21  1  0.408335  0.192644  0.436413  1
  O  O22  1  0.080740  0.689321  0.429007  1
  O  O23  1  0.919260  0.310679  0.570993  1
