# generated using pymatgen
data_Li22Si11Te
_symmetry_space_group_name_H-M   'P 1'
_cell_length_a   4.33296042
_cell_length_b   10.40384000
_cell_length_c   12.29230584
_cell_angle_alpha   90.00000000
_cell_angle_beta   79.84876270
_cell_angle_gamma   90.00000000
_symmetry_Int_Tables_number   1
_chemical_formula_structural   Li22Si11Te
_chemical_formula_sum   'Li22 Si11 Te1'
_cell_volume   545.45573041
_cell_formula_units_Z   1
loop_
 _symmetry_equiv_pos_site_id
 _symmetry_equiv_pos_as_xyz
  1  'x, y, z'
loop_
 _atom_site_type_symbol
 _atom_site_label
 _atom_site_symmetry_multiplicity
 _atom_site_fract_x
 _atom_site_fract_y
 _atom_site_fract_z
 _atom_site_occupancy
  Li  Li0  1  0.965285  0.750000  0.069431  1
  Li  Li1  1  0.460964  0.121126  0.078073  1
  Li  Li2  1  0.460964  0.378875  0.078073  1
  Li  Li3  1  0.912938  0.001271  0.174124  1
  Li  Li4  1  0.912938  0.498729  0.174124  1
  Li  Li5  1  0.361077  0.250000  0.277848  1
  Li  Li6  1  0.854909  0.750000  0.290185  1
  Li  Li7  1  0.821050  0.120048  0.357903  1
  Li  Li8  1  0.821050  0.379952  0.357903  1
  Li  Li9  1  0.759473  0.602978  0.481056  1
  Li  Li10  1  0.759473  0.897022  0.481056  1
  Li  Li11  1  0.243984  0.113371  0.512036  1
  Li  Li12  1  0.243984  0.386629  0.512036  1
  Li  Li13  1  0.185981  0.605772  0.628038  1
  Li  Li14  1  0.185981  0.894229  0.628038  1
  Li  Li15  1  0.143804  0.250000  0.712393  1
  Li  Li16  1  0.655121  0.750000  0.689759  1
  Li  Li17  1  0.093364  0.484140  0.813274  1
  Li  Li18  1  0.093364  0.015860  0.813274  1
  Li  Li19  1  0.527603  0.593189  0.944796  1
  Li  Li20  1  0.527603  0.906812  0.944796  1
  Li  Li21  1  0.023861  0.250000  0.952279  1
  Si  Si22  1  0.420042  0.637248  0.159916  1
  Si  Si23  1  0.420042  0.862752  0.159916  1
  Si  Si24  1  0.917190  0.250000  0.165622  1
  Si  Si25  1  0.327330  0.555511  0.345342  1
  Si  Si26  1  0.327330  0.944489  0.345342  1
  Si  Si27  1  0.273192  0.750000  0.453617  1
  Si  Si28  1  0.726506  0.250000  0.546989  1
  Si  Si29  1  0.669939  0.059586  0.660124  1
  Si  Si30  1  0.669939  0.440414  0.660124  1
  Si  Si31  1  0.576048  0.137001  0.847906  1
  Si  Si32  1  0.576048  0.362998  0.847906  1
  Te  Te33  1  0.081645  0.750000  0.836711  1
