# generated using pymatgen
data_EuAs12Os3Rh
_symmetry_space_group_name_H-M   'P 1'
_cell_length_a   7.45793746
_cell_length_b   7.45793680
_cell_length_c   7.45793702
_cell_angle_alpha   109.41899139
_cell_angle_beta   109.41898290
_cell_angle_gamma   109.41898701
_symmetry_Int_Tables_number   1
_chemical_formula_structural   EuAs12Os3Rh
_chemical_formula_sum   'Eu1 As12 Os3 Rh1'
_cell_volume   319.94203515
_cell_formula_units_Z   1
loop_
 _symmetry_equiv_pos_site_id
 _symmetry_equiv_pos_as_xyz
  1  'x, y, z'
loop_
 _atom_site_type_symbol
 _atom_site_label
 _atom_site_symmetry_multiplicity
 _atom_site_fract_x
 _atom_site_fract_y
 _atom_site_fract_z
 _atom_site_occupancy
  Eu  Eu0  1  0.000000  0.000000  0.000000  1
  As  As1  1  0.347795  0.198564  0.850268  1
  As  As2  1  0.652205  0.801436  0.149732  1
  As  As3  1  0.651718  0.502238  0.852979  1
  As  As4  1  0.348282  0.497762  0.147021  1
  As  As5  1  0.198564  0.850268  0.347795  1
  As  As6  1  0.801436  0.149732  0.652205  1
  As  As7  1  0.502238  0.852979  0.651718  1
  As  As8  1  0.497762  0.147021  0.348282  1
  As  As9  1  0.850268  0.347795  0.198564  1
  As  As10  1  0.149732  0.652205  0.801436  1
  As  As11  1  0.852979  0.651718  0.502238  1
  As  As12  1  0.147021  0.348282  0.497762  1
  Os  Os13  1  0.000000  0.000000  0.500000  1
  Os  Os14  1  0.500000  0.000000  0.000000  1
  Os  Os15  1  0.000000  0.500000  0.000000  1
  Rh  Rh16  1  0.500000  0.500000  0.500000  1
