# generated using pymatgen
data_YbSi3GeIr6
_symmetry_space_group_name_H-M   'P 1'
_cell_length_a   7.08393801
_cell_length_b   7.08393895
_cell_length_c   3.83409400
_cell_angle_alpha   90.00000000
_cell_angle_beta   90.00000000
_cell_angle_gamma   119.59691947
_symmetry_Int_Tables_number   1
_chemical_formula_structural   YbSi3GeIr6
_chemical_formula_sum   'Yb1 Si3 Ge1 Ir6'
_cell_volume   167.29872675
_cell_formula_units_Z   1
loop_
 _symmetry_equiv_pos_site_id
 _symmetry_equiv_pos_as_xyz
  1  'x, y, z'
loop_
 _atom_site_type_symbol
 _atom_site_label
 _atom_site_symmetry_multiplicity
 _atom_site_fract_x
 _atom_site_fract_y
 _atom_site_fract_z
 _atom_site_occupancy
  Yb  Yb0  1  0.999108  0.000892  0.000000  1
  Si  Si1  1  0.666884  0.333116  0.000000  1
  Si  Si2  1  0.196434  0.393179  0.500000  1
  Si  Si3  1  0.606821  0.803566  0.500000  1
  Ge  Ge4  1  0.193043  0.806957  0.500000  1
  Ir  Ir5  1  0.476284  0.937176  0.000000  1
  Ir  Ir6  1  0.062824  0.523716  0.000000  1
  Ir  Ir7  1  0.466706  0.533294  0.000000  1
  Ir  Ir8  1  0.794471  0.599508  0.500000  1
  Ir  Ir9  1  0.400492  0.205529  0.500000  1
  Ir  Ir10  1  0.803600  0.196400  0.500000  1
