# generated using pymatgen
data_Nd17Dy2LuSn16
_symmetry_space_group_name_H-M   'P 1'
_cell_length_a   8.24418173
_cell_length_b   8.42777274
_cell_length_c   15.93634500
_cell_angle_alpha   90.00000000
_cell_angle_beta   90.00000000
_cell_angle_gamma   89.89339194
_symmetry_Int_Tables_number   1
_chemical_formula_structural   Nd17Dy2LuSn16
_chemical_formula_sum   'Nd17 Dy2 Lu1 Sn16'
_cell_volume   1107.25676858
_cell_formula_units_Z   1
loop_
 _symmetry_equiv_pos_site_id
 _symmetry_equiv_pos_as_xyz
  1  'x, y, z'
loop_
 _atom_site_type_symbol
 _atom_site_label
 _atom_site_symmetry_multiplicity
 _atom_site_fract_x
 _atom_site_fract_y
 _atom_site_fract_z
 _atom_site_occupancy
  Nd  Nd0  1  0.366028  0.836695  0.878601  1
  Nd  Nd1  1  0.868041  0.662093  0.620500  1
  Nd  Nd2  1  0.633238  0.162565  0.377857  1
  Nd  Nd3  1  0.133228  0.337761  0.120271  1
  Nd  Nd4  1  0.633238  0.162565  0.122143  1
  Nd  Nd5  1  0.133228  0.337761  0.379729  1
  Nd  Nd6  1  0.366028  0.836695  0.621399  1
  Nd  Nd7  1  0.868041  0.662093  0.879500  1
  Nd  Nd8  1  0.518318  0.320184  0.901755  1
  Nd  Nd9  1  0.019124  0.181748  0.598134  1
  Nd  Nd10  1  0.481306  0.680540  0.401804  1
  Nd  Nd11  1  0.981108  0.819308  0.099079  1
  Nd  Nd12  1  0.481306  0.680540  0.098196  1
  Nd  Nd13  1  0.981108  0.819308  0.400921  1
  Nd  Nd14  1  0.518318  0.320184  0.598245  1
  Nd  Nd15  1  0.019124  0.181748  0.901866  1
  Nd  Nd16  1  0.696983  0.998675  0.750000  1
  Dy  Dy17  1  0.801138  0.497872  0.250000  1
  Dy  Dy18  1  0.301561  0.001994  0.250000  1
  Lu  Lu19  1  0.199426  0.503018  0.750000  1
  Sn  Sn20  1  0.293193  0.034599  0.043563  1
  Sn  Sn21  1  0.792484  0.464387  0.456286  1
  Sn  Sn22  1  0.706952  0.963242  0.541616  1
  Sn  Sn23  1  0.207381  0.534746  0.955364  1
  Sn  Sn24  1  0.706952  0.963242  0.958384  1
  Sn  Sn25  1  0.207381  0.534746  0.544636  1
  Sn  Sn26  1  0.293193  0.034599  0.456437  1
  Sn  Sn27  1  0.792484  0.464387  0.043714  1
  Sn  Sn28  1  0.562690  0.613583  0.750000  1
  Sn  Sn29  1  0.067632  0.882405  0.750000  1
  Sn  Sn30  1  0.434839  0.383247  0.250000  1
  Sn  Sn31  1  0.936534  0.117265  0.250000  1
  Sn  Sn32  1  0.322939  0.150051  0.750000  1
  Sn  Sn33  1  0.826944  0.358021  0.750000  1
  Sn  Sn34  1  0.673499  0.851861  0.250000  1
  Sn  Sn35  1  0.175012  0.646276  0.250000  1
