# generated using pymatgen
data_CaPr(EuAl4)2
_symmetry_space_group_name_H-M   'P 1'
_cell_length_a   9.80626090
_cell_length_b   9.80626002
_cell_length_c   9.80625718
_cell_angle_alpha   33.92009204
_cell_angle_beta   33.92010268
_cell_angle_gamma   33.92009982
_symmetry_Int_Tables_number   1
_chemical_formula_structural   CaPr(EuAl4)2
_chemical_formula_sum   'Ca1 Pr1 Eu2 Al8'
_cell_volume   261.72079056
_cell_formula_units_Z   1
loop_
 _symmetry_equiv_pos_site_id
 _symmetry_equiv_pos_as_xyz
  1  'x, y, z'
loop_
 _atom_site_type_symbol
 _atom_site_label
 _atom_site_symmetry_multiplicity
 _atom_site_fract_x
 _atom_site_fract_y
 _atom_site_fract_z
 _atom_site_occupancy
  Ca  Ca0  1  0.501154  0.501154  0.501154  1
  Pr  Pr1  1  0.125593  0.125593  0.125593  1
  Eu  Eu2  1  0.624182  0.624182  0.624182  1
  Eu  Eu3  1  0.999573  0.999573  0.999573  1
  Al  Al4  1  0.562436  0.562436  0.063375  1
  Al  Al5  1  0.062967  0.062967  0.560288  1
  Al  Al6  1  0.562436  0.063375  0.562436  1
  Al  Al7  1  0.062967  0.560288  0.062967  1
  Al  Al8  1  0.812833  0.812833  0.812833  1
  Al  Al9  1  0.312200  0.312200  0.312200  1
  Al  Al10  1  0.063375  0.562436  0.562436  1
  Al  Al11  1  0.560288  0.062967  0.062967  1
