# generated using pymatgen
data_LiTb2(PRh2)6
_symmetry_space_group_name_H-M   'P 1'
_cell_length_a   3.94003207
_cell_length_b   9.60781920
_cell_length_c   9.60868090
_cell_angle_alpha   119.99011007
_cell_angle_beta   90.00263968
_cell_angle_gamma   89.99619256
_symmetry_Int_Tables_number   1
_chemical_formula_structural   LiTb2(PRh2)6
_chemical_formula_sum   'Li1 Tb2 P6 Rh12'
_cell_volume   315.03750020
_cell_formula_units_Z   1
loop_
 _symmetry_equiv_pos_site_id
 _symmetry_equiv_pos_as_xyz
  1  'x, y, z'
loop_
 _atom_site_type_symbol
 _atom_site_label
 _atom_site_symmetry_multiplicity
 _atom_site_fract_x
 _atom_site_fract_y
 _atom_site_fract_z
 _atom_site_occupancy
  Li  Li0  1  0.500000  0.000000  0.000000  1
  Tb  Tb1  1  0.248769  0.666756  0.333343  1
  Tb  Tb2  1  0.751231  0.333244  0.666657  1
  P  P3  1  0.748793  0.883583  0.600858  1
  P  P4  1  0.748859  0.399280  0.282766  1
  P  P5  1  0.748836  0.717283  0.116387  1
  P  P6  1  0.251207  0.116417  0.399142  1
  P  P7  1  0.251141  0.600720  0.717234  1
  P  P8  1  0.251164  0.282717  0.883613  1
  Rh  Rh9  1  0.750936  0.126979  0.841077  1
  Rh  Rh10  1  0.750916  0.159102  0.286049  1
  Rh  Rh11  1  0.750835  0.713989  0.872959  1
  Rh  Rh12  1  0.249064  0.873021  0.158923  1
  Rh  Rh13  1  0.249084  0.840898  0.713951  1
  Rh  Rh14  1  0.249165  0.286011  0.127041  1
  Rh  Rh15  1  0.749418  0.612209  0.548320  1
  Rh  Rh16  1  0.749431  0.451674  0.063897  1
  Rh  Rh17  1  0.749427  0.936186  0.387739  1
  Rh  Rh18  1  0.250582  0.387791  0.451680  1
  Rh  Rh19  1  0.250569  0.548326  0.936103  1
  Rh  Rh20  1  0.250573  0.063814  0.612261  1
