# generated using pymatgen
data_V11GaSi3Ir
_symmetry_space_group_name_H-M   'P 1'
_cell_length_a   4.69831300
_cell_length_b   4.68705000
_cell_length_c   9.57136800
_cell_angle_alpha   90.00000000
_cell_angle_beta   90.00000000
_cell_angle_gamma   90.00000000
_symmetry_Int_Tables_number   1
_chemical_formula_structural   V11GaSi3Ir
_chemical_formula_sum   'V11 Ga1 Si3 Ir1'
_cell_volume   210.77327649
_cell_formula_units_Z   1
loop_
 _symmetry_equiv_pos_site_id
 _symmetry_equiv_pos_as_xyz
  1  'x, y, z'
loop_
 _atom_site_type_symbol
 _atom_site_label
 _atom_site_symmetry_multiplicity
 _atom_site_fract_x
 _atom_site_fract_y
 _atom_site_fract_z
 _atom_site_occupancy
  V  V0  1  0.000000  0.500000  0.624585  1
  V  V1  1  0.500000  0.250361  0.746915  1
  V  V2  1  0.500000  0.244594  0.253832  1
  V  V3  1  0.752323  0.000000  0.000212  1
  V  V4  1  0.752772  0.000000  0.497973  1
  V  V5  1  0.000000  0.500000  0.866654  1
  V  V6  1  0.000000  0.500000  0.382836  1
  V  V7  1  0.500000  0.749639  0.746915  1
  V  V8  1  0.500000  0.755406  0.253832  1
  V  V9  1  0.247677  0.000000  0.000212  1
  V  V10  1  0.247228  0.000000  0.497973  1
  Ga  Ga11  1  0.500000  0.500000  0.996041  1
  Si  Si12  1  0.500000  0.500000  0.499812  1
  Si  Si13  1  0.000000  0.000000  0.750036  1
  Si  Si14  1  0.000000  0.000000  0.255520  1
  Ir  Ir15  1  0.000000  0.500000  0.126651  1
