# generated using pymatgen
data_Li7Tb4Dy4CdSn8
_symmetry_space_group_name_H-M   'P 1'
_cell_length_a   9.46183500
_cell_length_b   9.45036033
_cell_length_c   7.32433132
_cell_angle_alpha   90.09490604
_cell_angle_beta   90.00000000
_cell_angle_gamma   120.04017720
_symmetry_Int_Tables_number   1
_chemical_formula_structural   Li7Tb4Dy4CdSn8
_chemical_formula_sum   'Li7 Tb4 Dy4 Cd1 Sn8'
_cell_volume   566.95108296
_cell_formula_units_Z   1
loop_
 _symmetry_equiv_pos_site_id
 _symmetry_equiv_pos_as_xyz
  1  'x, y, z'
loop_
 _atom_site_type_symbol
 _atom_site_label
 _atom_site_symmetry_multiplicity
 _atom_site_fract_x
 _atom_site_fract_y
 _atom_site_fract_z
 _atom_site_occupancy
  Li  Li0  1  0.164140  0.832286  0.289770  1
  Li  Li1  1  0.668147  0.832286  0.289770  1
  Li  Li2  1  0.833212  0.666425  0.791522  1
  Li  Li3  1  0.831966  0.165927  0.788708  1
  Li  Li4  1  0.333961  0.165927  0.788708  1
  Li  Li5  1  0.333281  0.666564  0.675792  1
  Li  Li6  1  0.669002  0.338003  0.172438  1
  Tb  Tb7  1  0.511416  0.022831  0.497391  1
  Tb  Tb8  1  0.516412  0.490223  0.494893  1
  Tb  Tb9  1  0.973812  0.490223  0.494893  1
  Tb  Tb10  1  0.488700  0.977400  0.988729  1
  Dy  Dy11  1  0.488526  0.512087  0.992591  1
  Dy  Dy12  1  0.023560  0.512087  0.992591  1
  Dy  Dy13  1  0.996754  0.993508  0.502804  1
  Dy  Dy14  1  0.000567  0.001135  0.999505  1
  Cd  Cd15  1  0.166504  0.333006  0.296980  1
  Sn  Sn16  1  0.165989  0.331977  0.735657  1
  Sn  Sn17  1  0.165545  0.832317  0.728286  1
  Sn  Sn18  1  0.666773  0.832317  0.728286  1
  Sn  Sn19  1  0.833984  0.667966  0.229254  1
  Sn  Sn20  1  0.823229  0.161811  0.223957  1
  Sn  Sn21  1  0.338582  0.161811  0.223957  1
  Sn  Sn22  1  0.338977  0.677954  0.255196  1
  Sn  Sn23  1  0.666965  0.333930  0.760313  1
