# generated using pymatgen
data_Hf6Co16Si5Tc2P7
_symmetry_space_group_name_H-M   'P 1'
_cell_length_a   11.97822793
_cell_length_b   11.99059722
_cell_length_c   3.65297100
_cell_angle_alpha   90.00000000
_cell_angle_beta   90.00000000
_cell_angle_gamma   119.93675967
_symmetry_Int_Tables_number   1
_chemical_formula_structural   Hf6Co16Si5Tc2P7
_chemical_formula_sum   'Hf6 Co16 Si5 Tc2 P7'
_cell_volume   454.65989353
_cell_formula_units_Z   1
loop_
 _symmetry_equiv_pos_site_id
 _symmetry_equiv_pos_as_xyz
  1  'x, y, z'
loop_
 _atom_site_type_symbol
 _atom_site_label
 _atom_site_symmetry_multiplicity
 _atom_site_fract_x
 _atom_site_fract_y
 _atom_site_fract_z
 _atom_site_occupancy
  Hf  Hf0  1  0.820304  0.817577  0.500000  1
  Hf  Hf1  1  0.998864  0.175312  0.500000  1
  Hf  Hf2  1  0.334928  0.665352  0.000000  1
  Hf  Hf3  1  0.664730  0.331456  0.000000  1
  Hf  Hf4  1  0.001068  0.556288  0.000000  1
  Hf  Hf5  1  0.179815  0.997835  0.500000  1
  Co  Co6  1  0.627410  0.821137  0.000000  1
  Co  Co7  1  0.370298  0.195093  0.000000  1
  Co  Co8  1  0.000167  0.724103  0.500000  1
  Co  Co9  1  0.277327  0.278819  0.500000  1
  Co  Co10  1  0.876400  0.349219  0.500000  1
  Co  Co11  1  0.722886  0.996852  0.500000  1
  Co  Co12  1  0.818293  0.630498  0.000000  1
  Co  Co13  1  0.182041  0.813447  0.000000  1
  Co  Co14  1  0.357093  0.884125  0.500000  1
  Co  Co15  1  0.131477  0.477619  0.500000  1
  Co  Co16  1  0.642360  0.526519  0.500000  1
  Co  Co17  1  0.000339  0.000237  0.000000  1
  Co  Co18  1  0.513953  0.644338  0.500000  1
  Co  Co19  1  0.479158  0.128482  0.500000  1
  Co  Co20  1  0.195118  0.367695  0.000000  1
  Co  Co21  1  0.807330  0.171537  0.000000  1
  Si  Si22  1  0.823541  0.514550  0.500000  1
  Si  Si23  1  0.684433  0.164269  0.500000  1
  Si  Si24  1  0.516451  0.836067  0.500000  1
  Si  Si25  1  0.177513  0.692734  0.500000  1
  Si  Si26  1  0.483129  0.319479  0.500000  1
  Tc  Tc27  1  0.446125  0.449457  0.000000  1
  Tc  Tc28  1  0.553547  0.002440  0.000000  1
  P  P29  1  0.999787  0.345210  0.000000  1
  P  P30  1  0.175566  0.173341  0.000000  1
  P  P31  1  0.639647  0.643910  0.000000  1
  P  P32  1  0.823093  0.995498  0.000000  1
  P  P33  1  0.360806  0.005386  0.000000  1
  P  P34  1  0.999868  0.824441  0.000000  1
  P  P35  1  0.315138  0.479681  0.500000  1
