# generated using pymatgen
data_Tb3Dy(Fe2O7)2
_symmetry_space_group_name_H-M   'P 1'
_cell_length_a   7.18999176
_cell_length_b   7.18978369
_cell_length_c   7.19041308
_cell_angle_alpha   60.07436830
_cell_angle_beta   60.06780347
_cell_angle_gamma   60.08825276
_symmetry_Int_Tables_number   1
_chemical_formula_structural   Tb3Dy(Fe2O7)2
_chemical_formula_sum   'Tb3 Dy1 Fe4 O14'
_cell_volume   263.29238705
_cell_formula_units_Z   1
loop_
 _symmetry_equiv_pos_site_id
 _symmetry_equiv_pos_as_xyz
  1  'x, y, z'
loop_
 _atom_site_type_symbol
 _atom_site_label
 _atom_site_symmetry_multiplicity
 _atom_site_fract_x
 _atom_site_fract_y
 _atom_site_fract_z
 _atom_site_occupancy
  Tb  Tb0  1  0.500002  0.000001  0.500007  1
  Tb  Tb1  1  0.000000  0.500002  0.499992  1
  Tb  Tb2  1  0.499995  0.500005  0.000000  1
  Dy  Dy3  1  0.500003  0.499997  0.500001  1
  Fe  Fe4  1  0.999999  0.500000  0.000000  1
  Fe  Fe5  1  0.499999  0.000000  0.000000  1
  Fe  Fe6  1  0.000005  0.999995  0.500001  1
  Fe  Fe7  1  0.999999  0.000004  0.999998  1
  O  O8  1  0.624491  0.624490  0.624480  1
  O  O9  1  0.375509  0.375512  0.375519  1
  O  O10  1  0.332894  0.917104  0.917162  1
  O  O11  1  0.083020  0.667199  0.667145  1
  O  O12  1  0.917083  0.332962  0.917110  1
  O  O13  1  0.917197  0.917183  0.332792  1
  O  O14  1  0.332785  0.332763  0.916991  1
  O  O15  1  0.332846  0.916992  0.332867  1
  O  O16  1  0.916980  0.332798  0.332856  1
  O  O17  1  0.667213  0.667237  0.083010  1
  O  O18  1  0.082806  0.082817  0.667207  1
  O  O19  1  0.667105  0.082895  0.082842  1
  O  O20  1  0.667156  0.083010  0.667133  1
  O  O21  1  0.082917  0.667040  0.082887  1
