# generated using pymatgen
data_Dy4Y4Ho4Co5Sn
_symmetry_space_group_name_H-M   'P 1'
_cell_length_a   8.28848588
_cell_length_b   8.28848545
_cell_length_c   8.28848531
_cell_angle_alpha   107.14102178
_cell_angle_beta   110.63312511
_cell_angle_gamma   110.66435446
_symmetry_Int_Tables_number   1
_chemical_formula_structural   Dy4Y4Ho4Co5Sn
_chemical_formula_sum   'Dy4 Y4 Ho4 Co5 Sn1'
_cell_volume   437.79141760
_cell_formula_units_Z   1
loop_
 _symmetry_equiv_pos_site_id
 _symmetry_equiv_pos_as_xyz
  1  'x, y, z'
loop_
 _atom_site_type_symbol
 _atom_site_label
 _atom_site_symmetry_multiplicity
 _atom_site_fract_x
 _atom_site_fract_y
 _atom_site_fract_z
 _atom_site_occupancy
  Dy  Dy0  1  0.192922  0.208107  0.401029  1
  Dy  Dy1  1  0.807078  0.791893  0.598971  1
  Dy  Dy2  1  0.192922  0.791893  0.984815  1
  Dy  Dy3  1  0.807078  0.208107  0.015185  1
  Y  Y4  1  0.478595  0.291875  0.186721  1
  Y  Y5  1  0.105154  0.291875  0.813279  1
  Y  Y6  1  0.894846  0.708125  0.186721  1
  Y  Y7  1  0.521405  0.708125  0.813279  1
  Ho  Ho8  1  0.307050  0.620803  0.313751  1
  Ho  Ho9  1  0.307050  0.993300  0.686249  1
  Ho  Ho10  1  0.692950  0.379197  0.686249  1
  Ho  Ho11  1  0.692950  0.006700  0.313751  1
  Co  Co12  1  0.500000  0.612243  0.112243  1
  Co  Co13  1  0.500000  0.387757  0.887757  1
  Co  Co14  1  0.378407  0.000000  0.378407  1
  Co  Co15  1  0.621593  0.000000  0.621593  1
  Co  Co16  1  0.000000  0.000000  0.000000  1
  Sn  Sn17  1  0.000000  0.500000  0.500000  1
