# generated using pymatgen
data_Ta2MnB2Os
_symmetry_space_group_name_H-M   'P 1'
_cell_length_a   3.11145200
_cell_length_b   6.30386907
_cell_length_c   10.82376626
_cell_angle_alpha   90.13202244
_cell_angle_beta   90.00000000
_cell_angle_gamma   90.00000000
_symmetry_Int_Tables_number   1
_chemical_formula_structural   Ta2MnB2Os
_chemical_formula_sum   'Ta6 Mn3 B6 Os3'
_cell_volume   212.29880131
_cell_formula_units_Z   3
loop_
 _symmetry_equiv_pos_site_id
 _symmetry_equiv_pos_as_xyz
  1  'x, y, z'
loop_
 _atom_site_type_symbol
 _atom_site_label
 _atom_site_symmetry_multiplicity
 _atom_site_fract_x
 _atom_site_fract_y
 _atom_site_fract_z
 _atom_site_occupancy
  Ta  Ta0  1  0.000000  0.230324  0.957885  1
  Ta  Ta1  1  0.000000  0.768997  0.052426  1
  Ta  Ta2  1  0.000000  0.223063  0.548311  1
  Ta  Ta3  1  0.000000  0.776977  0.448376  1
  Ta  Ta4  1  0.000000  0.142821  0.246031  1
  Ta  Ta5  1  0.000000  0.866147  0.751538  1
  Mn  Mn6  1  0.500000  0.423412  0.124948  1
  Mn  Mn7  1  0.500000  0.798527  0.248774  1
  Mn  Mn8  1  0.500000  0.199380  0.751793  1
  B  B9  1  0.500000  0.050733  0.087783  1
  B  B10  1  0.500000  0.952842  0.916300  1
  B  B11  1  0.500000  0.051389  0.411493  1
  B  B12  1  0.500000  0.950211  0.586321  1
  B  B13  1  0.000000  0.551936  0.242019  1
  B  B14  1  0.000000  0.437084  0.750658  1
  Os  Os15  1  0.500000  0.573443  0.877996  1
  Os  Os16  1  0.500000  0.427614  0.373792  1
  Os  Os17  1  0.500000  0.575099  0.623555  1
