# generated using pymatgen
data_Ti8Al14GeIr7
_symmetry_space_group_name_H-M   'P 1'
_cell_length_a   8.65529838
_cell_length_b   8.65529752
_cell_length_c   8.65529816
_cell_angle_alpha   120.03131970
_cell_angle_beta   119.84281509
_cell_angle_gamma   90.10911698
_symmetry_Int_Tables_number   1
_chemical_formula_structural   Ti8Al14GeIr7
_chemical_formula_sum   'Ti8 Al14 Ge1 Ir7'
_cell_volume   458.92494880
_cell_formula_units_Z   1
loop_
 _symmetry_equiv_pos_site_id
 _symmetry_equiv_pos_as_xyz
  1  'x, y, z'
loop_
 _atom_site_type_symbol
 _atom_site_label
 _atom_site_symmetry_multiplicity
 _atom_site_fract_x
 _atom_site_fract_y
 _atom_site_fract_z
 _atom_site_occupancy
  Ti  Ti0  1  0.795525  0.294566  0.082188  1
  Ti  Ti1  1  0.212379  0.294566  0.499041  1
  Ti  Ti2  1  0.204644  0.704644  0.500000  1
  Ti  Ti3  1  0.212379  0.713338  0.917812  1
  Ti  Ti4  1  0.795525  0.713338  0.500959  1
  Ti  Ti5  1  0.787748  0.287748  0.500000  1
  Ti  Ti6  1  0.379388  0.122956  0.743568  1
  Ti  Ti7  1  0.379388  0.635820  0.256432  1
  Al  Al8  1  0.157020  0.340128  0.183107  1
  Al  Al9  1  0.157020  0.973913  0.816893  1
  Al  Al10  1  0.153195  0.343289  0.809906  1
  Al  Al11  1  0.533383  0.343289  0.190094  1
  Al  Al12  1  0.842164  0.655900  0.813738  1
  Al  Al13  1  0.842164  0.028426  0.186262  1
  Al  Al14  1  0.840230  0.657776  0.182455  1
  Al  Al15  1  0.475320  0.657776  0.817545  1
  Al  Al16  1  0.380227  0.120844  0.259383  1
  Al  Al17  1  0.861462  0.120844  0.740617  1
  Al  Al18  1  0.620739  0.878638  0.257899  1
  Al  Al19  1  0.620739  0.362840  0.742101  1
  Al  Al20  1  0.620831  0.878737  0.742094  1
  Al  Al21  1  0.136641  0.878737  0.257906  1
  Ge  Ge22  1  0.996990  0.496990  0.500000  1
  Ir  Ir23  1  0.001353  0.999676  0.501587  1
  Ir  Ir24  1  0.498089  0.999676  0.998323  1
  Ir  Ir25  1  0.497572  0.497572  0.000000  1
  Ir  Ir26  1  0.498089  0.499766  0.498413  1
  Ir  Ir27  1  0.001353  0.499766  0.001677  1
  Ir  Ir28  1  0.999367  0.999367  0.000000  1
  Ir  Ir29  1  0.499070  0.999070  0.500000  1
