# generated using pymatgen
data_Nd5(FeO6)2
_symmetry_space_group_name_H-M   'P 1'
_cell_length_a   6.99535368
_cell_length_b   6.99535316
_cell_length_c   7.58304500
_cell_angle_alpha   74.40508583
_cell_angle_beta   74.40508729
_cell_angle_gamma   50.97399083
_symmetry_Int_Tables_number   1
_chemical_formula_structural   Nd5(FeO6)2
_chemical_formula_sum   'Nd5 Fe2 O12'
_cell_volume   275.19321226
_cell_formula_units_Z   1
loop_
 _symmetry_equiv_pos_site_id
 _symmetry_equiv_pos_as_xyz
  1  'x, y, z'
loop_
 _atom_site_type_symbol
 _atom_site_label
 _atom_site_symmetry_multiplicity
 _atom_site_fract_x
 _atom_site_fract_y
 _atom_site_fract_z
 _atom_site_occupancy
  Nd  Nd0  1  0.307888  0.307888  0.356723  1
  Nd  Nd1  1  0.692112  0.692112  0.643277  1
  Nd  Nd2  1  0.693878  0.693878  0.164603  1
  Nd  Nd3  1  0.306122  0.306122  0.835397  1
  Nd  Nd4  1  0.000000  0.000000  0.500000  1
  Fe  Fe5  1  0.757525  0.242475  0.000000  1
  Fe  Fe6  1  0.242475  0.757525  0.000000  1
  O  O7  1  0.095254  0.595082  0.579520  1
  O  O8  1  0.998489  0.998489  0.175792  1
  O  O9  1  0.404918  0.904746  0.420480  1
  O  O10  1  0.500714  0.500714  0.173477  1
  O  O11  1  0.103648  0.585881  0.075667  1
  O  O12  1  0.904746  0.404918  0.420480  1
  O  O13  1  0.001511  0.001511  0.824208  1
  O  O14  1  0.595082  0.095253  0.579520  1
  O  O15  1  0.499286  0.499286  0.826523  1
  O  O16  1  0.585881  0.103648  0.075667  1
  O  O17  1  0.414119  0.896352  0.924333  1
  O  O18  1  0.896352  0.414119  0.924333  1
