# generated using pymatgen
data_Yb2Y3Er2Tm(ReC2)4
_symmetry_space_group_name_H-M   'P 1'
_cell_length_a   5.10397400
_cell_length_b   6.54655929
_cell_length_c   9.93923214
_cell_angle_alpha   88.95610699
_cell_angle_beta   90.00000000
_cell_angle_gamma   90.00000000
_symmetry_Int_Tables_number   1
_chemical_formula_structural   Yb2Y3Er2Tm(ReC2)4
_chemical_formula_sum   'Yb2 Y3 Er2 Tm1 Re4 C8'
_cell_volume   332.04910027
_cell_formula_units_Z   1
loop_
 _symmetry_equiv_pos_site_id
 _symmetry_equiv_pos_as_xyz
  1  'x, y, z'
loop_
 _atom_site_type_symbol
 _atom_site_label
 _atom_site_symmetry_multiplicity
 _atom_site_fract_x
 _atom_site_fract_y
 _atom_site_fract_z
 _atom_site_occupancy
  Yb  Yb0  1  0.750000  0.963476  0.720301  1
  Yb  Yb1  1  0.250000  0.036533  0.279870  1
  Y  Y2  1  0.750000  0.819920  0.054628  1
  Y  Y3  1  0.250000  0.535566  0.221985  1
  Y  Y4  1  0.750000  0.464594  0.778313  1
  Er  Er5  1  0.750000  0.315270  0.445499  1
  Er  Er6  1  0.250000  0.178131  0.944012  1
  Tm  Tm7  1  0.250000  0.683778  0.555239  1
  Re  Re8  1  0.250000  0.719121  0.861324  1
  Re  Re9  1  0.750000  0.280859  0.138150  1
  Re  Re10  1  0.750000  0.775948  0.365028  1
  Re  Re11  1  0.250000  0.224188  0.635351  1
  C  C12  1  0.250000  0.453160  0.759123  1
  C  C13  1  0.750000  0.545788  0.241789  1
  C  C14  1  0.750000  0.045880  0.261824  1
  C  C15  1  0.250000  0.954232  0.737994  1
  C  C16  1  0.250000  0.816349  0.042108  1
  C  C17  1  0.750000  0.185427  0.956759  1
  C  C18  1  0.750000  0.675547  0.546673  1
  C  C19  1  0.250000  0.326231  0.454031  1
