# generated using pymatgen
data_La2Pr8Sn20Pd5Rh3
_symmetry_space_group_name_H-M   'P 1'
_cell_length_a   14.29961315
_cell_length_b   14.30559986
_cell_length_c   4.69185800
_cell_angle_alpha   90.00000000
_cell_angle_beta   90.00000000
_cell_angle_gamma   90.02784818
_symmetry_Int_Tables_number   1
_chemical_formula_structural   La2Pr8Sn20Pd5Rh3
_chemical_formula_sum   'La2 Pr8 Sn20 Pd5 Rh3'
_cell_volume   959.78767813
_cell_formula_units_Z   1
loop_
 _symmetry_equiv_pos_site_id
 _symmetry_equiv_pos_as_xyz
  1  'x, y, z'
loop_
 _atom_site_type_symbol
 _atom_site_label
 _atom_site_symmetry_multiplicity
 _atom_site_fract_x
 _atom_site_fract_y
 _atom_site_fract_z
 _atom_site_occupancy
  La  La0  1  0.500428  0.497616  0.000000  1
  La  La1  1  0.000993  0.000007  0.000000  1
  Pr  Pr2  1  0.678207  0.180087  0.500000  1
  Pr  Pr3  1  0.320191  0.821599  0.500000  1
  Pr  Pr4  1  0.177347  0.320223  0.500000  1
  Pr  Pr5  1  0.822148  0.679255  0.500000  1
  Pr  Pr6  1  0.892355  0.390204  0.500000  1
  Pr  Pr7  1  0.107029  0.609850  0.500000  1
  Pr  Pr8  1  0.391955  0.109933  0.500000  1
  Pr  Pr9  1  0.608948  0.890808  0.500000  1
  Sn  Sn10  1  0.567645  0.071805  0.000000  1
  Sn  Sn11  1  0.432126  0.932162  0.000000  1
  Sn  Sn12  1  0.067241  0.428948  0.000000  1
  Sn  Sn13  1  0.932968  0.571131  0.000000  1
  Sn  Sn14  1  0.653725  0.700474  0.000000  1
  Sn  Sn15  1  0.347542  0.297664  0.000000  1
  Sn  Sn16  1  0.151348  0.798307  0.000000  1
  Sn  Sn17  1  0.848171  0.201632  0.000000  1
  Sn  Sn18  1  0.299504  0.653782  0.000000  1
  Sn  Sn19  1  0.698342  0.345995  0.000000  1
  Sn  Sn20  1  0.197764  0.154091  0.000000  1
  Sn  Sn21  1  0.802475  0.846828  0.000000  1
  Sn  Sn22  1  0.663245  0.501052  0.500000  1
  Sn  Sn23  1  0.337213  0.496118  0.500000  1
  Sn  Sn24  1  0.162640  0.997634  0.500000  1
  Sn  Sn25  1  0.837620  0.003166  0.500000  1
  Sn  Sn26  1  0.497479  0.662324  0.500000  1
  Sn  Sn27  1  0.503991  0.335281  0.500000  1
  Sn  Sn28  1  0.004320  0.164117  0.500000  1
  Sn  Sn29  1  0.995508  0.835549  0.500000  1
  Pd  Pd30  1  0.746023  0.529700  0.000000  1
  Pd  Pd31  1  0.254057  0.470171  0.000000  1
  Pd  Pd32  1  0.245736  0.970028  0.000000  1
  Pd  Pd33  1  0.753773  0.029723  0.000000  1
  Pd  Pd34  1  0.469958  0.746129  0.000000  1
  Rh  Rh35  1  0.530263  0.256592  0.000000  1
  Rh  Rh36  1  0.030350  0.243971  0.000000  1
  Rh  Rh37  1  0.969367  0.756046  0.000000  1
