# generated using pymatgen
data_Y4HoEr3(ReC2)4
_symmetry_space_group_name_H-M   'P 1'
_cell_length_a   5.09289300
_cell_length_b   6.58361613
_cell_length_c   9.83748820
_cell_angle_alpha   90.02315333
_cell_angle_beta   90.00000000
_cell_angle_gamma   90.00000000
_symmetry_Int_Tables_number   1
_chemical_formula_structural   Y4HoEr3(ReC2)4
_chemical_formula_sum   'Y4 Ho1 Er3 Re4 C8'
_cell_volume   329.84753417
_cell_formula_units_Z   1
loop_
 _symmetry_equiv_pos_site_id
 _symmetry_equiv_pos_as_xyz
  1  'x, y, z'
loop_
 _atom_site_type_symbol
 _atom_site_label
 _atom_site_symmetry_multiplicity
 _atom_site_fract_x
 _atom_site_fract_y
 _atom_site_fract_z
 _atom_site_occupancy
  Y  Y0  1  0.250000  0.465780  0.784360  1
  Y  Y1  1  0.750000  0.034183  0.284922  1
  Y  Y2  1  0.250000  0.965555  0.715233  1
  Y  Y3  1  0.750000  0.534302  0.215626  1
  Ho  Ho4  1  0.750000  0.177468  0.942914  1
  Er  Er5  1  0.250000  0.823140  0.057468  1
  Er  Er6  1  0.750000  0.676851  0.557205  1
  Er  Er7  1  0.250000  0.323452  0.442723  1
  Re  Re8  1  0.250000  0.279532  0.133861  1
  Re  Re9  1  0.750000  0.220196  0.633165  1
  Re  Re10  1  0.250000  0.779521  0.366651  1
  Re  Re11  1  0.750000  0.720312  0.866313  1
  C  C12  1  0.250000  0.174272  0.951132  1
  C  C13  1  0.750000  0.825077  0.049196  1
  C  C14  1  0.250000  0.674056  0.549286  1
  C  C15  1  0.750000  0.325993  0.450575  1
  C  C16  1  0.250000  0.047519  0.259738  1
  C  C17  1  0.750000  0.452786  0.758944  1
  C  C18  1  0.250000  0.547617  0.240573  1
  C  C19  1  0.750000  0.952386  0.740113  1
