# generated using pymatgen
data_La4Ni3Sb8Rh3
_symmetry_space_group_name_H-M   'P 1'
_cell_length_a   4.57893500
_cell_length_b   11.12844500
_cell_length_c   16.09733000
_cell_angle_alpha   90.00000000
_cell_angle_beta   90.00000000
_cell_angle_gamma   90.00000000
_symmetry_Int_Tables_number   1
_chemical_formula_structural   La4Ni3Sb8Rh3
_chemical_formula_sum   'La8 Ni6 Sb16 Rh6'
_cell_volume   820.26240987
_cell_formula_units_Z   2
loop_
 _symmetry_equiv_pos_site_id
 _symmetry_equiv_pos_as_xyz
  1  'x, y, z'
loop_
 _atom_site_type_symbol
 _atom_site_label
 _atom_site_symmetry_multiplicity
 _atom_site_fract_x
 _atom_site_fract_y
 _atom_site_fract_z
 _atom_site_occupancy
  La  La0  1  0.250000  0.743952  0.503911  1
  La  La1  1  0.250000  0.756048  0.003911  1
  La  La2  1  0.750000  0.252160  0.496878  1
  La  La3  1  0.750000  0.247840  0.996878  1
  La  La4  1  0.250000  0.586771  0.748755  1
  La  La5  1  0.250000  0.913229  0.248755  1
  La  La6  1  0.750000  0.411836  0.250590  1
  La  La7  1  0.750000  0.088164  0.750590  1
  Ni  Ni8  1  0.250000  0.464249  0.557310  1
  Ni  Ni9  1  0.250000  0.035751  0.057310  1
  Ni  Ni10  1  0.750000  0.531341  0.441978  1
  Ni  Ni11  1  0.750000  0.968659  0.941978  1
  Ni  Ni12  1  0.250000  0.057375  0.593805  1
  Ni  Ni13  1  0.250000  0.442625  0.093805  1
  Sb  Sb14  1  0.250000  0.272026  0.648963  1
  Sb  Sb15  1  0.250000  0.227974  0.148963  1
  Sb  Sb16  1  0.750000  0.720986  0.349150  1
  Sb  Sb17  1  0.750000  0.779014  0.849150  1
  Sb  Sb18  1  0.250000  0.885942  0.705334  1
  Sb  Sb19  1  0.250000  0.614058  0.205334  1
  Sb  Sb20  1  0.750000  0.113789  0.291919  1
  Sb  Sb21  1  0.750000  0.386211  0.791919  1
  Sb  Sb22  1  0.250000  0.068523  0.901658  1
  Sb  Sb23  1  0.250000  0.431477  0.401658  1
  Sb  Sb24  1  0.750000  0.936100  0.098630  1
  Sb  Sb25  1  0.750000  0.563900  0.598630  1
  Sb  Sb26  1  0.250000  0.448881  0.934996  1
  Sb  Sb27  1  0.250000  0.051119  0.434996  1
  Sb  Sb28  1  0.750000  0.544772  0.069944  1
  Sb  Sb29  1  0.750000  0.955228  0.569944  1
  Rh  Rh30  1  0.750000  0.941475  0.408290  1
  Rh  Rh31  1  0.750000  0.558525  0.908290  1
  Rh  Rh32  1  0.250000  0.277950  0.818034  1
  Rh  Rh33  1  0.250000  0.222050  0.318034  1
  Rh  Rh34  1  0.750000  0.723085  0.179863  1
  Rh  Rh35  1  0.750000  0.776915  0.679863  1
