# generated using pymatgen
data_Nb12V4Fe7CoN4
_symmetry_space_group_name_H-M   'P 1'
_cell_length_a   8.09894943
_cell_length_b   8.09894932
_cell_length_c   8.09894949
_cell_angle_alpha   60.03247320
_cell_angle_beta   60.03247712
_cell_angle_gamma   60.03247571
_symmetry_Int_Tables_number   1
_chemical_formula_structural   Nb12V4Fe7CoN4
_chemical_formula_sum   'Nb12 V4 Fe7 Co1 N4'
_cell_volume   375.91585898
_cell_formula_units_Z   1
loop_
 _symmetry_equiv_pos_site_id
 _symmetry_equiv_pos_as_xyz
  1  'x, y, z'
loop_
 _atom_site_type_symbol
 _atom_site_label
 _atom_site_symmetry_multiplicity
 _atom_site_fract_x
 _atom_site_fract_y
 _atom_site_fract_z
 _atom_site_occupancy
  Nb  Nb0  1  0.805857  0.805857  0.194063  1
  Nb  Nb1  1  0.193919  0.193919  0.805923  1
  Nb  Nb2  1  0.805857  0.194063  0.805857  1
  Nb  Nb3  1  0.193919  0.805923  0.193919  1
  Nb  Nb4  1  0.194063  0.805857  0.805857  1
  Nb  Nb5  1  0.805923  0.193919  0.193919  1
  Nb  Nb6  1  0.444260  0.444260  0.055932  1
  Nb  Nb7  1  0.056605  0.056605  0.443128  1
  Nb  Nb8  1  0.444260  0.055932  0.444260  1
  Nb  Nb9  1  0.056605  0.443128  0.056605  1
  Nb  Nb10  1  0.055932  0.444260  0.444260  1
  Nb  Nb11  1  0.443128  0.056605  0.056605  1
  V  V12  1  0.124410  0.625435  0.625435  1
  V  V13  1  0.625435  0.124410  0.625435  1
  V  V14  1  0.625435  0.625435  0.124410  1
  V  V15  1  0.625051  0.625051  0.625051  1
  Fe  Fe16  1  0.732865  0.422299  0.422299  1
  Fe  Fe17  1  0.422299  0.732865  0.422299  1
  Fe  Fe18  1  0.422299  0.422299  0.732865  1
  Fe  Fe19  1  0.422113  0.422113  0.422113  1
  Fe  Fe20  1  0.519056  0.826721  0.826721  1
  Fe  Fe21  1  0.826721  0.519056  0.826721  1
  Fe  Fe22  1  0.826721  0.826721  0.519056  1
  Co  Co23  1  0.827394  0.827394  0.827394  1
  N  N24  1  0.625032  0.124915  0.124915  1
  N  N25  1  0.124915  0.625032  0.124915  1
  N  N26  1  0.124915  0.124915  0.625032  1
  N  N27  1  0.125009  0.125009  0.125009  1
