# generated using pymatgen
data_Rb4TiCr7Se16
_symmetry_space_group_name_H-M   'P 1'
_cell_length_a   6.26612436
_cell_length_b   7.21228825
_cell_length_c   16.93524131
_cell_angle_alpha   90.02699011
_cell_angle_beta   90.03641101
_cell_angle_gamma   90.01287438
_symmetry_Int_Tables_number   1
_chemical_formula_structural   Rb4TiCr7Se16
_chemical_formula_sum   'Rb4 Ti1 Cr7 Se16'
_cell_volume   765.35571185
_cell_formula_units_Z   1
loop_
 _symmetry_equiv_pos_site_id
 _symmetry_equiv_pos_as_xyz
  1  'x, y, z'
loop_
 _atom_site_type_symbol
 _atom_site_label
 _atom_site_symmetry_multiplicity
 _atom_site_fract_x
 _atom_site_fract_y
 _atom_site_fract_z
 _atom_site_occupancy
  Rb  Rb0  1  0.355251  0.998889  0.999021  1
  Rb  Rb1  1  0.644749  0.501111  0.500979  1
  Rb  Rb2  1  0.035698  0.998560  0.501470  1
  Rb  Rb3  1  0.964302  0.501440  0.998530  1
  Ti  Ti4  1  0.500000  0.250000  0.250000  1
  Cr  Cr5  1  0.001507  0.003215  0.250051  1
  Cr  Cr6  1  0.001094  0.000303  0.749991  1
  Cr  Cr7  1  0.998493  0.496785  0.249949  1
  Cr  Cr8  1  0.998906  0.499697  0.750009  1
  Cr  Cr9  1  0.500000  0.750000  0.750000  1
  Cr  Cr10  1  0.500000  0.750000  0.250000  1
  Cr  Cr11  1  0.500000  0.250000  0.750000  1
  Se  Se12  1  0.835923  0.249906  0.337853  1
  Se  Se13  1  0.832930  0.750031  0.665621  1
  Se  Se14  1  0.165023  0.749783  0.166661  1
  Se  Se15  1  0.167425  0.250203  0.834588  1
  Se  Se16  1  0.164077  0.250094  0.162147  1
  Se  Se17  1  0.167070  0.749969  0.834379  1
  Se  Se18  1  0.834977  0.750217  0.333339  1
  Se  Se19  1  0.832575  0.249797  0.665412  1
  Se  Se20  1  0.674056  0.996044  0.163452  1
  Se  Se21  1  0.671718  0.000104  0.834142  1
  Se  Se22  1  0.325944  0.503956  0.336548  1
  Se  Se23  1  0.328282  0.499896  0.665858  1
  Se  Se24  1  0.334546  0.995983  0.336238  1
  Se  Se25  1  0.336408  0.999931  0.666394  1
  Se  Se26  1  0.665454  0.504017  0.163762  1
  Se  Se27  1  0.663592  0.500069  0.833606  1
