# generated using pymatgen
data_Li8Tb8Tl3Bi5
_symmetry_space_group_name_H-M   'P 1'
_cell_length_a   9.60009526
_cell_length_b   9.60009538
_cell_length_c   7.21411700
_cell_angle_alpha   90.10544115
_cell_angle_beta   89.89454691
_cell_angle_gamma   119.95709361
_symmetry_Int_Tables_number   1
_chemical_formula_structural   Li8Tb8Tl3Bi5
_chemical_formula_sum   'Li8 Tb8 Tl3 Bi5'
_cell_volume   576.03852407
_cell_formula_units_Z   1
loop_
 _symmetry_equiv_pos_site_id
 _symmetry_equiv_pos_as_xyz
  1  'x, y, z'
loop_
 _atom_site_type_symbol
 _atom_site_label
 _atom_site_symmetry_multiplicity
 _atom_site_fract_x
 _atom_site_fract_y
 _atom_site_fract_z
 _atom_site_occupancy
  Li  Li0  1  0.169513  0.830487  0.200653  1
  Li  Li1  1  0.337955  0.168340  0.705503  1
  Li  Li2  1  0.831660  0.662045  0.705503  1
  Li  Li3  1  0.165312  0.336571  0.209426  1
  Li  Li4  1  0.663429  0.834688  0.209426  1
  Li  Li5  1  0.830624  0.169376  0.700315  1
  Li  Li6  1  0.332879  0.667121  0.808966  1
  Li  Li7  1  0.668765  0.331235  0.305793  1
  Tb  Tb8  1  0.510430  0.489570  0.989850  1
  Tb  Tb9  1  0.020244  0.506757  0.485107  1
  Tb  Tb10  1  0.493243  0.979756  0.485107  1
  Tb  Tb11  1  0.518026  0.025801  0.992188  1
  Tb  Tb12  1  0.974199  0.481974  0.992188  1
  Tb  Tb13  1  0.489530  0.510470  0.489044  1
  Tb  Tb14  1  0.996697  0.003303  0.986829  1
  Tb  Tb15  1  0.997390  0.002610  0.478836  1
  Tl  Tl16  1  0.834079  0.165921  0.250327  1
  Tl  Tl17  1  0.334026  0.665974  0.227073  1
  Tl  Tl18  1  0.665517  0.334483  0.726199  1
  Bi  Bi19  1  0.165779  0.834221  0.749519  1
  Bi  Bi20  1  0.332671  0.166276  0.248156  1
  Bi  Bi21  1  0.833724  0.667329  0.248156  1
  Bi  Bi22  1  0.166712  0.332403  0.747921  1
  Bi  Bi23  1  0.667597  0.833288  0.747921  1
