# generated using pymatgen
data_K3B2Pd6Pb
_symmetry_space_group_name_H-M   'P 1'
_cell_length_a   8.41914098
_cell_length_b   8.41914114
_cell_length_c   8.41914165
_cell_angle_alpha   40.74874563
_cell_angle_beta   40.74874372
_cell_angle_gamma   40.74874148
_symmetry_Int_Tables_number   1
_chemical_formula_structural   K3B2Pd6Pb
_chemical_formula_sum   'K3 B2 Pd6 Pb1'
_cell_volume   229.43294552
_cell_formula_units_Z   1
loop_
 _symmetry_equiv_pos_site_id
 _symmetry_equiv_pos_as_xyz
  1  'x, y, z'
loop_
 _atom_site_type_symbol
 _atom_site_label
 _atom_site_symmetry_multiplicity
 _atom_site_fract_x
 _atom_site_fract_y
 _atom_site_fract_z
 _atom_site_occupancy
  K  K0  1  0.360898  0.360898  0.360898  1
  K  K1  1  0.500000  0.500000  0.500000  1
  K  K2  1  0.639102  0.639102  0.639102  1
  B  B3  1  0.170038  0.170038  0.170038  1
  B  B4  1  0.829962  0.829962  0.829962  1
  Pd  Pd5  1  0.564771  0.058320  0.058320  1
  Pd  Pd6  1  0.058320  0.564771  0.058320  1
  Pd  Pd7  1  0.941680  0.941680  0.435229  1
  Pd  Pd8  1  0.058320  0.058320  0.564771  1
  Pd  Pd9  1  0.941680  0.435229  0.941680  1
  Pd  Pd10  1  0.435229  0.941680  0.941680  1
  Pb  Pb11  1  0.000000  0.000000  0.000000  1
