# generated using pymatgen
data_CaHoSi7Ir12
_symmetry_space_group_name_H-M   'P 1'
_cell_length_a   9.77338600
_cell_length_b   9.77338502
_cell_length_c   3.89523100
_cell_angle_alpha   90.00000000
_cell_angle_beta   90.00000000
_cell_angle_gamma   119.99999656
_symmetry_Int_Tables_number   1
_chemical_formula_structural   CaHoSi7Ir12
_chemical_formula_sum   'Ca1 Ho1 Si7 Ir12'
_cell_volume   322.22106158
_cell_formula_units_Z   1
loop_
 _symmetry_equiv_pos_site_id
 _symmetry_equiv_pos_as_xyz
  1  'x, y, z'
loop_
 _atom_site_type_symbol
 _atom_site_label
 _atom_site_symmetry_multiplicity
 _atom_site_fract_x
 _atom_site_fract_y
 _atom_site_fract_z
 _atom_site_occupancy
  Ca  Ca0  1  0.666667  0.333333  0.250872  1
  Ho  Ho1  1  0.333333  0.666667  0.749704  1
  Si  Si2  1  0.000000  0.000000  0.499789  1
  Si  Si3  1  0.289993  0.885293  0.248735  1
  Si  Si4  1  0.595301  0.710007  0.248735  1
  Si  Si5  1  0.114707  0.404699  0.248735  1
  Si  Si6  1  0.711344  0.117357  0.751086  1
  Si  Si7  1  0.406013  0.288656  0.751086  1
  Si  Si8  1  0.882643  0.593987  0.751086  1
  Ir  Ir9  1  0.260517  0.116068  0.253928  1
  Ir  Ir10  1  0.855552  0.739483  0.253928  1
  Ir  Ir11  1  0.883932  0.144448  0.253928  1
  Ir  Ir12  1  0.739481  0.885404  0.746147  1
  Ir  Ir13  1  0.145923  0.260519  0.746147  1
  Ir  Ir14  1  0.114596  0.854077  0.746147  1
  Ir  Ir15  1  0.063633  0.619810  0.248855  1
  Ir  Ir16  1  0.556177  0.936367  0.248855  1
  Ir  Ir17  1  0.380190  0.443823  0.248855  1
  Ir  Ir18  1  0.941586  0.383307  0.751128  1
  Ir  Ir19  1  0.441722  0.058414  0.751128  1
  Ir  Ir20  1  0.616693  0.558278  0.751128  1
