# generated using pymatgen
data_LiNd2(ErSi2)2
_symmetry_space_group_name_H-M   'P 1'
_cell_length_a   7.20302800
_cell_length_b   14.76279800
_cell_length_c   7.73071700
_cell_angle_alpha   90.00000000
_cell_angle_beta   90.00000000
_cell_angle_gamma   90.00000000
_symmetry_Int_Tables_number   1
_chemical_formula_structural   LiNd2(ErSi2)2
_chemical_formula_sum   'Li4 Nd8 Er8 Si16'
_cell_volume   822.06007355
_cell_formula_units_Z   4
loop_
 _symmetry_equiv_pos_site_id
 _symmetry_equiv_pos_as_xyz
  1  'x, y, z'
loop_
 _atom_site_type_symbol
 _atom_site_label
 _atom_site_symmetry_multiplicity
 _atom_site_fract_x
 _atom_site_fract_y
 _atom_site_fract_z
 _atom_site_occupancy
  Li  Li0  1  0.346768  0.250000  0.011979  1
  Li  Li1  1  0.846768  0.250000  0.488021  1
  Li  Li2  1  0.153232  0.750000  0.511980  1
  Li  Li3  1  0.653232  0.750000  0.988020  1
  Nd  Nd4  1  0.024809  0.102998  0.186210  1
  Nd  Nd5  1  0.024809  0.397002  0.186210  1
  Nd  Nd6  1  0.524809  0.102998  0.313790  1
  Nd  Nd7  1  0.524809  0.397002  0.313790  1
  Nd  Nd8  1  0.475190  0.602998  0.686210  1
  Nd  Nd9  1  0.475190  0.897002  0.686210  1
  Nd  Nd10  1  0.975191  0.602998  0.813790  1
  Nd  Nd11  1  0.975191  0.897002  0.813790  1
  Er  Er12  1  0.325580  0.626281  0.181098  1
  Er  Er13  1  0.325580  0.873718  0.181098  1
  Er  Er14  1  0.825579  0.626281  0.318902  1
  Er  Er15  1  0.825579  0.873718  0.318902  1
  Er  Er16  1  0.174420  0.126281  0.681098  1
  Er  Er17  1  0.174420  0.373718  0.681098  1
  Er  Er18  1  0.674420  0.126281  0.818902  1
  Er  Er19  1  0.674420  0.373718  0.818902  1
  Si  Si20  1  0.650554  0.534905  0.034612  1
  Si  Si21  1  0.650554  0.965095  0.034612  1
  Si  Si22  1  0.024898  0.750000  0.096379  1
  Si  Si23  1  0.729267  0.250000  0.115544  1
  Si  Si24  1  0.229266  0.250000  0.384456  1
  Si  Si25  1  0.524898  0.750000  0.403621  1
  Si  Si26  1  0.150554  0.534905  0.465389  1
  Si  Si27  1  0.150554  0.965095  0.465389  1
  Si  Si28  1  0.849447  0.034904  0.534610  1
  Si  Si29  1  0.849447  0.465095  0.534610  1
  Si  Si30  1  0.475103  0.250000  0.596378  1
  Si  Si31  1  0.770734  0.750000  0.615544  1
  Si  Si32  1  0.270734  0.750000  0.884456  1
  Si  Si33  1  0.975102  0.250000  0.903622  1
  Si  Si34  1  0.349446  0.034904  0.965389  1
  Si  Si35  1  0.349446  0.465095  0.965389  1
