# generated using pymatgen
data_TbEr11TcOs3
_symmetry_space_group_name_H-M   'P 1'
_cell_length_a   6.25127232
_cell_length_b   7.37190365
_cell_length_c   8.96798700
_cell_angle_alpha   90.00000000
_cell_angle_beta   90.00000000
_cell_angle_gamma   90.00102121
_symmetry_Int_Tables_number   1
_chemical_formula_structural   TbEr11TcOs3
_chemical_formula_sum   'Tb1 Er11 Tc1 Os3'
_cell_volume   413.27871535
_cell_formula_units_Z   1
loop_
 _symmetry_equiv_pos_site_id
 _symmetry_equiv_pos_as_xyz
  1  'x, y, z'
loop_
 _atom_site_type_symbol
 _atom_site_label
 _atom_site_symmetry_multiplicity
 _atom_site_fract_x
 _atom_site_fract_y
 _atom_site_fract_z
 _atom_site_occupancy
  Tb  Tb0  1  0.872615  0.539700  0.250000  1
  Er  Er1  1  0.336154  0.675091  0.062083  1
  Er  Er2  1  0.165991  0.175117  0.437486  1
  Er  Er3  1  0.666450  0.323784  0.562738  1
  Er  Er4  1  0.834332  0.825544  0.936835  1
  Er  Er5  1  0.666450  0.323784  0.937262  1
  Er  Er6  1  0.834332  0.825544  0.563165  1
  Er  Er7  1  0.336154  0.675091  0.437917  1
  Er  Er8  1  0.165991  0.175117  0.062514  1
  Er  Er9  1  0.625829  0.039520  0.250000  1
  Er  Er10  1  0.129813  0.460047  0.750000  1
  Er  Er11  1  0.369569  0.960664  0.750000  1
  Tc  Tc12  1  0.038055  0.883078  0.250000  1
  Os  Os13  1  0.459019  0.381679  0.250000  1
  Os  Os14  1  0.960216  0.118695  0.750000  1
  Os  Os15  1  0.539027  0.617545  0.750000  1
