# generated using pymatgen
data_Ag2BiPt4PbO14
_symmetry_space_group_name_H-M   'P 1'
_cell_length_a   7.29435581
_cell_length_b   7.29027922
_cell_length_c   7.18170700
_cell_angle_alpha   60.49143254
_cell_angle_beta   60.50955373
_cell_angle_gamma   61.36423110
_symmetry_Int_Tables_number   1
_chemical_formula_structural   Ag2BiPt4PbO14
_chemical_formula_sum   'Ag2 Bi1 Pt4 Pb1 O14'
_cell_volume   274.81140689
_cell_formula_units_Z   1
loop_
 _symmetry_equiv_pos_site_id
 _symmetry_equiv_pos_as_xyz
  1  'x, y, z'
loop_
 _atom_site_type_symbol
 _atom_site_label
 _atom_site_symmetry_multiplicity
 _atom_site_fract_x
 _atom_site_fract_y
 _atom_site_fract_z
 _atom_site_occupancy
  Ag  Ag0  1  0.125000  0.125000  0.625000  1
  Ag  Ag1  1  0.125000  0.125000  0.125000  1
  Bi  Bi2  1  0.625000  0.125000  0.125000  1
  Pt  Pt3  1  0.625000  0.625000  0.125000  1
  Pt  Pt4  1  0.625000  0.125000  0.625000  1
  Pt  Pt5  1  0.125000  0.625000  0.625000  1
  Pt  Pt6  1  0.625000  0.625000  0.625000  1
  Pb  Pb7  1  0.125000  0.625000  0.125000  1
  O  O8  1  0.239896  0.244692  0.257706  1
  O  O9  1  0.010104  0.005308  0.992294  1
  O  O10  1  0.547071  0.955939  0.537783  1
  O  O11  1  0.294291  0.703055  0.290119  1
  O  O12  1  0.539297  0.538439  0.961132  1
  O  O13  1  0.955709  0.546945  0.537465  1
  O  O14  1  0.547071  0.955939  0.959208  1
  O  O15  1  0.955329  0.955292  0.544689  1
  O  O16  1  0.955709  0.546945  0.959881  1
  O  O17  1  0.702929  0.294061  0.290792  1
  O  O18  1  0.294291  0.703055  0.712535  1
  O  O19  1  0.702929  0.294061  0.712217  1
  O  O20  1  0.294671  0.294708  0.705311  1
  O  O21  1  0.710703  0.711561  0.288868  1
