# generated using pymatgen
data_La3Nd(Re2Cl)2
_symmetry_space_group_name_H-M   'P 1'
_cell_length_a   4.20213000
_cell_length_b   4.20213008
_cell_length_c   17.78928800
_cell_angle_alpha   90.00000000
_cell_angle_beta   90.00000000
_cell_angle_gamma   119.99998362
_symmetry_Int_Tables_number   1
_chemical_formula_structural   La3Nd(Re2Cl)2
_chemical_formula_sum   'La3 Nd1 Re4 Cl2'
_cell_volume   272.03716839
_cell_formula_units_Z   1
loop_
 _symmetry_equiv_pos_site_id
 _symmetry_equiv_pos_as_xyz
  1  'x, y, z'
loop_
 _atom_site_type_symbol
 _atom_site_label
 _atom_site_symmetry_multiplicity
 _atom_site_fract_x
 _atom_site_fract_y
 _atom_site_fract_z
 _atom_site_occupancy
  La  La0  1  0.000000  0.000000  0.119198  1
  La  La1  1  0.000000  0.000000  0.380237  1
  La  La2  1  0.000000  0.000000  0.620433  1
  Nd  Nd3  1  0.000000  0.000000  0.881117  1
  Re  Re4  1  0.666666  0.333332  0.015364  1
  Re  Re5  1  0.333334  0.666667  0.982564  1
  Re  Re6  1  0.666666  0.333332  0.483258  1
  Re  Re7  1  0.333334  0.666667  0.516995  1
  Cl  Cl8  1  0.333334  0.666667  0.249904  1
  Cl  Cl9  1  0.666666  0.333332  0.750929  1
