# generated using pymatgen
data_La5Si2Ge
_symmetry_space_group_name_H-M   'P 1'
_cell_length_a   8.01519200
_cell_length_b   9.03060449
_cell_length_c   8.01519200
_cell_angle_alpha   116.34526984
_cell_angle_beta   90.00000000
_cell_angle_gamma   116.34526984
_symmetry_Int_Tables_number   1
_chemical_formula_structural   La5Si2Ge
_chemical_formula_sum   'La10 Si4 Ge2'
_cell_volume   451.67275500
_cell_formula_units_Z   2
loop_
 _symmetry_equiv_pos_site_id
 _symmetry_equiv_pos_as_xyz
  1  'x, y, z'
loop_
 _atom_site_type_symbol
 _atom_site_label
 _atom_site_symmetry_multiplicity
 _atom_site_fract_x
 _atom_site_fract_y
 _atom_site_fract_z
 _atom_site_occupancy
  La  La0  1  0.000000  0.000000  0.000000  1
  La  La1  1  0.500000  0.000000  0.500000  1
  La  La2  1  0.532593  0.708049  0.675458  1
  La  La3  1  0.175458  0.708049  0.032593  1
  La  La4  1  0.675458  0.708049  0.175458  1
  La  La5  1  0.032593  0.708049  0.532593  1
  La  La6  1  0.467407  0.291951  0.324542  1
  La  La7  1  0.824542  0.291951  0.967407  1
  La  La8  1  0.324542  0.291951  0.824542  1
  La  La9  1  0.967407  0.291951  0.467407  1
  Si  Si10  1  0.886712  0.000000  0.613288  1
  Si  Si11  1  0.113288  0.000000  0.386712  1
  Si  Si12  1  0.613288  0.000000  0.113288  1
  Si  Si13  1  0.386712  0.000000  0.886712  1
  Ge  Ge14  1  0.750000  0.500000  0.750000  1
  Ge  Ge15  1  0.250000  0.500000  0.250000  1
