# generated using pymatgen
data_Ta2MnBe(BRu2)2
_symmetry_space_group_name_H-M   'P 1'
_cell_length_a   8.99388500
_cell_length_b   8.99388500
_cell_length_c   2.98611600
_cell_angle_alpha   90.00000000
_cell_angle_beta   90.00000000
_cell_angle_gamma   90.00000000
_symmetry_Int_Tables_number   1
_chemical_formula_structural   Ta2MnBe(BRu2)2
_chemical_formula_sum   'Ta4 Mn2 Be2 B4 Ru8'
_cell_volume   241.54682587
_cell_formula_units_Z   2
loop_
 _symmetry_equiv_pos_site_id
 _symmetry_equiv_pos_as_xyz
  1  'x, y, z'
loop_
 _atom_site_type_symbol
 _atom_site_label
 _atom_site_symmetry_multiplicity
 _atom_site_fract_x
 _atom_site_fract_y
 _atom_site_fract_z
 _atom_site_occupancy
  Ta  Ta0  1  0.829033  0.670967  0.000000  1
  Ta  Ta1  1  0.170967  0.329033  0.000000  1
  Ta  Ta2  1  0.329033  0.829033  0.000000  1
  Ta  Ta3  1  0.670967  0.170967  0.000000  1
  Mn  Mn4  1  0.500000  0.000000  0.500000  1
  Mn  Mn5  1  0.000000  0.500000  0.500000  1
  Be  Be6  1  0.500000  0.500000  0.000000  1
  Be  Be7  1  0.000000  0.000000  0.000000  1
  B  B8  1  0.622282  0.877718  0.000000  1
  B  B9  1  0.377718  0.122282  0.000000  1
  B  B10  1  0.122282  0.622282  0.000000  1
  B  B11  1  0.877718  0.377718  0.000000  1
  Ru  Ru12  1  0.565161  0.710750  0.500000  1
  Ru  Ru13  1  0.434839  0.289250  0.500000  1
  Ru  Ru14  1  0.065161  0.789250  0.500000  1
  Ru  Ru15  1  0.934839  0.210750  0.500000  1
  Ru  Ru16  1  0.289250  0.565161  0.500000  1
  Ru  Ru17  1  0.710750  0.434839  0.500000  1
  Ru  Ru18  1  0.210750  0.065161  0.500000  1
  Ru  Ru19  1  0.789250  0.934839  0.500000  1
