# generated using pymatgen
data_Y6HfZr3(Sn3O)2
_symmetry_space_group_name_H-M   'P 1'
_cell_length_a   8.77920300
_cell_length_b   8.77920290
_cell_length_c   6.03159500
_cell_angle_alpha   90.00000000
_cell_angle_beta   90.00000000
_cell_angle_gamma   119.99999660
_symmetry_Int_Tables_number   1
_chemical_formula_structural   Y6HfZr3(Sn3O)2
_chemical_formula_sum   'Y6 Hf1 Zr3 Sn6 O2'
_cell_volume   402.59928276
_cell_formula_units_Z   1
loop_
 _symmetry_equiv_pos_site_id
 _symmetry_equiv_pos_as_xyz
  1  'x, y, z'
loop_
 _atom_site_type_symbol
 _atom_site_label
 _atom_site_symmetry_multiplicity
 _atom_site_fract_x
 _atom_site_fract_y
 _atom_site_fract_z
 _atom_site_occupancy
  Y  Y0  1  0.000093  0.772483  0.749904  1
  Y  Y1  1  0.000093  0.227609  0.250096  1
  Y  Y2  1  0.227517  0.227609  0.749904  1
  Y  Y3  1  0.227517  0.999907  0.250096  1
  Y  Y4  1  0.772391  0.772483  0.250096  1
  Y  Y5  1  0.772391  0.999907  0.749904  1
  Hf  Hf6  1  0.333333  0.666667  0.000000  1
  Zr  Zr7  1  0.333333  0.666667  0.500000  1
  Zr  Zr8  1  0.666667  0.333333  0.000000  1
  Zr  Zr9  1  0.666667  0.333333  0.500000  1
  Sn  Sn10  1  0.001124  0.594050  0.248848  1
  Sn  Sn11  1  0.001124  0.407075  0.751152  1
  Sn  Sn12  1  0.405950  0.407075  0.248848  1
  Sn  Sn13  1  0.592925  0.594050  0.751152  1
  Sn  Sn14  1  0.405950  0.998876  0.751152  1
  Sn  Sn15  1  0.592925  0.998876  0.248848  1
  O  O16  1  0.000000  0.000000  0.000000  1
  O  O17  1  0.000000  0.000000  0.500000  1
