# generated using pymatgen
data_TmNb(TlCl3)4
_symmetry_space_group_name_H-M   'P 1'
_cell_length_a   12.52645733
_cell_length_b   12.52635093
_cell_length_c   12.52641100
_cell_angle_alpha   132.01672646
_cell_angle_beta   132.01686057
_cell_angle_gamma   70.20255636
_symmetry_Int_Tables_number   1
_chemical_formula_structural   TmNb(TlCl3)4
_chemical_formula_sum   'Tm2 Nb2 Tl8 Cl24'
_cell_volume   1063.42312791
_cell_formula_units_Z   2
loop_
 _symmetry_equiv_pos_site_id
 _symmetry_equiv_pos_as_xyz
  1  'x, y, z'
loop_
 _atom_site_type_symbol
 _atom_site_label
 _atom_site_symmetry_multiplicity
 _atom_site_fract_x
 _atom_site_fract_y
 _atom_site_fract_z
 _atom_site_occupancy
  Tm  Tm0  1  0.750017  0.249987  0.499987  1
  Tm  Tm1  1  0.999988  0.000017  0.000019  1
  Nb  Nb2  1  0.249988  0.750005  0.499993  1
  Nb  Nb3  1  0.500011  0.499993  0.000003  1
  Tl  Tl4  1  0.374542  0.341098  0.463212  1
  Tl  Tl5  1  0.088705  0.625492  0.966614  1
  Tl  Tl6  1  0.877927  0.911332  0.536837  1
  Tl  Tl7  1  0.091085  0.127885  0.466556  1
  Tl  Tl8  1  0.375457  0.908901  0.036787  1
  Tl  Tl9  1  0.661294  0.624507  0.533384  1
  Tl  Tl10  1  0.658914  0.122114  0.033442  1
  Tl  Tl11  1  0.872071  0.338668  0.963161  1
  Cl  Cl12  1  0.015248  0.771943  0.290872  1
  Cl  Cl13  1  0.021447  0.257220  0.271072  1
  Cl  Cl14  1  0.275589  0.984736  0.756667  1
  Cl  Cl15  1  0.007209  0.236149  0.735740  1
  Cl  Cl16  1  0.134138  0.634129  0.500075  1
  Cl  Cl17  1  0.268957  0.525665  0.790876  1
  Cl  Cl18  1  0.481041  0.724335  0.709124  1
  Cl  Cl19  1  0.500443  0.271487  0.264251  1
  Cl  Cl20  1  0.474408  0.265264  0.743333  1
  Cl  Cl21  1  0.615859  0.615867  0.999919  1
  Cl  Cl22  1  0.521890  0.731053  0.256699  1
  Cl  Cl23  1  0.126953  0.126966  0.999940  1
  Cl  Cl24  1  0.873025  0.873032  0.000060  1
  Cl  Cl25  1  0.986189  0.750461  0.728973  1
  Cl  Cl26  1  0.742793  0.013849  0.764262  1
  Cl  Cl27  1  0.249561  0.978516  0.235754  1
  Cl  Cl28  1  0.734752  0.478057  0.209127  1
  Cl  Cl29  1  0.228109  0.518947  0.243299  1
  Cl  Cl30  1  0.365852  0.865861  0.499893  1
  Cl  Cl31  1  0.876976  0.376968  0.499939  1
  Cl  Cl32  1  0.384149  0.384141  0.000111  1
  Cl  Cl33  1  0.623044  0.123034  0.500058  1
  Cl  Cl34  1  0.763809  0.499541  0.771028  1
  Cl  Cl35  1  0.728559  0.992781  0.228933  1
