# generated using pymatgen
data_Tb11CeCo4SnRu
_symmetry_space_group_name_H-M   'P 1'
_cell_length_a   8.30493582
_cell_length_b   8.34171362
_cell_length_c   8.30493558
_cell_angle_alpha   111.55342068
_cell_angle_beta   109.68313113
_cell_angle_gamma   107.03101997
_symmetry_Int_Tables_number   1
_chemical_formula_structural   Tb11CeCo4SnRu
_chemical_formula_sum   'Tb11 Ce1 Co4 Sn1 Ru1'
_cell_volume   443.17484095
_cell_formula_units_Z   1
loop_
 _symmetry_equiv_pos_site_id
 _symmetry_equiv_pos_as_xyz
  1  'x, y, z'
loop_
 _atom_site_type_symbol
 _atom_site_label
 _atom_site_symmetry_multiplicity
 _atom_site_fract_x
 _atom_site_fract_y
 _atom_site_fract_z
 _atom_site_occupancy
  Tb  Tb0  1  0.408300  0.221641  0.187975  1
  Tb  Tb1  1  0.597808  0.790902  0.816344  1
  Tb  Tb2  1  0.033667  0.221641  0.813344  1
  Tb  Tb3  1  0.974558  0.790902  0.193092  1
  Tb  Tb4  1  0.186884  0.291296  0.471033  1
  Tb  Tb5  1  0.818426  0.713731  0.529634  1
  Tb  Tb6  1  0.184097  0.713731  0.895306  1
  Tb  Tb7  1  0.820263  0.291296  0.104414  1
  Tb  Tb8  1  0.315454  0.627455  0.312001  1
  Tb  Tb9  1  0.677082  0.376505  0.699423  1
  Tb  Tb10  1  0.319666  0.003806  0.684140  1
  Ce  Ce11  1  0.680697  0.016606  0.335909  1
  Co  Co12  1  0.361116  0.992715  0.345876  1
  Co  Co13  1  0.646838  0.992715  0.631599  1
  Co  Co14  1  0.100849  0.602114  0.501264  1
  Co  Co15  1  0.868976  0.353803  0.484827  1
  Sn  Sn16  1  0.501891  0.503184  0.001293  1
  Ru  Ru17  1  0.003428  0.995954  0.992527  1
