# generated using pymatgen
data_Ho2Tm(In2Ni)2
_symmetry_space_group_name_H-M   'P 1'
_cell_length_a   7.76209434
_cell_length_b   7.75655960
_cell_length_c   3.73010400
_cell_angle_alpha   90.00000000
_cell_angle_beta   90.00000000
_cell_angle_gamma   120.05758941
_symmetry_Int_Tables_number   1
_chemical_formula_structural   Ho2Tm(In2Ni)2
_chemical_formula_sum   'Ho2 Tm1 In4 Ni2'
_cell_volume   194.37808789
_cell_formula_units_Z   1
loop_
 _symmetry_equiv_pos_site_id
 _symmetry_equiv_pos_as_xyz
  1  'x, y, z'
loop_
 _atom_site_type_symbol
 _atom_site_label
 _atom_site_symmetry_multiplicity
 _atom_site_fract_x
 _atom_site_fract_y
 _atom_site_fract_z
 _atom_site_occupancy
  Ho  Ho0  1  0.420526  0.035904  0.000000  1
  Ho  Ho1  1  0.964183  0.385012  0.000000  1
  Tm  Tm2  1  0.616781  0.579492  0.000000  1
  In  In3  1  0.749929  0.999268  0.500001  1
  In  In4  1  0.249785  0.249605  0.500001  1
  In  In5  1  0.334343  0.665983  0.500001  1
  In  In6  1  0.999941  0.749909  0.500001  1
  Ni  Ni7  1  0.997961  0.998061  0.000000  1
  Ni  Ni8  1  0.666551  0.336766  0.500001  1
