# generated using pymatgen
data_CsSb12Os2PdRu
_symmetry_space_group_name_H-M   'P 1'
_cell_length_a   8.23931879
_cell_length_b   8.22118733
_cell_length_c   8.23802709
_cell_angle_alpha   109.38891057
_cell_angle_beta   109.50937630
_cell_angle_gamma   109.40246693
_symmetry_Int_Tables_number   1
_chemical_formula_structural   CsSb12Os2PdRu
_chemical_formula_sum   'Cs1 Sb12 Os2 Pd1 Ru1'
_cell_volume   430.16040536
_cell_formula_units_Z   1
loop_
 _symmetry_equiv_pos_site_id
 _symmetry_equiv_pos_as_xyz
  1  'x, y, z'
loop_
 _atom_site_type_symbol
 _atom_site_label
 _atom_site_symmetry_multiplicity
 _atom_site_fract_x
 _atom_site_fract_y
 _atom_site_fract_z
 _atom_site_occupancy
  Cs  Cs0  1  0.000000  0.000000  0.000000  1
  Sb  Sb1  1  0.341159  0.180867  0.839612  1
  Sb  Sb2  1  0.658841  0.819133  0.160388  1
  Sb  Sb3  1  0.647578  0.496478  0.839143  1
  Sb  Sb4  1  0.352422  0.503522  0.160857  1
  Sb  Sb5  1  0.191758  0.848611  0.352076  1
  Sb  Sb6  1  0.808242  0.151389  0.647924  1
  Sb  Sb7  1  0.499167  0.840273  0.659167  1
  Sb  Sb8  1  0.500833  0.159727  0.340833  1
  Sb  Sb9  1  0.838071  0.341997  0.190727  1
  Sb  Sb10  1  0.161929  0.658003  0.809273  1
  Sb  Sb11  1  0.841138  0.658708  0.499906  1
  Sb  Sb12  1  0.158862  0.341292  0.500094  1
  Os  Os13  1  0.000000  0.000000  0.500000  1
  Os  Os14  1  0.500000  0.500000  0.500000  1
  Pd  Pd15  1  0.000000  0.500000  0.000000  1
  Ru  Ru16  1  0.500000  0.000000  0.000000  1
