# generated using pymatgen
data_Dy3Y(HoBi)6
_symmetry_space_group_name_H-M   'P 1'
_cell_length_a   8.24924800
_cell_length_b   9.50439100
_cell_length_c   12.05899600
_cell_angle_alpha   90.00000000
_cell_angle_beta   90.00000000
_cell_angle_gamma   90.00000000
_symmetry_Int_Tables_number   1
_chemical_formula_structural   Dy3Y(HoBi)6
_chemical_formula_sum   'Dy6 Y2 Ho12 Bi12'
_cell_volume   945.47446839
_cell_formula_units_Z   2
loop_
 _symmetry_equiv_pos_site_id
 _symmetry_equiv_pos_as_xyz
  1  'x, y, z'
loop_
 _atom_site_type_symbol
 _atom_site_label
 _atom_site_symmetry_multiplicity
 _atom_site_fract_x
 _atom_site_fract_y
 _atom_site_fract_z
 _atom_site_occupancy
  Dy  Dy0  1  0.186340  0.750000  0.718976  1
  Dy  Dy1  1  0.686340  0.750000  0.781024  1
  Dy  Dy2  1  0.813658  0.250000  0.281034  1
  Dy  Dy3  1  0.313658  0.250000  0.218966  1
  Dy  Dy4  1  0.353913  0.750000  0.215583  1
  Dy  Dy5  1  0.853913  0.750000  0.284417  1
  Y  Y6  1  0.646170  0.250000  0.784626  1
  Y  Y7  1  0.146170  0.250000  0.715374  1
  Ho  Ho8  1  0.025912  0.750000  0.988802  1
  Ho  Ho9  1  0.525912  0.750000  0.511198  1
  Ho  Ho10  1  0.974064  0.250000  0.011249  1
  Ho  Ho11  1  0.474064  0.250000  0.488751  1
  Ho  Ho12  1  0.306315  0.436510  0.940277  1
  Ho  Ho13  1  0.806315  0.063490  0.559723  1
  Ho  Ho14  1  0.693658  0.936419  0.059837  1
  Ho  Ho15  1  0.193658  0.563581  0.440163  1
  Ho  Ho16  1  0.693658  0.563581  0.059837  1
  Ho  Ho17  1  0.193658  0.936419  0.440163  1
  Ho  Ho18  1  0.306315  0.063490  0.940277  1
  Ho  Ho19  1  0.806315  0.436510  0.559723  1
  Bi  Bi20  1  0.433528  0.003686  0.673499  1
  Bi  Bi21  1  0.933528  0.496314  0.826501  1
  Bi  Bi22  1  0.566516  0.503823  0.326464  1
  Bi  Bi23  1  0.066516  0.996177  0.173536  1
  Bi  Bi24  1  0.566516  0.996177  0.326464  1
  Bi  Bi25  1  0.066516  0.503823  0.173536  1
  Bi  Bi26  1  0.433528  0.496314  0.673499  1
  Bi  Bi27  1  0.933528  0.003686  0.826501  1
  Bi  Bi28  1  0.409025  0.750000  0.957965  1
  Bi  Bi29  1  0.909025  0.750000  0.542035  1
  Bi  Bi30  1  0.590884  0.250000  0.042022  1
  Bi  Bi31  1  0.090884  0.250000  0.457978  1
