# generated using pymatgen
data_TmLuPu2(AlB4)4
_symmetry_space_group_name_H-M   'P 1'
_cell_length_a   3.55067500
_cell_length_b   5.91891140
_cell_length_c   11.47349503
_cell_angle_alpha   89.94441555
_cell_angle_beta   90.00000000
_cell_angle_gamma   90.00000000
_symmetry_Int_Tables_number   1
_chemical_formula_structural   TmLuPu2(AlB4)4
_chemical_formula_sum   'Tm1 Lu1 Pu2 Al4 B16'
_cell_volume   241.12835809
_cell_formula_units_Z   1
loop_
 _symmetry_equiv_pos_site_id
 _symmetry_equiv_pos_as_xyz
  1  'x, y, z'
loop_
 _atom_site_type_symbol
 _atom_site_label
 _atom_site_symmetry_multiplicity
 _atom_site_fract_x
 _atom_site_fract_y
 _atom_site_fract_z
 _atom_site_occupancy
  Tm  Tm0  1  0.000000  0.870917  0.849671  1
  Lu  Lu1  1  0.000000  0.129148  0.150343  1
  Pu  Pu2  1  0.000000  0.630093  0.349441  1
  Pu  Pu3  1  0.000000  0.369905  0.650534  1
  Al  Al4  1  0.000000  0.638437  0.091040  1
  Al  Al5  1  0.000000  0.361598  0.909004  1
  Al  Al6  1  0.000000  0.139169  0.409834  1
  Al  Al7  1  0.000000  0.860834  0.590098  1
  B  B8  1  0.500000  0.790981  0.187320  1
  B  B9  1  0.500000  0.209538  0.812614  1
  B  B10  1  0.500000  0.290175  0.311876  1
  B  B11  1  0.500000  0.709631  0.687937  1
  B  B12  1  0.500000  0.867686  0.031063  1
  B  B13  1  0.500000  0.132631  0.969339  1
  B  B14  1  0.500000  0.366831  0.468548  1
  B  B15  1  0.500000  0.633124  0.531421  1
  B  B16  1  0.500000  0.886716  0.452585  1
  B  B17  1  0.500000  0.113316  0.547421  1
  B  B18  1  0.500000  0.384478  0.046791  1
  B  B19  1  0.500000  0.614897  0.953484  1
  B  B20  1  0.500000  0.974068  0.306404  1
  B  B21  1  0.500000  0.026198  0.693327  1
  B  B22  1  0.500000  0.472654  0.192459  1
  B  B23  1  0.500000  0.526977  0.807447  1
