# generated using pymatgen
data_Rb2Co3NiSe8
_symmetry_space_group_name_H-M   'P 1'
_cell_length_a   6.09696400
_cell_length_b   7.07284628
_cell_length_c   16.25854797
_cell_angle_alpha   89.93095454
_cell_angle_beta   90.00000000
_cell_angle_gamma   90.00000000
_symmetry_Int_Tables_number   1
_chemical_formula_structural   Rb2Co3NiSe8
_chemical_formula_sum   'Rb4 Co6 Ni2 Se16'
_cell_volume   701.11505230
_cell_formula_units_Z   2
loop_
 _symmetry_equiv_pos_site_id
 _symmetry_equiv_pos_as_xyz
  1  'x, y, z'
loop_
 _atom_site_type_symbol
 _atom_site_label
 _atom_site_symmetry_multiplicity
 _atom_site_fract_x
 _atom_site_fract_y
 _atom_site_fract_z
 _atom_site_occupancy
  Rb  Rb0  1  0.368915  0.000000  0.000000  1
  Rb  Rb1  1  0.631085  0.500000  0.500000  1
  Rb  Rb2  1  0.030948  0.000000  0.500000  1
  Rb  Rb3  1  0.969052  0.500000  0.000000  1
  Co  Co4  1  0.003532  0.000372  0.252269  1
  Co  Co5  1  0.003532  0.999628  0.747731  1
  Co  Co6  1  0.996468  0.499628  0.247731  1
  Co  Co7  1  0.996468  0.500372  0.752269  1
  Co  Co8  1  0.500000  0.750000  0.250000  1
  Co  Co9  1  0.500000  0.250000  0.750000  1
  Ni  Ni10  1  0.500000  0.250000  0.250000  1
  Ni  Ni11  1  0.500000  0.750000  0.750000  1
  Se  Se12  1  0.836436  0.252160  0.327434  1
  Se  Se13  1  0.836436  0.747840  0.672566  1
  Se  Se14  1  0.164014  0.752245  0.172157  1
  Se  Se15  1  0.164014  0.247755  0.827843  1
  Se  Se16  1  0.163564  0.247840  0.172566  1
  Se  Se17  1  0.163564  0.752160  0.827434  1
  Se  Se18  1  0.835986  0.747755  0.327843  1
  Se  Se19  1  0.835986  0.252245  0.672157  1
  Se  Se20  1  0.675372  0.997033  0.174027  1
  Se  Se21  1  0.675372  0.002967  0.825973  1
  Se  Se22  1  0.324628  0.502967  0.325973  1
  Se  Se23  1  0.324628  0.497033  0.674027  1
  Se  Se24  1  0.340083  0.997066  0.327851  1
  Se  Se25  1  0.340083  0.002934  0.672149  1
  Se  Se26  1  0.659917  0.502934  0.172149  1
  Se  Se27  1  0.659917  0.497066  0.827851  1
