# generated using pymatgen
data_Sm8Y12Si15Bi
_symmetry_space_group_name_H-M   'P 1'
_cell_length_a   7.56482663
_cell_length_b   7.73277378
_cell_length_c   14.75586500
_cell_angle_alpha   89.76620825
_cell_angle_beta   86.59614134
_cell_angle_gamma   89.96770194
_symmetry_Int_Tables_number   1
_chemical_formula_structural   Sm8Y12Si15Bi
_chemical_formula_sum   'Sm8 Y12 Si15 Bi1'
_cell_volume   861.64520243
_cell_formula_units_Z   1
loop_
 _symmetry_equiv_pos_site_id
 _symmetry_equiv_pos_as_xyz
  1  'x, y, z'
loop_
 _atom_site_type_symbol
 _atom_site_label
 _atom_site_symmetry_multiplicity
 _atom_site_fract_x
 _atom_site_fract_y
 _atom_site_fract_z
 _atom_site_occupancy
  Sm  Sm0  1  0.022439  0.182942  0.099652  1
  Sm  Sm1  1  0.977422  0.819107  0.901068  1
  Sm  Sm2  1  0.478665  0.682901  0.901056  1
  Sm  Sm3  1  0.002019  0.827901  0.601031  1
  Sm  Sm4  1  0.522388  0.317293  0.100787  1
  Sm  Sm5  1  0.994211  0.175710  0.399034  1
  Sm  Sm6  1  0.507004  0.311266  0.395690  1
  Sm  Sm7  1  0.516556  0.688052  0.603537  1
  Y  Y8  1  0.169682  0.507261  0.753538  1
  Y  Y9  1  0.828561  0.492978  0.253346  1
  Y  Y10  1  0.328904  0.007233  0.252584  1
  Y  Y11  1  0.674041  0.993465  0.749460  1
  Y  Y12  1  0.360314  0.150981  0.622860  1
  Y  Y13  1  0.643638  0.831812  0.380304  1
  Y  Y14  1  0.138526  0.678632  0.371561  1
  Y  Y15  1  0.672202  0.821128  0.121279  1
  Y  Y16  1  0.840236  0.332011  0.622380  1
  Y  Y17  1  0.326841  0.178478  0.878199  1
  Y  Y18  1  0.827057  0.321542  0.878279  1
  Y  Y19  1  0.172647  0.678572  0.122080  1
  Si  Si20  1  0.046397  0.112579  0.751896  1
  Si  Si21  1  0.951651  0.891600  0.245890  1
  Si  Si22  1  0.454031  0.609764  0.247538  1
  Si  Si23  1  0.542652  0.391505  0.752271  1
  Si  Si24  1  0.287196  0.871368  0.754142  1
  Si  Si25  1  0.715067  0.123392  0.246328  1
  Si  Si26  1  0.213921  0.374874  0.247593  1
  Si  Si27  1  0.788734  0.626801  0.752753  1
  Si  Si28  1  0.796651  0.534101  0.455908  1
  Si  Si29  1  0.298767  0.964368  0.456592  1
  Si  Si30  1  0.854359  0.529746  0.040406  1
  Si  Si31  1  0.702125  0.035583  0.542390  1
  Si  Si32  1  0.144324  0.470917  0.960207  1
  Si  Si33  1  0.643756  0.029959  0.959483  1
  Si  Si34  1  0.354417  0.971361  0.040965  1
  Bi  Bi35  1  0.202602  0.462816  0.537912  1
