# generated using pymatgen
data_Sc3AlPt2C
_symmetry_space_group_name_H-M   'P 1'
_cell_length_a   8.64316262
_cell_length_b   8.64316397
_cell_length_c   8.64316200
_cell_angle_alpha   59.99999987
_cell_angle_beta   59.99999472
_cell_angle_gamma   60.00000163
_symmetry_Int_Tables_number   1
_chemical_formula_structural   Sc3AlPt2C
_chemical_formula_sum   'Sc12 Al4 Pt8 C4'
_cell_volume   456.56548713
_cell_formula_units_Z   4
loop_
 _symmetry_equiv_pos_site_id
 _symmetry_equiv_pos_as_xyz
  1  'x, y, z'
loop_
 _atom_site_type_symbol
 _atom_site_label
 _atom_site_symmetry_multiplicity
 _atom_site_fract_x
 _atom_site_fract_y
 _atom_site_fract_z
 _atom_site_occupancy
  Sc  Sc0  1  0.806632  0.193368  0.806632  1
  Sc  Sc1  1  0.056632  0.443368  0.443368  1
  Sc  Sc2  1  0.443368  0.056632  0.056632  1
  Sc  Sc3  1  0.056632  0.443368  0.056632  1
  Sc  Sc4  1  0.443368  0.443368  0.056632  1
  Sc  Sc5  1  0.056632  0.056632  0.443368  1
  Sc  Sc6  1  0.806632  0.806632  0.193368  1
  Sc  Sc7  1  0.193368  0.806632  0.806632  1
  Sc  Sc8  1  0.806632  0.193368  0.193368  1
  Sc  Sc9  1  0.193368  0.193368  0.806632  1
  Sc  Sc10  1  0.443368  0.056632  0.443368  1
  Sc  Sc11  1  0.193368  0.806632  0.193368  1
  Al  Al12  1  0.625000  0.625000  0.625000  1
  Al  Al13  1  0.125000  0.625000  0.625000  1
  Al  Al14  1  0.625000  0.125000  0.625000  1
  Al  Al15  1  0.625000  0.625000  0.125000  1
  Pt  Pt16  1  0.415129  0.415129  0.415129  1
  Pt  Pt17  1  0.495389  0.834871  0.834871  1
  Pt  Pt18  1  0.834871  0.495389  0.834871  1
  Pt  Pt19  1  0.834871  0.834871  0.495389  1
  Pt  Pt20  1  0.415129  0.754611  0.415129  1
  Pt  Pt21  1  0.415129  0.415129  0.754611  1
  Pt  Pt22  1  0.754611  0.415129  0.415129  1
  Pt  Pt23  1  0.834871  0.834871  0.834871  1
  C  C24  1  0.125000  0.125000  0.125000  1
  C  C25  1  0.625000  0.125000  0.125000  1
  C  C26  1  0.125000  0.625000  0.125000  1
  C  C27  1  0.125000  0.125000  0.625000  1
