# generated using pymatgen
data_Tm3In3HgIr
_symmetry_space_group_name_H-M   'P 1'
_cell_length_a   7.82840200
_cell_length_b   7.82840286
_cell_length_c   3.62994800
_cell_angle_alpha   90.00000000
_cell_angle_beta   90.00000000
_cell_angle_gamma   119.99999635
_symmetry_Int_Tables_number   1
_chemical_formula_structural   Tm3In3HgIr
_chemical_formula_sum   'Tm3 In3 Hg1 Ir1'
_cell_volume   192.65369266
_cell_formula_units_Z   1
loop_
 _symmetry_equiv_pos_site_id
 _symmetry_equiv_pos_as_xyz
  1  'x, y, z'
loop_
 _atom_site_type_symbol
 _atom_site_label
 _atom_site_symmetry_multiplicity
 _atom_site_fract_x
 _atom_site_fract_y
 _atom_site_fract_z
 _atom_site_occupancy
  Tm  Tm0  1  0.569913  0.970417  0.499999  1
  Tm  Tm1  1  0.400504  0.430087  0.499999  1
  Tm  Tm2  1  0.029583  0.599496  0.499999  1
  In  In3  1  0.232709  0.001918  0.000000  1
  In  In4  1  0.998082  0.230792  0.000000  1
  In  In5  1  0.769208  0.767290  0.000000  1
  Hg  Hg6  1  0.666666  0.333334  0.000000  1
  Ir  Ir7  1  0.333333  0.666666  0.000000  1
