# generated using pymatgen
data_NdTmI26
_symmetry_space_group_name_H-M   'P 1'
_cell_length_a   13.27225889
_cell_length_b   11.46533755
_cell_length_c   15.37742253
_cell_angle_alpha   121.32300075
_cell_angle_beta   89.04631556
_cell_angle_gamma   105.03189976
_symmetry_Int_Tables_number   1
_chemical_formula_structural   NdTmI26
_chemical_formula_sum   'Nd1 Tm1 I26'
_cell_volume   1910.63084401
_cell_formula_units_Z   1
loop_
 _symmetry_equiv_pos_site_id
 _symmetry_equiv_pos_as_xyz
  1  'x, y, z'
loop_
 _atom_site_type_symbol
 _atom_site_label
 _atom_site_symmetry_multiplicity
 _atom_site_fract_x
 _atom_site_fract_y
 _atom_site_fract_z
 _atom_site_occupancy
  Nd  Nd0  1  0.668705  0.126957  0.064256  1
  Tm  Tm1  1  0.330339  0.869091  0.935226  1
  I  I2  1  0.376271  0.654005  0.974437  1
  I  I3  1  0.617885  0.346591  0.021043  1
  I  I4  1  0.582884  0.811600  0.393090  1
  I  I5  1  0.421312  0.193482  0.606259  1
  I  I6  1  0.730302  0.685825  0.003410  1
  I  I7  1  0.265072  0.308060  0.994734  1
  I  I8  1  0.706062  0.949056  0.161374  1
  I  I9  1  0.285882  0.038700  0.843566  1
  I  I10  1  0.440420  0.123215  0.137059  1
  I  I11  1  0.543995  0.865386  0.855950  1
  I  I12  1  0.239612  0.657903  0.707656  1
  I  I13  1  0.771052  0.355149  0.297842  1
  I  I14  1  0.123117  0.828780  0.995755  1
  I  I15  1  0.887382  0.171759  0.007815  1
  I  I16  1  0.092521  0.083621  0.211503  1
  I  I17  1  0.908125  0.914657  0.790997  1
  I  I18  1  0.277634  0.915510  0.457539  1
  I  I19  1  0.724522  0.089049  0.542619  1
  I  I20  1  0.330806  0.422568  0.650631  1
  I  I21  1  0.679108  0.586220  0.348331  1
  I  I22  1  0.854097  0.381603  0.701457  1
  I  I23  1  0.148235  0.623743  0.300228  1
  I  I24  1  0.947172  0.702397  0.605294  1
  I  I25  1  0.048999  0.295155  0.394571  1
  I  I26  1  0.254793  0.626956  0.130751  1
  I  I27  1  0.743696  0.372961  0.866609  1
