# generated using pymatgen
data_Ho4Er8InCo5
_symmetry_space_group_name_H-M   'P 1'
_cell_length_a   8.21996059
_cell_length_b   8.21996059
_cell_length_c   8.21996091
_cell_angle_alpha   110.94315929
_cell_angle_beta   110.76121152
_cell_angle_gamma   106.74330454
_symmetry_Int_Tables_number   1
_chemical_formula_structural   Ho4Er8InCo5
_chemical_formula_sum   'Ho4 Er8 In1 Co5'
_cell_volume   426.82677001
_cell_formula_units_Z   1
loop_
 _symmetry_equiv_pos_site_id
 _symmetry_equiv_pos_as_xyz
  1  'x, y, z'
loop_
 _atom_site_type_symbol
 _atom_site_label
 _atom_site_symmetry_multiplicity
 _atom_site_fract_x
 _atom_site_fract_y
 _atom_site_fract_z
 _atom_site_occupancy
  Ho  Ho0  1  0.289929  0.186338  0.476266  1
  Ho  Ho1  1  0.710071  0.813662  0.523734  1
  Ho  Ho2  1  0.289929  0.813662  0.103591  1
  Ho  Ho3  1  0.710071  0.186338  0.896409  1
  Er  Er4  1  0.619769  0.314201  0.305568  1
  Er  Er5  1  0.380231  0.685799  0.694432  1
  Er  Er6  1  0.008633  0.314201  0.694432  1
  Er  Er7  1  0.991367  0.685799  0.305568  1
  Er  Er8  1  0.211210  0.402681  0.191470  1
  Er  Er9  1  0.788790  0.597319  0.808530  1
  Er  Er10  1  0.211210  0.019739  0.808530  1
  Er  Er11  1  0.788790  0.980261  0.191470  1
  In  In12  1  0.500000  0.500000  0.000000  1
  Co  Co13  1  0.000000  0.377434  0.377434  1
  Co  Co14  1  0.000000  0.622566  0.622566  1
  Co  Co15  1  0.387173  0.887173  0.500000  1
  Co  Co16  1  0.612827  0.112827  0.500000  1
  Co  Co17  1  0.000000  0.000000  0.000000  1
