# generated using pymatgen
data_Ba8GaSi14As
_symmetry_space_group_name_H-M   'P 1'
_cell_length_a   6.73652950
_cell_length_b   9.15475212
_cell_length_c   11.60121649
_cell_angle_alpha   90.18217219
_cell_angle_beta   90.43134455
_cell_angle_gamma   90.21905176
_symmetry_Int_Tables_number   1
_chemical_formula_structural   Ba8GaSi14As
_chemical_formula_sum   'Ba8 Ga1 Si14 As1'
_cell_volume   715.43242714
_cell_formula_units_Z   1
loop_
 _symmetry_equiv_pos_site_id
 _symmetry_equiv_pos_as_xyz
  1  'x, y, z'
loop_
 _atom_site_type_symbol
 _atom_site_label
 _atom_site_symmetry_multiplicity
 _atom_site_fract_x
 _atom_site_fract_y
 _atom_site_fract_z
 _atom_site_occupancy
  Ba  Ba0  1  0.249540  0.011801  0.308264  1
  Ba  Ba1  1  0.247341  0.515517  0.193951  1
  Ba  Ba2  1  0.746999  0.982955  0.689906  1
  Ba  Ba3  1  0.752391  0.489446  0.807628  1
  Ba  Ba4  1  0.250571  0.845562  0.907895  1
  Ba  Ba5  1  0.251996  0.347527  0.591872  1
  Ba  Ba6  1  0.750590  0.152657  0.095300  1
  Ba  Ba7  1  0.749454  0.653948  0.404067  1
  Ga  Ga8  1  0.260534  0.433277  0.911820  1
  Si  Si9  1  0.250705  0.912055  0.591788  1
  Si  Si10  1  0.747473  0.586054  0.090502  1
  Si  Si11  1  0.749368  0.086773  0.408770  1
  Si  Si12  1  0.251794  0.195247  0.035600  1
  Si  Si13  1  0.249038  0.698548  0.465375  1
  Si  Si14  1  0.748523  0.801180  0.966449  1
  Si  Si15  1  0.750226  0.301482  0.533585  1
  Si  Si16  1  0.428612  0.693027  0.645520  1
  Si  Si17  1  0.571343  0.805523  0.145890  1
  Si  Si18  1  0.928335  0.305499  0.354357  1
  Si  Si19  1  0.929151  0.804283  0.145867  1
  Si  Si20  1  0.570932  0.305062  0.353080  1
  Si  Si21  1  0.428483  0.191478  0.854998  1
  Si  Si22  1  0.071760  0.693433  0.645123  1
  As  As23  1  0.064844  0.187671  0.852393  1
