# generated using pymatgen
data_TbY5Co2(P3Ir4)4
_symmetry_space_group_name_H-M   'P 1'
_cell_length_a   3.93433200
_cell_length_b   11.10834800
_cell_length_c   12.79313000
_cell_angle_alpha   90.00147656
_cell_angle_beta   90.00000000
_cell_angle_gamma   90.00000000
_symmetry_Int_Tables_number   1
_chemical_formula_structural   TbY5Co2(P3Ir4)4
_chemical_formula_sum   'Tb1 Y5 Co2 P12 Ir16'
_cell_volume   559.11004516
_cell_formula_units_Z   1
loop_
 _symmetry_equiv_pos_site_id
 _symmetry_equiv_pos_as_xyz
  1  'x, y, z'
loop_
 _atom_site_type_symbol
 _atom_site_label
 _atom_site_symmetry_multiplicity
 _atom_site_fract_x
 _atom_site_fract_y
 _atom_site_fract_z
 _atom_site_occupancy
  Tb  Tb0  1  0.500000  0.815994  0.200441  1
  Y  Y1  1  0.000000  0.500000  0.522388  1
  Y  Y2  1  0.500000  0.999994  0.477609  1
  Y  Y3  1  0.500000  0.184011  0.200431  1
  Y  Y4  1  0.000000  0.684008  0.799574  1
  Y  Y5  1  0.000000  0.315993  0.799565  1
  Co  Co6  1  0.000000  0.500001  0.977373  1
  Co  Co7  1  0.500000  0.000010  0.022617  1
  P  P8  1  0.500000  0.499999  0.880428  1
  P  P9  1  0.000000  0.000006  0.119538  1
  P  P10  1  0.500000  0.500005  0.357879  1
  P  P11  1  0.000000  0.999999  0.642128  1
  P  P12  1  0.500000  0.315537  0.619263  1
  P  P13  1  0.500000  0.684460  0.619265  1
  P  P14  1  0.000000  0.184468  0.380743  1
  P  P15  1  0.000000  0.815525  0.380763  1
  P  P16  1  0.500000  0.852076  0.896601  1
  P  P17  1  0.500000  0.147924  0.896592  1
  P  P18  1  0.000000  0.647910  0.103373  1
  P  P19  1  0.000000  0.352082  0.103407  1
  Ir  Ir20  1  0.500000  0.500030  0.177825  1
  Ir  Ir21  1  0.000000  0.999996  0.822182  1
  Ir  Ir22  1  0.500000  0.499996  0.702484  1
  Ir  Ir23  1  0.000000  0.000039  0.297544  1
  Ir  Ir24  1  0.500000  0.339135  0.998037  1
  Ir  Ir25  1  0.500000  0.660851  0.998021  1
  Ir  Ir26  1  0.000000  0.160871  0.001964  1
  Ir  Ir27  1  0.000000  0.839138  0.001930  1
  Ir  Ir28  1  0.500000  0.292836  0.429302  1
  Ir  Ir29  1  0.500000  0.707162  0.429320  1
  Ir  Ir30  1  0.000000  0.207169  0.570696  1
  Ir  Ir31  1  0.000000  0.792835  0.570689  1
  Ir  Ir32  1  0.500000  0.870496  0.714630  1
  Ir  Ir33  1  0.500000  0.129508  0.714632  1
  Ir  Ir34  1  0.000000  0.629439  0.285405  1
  Ir  Ir35  1  0.000000  0.370496  0.285361  1
