# generated using pymatgen
data_Ce10Tc5Os
_symmetry_space_group_name_H-M   'P 1'
_cell_length_a   8.06193916
_cell_length_b   8.06193864
_cell_length_c   6.69038200
_cell_angle_alpha   90.00000000
_cell_angle_beta   90.00000000
_cell_angle_gamma   120.28629477
_symmetry_Int_Tables_number   1
_chemical_formula_structural   Ce10Tc5Os
_chemical_formula_sum   'Ce10 Tc5 Os1'
_cell_volume   375.49176287
_cell_formula_units_Z   1
loop_
 _symmetry_equiv_pos_site_id
 _symmetry_equiv_pos_as_xyz
  1  'x, y, z'
loop_
 _atom_site_type_symbol
 _atom_site_label
 _atom_site_symmetry_multiplicity
 _atom_site_fract_x
 _atom_site_fract_y
 _atom_site_fract_z
 _atom_site_occupancy
  Ce  Ce0  1  0.662258  0.332466  0.000039  1
  Ce  Ce1  1  0.332466  0.662258  0.000039  1
  Ce  Ce2  1  0.332466  0.662258  0.499961  1
  Ce  Ce3  1  0.662258  0.332466  0.499961  1
  Ce  Ce4  1  0.757516  0.757516  0.750000  1
  Ce  Ce5  1  0.234235  0.989729  0.750000  1
  Ce  Ce6  1  0.989729  0.234235  0.750000  1
  Ce  Ce7  1  0.238529  0.238529  0.250000  1
  Ce  Ce8  1  0.760695  0.999523  0.250000  1
  Ce  Ce9  1  0.999523  0.760695  0.250000  1
  Tc  Tc10  1  0.634374  0.004811  0.750000  1
  Tc  Tc11  1  0.004811  0.634374  0.750000  1
  Tc  Tc12  1  0.633619  0.633619  0.250000  1
  Tc  Tc13  1  0.369217  0.001701  0.250000  1
  Tc  Tc14  1  0.001701  0.369217  0.250000  1
  Os  Os15  1  0.386605  0.386605  0.750000  1
