# generated using pymatgen
data_Y2Ho8Cd3Tc
_symmetry_space_group_name_H-M   'P 1'
_cell_length_a   9.52849821
_cell_length_b   9.53200210
_cell_length_c   9.91850800
_cell_angle_alpha   90.00000000
_cell_angle_beta   90.00000000
_cell_angle_gamma   120.01217015
_symmetry_Int_Tables_number   1
_chemical_formula_structural   Y2Ho8Cd3Tc
_chemical_formula_sum   'Y4 Ho16 Cd6 Tc2'
_cell_volume   780.06769633
_cell_formula_units_Z   2
loop_
 _symmetry_equiv_pos_site_id
 _symmetry_equiv_pos_as_xyz
  1  'x, y, z'
loop_
 _atom_site_type_symbol
 _atom_site_label
 _atom_site_symmetry_multiplicity
 _atom_site_fract_x
 _atom_site_fract_y
 _atom_site_fract_z
 _atom_site_occupancy
  Y  Y0  1  0.920463  0.460232  0.250000  1
  Y  Y1  1  0.460429  0.539607  0.750000  1
  Y  Y2  1  0.460429  0.920821  0.750000  1
  Y  Y3  1  0.079148  0.539574  0.750000  1
  Ho  Ho4  1  0.000004  0.000002  0.500019  1
  Ho  Ho5  1  0.000004  0.000002  0.999981  1
  Ho  Ho6  1  0.210228  0.790145  0.440867  1
  Ho  Ho7  1  0.210228  0.420083  0.440867  1
  Ho  Ho8  1  0.579909  0.789955  0.440808  1
  Ho  Ho9  1  0.789806  0.209922  0.558979  1
  Ho  Ho10  1  0.789806  0.579884  0.558979  1
  Ho  Ho11  1  0.420246  0.210123  0.558819  1
  Ho  Ho12  1  0.789806  0.209922  0.941021  1
  Ho  Ho13  1  0.789806  0.579884  0.941021  1
  Ho  Ho14  1  0.420246  0.210123  0.941181  1
  Ho  Ho15  1  0.210228  0.790145  0.059133  1
  Ho  Ho16  1  0.210228  0.420083  0.059133  1
  Ho  Ho17  1  0.579909  0.789955  0.059192  1
  Ho  Ho18  1  0.539389  0.460441  0.250000  1
  Ho  Ho19  1  0.539389  0.078949  0.250000  1
  Cd  Cd20  1  0.885490  0.114330  0.250000  1
  Cd  Cd21  1  0.885490  0.771161  0.250000  1
  Cd  Cd22  1  0.228998  0.114499  0.250000  1
  Cd  Cd23  1  0.114323  0.885654  0.750000  1
  Cd  Cd24  1  0.114323  0.228667  0.750000  1
  Cd  Cd25  1  0.771338  0.885669  0.750000  1
  Tc  Tc26  1  0.333672  0.666837  0.250000  1
  Tc  Tc27  1  0.666663  0.333331  0.750000  1
