# generated using pymatgen
data_Dy15Er5(Ir3Rh)3
_symmetry_space_group_name_H-M   'P 1'
_cell_length_a   10.86720104
_cell_length_b   10.86734904
_cell_length_c   6.38252803
_cell_angle_alpha   90.00754022
_cell_angle_beta   89.99138335
_cell_angle_gamma   90.00554677
_symmetry_Int_Tables_number   1
_chemical_formula_structural   Dy15Er5(Ir3Rh)3
_chemical_formula_sum   'Dy15 Er5 Ir9 Rh3'
_cell_volume   753.76165018
_cell_formula_units_Z   1
loop_
 _symmetry_equiv_pos_site_id
 _symmetry_equiv_pos_as_xyz
  1  'x, y, z'
loop_
 _atom_site_type_symbol
 _atom_site_label
 _atom_site_symmetry_multiplicity
 _atom_site_fract_x
 _atom_site_fract_y
 _atom_site_fract_z
 _atom_site_occupancy
  Dy  Dy0  1  0.290086  0.911122  0.879843  1
  Dy  Dy1  1  0.709885  0.089044  0.879804  1
  Dy  Dy2  1  0.709739  0.911428  0.380014  1
  Dy  Dy3  1  0.589033  0.790159  0.879823  1
  Dy  Dy4  1  0.588313  0.209657  0.380071  1
  Dy  Dy5  1  0.411315  0.790464  0.380035  1
  Dy  Dy6  1  0.410753  0.209769  0.879844  1
  Dy  Dy7  1  0.209088  0.411235  0.618851  1
  Dy  Dy8  1  0.209510  0.589006  0.121303  1
  Dy  Dy9  1  0.790518  0.410962  0.121304  1
  Dy  Dy10  1  0.790909  0.588697  0.618982  1
  Dy  Dy11  1  0.910997  0.709496  0.121304  1
  Dy  Dy12  1  0.911326  0.290926  0.618980  1
  Dy  Dy13  1  0.088709  0.709120  0.618931  1
  Dy  Dy14  1  0.089233  0.290323  0.121455  1
  Er  Er15  1  0.290535  0.088561  0.380514  1
  Er  Er16  1  0.000300  0.000132  0.500103  1
  Er  Er17  1  0.000048  0.000015  0.000039  1
  Er  Er18  1  0.499973  0.499990  0.000063  1
  Er  Er19  1  0.499923  0.499991  0.500187  1
  Ir  Ir20  1  0.846326  0.152378  0.249859  1
  Ir  Ir21  1  0.846633  0.847141  0.749863  1
  Ir  Ir22  1  0.153697  0.152657  0.748929  1
  Ir  Ir23  1  0.153888  0.848038  0.250136  1
  Ir  Ir24  1  0.652856  0.346606  0.749823  1
  Ir  Ir25  1  0.652404  0.653651  0.249866  1
  Ir  Ir26  1  0.347490  0.345766  0.250153  1
  Ir  Ir27  1  0.347144  0.653377  0.749877  1
  Ir  Ir28  1  0.000034  0.499971  0.374676  1
  Rh  Rh29  1  0.499686  0.000168  0.124953  1
  Rh  Rh30  1  0.499630  0.000146  0.624655  1
  Rh  Rh31  1  0.000019  0.500005  0.875761  1
