# generated using pymatgen
data_Ti12Sn9Sb
_symmetry_space_group_name_H-M   'P 1'
_cell_length_a   9.27870500
_cell_length_b   9.34463582
_cell_length_c   5.70424300
_cell_angle_alpha   90.00000000
_cell_angle_beta   90.00000000
_cell_angle_gamma   119.76688354
_symmetry_Int_Tables_number   1
_chemical_formula_structural   Ti12Sn9Sb
_chemical_formula_sum   'Ti12 Sn9 Sb1'
_cell_volume   429.33252031
_cell_formula_units_Z   1
loop_
 _symmetry_equiv_pos_site_id
 _symmetry_equiv_pos_as_xyz
  1  'x, y, z'
loop_
 _atom_site_type_symbol
 _atom_site_label
 _atom_site_symmetry_multiplicity
 _atom_site_fract_x
 _atom_site_fract_y
 _atom_site_fract_z
 _atom_site_occupancy
  Ti  Ti0  1  0.842015  0.684030  0.750000  1
  Ti  Ti1  1  0.157934  0.844377  0.250000  1
  Ti  Ti2  1  0.686443  0.844377  0.250000  1
  Ti  Ti3  1  0.310157  0.157707  0.750000  1
  Ti  Ti4  1  0.847550  0.157707  0.750000  1
  Ti  Ti5  1  0.155974  0.311947  0.250000  1
  Ti  Ti6  1  0.499938  0.999877  0.500014  1
  Ti  Ti7  1  0.498321  0.500215  0.999112  1
  Ti  Ti8  1  0.001894  0.500215  0.999112  1
  Ti  Ti9  1  0.001894  0.500215  0.500888  1
  Ti  Ti10  1  0.499938  0.999877  0.999986  1
  Ti  Ti11  1  0.498321  0.500215  0.500888  1
  Sn  Sn12  1  0.796557  0.204707  0.250000  1
  Sn  Sn13  1  0.408150  0.204707  0.250000  1
  Sn  Sn14  1  0.594511  0.798421  0.750000  1
  Sn  Sn15  1  0.203911  0.798421  0.750000  1
  Sn  Sn16  1  0.794812  0.589624  0.250000  1
  Sn  Sn17  1  0.666148  0.332295  0.750000  1
  Sn  Sn18  1  0.334985  0.669971  0.250000  1
  Sn  Sn19  1  0.998228  0.996456  0.499475  1
  Sn  Sn20  1  0.998228  0.996456  0.000525  1
  Sb  Sb21  1  0.204092  0.408183  0.750000  1
