# generated using pymatgen
data_Tm4Si4RuRh3
_symmetry_space_group_name_H-M   'P 1'
_cell_length_a   4.26158000
_cell_length_b   6.83922301
_cell_length_c   7.24715100
_cell_angle_alpha   89.99665448
_cell_angle_beta   90.00000000
_cell_angle_gamma   90.00000000
_symmetry_Int_Tables_number   1
_chemical_formula_structural   Tm4Si4RuRh3
_chemical_formula_sum   'Tm4 Si4 Ru1 Rh3'
_cell_volume   211.22470884
_cell_formula_units_Z   1
loop_
 _symmetry_equiv_pos_site_id
 _symmetry_equiv_pos_as_xyz
  1  'x, y, z'
loop_
 _atom_site_type_symbol
 _atom_site_label
 _atom_site_symmetry_multiplicity
 _atom_site_fract_x
 _atom_site_fract_y
 _atom_site_fract_z
 _atom_site_occupancy
  Tm  Tm0  1  0.250000  0.992823  0.811076  1
  Tm  Tm1  1  0.750000  0.004997  0.190121  1
  Tm  Tm2  1  0.250000  0.497711  0.687569  1
  Tm  Tm3  1  0.750000  0.503323  0.312038  1
  Si  Si4  1  0.250000  0.298310  0.105413  1
  Si  Si5  1  0.750000  0.703122  0.899208  1
  Si  Si6  1  0.250000  0.795476  0.386729  1
  Si  Si7  1  0.750000  0.203765  0.608659  1
  Ru  Ru8  1  0.250000  0.654774  0.065645  1
  Rh  Rh9  1  0.750000  0.844045  0.568299  1
  Rh  Rh10  1  0.250000  0.157784  0.432448  1
  Rh  Rh11  1  0.750000  0.343871  0.932796  1
