# generated using pymatgen
data_CeNdRe4(SiC)2
_symmetry_space_group_name_H-M   'P 1'
_cell_length_a   5.83700192
_cell_length_b   5.83700360
_cell_length_c   7.35976200
_cell_angle_alpha   90.00000000
_cell_angle_beta   90.00000000
_cell_angle_gamma   139.77133808
_symmetry_Int_Tables_number   1
_chemical_formula_structural   CeNdRe4(SiC)2
_chemical_formula_sum   'Ce1 Nd1 Re4 Si2 C2'
_cell_volume   161.94528194
_cell_formula_units_Z   1
loop_
 _symmetry_equiv_pos_site_id
 _symmetry_equiv_pos_as_xyz
  1  'x, y, z'
loop_
 _atom_site_type_symbol
 _atom_site_label
 _atom_site_symmetry_multiplicity
 _atom_site_fract_x
 _atom_site_fract_y
 _atom_site_fract_z
 _atom_site_occupancy
  Ce  Ce0  1  0.456393  0.543607  0.750000  1
  Nd  Nd1  1  0.542951  0.457049  0.250000  1
  Re  Re2  1  0.825758  0.174242  0.060320  1
  Re  Re3  1  0.174306  0.825694  0.937237  1
  Re  Re4  1  0.174306  0.825694  0.562763  1
  Re  Re5  1  0.825758  0.174242  0.439680  1
  Si  Si6  1  0.265182  0.734818  0.250000  1
  Si  Si7  1  0.735365  0.264635  0.750000  1
  C  C8  1  0.999991  0.000009  0.997999  1
  C  C9  1  0.999991  0.000009  0.502001  1
