# generated using pymatgen
data_Sm4HoEr3(B6Os)4
_symmetry_space_group_name_H-M   'P 1'
_cell_length_a   3.67192700
_cell_length_b   9.17828601
_cell_length_c   11.58585801
_cell_angle_alpha   90.00510993
_cell_angle_beta   90.00000000
_cell_angle_gamma   90.00000000
_symmetry_Int_Tables_number   1
_chemical_formula_structural   Sm4HoEr3(B6Os)4
_chemical_formula_sum   'Sm4 Ho1 Er3 B24 Os4'
_cell_volume   390.46654125
_cell_formula_units_Z   1
loop_
 _symmetry_equiv_pos_site_id
 _symmetry_equiv_pos_as_xyz
  1  'x, y, z'
loop_
 _atom_site_type_symbol
 _atom_site_label
 _atom_site_symmetry_multiplicity
 _atom_site_fract_x
 _atom_site_fract_y
 _atom_site_fract_z
 _atom_site_occupancy
  Sm  Sm0  1  0.000000  0.322106  0.414141  1
  Sm  Sm1  1  0.000000  0.677913  0.585968  1
  Sm  Sm2  1  0.000000  0.822005  0.085819  1
  Sm  Sm3  1  0.000000  0.178000  0.914089  1
  Ho  Ho4  1  0.000000  0.944241  0.372596  1
  Er  Er5  1  0.000000  0.055832  0.627583  1
  Er  Er6  1  0.000000  0.444246  0.127365  1
  Er  Er7  1  0.000000  0.555761  0.872603  1
  B  B8  1  0.500000  0.555236  0.431529  1
  B  B9  1  0.500000  0.444628  0.568518  1
  B  B10  1  0.500000  0.055355  0.068412  1
  B  B11  1  0.500000  0.944660  0.931494  1
  B  B12  1  0.500000  0.749043  0.418293  1
  B  B13  1  0.500000  0.250679  0.581738  1
  B  B14  1  0.500000  0.249424  0.081679  1
  B  B15  1  0.500000  0.750642  0.918282  1
  B  B16  1  0.500000  0.790757  0.266601  1
  B  B17  1  0.500000  0.208955  0.733342  1
  B  B18  1  0.500000  0.291204  0.233282  1
  B  B19  1  0.500000  0.708936  0.766679  1
  B  B20  1  0.500000  0.630745  0.185067  1
  B  B21  1  0.500000  0.369175  0.814873  1
  B  B22  1  0.500000  0.131085  0.314739  1
  B  B23  1  0.500000  0.869148  0.685175  1
  B  B24  1  0.500000  0.984644  0.213652  1
  B  B25  1  0.500000  0.015548  0.786122  1
  B  B26  1  0.500000  0.484369  0.286083  1
  B  B27  1  0.500000  0.515560  0.713893  1
  B  B28  1  0.500000  0.603909  0.028522  1
  B  B29  1  0.500000  0.396082  0.971464  1
  B  B30  1  0.500000  0.104341  0.471648  1
  B  B31  1  0.500000  0.895900  0.528859  1
  Os  Os32  1  0.000000  0.638252  0.320028  1
  Os  Os33  1  0.000000  0.361422  0.680004  1
  Os  Os34  1  0.000000  0.138805  0.179796  1
  Os  Os35  1  0.000000  0.861393  0.820062  1
