# generated using pymatgen
data_PrEu3Cu(Si2Pt)5
_symmetry_space_group_name_H-M   'P 1'
_cell_length_a   8.34199879
_cell_length_b   8.34199800
_cell_length_c   8.34199900
_cell_angle_alpha   137.94145681
_cell_angle_beta   104.99647201
_cell_angle_gamma   89.93007324
_symmetry_Int_Tables_number   1
_chemical_formula_structural   PrEu3Cu(Si2Pt)5
_chemical_formula_sum   'Pr1 Eu3 Cu1 Si10 Pt5'
_cell_volume   358.91488008
_cell_formula_units_Z   1
loop_
 _symmetry_equiv_pos_site_id
 _symmetry_equiv_pos_as_xyz
  1  'x, y, z'
loop_
 _atom_site_type_symbol
 _atom_site_label
 _atom_site_symmetry_multiplicity
 _atom_site_fract_x
 _atom_site_fract_y
 _atom_site_fract_z
 _atom_site_occupancy
  Pr  Pr0  1  0.108191  0.872035  0.235432  1
  Eu  Eu1  1  0.891809  0.127241  0.763844  1
  Eu  Eu2  1  0.636603  0.372759  0.264568  1
  Eu  Eu3  1  0.363397  0.627965  0.736156  1
  Cu  Cu4  1  0.500000  0.750000  0.250000  1
  Si  Si5  1  0.000000  0.750000  0.750000  1
  Si  Si6  1  0.000000  0.250000  0.250000  1
  Si  Si7  1  0.272272  0.022272  0.750000  1
  Si  Si8  1  0.727728  0.477728  0.750000  1
  Si  Si9  1  0.730846  0.980846  0.250000  1
  Si  Si10  1  0.269154  0.519154  0.250000  1
  Si  Si11  1  0.760651  0.616587  0.152252  1
  Si  Si12  1  0.239349  0.391601  0.855937  1
  Si  Si13  1  0.464336  0.108399  0.347748  1
  Si  Si14  1  0.535664  0.883413  0.644063  1
  Pt  Pt15  1  0.500000  0.250000  0.750000  1
  Pt  Pt16  1  0.023523  0.636916  0.388736  1
  Pt  Pt17  1  0.976477  0.365212  0.613393  1
  Pt  Pt18  1  0.248181  0.134788  0.111264  1
  Pt  Pt19  1  0.751819  0.863084  0.886607  1
