# generated using pymatgen
data_TmMn12NbP7
_symmetry_space_group_name_H-M   'P 1'
_cell_length_a   9.17038700
_cell_length_b   9.17038803
_cell_length_c   3.56364900
_cell_angle_alpha   90.00000000
_cell_angle_beta   90.00000000
_cell_angle_gamma   119.99999991
_symmetry_Int_Tables_number   1
_chemical_formula_structural   TmMn12NbP7
_chemical_formula_sum   'Tm1 Mn12 Nb1 P7'
_cell_volume   259.53798586
_cell_formula_units_Z   1
loop_
 _symmetry_equiv_pos_site_id
 _symmetry_equiv_pos_as_xyz
  1  'x, y, z'
loop_
 _atom_site_type_symbol
 _atom_site_label
 _atom_site_symmetry_multiplicity
 _atom_site_fract_x
 _atom_site_fract_y
 _atom_site_fract_z
 _atom_site_occupancy
  Tm  Tm0  1  0.666667  0.333333  0.500000  1
  Mn  Mn1  1  0.712342  0.620295  0.000000  1
  Mn  Mn2  1  0.379705  0.092047  0.000000  1
  Mn  Mn3  1  0.907953  0.287658  0.000000  1
  Mn  Mn4  1  0.211592  0.385414  0.000000  1
  Mn  Mn5  1  0.614586  0.826179  0.000000  1
  Mn  Mn6  1  0.173821  0.788408  0.000000  1
  Mn  Mn7  1  0.284082  0.225799  0.500000  1
  Mn  Mn8  1  0.774201  0.058282  0.500000  1
  Mn  Mn9  1  0.941718  0.715918  0.500000  1
  Mn  Mn10  1  0.458182  0.562415  0.500000  1
  Mn  Mn11  1  0.437585  0.895768  0.500000  1
  Mn  Mn12  1  0.104232  0.541818  0.500000  1
  Nb  Nb13  1  0.000000  0.000000  0.000000  1
  P  P14  1  0.455710  0.376168  0.000000  1
  P  P15  1  0.623832  0.079542  0.000000  1
  P  P16  1  0.920458  0.544290  0.000000  1
  P  P17  1  0.050837  0.252233  0.500000  1
  P  P18  1  0.747767  0.798605  0.500000  1
  P  P19  1  0.201395  0.949163  0.500000  1
  P  P20  1  0.333333  0.666667  0.000000  1
