# generated using pymatgen
data_HoZnCdPt3
_symmetry_space_group_name_H-M   'P 1'
_cell_length_a   5.20118354
_cell_length_b   5.50408752
_cell_length_c   5.50408900
_cell_angle_alpha   59.99999714
_cell_angle_beta   58.05406487
_cell_angle_gamma   58.05407335
_symmetry_Int_Tables_number   1
_chemical_formula_structural   HoZnCdPt3
_chemical_formula_sum   'Ho1 Zn1 Cd1 Pt3'
_cell_volume   108.02823752
_cell_formula_units_Z   1
loop_
 _symmetry_equiv_pos_site_id
 _symmetry_equiv_pos_as_xyz
  1  'x, y, z'
loop_
 _atom_site_type_symbol
 _atom_site_label
 _atom_site_symmetry_multiplicity
 _atom_site_fract_x
 _atom_site_fract_y
 _atom_site_fract_z
 _atom_site_occupancy
  Ho  Ho0  1  0.739134  0.753622  0.753622  1
  Zn  Zn1  1  0.880212  0.373263  0.373263  1
  Cd  Cd2  1  0.994530  0.001823  0.001823  1
  Pt  Pt3  1  0.378707  0.373379  0.874535  1
  Pt  Pt4  1  0.378707  0.874535  0.373379  1
  Pt  Pt5  1  0.378707  0.373379  0.373379  1
