# generated using pymatgen
data_Ta6MnCr(B3Ru2)2
_symmetry_space_group_name_H-M   'P 1'
_cell_length_a   3.12108300
_cell_length_b   6.35609500
_cell_length_c   10.82563400
_cell_angle_alpha   90.00000000
_cell_angle_beta   90.00000000
_cell_angle_gamma   90.00000000
_symmetry_Int_Tables_number   1
_chemical_formula_structural   Ta6MnCr(B3Ru2)2
_chemical_formula_sum   'Ta6 Mn1 Cr1 B6 Ru4'
_cell_volume   214.75784528
_cell_formula_units_Z   1
loop_
 _symmetry_equiv_pos_site_id
 _symmetry_equiv_pos_as_xyz
  1  'x, y, z'
loop_
 _atom_site_type_symbol
 _atom_site_label
 _atom_site_symmetry_multiplicity
 _atom_site_fract_x
 _atom_site_fract_y
 _atom_site_fract_z
 _atom_site_occupancy
  Ta  Ta0  1  0.000000  0.224359  0.951351  1
  Ta  Ta1  1  0.000000  0.775306  0.049075  1
  Ta  Ta2  1  0.000000  0.224359  0.548649  1
  Ta  Ta3  1  0.000000  0.775306  0.450925  1
  Ta  Ta4  1  0.000000  0.138169  0.250000  1
  Ta  Ta5  1  0.000000  0.862040  0.750000  1
  Mn  Mn6  1  0.500000  0.199209  0.750000  1
  Cr  Cr7  1  0.500000  0.802286  0.250000  1
  B  B8  1  0.500000  0.048266  0.085992  1
  B  B9  1  0.500000  0.952367  0.913265  1
  B  B10  1  0.500000  0.048266  0.414008  1
  B  B11  1  0.500000  0.952367  0.586735  1
  B  B12  1  0.000000  0.562818  0.250000  1
  B  B13  1  0.000000  0.437383  0.750000  1
  Ru  Ru14  1  0.500000  0.425887  0.123204  1
  Ru  Ru15  1  0.500000  0.572863  0.875505  1
  Ru  Ru16  1  0.500000  0.425887  0.376796  1
  Ru  Ru17  1  0.500000  0.572863  0.624495  1
