# generated using pymatgen
data_LaTh3(ZnIr)4
_symmetry_space_group_name_H-M   'P 1'
_cell_length_a   4.00106800
_cell_length_b   7.46109400
_cell_length_c   16.75762500
_cell_angle_alpha   90.00000000
_cell_angle_beta   90.00000000
_cell_angle_gamma   90.00000000
_symmetry_Int_Tables_number   1
_chemical_formula_structural   LaTh3(ZnIr)4
_chemical_formula_sum   'La2 Th6 Zn8 Ir8'
_cell_volume   500.25439364
_cell_formula_units_Z   2
loop_
 _symmetry_equiv_pos_site_id
 _symmetry_equiv_pos_as_xyz
  1  'x, y, z'
loop_
 _atom_site_type_symbol
 _atom_site_label
 _atom_site_symmetry_multiplicity
 _atom_site_fract_x
 _atom_site_fract_y
 _atom_site_fract_z
 _atom_site_occupancy
  La  La0  1  0.750000  0.448077  0.214838  1
  La  La1  1  0.750000  0.948077  0.285162  1
  Th  Th2  1  0.750000  0.327740  0.440351  1
  Th  Th3  1  0.250000  0.054805  0.715119  1
  Th  Th4  1  0.250000  0.554805  0.784881  1
  Th  Th5  1  0.250000  0.670118  0.560760  1
  Th  Th6  1  0.750000  0.827740  0.059649  1
  Th  Th7  1  0.250000  0.170118  0.939240  1
  Zn  Zn8  1  0.250000  0.118952  0.150581  1
  Zn  Zn9  1  0.250000  0.994034  0.440933  1
  Zn  Zn10  1  0.750000  0.881337  0.847535  1
  Zn  Zn11  1  0.750000  0.002971  0.560261  1
  Zn  Zn12  1  0.250000  0.494034  0.059067  1
  Zn  Zn13  1  0.750000  0.381337  0.652465  1
  Zn  Zn14  1  0.750000  0.502971  0.939739  1
  Zn  Zn15  1  0.250000  0.618952  0.349419  1
  Ir  Ir16  1  0.750000  0.255907  0.812605  1
  Ir  Ir17  1  0.250000  0.252101  0.321053  1
  Ir  Ir18  1  0.250000  0.751027  0.936506  1
  Ir  Ir19  1  0.250000  0.251027  0.563494  1
  Ir  Ir20  1  0.250000  0.752101  0.178947  1
  Ir  Ir21  1  0.750000  0.742930  0.440851  1
  Ir  Ir22  1  0.750000  0.242930  0.059149  1
  Ir  Ir23  1  0.750000  0.755907  0.687395  1
