# generated using pymatgen
data_K10Ba2TaNbAs8
_symmetry_space_group_name_H-M   'P 1'
_cell_length_a   10.49174906
_cell_length_b   10.49267601
_cell_length_c   8.18629571
_cell_angle_alpha   89.23008306
_cell_angle_beta   89.28013079
_cell_angle_gamma   120.32400401
_symmetry_Int_Tables_number   1
_chemical_formula_structural   K10Ba2TaNbAs8
_chemical_formula_sum   'K10 Ba2 Ta1 Nb1 As8'
_cell_volume   777.63654607
_cell_formula_units_Z   1
loop_
 _symmetry_equiv_pos_site_id
 _symmetry_equiv_pos_as_xyz
  1  'x, y, z'
loop_
 _atom_site_type_symbol
 _atom_site_label
 _atom_site_symmetry_multiplicity
 _atom_site_fract_x
 _atom_site_fract_y
 _atom_site_fract_z
 _atom_site_occupancy
  K  K0  1  0.466697  0.525975  0.501872  1
  K  K1  1  0.058571  0.526867  0.501571  1
  K  K2  1  0.525946  0.467362  0.002401  1
  K  K3  1  0.527049  0.058370  0.002098  1
  K  K4  1  0.864752  0.142937  0.677338  1
  K  K5  1  0.293427  0.153584  0.703082  1
  K  K6  1  0.854204  0.714330  0.663465  1
  K  K7  1  0.143106  0.865329  0.175082  1
  K  K8  1  0.713857  0.854072  0.162234  1
  K  K9  1  0.153800  0.293233  0.201823  1
  Ba  Ba10  1  0.465116  0.934825  0.494773  1
  Ba  Ba11  1  0.934811  0.465264  0.996555  1
  Ta  Ta12  1  0.333657  0.668279  0.892528  1
  Nb  Nb13  1  0.668120  0.333560  0.393785  1
  As  As14  1  0.678007  0.334089  0.701091  1
  As  As15  1  0.333387  0.677256  0.199037  1
  As  As16  1  0.796220  0.198343  0.290142  1
  As  As17  1  0.401193  0.194117  0.310931  1
  As  As18  1  0.800522  0.593607  0.279943  1
  As  As19  1  0.198870  0.795939  0.789377  1
  As  As20  1  0.593268  0.800276  0.779724  1
  As  As21  1  0.195420  0.402382  0.809724  1
