# generated using pymatgen
data_ErSc3(CrB4)4
_symmetry_space_group_name_H-M   'P 1'
_cell_length_a   5.84406576
_cell_length_b   11.27122705
_cell_length_c   3.34055600
_cell_angle_alpha   90.00047567
_cell_angle_beta   90.00066196
_cell_angle_gamma   89.83935089
_symmetry_Int_Tables_number   1
_chemical_formula_structural   ErSc3(CrB4)4
_chemical_formula_sum   'Er1 Sc3 Cr4 B16'
_cell_volume   220.04086406
_cell_formula_units_Z   1
loop_
 _symmetry_equiv_pos_site_id
 _symmetry_equiv_pos_as_xyz
  1  'x, y, z'
loop_
 _atom_site_type_symbol
 _atom_site_label
 _atom_site_symmetry_multiplicity
 _atom_site_fract_x
 _atom_site_fract_y
 _atom_site_fract_z
 _atom_site_occupancy
  Er  Er0  1  0.373162  0.650838  0.999939  1
  Sc  Sc1  1  0.126152  0.150162  0.000022  1
  Sc  Sc2  1  0.873810  0.851102  0.000035  1
  Sc  Sc3  1  0.625955  0.349139  0.999926  1
  Cr  Cr4  1  0.125588  0.415660  0.999839  1
  Cr  Cr5  1  0.872387  0.580524  0.999924  1
  Cr  Cr6  1  0.627725  0.082977  0.000134  1
  Cr  Cr7  1  0.373327  0.920143  0.000130  1
  B  B8  1  0.478691  0.194803  0.500064  1
  B  B9  1  0.525246  0.808425  0.500110  1
  B  B10  1  0.978042  0.304259  0.499895  1
  B  B11  1  0.021095  0.694170  0.499899  1
  B  B12  1  0.286950  0.313130  0.499856  1
  B  B13  1  0.716223  0.686098  0.499823  1
  B  B14  1  0.787388  0.185847  0.500131  1
  B  B15  1  0.212184  0.816706  0.500192  1
  B  B16  1  0.365030  0.465557  0.499891  1
  B  B17  1  0.634290  0.530175  0.499858  1
  B  B18  1  0.866908  0.032937  0.500105  1
  B  B19  1  0.133571  0.969421  0.500136  1
  B  B20  1  0.384730  0.049692  0.500317  1
  B  B21  1  0.616870  0.952760  0.500312  1
  B  B22  1  0.883122  0.449490  0.499734  1
  B  B23  1  0.111558  0.545985  0.499726  1
