# generated using pymatgen
data_Ce5Pr5Si8N3
_symmetry_space_group_name_H-M   'P 1'
_cell_length_a   10.79174800
_cell_length_b   10.77316728
_cell_length_c   4.51184200
_cell_angle_alpha   90.00000000
_cell_angle_beta   90.00000000
_cell_angle_gamma   120.05707592
_symmetry_Int_Tables_number   1
_chemical_formula_structural   Ce5Pr5Si8N3
_chemical_formula_sum   'Ce5 Pr5 Si8 N3'
_cell_volume   454.01442122
_cell_formula_units_Z   1
loop_
 _symmetry_equiv_pos_site_id
 _symmetry_equiv_pos_as_xyz
  1  'x, y, z'
loop_
 _atom_site_type_symbol
 _atom_site_label
 _atom_site_symmetry_multiplicity
 _atom_site_fract_x
 _atom_site_fract_y
 _atom_site_fract_z
 _atom_site_occupancy
  Ce  Ce0  1  0.500984  0.000000  0.500000  1
  Ce  Ce1  1  0.576424  0.788098  0.000000  1
  Ce  Ce2  1  0.001193  0.500642  0.500000  1
  Ce  Ce3  1  0.788327  0.211902  0.000000  1
  Ce  Ce4  1  0.500551  0.499358  0.500000  1
  Pr  Pr5  1  0.211853  0.790655  0.000000  1
  Pr  Pr6  1  0.211027  0.421407  0.000000  1
  Pr  Pr7  1  0.789622  0.578593  0.000000  1
  Pr  Pr8  1  0.421199  0.209345  0.000000  1
  Pr  Pr9  1  0.999422  0.000000  0.000000  1
  Si  Si10  1  0.670041  0.331651  0.500000  1
  Si  Si11  1  0.999487  0.779925  0.500000  1
  Si  Si12  1  0.338390  0.668349  0.500000  1
  Si  Si13  1  0.219561  0.220075  0.500000  1
  Si  Si14  1  0.778007  0.780245  0.500000  1
  Si  Si15  1  0.777344  0.000000  0.500000  1
  Si  Si16  1  0.220495  0.000000  0.500000  1
  Si  Si17  1  0.997762  0.219755  0.500000  1
  N  N18  1  0.500498  0.506032  0.000000  1
  N  N19  1  0.503347  0.000000  0.000000  1
  N  N20  1  0.994465  0.493968  0.000000  1
