# generated using pymatgen
data_Hf2Ti3TcRu
_symmetry_space_group_name_H-M   'P 1'
_cell_length_a   7.14173100
_cell_length_b   7.14173048
_cell_length_c   7.14173082
_cell_angle_alpha   37.43706175
_cell_angle_beta   37.43707011
_cell_angle_gamma   37.43705964
_symmetry_Int_Tables_number   1
_chemical_formula_structural   Hf2Ti3TcRu
_chemical_formula_sum   'Hf2 Ti3 Tc1 Ru1'
_cell_volume   120.70297015
_cell_formula_units_Z   1
loop_
 _symmetry_equiv_pos_site_id
 _symmetry_equiv_pos_as_xyz
  1  'x, y, z'
loop_
 _atom_site_type_symbol
 _atom_site_label
 _atom_site_symmetry_multiplicity
 _atom_site_fract_x
 _atom_site_fract_y
 _atom_site_fract_z
 _atom_site_occupancy
  Hf  Hf0  1  0.193932  0.193932  0.193932  1
  Hf  Hf1  1  0.766382  0.766382  0.766382  1
  Ti  Ti2  1  0.342910  0.342910  0.342910  1
  Ti  Ti3  1  0.612330  0.612330  0.612330  1
  Ti  Ti4  1  0.926638  0.926638  0.926638  1
  Tc  Tc5  1  0.481850  0.481850  0.481850  1
  Ru  Ru6  1  0.050954  0.050954  0.050954  1
