# generated using pymatgen
data_Tb2Yb6Si12Ni3Pd
_symmetry_space_group_name_H-M   'P 1'
_cell_length_a   8.07938900
_cell_length_b   8.07938828
_cell_length_c   8.12879900
_cell_angle_alpha   90.00000000
_cell_angle_beta   90.00000000
_cell_angle_gamma   120.00000705
_symmetry_Int_Tables_number   1
_chemical_formula_structural   Tb2Yb6Si12Ni3Pd
_chemical_formula_sum   'Tb2 Yb6 Si12 Ni3 Pd1'
_cell_volume   459.53012197
_cell_formula_units_Z   1
loop_
 _symmetry_equiv_pos_site_id
 _symmetry_equiv_pos_as_xyz
  1  'x, y, z'
loop_
 _atom_site_type_symbol
 _atom_site_label
 _atom_site_symmetry_multiplicity
 _atom_site_fract_x
 _atom_site_fract_y
 _atom_site_fract_z
 _atom_site_occupancy
  Tb  Tb0  1  0.000000  0.000000  0.248425  1
  Tb  Tb1  1  0.000000  0.000000  0.751530  1
  Yb  Yb2  1  0.501439  0.002879  0.249236  1
  Yb  Yb3  1  0.500947  0.001894  0.750734  1
  Yb  Yb4  1  0.997121  0.498561  0.249236  1
  Yb  Yb5  1  0.998106  0.499053  0.750734  1
  Yb  Yb6  1  0.501439  0.498561  0.249236  1
  Yb  Yb7  1  0.500947  0.499053  0.750734  1
  Si  Si8  1  0.169706  0.339412  0.000220  1
  Si  Si9  1  0.830770  0.661538  0.999772  1
  Si  Si10  1  0.660588  0.830294  0.000220  1
  Si  Si11  1  0.830158  0.660315  0.500175  1
  Si  Si12  1  0.338462  0.169230  0.999772  1
  Si  Si13  1  0.163772  0.327544  0.499826  1
  Si  Si14  1  0.169706  0.830294  0.000220  1
  Si  Si15  1  0.339685  0.169842  0.500175  1
  Si  Si16  1  0.830770  0.169230  0.999772  1
  Si  Si17  1  0.672456  0.836228  0.499826  1
  Si  Si18  1  0.830158  0.169842  0.500175  1
  Si  Si19  1  0.163772  0.836228  0.499826  1
  Ni  Ni20  1  0.333333  0.666667  0.000615  1
  Ni  Ni21  1  0.666667  0.333333  0.998875  1
  Ni  Ni22  1  0.666667  0.333333  0.501170  1
  Pd  Pd23  1  0.333333  0.666667  0.499492  1
