# generated using pymatgen
data_AlCuSb2(SeO3)8
_symmetry_space_group_name_H-M   'P 1'
_cell_length_a   8.18321508
_cell_length_b   8.11835571
_cell_length_c   8.15200000
_cell_angle_alpha   89.36581592
_cell_angle_beta   90.05721727
_cell_angle_gamma   89.94092637
_symmetry_Int_Tables_number   1
_chemical_formula_structural   AlCuSb2(SeO3)8
_chemical_formula_sum   'Al1 Cu1 Sb2 Se8 O24'
_cell_volume   541.53827424
_cell_formula_units_Z   1
loop_
 _symmetry_equiv_pos_site_id
 _symmetry_equiv_pos_as_xyz
  1  'x, y, z'
loop_
 _atom_site_type_symbol
 _atom_site_label
 _atom_site_symmetry_multiplicity
 _atom_site_fract_x
 _atom_site_fract_y
 _atom_site_fract_z
 _atom_site_occupancy
  Al  Al0  1  0.500000  0.500000  0.500000  1
  Cu  Cu1  1  0.000000  0.500000  0.000000  1
  Sb  Sb2  1  0.000000  0.000000  0.500000  1
  Sb  Sb3  1  0.500000  0.000000  0.000000  1
  Se  Se4  1  0.323237  0.658887  0.177905  1
  Se  Se5  1  0.823034  0.342783  0.320940  1
  Se  Se6  1  0.668308  0.814865  0.666027  1
  Se  Se7  1  0.163752  0.183256  0.837610  1
  Se  Se8  1  0.676763  0.341113  0.822095  1
  Se  Se9  1  0.176966  0.657217  0.679060  1
  Se  Se10  1  0.331692  0.185135  0.333973  1
  Se  Se11  1  0.836248  0.816744  0.162390  1
  O  O12  1  0.243440  0.527353  0.035910  1
  O  O13  1  0.727960  0.462216  0.462143  1
  O  O14  1  0.758133  0.966598  0.535367  1
  O  O15  1  0.257723  0.029075  0.963309  1
  O  O16  1  0.528996  0.953745  0.757578  1
  O  O17  1  0.461826  0.531301  0.271045  1
  O  O18  1  0.959800  0.483565  0.243003  1
  O  O19  1  0.029172  0.042021  0.742638  1
  O  O20  1  0.964409  0.241215  0.461474  1
  O  O21  1  0.541114  0.732927  0.526476  1
  O  O22  1  0.470381  0.759554  0.043735  1
  O  O23  1  0.032270  0.255381  0.980817  1
  O  O24  1  0.756560  0.472647  0.964090  1
  O  O25  1  0.272040  0.537784  0.537857  1
  O  O26  1  0.241867  0.033402  0.464633  1
  O  O27  1  0.742277  0.970925  0.036691  1
  O  O28  1  0.471004  0.046255  0.242422  1
  O  O29  1  0.538174  0.468699  0.728955  1
  O  O30  1  0.040200  0.516435  0.756997  1
  O  O31  1  0.970828  0.957979  0.257362  1
  O  O32  1  0.035591  0.758785  0.538526  1
  O  O33  1  0.458886  0.267073  0.473524  1
  O  O34  1  0.529619  0.240446  0.956265  1
  O  O35  1  0.967730  0.744619  0.019183  1
