# generated using pymatgen
data_La5Sm3(P7Ir8)2
_symmetry_space_group_name_H-M   'P 1'
_cell_length_a   3.96673700
_cell_length_b   12.78108153
_cell_length_c   13.21054200
_cell_angle_alpha   80.92678568
_cell_angle_beta   90.00000000
_cell_angle_gamma   90.00000000
_symmetry_Int_Tables_number   1
_chemical_formula_structural   La5Sm3(P7Ir8)2
_chemical_formula_sum   'La5 Sm3 P14 Ir16'
_cell_volume   661.38343844
_cell_formula_units_Z   1
loop_
 _symmetry_equiv_pos_site_id
 _symmetry_equiv_pos_as_xyz
  1  'x, y, z'
loop_
 _atom_site_type_symbol
 _atom_site_label
 _atom_site_symmetry_multiplicity
 _atom_site_fract_x
 _atom_site_fract_y
 _atom_site_fract_z
 _atom_site_occupancy
  La  La0  1  0.250000  0.517469  0.293120  1
  La  La1  1  0.750000  0.719371  0.895802  1
  La  La2  1  0.250000  0.104663  0.788061  1
  La  La3  1  0.750000  0.895760  0.211683  1
  La  La4  1  0.250000  0.280611  0.103457  1
  Sm  Sm5  1  0.750000  0.791027  0.560660  1
  Sm  Sm6  1  0.250000  0.208631  0.440208  1
  Sm  Sm7  1  0.750000  0.480784  0.706069  1
  P  P8  1  0.250000  0.908463  0.411678  1
  P  P9  1  0.750000  0.473533  0.126095  1
  P  P10  1  0.250000  0.526815  0.870439  1
  P  P11  1  0.750000  0.091853  0.589276  1
  P  P12  1  0.250000  0.742776  0.081876  1
  P  P13  1  0.750000  0.257471  0.917708  1
  P  P14  1  0.750000  0.156347  0.282398  1
  P  P15  1  0.250000  0.842773  0.717442  1
  P  P16  1  0.250000  0.053498  0.098591  1
  P  P17  1  0.750000  0.946703  0.901142  1
  P  P18  1  0.250000  0.315445  0.687818  1
  P  P19  1  0.750000  0.686180  0.313822  1
  P  P20  1  0.250000  0.607478  0.564540  1
  P  P21  1  0.750000  0.390863  0.438266  1
  Ir  Ir22  1  0.250000  0.988734  0.576189  1
  Ir  Ir23  1  0.750000  0.011803  0.424228  1
  Ir  Ir24  1  0.250000  0.661529  0.728324  1
  Ir  Ir25  1  0.750000  0.337191  0.270807  1
  Ir  Ir26  1  0.250000  0.552159  0.046649  1
  Ir  Ir27  1  0.750000  0.448431  0.950450  1
  Ir  Ir28  1  0.250000  0.062671  0.273248  1
  Ir  Ir29  1  0.750000  0.936916  0.726757  1
  Ir  Ir30  1  0.250000  0.422962  0.527255  1
  Ir  Ir31  1  0.750000  0.577085  0.475835  1
  Ir  Ir32  1  0.250000  0.916301  0.997593  1
  Ir  Ir33  1  0.750000  0.084037  0.002085  1
  Ir  Ir34  1  0.250000  0.729226  0.397575  1
  Ir  Ir35  1  0.750000  0.271185  0.604065  1
  Ir  Ir36  1  0.250000  0.342047  0.857411  1
  Ir  Ir37  1  0.750000  0.659207  0.141376  1
