# generated using pymatgen
data_Dy5Y6HoRu4
_symmetry_space_group_name_H-M   'P 1'
_cell_length_a   6.34443747
_cell_length_b   7.30211624
_cell_length_c   9.23118210
_cell_angle_alpha   89.98681410
_cell_angle_beta   89.97800792
_cell_angle_gamma   89.99173366
_symmetry_Int_Tables_number   1
_chemical_formula_structural   Dy5Y6HoRu4
_chemical_formula_sum   'Dy5 Y6 Ho1 Ru4'
_cell_volume   427.66049458
_cell_formula_units_Z   1
loop_
 _symmetry_equiv_pos_site_id
 _symmetry_equiv_pos_as_xyz
  1  'x, y, z'
loop_
 _atom_site_type_symbol
 _atom_site_label
 _atom_site_symmetry_multiplicity
 _atom_site_fract_x
 _atom_site_fract_y
 _atom_site_fract_z
 _atom_site_occupancy
  Dy  Dy0  1  0.171773  0.176366  0.065511  1
  Dy  Dy1  1  0.863742  0.542309  0.249684  1
  Dy  Dy2  1  0.635961  0.041846  0.249781  1
  Dy  Dy3  1  0.136146  0.457700  0.750689  1
  Dy  Dy4  1  0.364014  0.957451  0.750633  1
  Y  Y5  1  0.171475  0.176403  0.435141  1
  Y  Y6  1  0.671348  0.323574  0.565193  1
  Y  Y7  1  0.829134  0.823225  0.935261  1
  Y  Y8  1  0.670673  0.323344  0.935233  1
  Y  Y9  1  0.828612  0.823621  0.565228  1
  Y  Y10  1  0.328588  0.676447  0.434687  1
  Ho  Ho11  1  0.328616  0.676219  0.065586  1
  Ru  Ru12  1  0.036610  0.885439  0.247976  1
  Ru  Ru13  1  0.463434  0.385742  0.248202  1
  Ru  Ru14  1  0.965457  0.115123  0.750634  1
  Ru  Ru15  1  0.534417  0.615190  0.750563  1
