# generated using pymatgen
data_Yb8Si3Sn
_symmetry_space_group_name_H-M   'P 1'
_cell_length_a   7.45431078
_cell_length_b   4.90623900
_cell_length_c   9.11330204
_cell_angle_alpha   90.00000000
_cell_angle_beta   89.48104966
_cell_angle_gamma   90.00000000
_symmetry_Int_Tables_number   1
_chemical_formula_structural   Yb8Si3Sn
_chemical_formula_sum   'Yb8 Si3 Sn1'
_cell_volume   333.28375480
_cell_formula_units_Z   1
loop_
 _symmetry_equiv_pos_site_id
 _symmetry_equiv_pos_as_xyz
  1  'x, y, z'
loop_
 _atom_site_type_symbol
 _atom_site_label
 _atom_site_symmetry_multiplicity
 _atom_site_fract_x
 _atom_site_fract_y
 _atom_site_fract_z
 _atom_site_occupancy
  Yb  Yb0  1  0.826194  0.250000  0.074157  1
  Yb  Yb1  1  0.523806  0.749999  0.188177  1
  Yb  Yb2  1  0.021469  0.749999  0.319259  1
  Yb  Yb3  1  0.346461  0.250000  0.434365  1
  Yb  Yb4  1  0.660880  0.749999  0.575290  1
  Yb  Yb5  1  0.980118  0.250000  0.681156  1
  Yb  Yb6  1  0.486486  0.250000  0.810156  1
  Yb  Yb7  1  0.152920  0.749999  0.915705  1
  Si  Si8  1  0.751754  0.250000  0.399404  1
  Si  Si9  1  0.251404  0.749999  0.601800  1
  Si  Si10  1  0.746767  0.749999  0.894180  1
  Sn  Sn11  1  0.251739  0.250000  0.106351  1
