# generated using pymatgen
data_TmLu15(CdNi)4
_symmetry_space_group_name_H-M   'P 1'
_cell_length_a   9.35046526
_cell_length_b   9.35046559
_cell_length_c   9.35046576
_cell_angle_alpha   60.08041838
_cell_angle_beta   60.08042022
_cell_angle_gamma   60.08042251
_symmetry_Int_Tables_number   1
_chemical_formula_structural   TmLu15(CdNi)4
_chemical_formula_sum   'Tm1 Lu15 Cd4 Ni4'
_cell_volume   579.12917394
_cell_formula_units_Z   1
loop_
 _symmetry_equiv_pos_site_id
 _symmetry_equiv_pos_as_xyz
  1  'x, y, z'
loop_
 _atom_site_type_symbol
 _atom_site_label
 _atom_site_symmetry_multiplicity
 _atom_site_fract_x
 _atom_site_fract_y
 _atom_site_fract_z
 _atom_site_occupancy
  Tm  Tm0  1  0.347653  0.347653  0.347653  1
  Lu  Lu1  1  0.347977  0.347977  0.955399  1
  Lu  Lu2  1  0.347977  0.955399  0.347977  1
  Lu  Lu3  1  0.955399  0.347977  0.347977  1
  Lu  Lu4  1  0.811923  0.188176  0.188176  1
  Lu  Lu5  1  0.188830  0.811577  0.811577  1
  Lu  Lu6  1  0.188176  0.811923  0.188176  1
  Lu  Lu7  1  0.811577  0.188830  0.811577  1
  Lu  Lu8  1  0.188176  0.188176  0.811923  1
  Lu  Lu9  1  0.811577  0.811577  0.188830  1
  Lu  Lu10  1  0.936634  0.563679  0.563679  1
  Lu  Lu11  1  0.563482  0.936327  0.936327  1
  Lu  Lu12  1  0.563679  0.936634  0.563679  1
  Lu  Lu13  1  0.936327  0.563482  0.936327  1
  Lu  Lu14  1  0.563679  0.563679  0.936634  1
  Lu  Lu15  1  0.936327  0.936327  0.563482  1
  Cd  Cd16  1  0.581866  0.581866  0.581866  1
  Cd  Cd17  1  0.582224  0.582224  0.253982  1
  Cd  Cd18  1  0.582224  0.253982  0.582224  1
  Cd  Cd19  1  0.253982  0.582224  0.582224  1
  Ni  Ni20  1  0.142375  0.142375  0.142375  1
  Ni  Ni21  1  0.142267  0.142267  0.573400  1
  Ni  Ni22  1  0.142267  0.573400  0.142267  1
  Ni  Ni23  1  0.573400  0.142267  0.142267  1
