# generated using pymatgen
data_La20GaCo4Bi2Sb5
_symmetry_space_group_name_H-M   'P 1'
_cell_length_a   8.45430057
_cell_length_b   9.14796611
_cell_length_c   12.86802988
_cell_angle_alpha   90.08511674
_cell_angle_beta   90.26927160
_cell_angle_gamma   90.18682966
_symmetry_Int_Tables_number   1
_chemical_formula_structural   La20GaCo4Bi2Sb5
_chemical_formula_sum   'La20 Ga1 Co4 Bi2 Sb5'
_cell_volume   995.19158976
_cell_formula_units_Z   1
loop_
 _symmetry_equiv_pos_site_id
 _symmetry_equiv_pos_as_xyz
  1  'x, y, z'
loop_
 _atom_site_type_symbol
 _atom_site_label
 _atom_site_symmetry_multiplicity
 _atom_site_fract_x
 _atom_site_fract_y
 _atom_site_fract_z
 _atom_site_occupancy
  La  La0  1  0.842069  0.743218  0.799150  1
  La  La1  1  0.150439  0.251696  0.194520  1
  La  La2  1  0.353610  0.256508  0.704047  1
  La  La3  1  0.647815  0.747854  0.298555  1
  La  La4  1  0.383436  0.743095  0.696731  1
  La  La5  1  0.620967  0.252219  0.307863  1
  La  La6  1  0.866330  0.257424  0.808664  1
  La  La7  1  0.127308  0.748467  0.192377  1
  La  La8  1  0.947391  0.746225  0.503743  1
  La  La9  1  0.056108  0.254626  0.495463  1
  La  La10  1  0.457058  0.258525  0.989896  1
  La  La11  1  0.550952  0.741273  0.001319  1
  La  La12  1  0.680310  0.030756  0.566065  1
  La  La13  1  0.320117  0.967956  0.435394  1
  La  La14  1  0.184184  0.972435  0.938034  1
  La  La15  1  0.317539  0.532737  0.434704  1
  La  La16  1  0.814408  0.024359  0.060665  1
  La  La17  1  0.678771  0.467595  0.572188  1
  La  La18  1  0.820682  0.470099  0.063322  1
  La  La19  1  0.182815  0.533060  0.934678  1
  Ga  Ga20  1  0.569103  0.497135  0.828321  1
  Co  Co21  1  0.578075  0.749112  0.509645  1
  Co  Co22  1  0.425954  0.249485  0.492918  1
  Co  Co23  1  0.068881  0.248210  0.989242  1
  Co  Co24  1  0.928180  0.749577  0.009865  1
  Bi  Bi25  1  0.925893  0.007176  0.324559  1
  Bi  Bi26  1  0.073687  0.994555  0.676384  1
  Sb  Sb27  1  0.426162  0.504223  0.174213  1
  Sb  Sb28  1  0.073161  0.505901  0.674510  1
  Sb  Sb29  1  0.427113  0.995637  0.170851  1
  Sb  Sb30  1  0.927531  0.493925  0.325021  1
  Sb  Sb31  1  0.573956  0.004941  0.827093  1
