# generated using pymatgen
data_Pr6DyCoBr12
_symmetry_space_group_name_H-M   'P 1'
_cell_length_a   9.58312385
_cell_length_b   9.58312208
_cell_length_c   9.58312376
_cell_angle_alpha   107.02752709
_cell_angle_beta   107.02752357
_cell_angle_gamma   107.02751525
_symmetry_Int_Tables_number   1
_chemical_formula_structural   Pr6DyCoBr12
_chemical_formula_sum   'Pr6 Dy1 Co1 Br12'
_cell_volume   732.38651003
_cell_formula_units_Z   1
loop_
 _symmetry_equiv_pos_site_id
 _symmetry_equiv_pos_as_xyz
  1  'x, y, z'
loop_
 _atom_site_type_symbol
 _atom_site_label
 _atom_site_symmetry_multiplicity
 _atom_site_fract_x
 _atom_site_fract_y
 _atom_site_fract_z
 _atom_site_occupancy
  Pr  Pr0  1  0.976054  0.899208  0.690912  1
  Pr  Pr1  1  0.023946  0.100792  0.309088  1
  Pr  Pr2  1  0.100792  0.309088  0.023946  1
  Pr  Pr3  1  0.309088  0.023946  0.100792  1
  Pr  Pr4  1  0.899208  0.690912  0.976054  1
  Pr  Pr5  1  0.690912  0.976054  0.899208  1
  Dy  Dy6  1  0.500000  0.500000  0.500000  1
  Co  Co7  1  0.000000  0.000000  0.000000  1
  Br  Br8  1  0.534109  0.609323  0.820993  1
  Br  Br9  1  0.465891  0.390677  0.179007  1
  Br  Br10  1  0.316554  0.928271  0.776007  1
  Br  Br11  1  0.390677  0.179007  0.465891  1
  Br  Br12  1  0.928271  0.776007  0.316554  1
  Br  Br13  1  0.683446  0.071729  0.223993  1
  Br  Br14  1  0.071729  0.223993  0.683446  1
  Br  Br15  1  0.776007  0.316554  0.928271  1
  Br  Br16  1  0.223993  0.683446  0.071729  1
  Br  Br17  1  0.820993  0.534109  0.609323  1
  Br  Br18  1  0.179007  0.465891  0.390677  1
  Br  Br19  1  0.609323  0.820993  0.534109  1
