# generated using pymatgen
data_Ta6Be2BP
_symmetry_space_group_name_H-M   'P 1'
_cell_length_a   6.44556531
_cell_length_b   6.44154090
_cell_length_c   3.37277800
_cell_angle_alpha   90.00000000
_cell_angle_beta   90.00000000
_cell_angle_gamma   90.25287269
_symmetry_Int_Tables_number   1
_chemical_formula_structural   Ta6Be2BP
_chemical_formula_sum   'Ta6 Be2 B1 P1'
_cell_volume   140.03426264
_cell_formula_units_Z   1
loop_
 _symmetry_equiv_pos_site_id
 _symmetry_equiv_pos_as_xyz
  1  'x, y, z'
loop_
 _atom_site_type_symbol
 _atom_site_label
 _atom_site_symmetry_multiplicity
 _atom_site_fract_x
 _atom_site_fract_y
 _atom_site_fract_z
 _atom_site_occupancy
  Ta  Ta0  1  0.496387  0.498356  0.000000  1
  Ta  Ta1  1  0.003443  0.998398  0.000000  1
  Ta  Ta2  1  0.679609  0.182909  0.500000  1
  Ta  Ta3  1  0.311831  0.813420  0.500000  1
  Ta  Ta4  1  0.175334  0.330769  0.500000  1
  Ta  Ta5  1  0.836116  0.672265  0.500000  1
  Be  Be6  1  0.890722  0.389235  0.000000  1
  Be  Be7  1  0.378261  0.119768  0.000000  1
  B  B8  1  0.112816  0.611043  0.000000  1
  P  P9  1  0.615481  0.883838  0.000000  1
