# generated using pymatgen
data_LaNd3Mg2As5
_symmetry_space_group_name_H-M   'P 1'
_cell_length_a   4.34281200
_cell_length_b   4.34281019
_cell_length_c   17.66591400
_cell_angle_alpha   90.00000000
_cell_angle_beta   90.00000000
_cell_angle_gamma   119.99999857
_symmetry_Int_Tables_number   1
_chemical_formula_structural   LaNd3Mg2As5
_chemical_formula_sum   'La1 Nd3 Mg2 As5'
_cell_volume   288.54172707
_cell_formula_units_Z   1
loop_
 _symmetry_equiv_pos_site_id
 _symmetry_equiv_pos_as_xyz
  1  'x, y, z'
loop_
 _atom_site_type_symbol
 _atom_site_label
 _atom_site_symmetry_multiplicity
 _atom_site_fract_x
 _atom_site_fract_y
 _atom_site_fract_z
 _atom_site_occupancy
  La  La0  1  0.000000  0.000000  0.289087  1
  Nd  Nd1  1  0.666667  0.333333  0.902527  1
  Nd  Nd2  1  0.333333  0.666667  0.094519  1
  Nd  Nd3  1  0.000000  0.000000  0.711889  1
  Mg  Mg4  1  0.666667  0.333333  0.446644  1
  Mg  Mg5  1  0.333333  0.666667  0.556243  1
  As  As6  1  0.666667  0.333333  0.602584  1
  As  As7  1  0.333333  0.666667  0.400577  1
  As  As8  1  0.666667  0.333333  0.194595  1
  As  As9  1  0.333333  0.666667  0.802596  1
  As  As10  1  0.000000  0.000000  0.998739  1
