# generated using pymatgen
data_SrAl3Au
_symmetry_space_group_name_H-M   'P 1'
_cell_length_a   4.38462778
_cell_length_b   4.38462811
_cell_length_c   6.45047718
_cell_angle_alpha   70.13114688
_cell_angle_beta   70.13113959
_cell_angle_gamma   89.99999118
_symmetry_Int_Tables_number   1
_chemical_formula_structural   SrAl3Au
_chemical_formula_sum   'Sr1 Al3 Au1'
_cell_volume   108.74632016
_cell_formula_units_Z   1
loop_
 _symmetry_equiv_pos_site_id
 _symmetry_equiv_pos_as_xyz
  1  'x, y, z'
loop_
 _atom_site_type_symbol
 _atom_site_label
 _atom_site_symmetry_multiplicity
 _atom_site_fract_x
 _atom_site_fract_y
 _atom_site_fract_z
 _atom_site_occupancy
  Sr  Sr0  1  0.995726  0.995726  0.008548  1
  Al  Al1  1  0.747942  0.247942  0.504115  1
  Al  Al2  1  0.247942  0.747942  0.504115  1
  Al  Al3  1  0.389826  0.389826  0.220348  1
  Au  Au4  1  0.618562  0.618562  0.762874  1
