# generated using pymatgen
data_RuSe23
_symmetry_space_group_name_H-M   'P 1'
_cell_length_a   5.96811026
_cell_length_b   9.84349145
_cell_length_c   15.83245300
_cell_angle_alpha   89.63402248
_cell_angle_beta   90.46347019
_cell_angle_gamma   87.71809577
_symmetry_Int_Tables_number   1
_chemical_formula_structural   RuSe23
_chemical_formula_sum   'Ru1 Se23'
_cell_volume   929.32086823
_cell_formula_units_Z   1
loop_
 _symmetry_equiv_pos_site_id
 _symmetry_equiv_pos_as_xyz
  1  'x, y, z'
loop_
 _atom_site_type_symbol
 _atom_site_label
 _atom_site_symmetry_multiplicity
 _atom_site_fract_x
 _atom_site_fract_y
 _atom_site_fract_z
 _atom_site_occupancy
  Ru  Ru0  1  0.511178  0.271829  0.416961  1
  Se  Se1  1  0.686863  0.824740  0.391758  1
  Se  Se2  1  0.003206  0.318413  0.122332  1
  Se  Se3  1  0.887925  0.184702  0.450058  1
  Se  Se4  1  0.367220  0.823729  0.478364  1
  Se  Se5  1  0.199505  0.260242  0.998059  1
  Se  Se6  1  0.766921  0.731791  0.995127  1
  Se  Se7  1  0.135676  0.292411  0.359301  1
  Se  Se8  1  0.864869  0.601864  0.392553  1
  Se  Se9  1  0.802552  0.126464  0.163417  1
  Se  Se10  1  0.224153  0.831242  0.143426  1
  Se  Se11  1  0.602635  0.623572  0.661493  1
  Se  Se12  1  0.129642  0.385517  0.606100  1
  Se  Se13  1  0.220507  0.859438  0.856884  1
  Se  Se14  1  0.774881  0.135134  0.838778  1
  Se  Se15  1  0.967261  0.659640  0.117650  1
  Se  Se16  1  0.481667  0.846149  0.620879  1
  Se  Se17  1  0.462404  0.264719  0.561789  1
  Se  Se18  1  0.995727  0.670053  0.879153  1
  Se  Se19  1  0.975485  0.326774  0.880261  1
  Se  Se20  1  0.549567  0.478526  0.348191  1
  Se  Se21  1  0.056461  0.983001  0.241392  1
  Se  Se22  1  0.308896  0.500386  0.718872  1
  Se  Se23  1  0.024801  0.999665  0.757202  1
