# generated using pymatgen
data_La2PrErCoI5
_symmetry_space_group_name_H-M   'P 1'
_cell_length_a   9.82660046
_cell_length_b   9.82660008
_cell_length_c   9.26838063
_cell_angle_alpha   76.52055572
_cell_angle_beta   76.52055591
_cell_angle_gamma   25.30742557
_symmetry_Int_Tables_number   1
_chemical_formula_structural   La2PrErCoI5
_chemical_formula_sum   'La2 Pr1 Er1 Co1 I5'
_cell_volume   371.50126677
_cell_formula_units_Z   1
loop_
 _symmetry_equiv_pos_site_id
 _symmetry_equiv_pos_as_xyz
  1  'x, y, z'
loop_
 _atom_site_type_symbol
 _atom_site_label
 _atom_site_symmetry_multiplicity
 _atom_site_fract_x
 _atom_site_fract_y
 _atom_site_fract_z
 _atom_site_occupancy
  La  La0  1  0.866887  0.866887  0.073454  1
  La  La1  1  0.132915  0.132915  0.936237  1
  Pr  Pr2  1  0.499407  0.499407  0.779850  1
  Er  Er3  1  0.500010  0.500010  0.204278  1
  Co  Co4  1  0.999942  0.999942  0.003121  1
  I  I5  1  0.668933  0.668933  0.182013  1
  I  I6  1  0.325801  0.325801  0.828156  1
  I  I7  1  0.668906  0.668906  0.656565  1
  I  I8  1  0.336784  0.336784  0.348947  1
  I  I9  1  0.000415  0.000415  0.487379  1
