# generated using pymatgen
data_Y(Ho2Zn)4
_symmetry_space_group_name_H-M   'P 1'
_cell_length_a   8.49109628
_cell_length_b   8.49109615
_cell_length_c   8.49860722
_cell_angle_alpha   94.93213671
_cell_angle_beta   94.98825160
_cell_angle_gamma   145.78362475
_symmetry_Int_Tables_number   1
_chemical_formula_structural   Y(Ho2Zn)4
_chemical_formula_sum   'Y1 Ho8 Zn4'
_cell_volume   329.33631754
_cell_formula_units_Z   1
loop_
 _symmetry_equiv_pos_site_id
 _symmetry_equiv_pos_as_xyz
  1  'x, y, z'
loop_
 _atom_site_type_symbol
 _atom_site_label
 _atom_site_symmetry_multiplicity
 _atom_site_fract_x
 _atom_site_fract_y
 _atom_site_fract_z
 _atom_site_occupancy
  Y  Y0  1  0.182147  0.888247  0.070395  1
  Ho  Ho1  1  0.499589  0.500224  0.999815  1
  Ho  Ho2  1  0.111756  0.182577  0.294332  1
  Ho  Ho3  1  0.883528  0.401743  0.285274  1
  Ho  Ho4  1  0.598212  0.883028  0.481242  1
  Ho  Ho5  1  0.401924  0.117491  0.519414  1
  Ho  Ho6  1  0.117073  0.597789  0.714862  1
  Ho  Ho7  1  0.887728  0.817839  0.705569  1
  Ho  Ho8  1  0.817800  0.111940  0.929740  1
  Zn  Zn9  1  0.393442  0.735242  0.128686  1
  Zn  Zn10  1  0.735549  0.607006  0.342559  1
  Zn  Zn11  1  0.264427  0.392844  0.657270  1
  Zn  Zn12  1  0.606818  0.264024  0.870842  1
