# generated using pymatgen
data_YHo3(GaRu)4
_symmetry_space_group_name_H-M   'P 1'
_cell_length_a   4.50182100
_cell_length_b   7.12083195
_cell_length_c   7.16971503
_cell_angle_alpha   89.90041519
_cell_angle_beta   90.00000000
_cell_angle_gamma   90.00000000
_symmetry_Int_Tables_number   1
_chemical_formula_structural   YHo3(GaRu)4
_chemical_formula_sum   'Y1 Ho3 Ga4 Ru4'
_cell_volume   229.83713416
_cell_formula_units_Z   1
loop_
 _symmetry_equiv_pos_site_id
 _symmetry_equiv_pos_as_xyz
  1  'x, y, z'
loop_
 _atom_site_type_symbol
 _atom_site_label
 _atom_site_symmetry_multiplicity
 _atom_site_fract_x
 _atom_site_fract_y
 _atom_site_fract_z
 _atom_site_occupancy
  Y  Y0  1  0.250000  0.305165  0.517230  1
  Ho  Ho1  1  0.250000  0.196914  0.018655  1
  Ho  Ho2  1  0.750000  0.698219  0.481054  1
  Ho  Ho3  1  0.750000  0.802593  0.981009  1
  Ga  Ga4  1  0.250000  0.893614  0.697941  1
  Ga  Ga5  1  0.250000  0.606365  0.198010  1
  Ga  Ga6  1  0.750000  0.105777  0.302093  1
  Ga  Ga7  1  0.750000  0.393475  0.802070  1
  Ru  Ru8  1  0.250000  0.936134  0.340515  1
  Ru  Ru9  1  0.250000  0.563265  0.842601  1
  Ru  Ru10  1  0.750000  0.061404  0.659959  1
  Ru  Ru11  1  0.750000  0.437076  0.158863  1
