# generated using pymatgen
data_La3Ce3Pr4(Al2Ru3)2
_symmetry_space_group_name_H-M   'P 1'
_cell_length_a   8.63305264
_cell_length_b   8.63305248
_cell_length_c   8.63305312
_cell_angle_alpha   110.17797400
_cell_angle_beta   110.17798094
_cell_angle_gamma   110.17797244
_symmetry_Int_Tables_number   1
_chemical_formula_structural   La3Ce3Pr4(Al2Ru3)2
_chemical_formula_sum   'La3 Ce3 Pr4 Al4 Ru6'
_cell_volume   481.90758204
_cell_formula_units_Z   1
loop_
 _symmetry_equiv_pos_site_id
 _symmetry_equiv_pos_as_xyz
  1  'x, y, z'
loop_
 _atom_site_type_symbol
 _atom_site_label
 _atom_site_symmetry_multiplicity
 _atom_site_fract_x
 _atom_site_fract_y
 _atom_site_fract_z
 _atom_site_occupancy
  La  La0  1  0.715526  0.501625  0.993792  1
  La  La1  1  0.993792  0.715526  0.501625  1
  La  La2  1  0.501625  0.993792  0.715526  1
  Ce  Ce3  1  0.248308  0.197533  0.946363  1
  Ce  Ce4  1  0.946363  0.248308  0.197533  1
  Ce  Ce5  1  0.197533  0.946363  0.248308  1
  Pr  Pr6  1  0.779015  0.779015  0.779015  1
  Pr  Pr7  1  0.309990  0.561351  0.754665  1
  Pr  Pr8  1  0.754665  0.309990  0.561351  1
  Pr  Pr9  1  0.561351  0.754665  0.309990  1
  Al  Al10  1  0.400196  0.400196  0.400196  1
  Al  Al11  1  0.094339  0.498250  0.009260  1
  Al  Al12  1  0.009260  0.094339  0.498250  1
  Al  Al13  1  0.498250  0.009260  0.094339  1
  Ru  Ru14  1  0.922082  0.127793  0.760176  1
  Ru  Ru15  1  0.760176  0.922082  0.127793  1
  Ru  Ru16  1  0.127793  0.760176  0.922082  1
  Ru  Ru17  1  0.222494  0.590516  0.366727  1
  Ru  Ru18  1  0.366727  0.222494  0.590516  1
  Ru  Ru19  1  0.590516  0.366727  0.222494  1
