# generated using pymatgen
data_TmTh3(Ga8Pt3)3
_symmetry_space_group_name_H-M   'P 1'
_cell_length_a   7.65800076
_cell_length_b   7.66610913
_cell_length_c   13.30616468
_cell_angle_alpha   84.46376206
_cell_angle_beta   78.95556312
_cell_angle_gamma   59.98685419
_symmetry_Int_Tables_number   1
_chemical_formula_structural   TmTh3(Ga8Pt3)3
_chemical_formula_sum   'Tm1 Th3 Ga24 Pt9'
_cell_volume   663.89167746
_cell_formula_units_Z   1
loop_
 _symmetry_equiv_pos_site_id
 _symmetry_equiv_pos_as_xyz
  1  'x, y, z'
loop_
 _atom_site_type_symbol
 _atom_site_label
 _atom_site_symmetry_multiplicity
 _atom_site_fract_x
 _atom_site_fract_y
 _atom_site_fract_z
 _atom_site_occupancy
  Tm  Tm0  1  0.265911  0.501055  0.194664  1
  Th  Th1  1  0.396364  0.167335  0.807679  1
  Th  Th2  1  0.602853  0.832601  0.192825  1
  Th  Th3  1  0.732936  0.499272  0.807716  1
  Ga  Ga4  1  0.688171  0.834024  0.941287  1
  Ga  Ga5  1  0.311974  0.172166  0.062644  1
  Ga  Ga6  1  0.145125  0.833854  0.559396  1
  Ga  Ga7  1  0.855135  0.165649  0.437989  1
  Ga  Ga8  1  0.480812  0.167726  0.555980  1
  Ga  Ga9  1  0.519234  0.833225  0.442874  1
  Ga  Ga10  1  0.216652  0.169431  0.328200  1
  Ga  Ga11  1  0.785290  0.834339  0.668165  1
  Ga  Ga12  1  0.435836  0.507869  0.668914  1
  Ga  Ga13  1  0.561195  0.492182  0.327950  1
  Ga  Ga14  1  0.110338  0.158221  0.667409  1
  Ga  Ga15  1  0.894684  0.837392  0.329130  1
  Ga  Ga16  1  0.351026  0.501612  0.944301  1
  Ga  Ga17  1  0.640093  0.499466  0.062141  1
  Ga  Ga18  1  0.017605  0.165969  0.947695  1
  Ga  Ga19  1  0.984893  0.828093  0.058503  1
  Ga  Ga20  1  0.186830  0.500357  0.441070  1
  Ga  Ga21  1  0.814554  0.499175  0.555914  1
  Ga  Ga22  1  0.733785  0.167599  0.182768  1
  Ga  Ga23  1  0.261838  0.836153  0.817769  1
  Ga  Ga24  1  0.063161  0.634540  0.816534  1
  Ga  Ga25  1  0.942309  0.364651  0.183464  1
  Ga  Ga26  1  0.863040  0.036466  0.816142  1
  Ga  Ga27  1  0.137711  0.958272  0.183674  1
  Pt  Pt28  1  0.120039  0.493158  0.639240  1
  Pt  Pt29  1  0.879533  0.507130  0.359551  1
  Pt  Pt30  1  0.660945  0.168757  0.998978  1
  Pt  Pt31  1  0.340365  0.832505  0.000984  1
  Pt  Pt32  1  0.540068  0.165819  0.360210  1
  Pt  Pt33  1  0.461046  0.833293  0.639382  1
  Pt  Pt34  1  0.780133  0.174072  0.637621  1
  Pt  Pt35  1  0.220871  0.826110  0.361221  1
  Pt  Pt36  1  0.997647  0.500462  0.000017  1
