# generated using pymatgen
data_SmHo2Er5(Si3Rh)4
_symmetry_space_group_name_H-M   'P 1'
_cell_length_a   8.15928702
_cell_length_b   8.15928808
_cell_length_c   7.89107000
_cell_angle_alpha   90.00000000
_cell_angle_beta   90.00000000
_cell_angle_gamma   120.00923494
_symmetry_Int_Tables_number   1
_chemical_formula_structural   SmHo2Er5(Si3Rh)4
_chemical_formula_sum   'Sm1 Ho2 Er5 Si12 Rh4'
_cell_volume   454.91534173
_cell_formula_units_Z   1
loop_
 _symmetry_equiv_pos_site_id
 _symmetry_equiv_pos_as_xyz
  1  'x, y, z'
loop_
 _atom_site_type_symbol
 _atom_site_label
 _atom_site_symmetry_multiplicity
 _atom_site_fract_x
 _atom_site_fract_y
 _atom_site_fract_z
 _atom_site_occupancy
  Sm  Sm0  1  0.000029  0.999971  0.250000  1
  Ho  Ho1  1  0.999951  0.000049  0.750000  1
  Ho  Ho2  1  0.491319  0.508681  0.250000  1
  Er  Er3  1  0.491337  0.982839  0.250000  1
  Er  Er4  1  0.017161  0.508663  0.250000  1
  Er  Er5  1  0.508760  0.491240  0.750000  1
  Er  Er6  1  0.982452  0.491193  0.750000  1
  Er  Er7  1  0.508807  0.017548  0.750000  1
  Si  Si8  1  0.832537  0.167463  0.502631  1
  Si  Si9  1  0.832491  0.664962  0.502779  1
  Si  Si10  1  0.335038  0.167509  0.502779  1
  Si  Si11  1  0.832537  0.167463  0.997369  1
  Si  Si12  1  0.832491  0.664962  0.997221  1
  Si  Si13  1  0.335038  0.167509  0.997221  1
  Si  Si14  1  0.167656  0.832344  0.999487  1
  Si  Si15  1  0.664662  0.832393  0.999140  1
  Si  Si16  1  0.167607  0.335338  0.999140  1
  Si  Si17  1  0.167656  0.832344  0.500513  1
  Si  Si18  1  0.664662  0.832393  0.500860  1
  Si  Si19  1  0.167607  0.335338  0.500860  1
  Rh  Rh20  1  0.666872  0.333128  0.466559  1
  Rh  Rh21  1  0.666872  0.333128  0.033441  1
  Rh  Rh22  1  0.333229  0.666771  0.964081  1
  Rh  Rh23  1  0.333229  0.666771  0.535919  1
