# generated using pymatgen
data_Tb4Y2C2Cl7
_symmetry_space_group_name_H-M   'P 1'
_cell_length_a   10.18812220
_cell_length_b   10.18812143
_cell_length_c   11.57386494
_cell_angle_alpha   56.65672244
_cell_angle_beta   56.65672423
_cell_angle_gamma   21.17457134
_symmetry_Int_Tables_number   1
_chemical_formula_structural   Tb4Y2C2Cl7
_chemical_formula_sum   'Tb4 Y2 C2 Cl7'
_cell_volume   359.75637695
_cell_formula_units_Z   1
loop_
 _symmetry_equiv_pos_site_id
 _symmetry_equiv_pos_as_xyz
  1  'x, y, z'
loop_
 _atom_site_type_symbol
 _atom_site_label
 _atom_site_symmetry_multiplicity
 _atom_site_fract_x
 _atom_site_fract_y
 _atom_site_fract_z
 _atom_site_occupancy
  Tb  Tb0  1  0.224912  0.224912  0.849985  1
  Tb  Tb1  1  0.318087  0.318087  0.359064  1
  Tb  Tb2  1  0.127646  0.127646  0.441114  1
  Tb  Tb3  1  0.871709  0.871709  0.559231  1
  Y  Y4  1  0.682554  0.682554  0.640225  1
  Y  Y5  1  0.774987  0.774987  0.151099  1
  C  C6  1  0.279026  0.279026  0.610726  1
  C  C7  1  0.720523  0.720523  0.389917  1
  Cl  Cl8  1  0.170253  0.170253  0.159730  1
  Cl  Cl9  1  0.830285  0.830285  0.840605  1
  Cl  Cl10  1  0.059062  0.059062  0.715450  1
  Cl  Cl11  1  0.941561  0.941561  0.284161  1
  Cl  Cl12  1  0.499979  0.499979  0.500010  1
  Cl  Cl13  1  0.389448  0.389448  0.066157  1
  Cl  Cl14  1  0.609969  0.609969  0.932525  1
