# generated using pymatgen
data_HoLu3InPt11
_symmetry_space_group_name_H-M   'P 1'
_cell_length_a   4.16191100
_cell_length_b   5.81144606
_cell_length_c   11.59397403
_cell_angle_alpha   87.99793040
_cell_angle_beta   90.00000000
_cell_angle_gamma   90.00000000
_symmetry_Int_Tables_number   1
_chemical_formula_structural   HoLu3InPt11
_chemical_formula_sum   'Ho1 Lu3 In1 Pt11'
_cell_volume   280.24904041
_cell_formula_units_Z   1
loop_
 _symmetry_equiv_pos_site_id
 _symmetry_equiv_pos_as_xyz
  1  'x, y, z'
loop_
 _atom_site_type_symbol
 _atom_site_label
 _atom_site_symmetry_multiplicity
 _atom_site_fract_x
 _atom_site_fract_y
 _atom_site_fract_z
 _atom_site_occupancy
  Ho  Ho0  1  0.500000  0.759042  0.375927  1
  Lu  Lu1  1  0.500000  0.714486  0.862350  1
  Lu  Lu2  1  0.500000  0.285368  0.137337  1
  Lu  Lu3  1  0.500000  0.241105  0.624330  1
  In  In4  1  0.000000  0.999914  0.000031  1
  Pt  Pt5  1  0.000000  0.021296  0.248721  1
  Pt  Pt6  1  0.000000  0.980367  0.750481  1
  Pt  Pt7  1  0.000000  0.500275  0.999795  1
  Pt  Pt8  1  0.000000  0.498149  0.501156  1
  Pt  Pt9  1  0.000000  0.519654  0.248882  1
  Pt  Pt10  1  0.000000  0.478849  0.750199  1
  Pt  Pt11  1  0.500000  0.258478  0.377235  1
  Pt  Pt12  1  0.500000  0.226239  0.879274  1
  Pt  Pt13  1  0.500000  0.773456  0.119436  1
  Pt  Pt14  1  0.500000  0.741587  0.623649  1
  Pt  Pt15  1  0.000000  0.001736  0.501197  1
