# generated using pymatgen
data_Y6TcBi2
_symmetry_space_group_name_H-M   'P 1'
_cell_length_a   8.31848300
_cell_length_b   8.31848310
_cell_length_c   4.30769400
_cell_angle_alpha   90.00000000
_cell_angle_beta   90.00000000
_cell_angle_gamma   119.99999564
_symmetry_Int_Tables_number   1
_chemical_formula_structural   Y6TcBi2
_chemical_formula_sum   'Y6 Tc1 Bi2'
_cell_volume   258.14502994
_cell_formula_units_Z   1
loop_
 _symmetry_equiv_pos_site_id
 _symmetry_equiv_pos_as_xyz
  1  'x, y, z'
loop_
 _atom_site_type_symbol
 _atom_site_label
 _atom_site_symmetry_multiplicity
 _atom_site_fract_x
 _atom_site_fract_y
 _atom_site_fract_z
 _atom_site_occupancy
  Y  Y0  1  0.232726  0.000000  0.500000  1
  Y  Y1  1  0.000000  0.232726  0.500000  1
  Y  Y2  1  0.767274  0.767274  0.500000  1
  Y  Y3  1  0.605662  0.000000  0.000000  1
  Y  Y4  1  0.000000  0.605662  0.000000  1
  Y  Y5  1  0.394338  0.394338  0.000000  1
  Tc  Tc6  1  0.000000  0.000000  0.000000  1
  Bi  Bi7  1  0.333333  0.666667  0.500000  1
  Bi  Bi8  1  0.666667  0.333333  0.500000  1
