# generated using pymatgen
data_Ta3Al2TcN
_symmetry_space_group_name_H-M   'P 1'
_cell_length_a   8.28854702
_cell_length_b   8.28854771
_cell_length_c   8.28854700
_cell_angle_alpha   59.99999885
_cell_angle_beta   59.99999610
_cell_angle_gamma   60.00000245
_symmetry_Int_Tables_number   1
_chemical_formula_structural   Ta3Al2TcN
_chemical_formula_sum   'Ta12 Al8 Tc4 N4'
_cell_volume   402.64308555
_cell_formula_units_Z   4
loop_
 _symmetry_equiv_pos_site_id
 _symmetry_equiv_pos_as_xyz
  1  'x, y, z'
loop_
 _atom_site_type_symbol
 _atom_site_label
 _atom_site_symmetry_multiplicity
 _atom_site_fract_x
 _atom_site_fract_y
 _atom_site_fract_z
 _atom_site_occupancy
  Ta  Ta0  1  0.556392  0.943608  0.556392  1
  Ta  Ta1  1  0.306392  0.693608  0.693608  1
  Ta  Ta2  1  0.693608  0.306392  0.306392  1
  Ta  Ta3  1  0.306392  0.693608  0.306392  1
  Ta  Ta4  1  0.693608  0.693608  0.306392  1
  Ta  Ta5  1  0.306392  0.306392  0.693608  1
  Ta  Ta6  1  0.556392  0.556392  0.943608  1
  Ta  Ta7  1  0.943608  0.556392  0.556392  1
  Ta  Ta8  1  0.556392  0.943608  0.943608  1
  Ta  Ta9  1  0.943608  0.943608  0.556392  1
  Ta  Ta10  1  0.693608  0.306392  0.693608  1
  Ta  Ta11  1  0.943608  0.556392  0.943608  1
  Al  Al12  1  0.915728  0.915728  0.915728  1
  Al  Al13  1  0.997183  0.334272  0.334272  1
  Al  Al14  1  0.334272  0.997183  0.334272  1
  Al  Al15  1  0.334272  0.334272  0.997183  1
  Al  Al16  1  0.915728  0.252817  0.915728  1
  Al  Al17  1  0.915728  0.915728  0.252817  1
  Al  Al18  1  0.252817  0.915728  0.915728  1
  Al  Al19  1  0.334272  0.334272  0.334272  1
  Tc  Tc20  1  0.125000  0.125000  0.125000  1
  Tc  Tc21  1  0.625000  0.125000  0.125000  1
  Tc  Tc22  1  0.125000  0.625000  0.125000  1
  Tc  Tc23  1  0.125000  0.125000  0.625000  1
  N  N24  1  0.625000  0.625000  0.625000  1
  N  N25  1  0.125000  0.625000  0.625000  1
  N  N26  1  0.625000  0.125000  0.625000  1
  N  N27  1  0.625000  0.625000  0.125000  1
