# generated using pymatgen
data_Ti8Al14GaPt6Rh
_symmetry_space_group_name_H-M   'P 1'
_cell_length_a   8.70005256
_cell_length_b   8.70005316
_cell_length_c   8.70005310
_cell_angle_alpha   120.16433845
_cell_angle_beta   119.79933776
_cell_angle_gamma   90.03175594
_symmetry_Int_Tables_number   1
_chemical_formula_structural   Ti8Al14GaPt6Rh
_chemical_formula_sum   'Ti8 Al14 Ga1 Pt6 Rh1'
_cell_volume   465.76226138
_cell_formula_units_Z   1
loop_
 _symmetry_equiv_pos_site_id
 _symmetry_equiv_pos_as_xyz
  1  'x, y, z'
loop_
 _atom_site_type_symbol
 _atom_site_label
 _atom_site_symmetry_multiplicity
 _atom_site_fract_x
 _atom_site_fract_y
 _atom_site_fract_z
 _atom_site_occupancy
  Ti  Ti0  1  0.787212  0.291524  0.079457  1
  Ti  Ti1  1  0.212066  0.291524  0.504312  1
  Ti  Ti2  1  0.211541  0.711541  0.500000  1
  Ti  Ti3  1  0.212066  0.707755  0.920543  1
  Ti  Ti4  1  0.787212  0.707755  0.495688  1
  Ti  Ti5  1  0.790356  0.290356  0.500000  1
  Ti  Ti6  1  0.380952  0.121437  0.740484  1
  Ti  Ti7  1  0.380952  0.640469  0.259516  1
  Al  Al8  1  0.156307  0.346234  0.189926  1
  Al  Al9  1  0.156307  0.966381  0.810074  1
  Al  Al10  1  0.158545  0.342820  0.815724  1
  Al  Al11  1  0.527095  0.342820  0.184276  1
  Al  Al12  1  0.844765  0.655849  0.811085  1
  Al  Al13  1  0.844765  0.033680  0.188915  1
  Al  Al14  1  0.844660  0.655909  0.188750  1
  Al  Al15  1  0.467159  0.655909  0.811250  1
  Al  Al16  1  0.380473  0.119355  0.261119  1
  Al  Al17  1  0.858237  0.119355  0.738881  1
  Al  Al18  1  0.620523  0.879075  0.258553  1
  Al  Al19  1  0.620523  0.361971  0.741447  1
  Al  Al20  1  0.620569  0.879076  0.741494  1
  Al  Al21  1  0.137581  0.879076  0.258506  1
  Ga  Ga22  1  0.000790  0.500790  0.500000  1
  Pt  Pt23  1  0.996999  0.999870  0.498803  1
  Pt  Pt24  1  0.501067  0.999870  0.002871  1
  Pt  Pt25  1  0.502485  0.502485  0.000000  1
  Pt  Pt26  1  0.501067  0.498196  0.501197  1
  Pt  Pt27  1  0.996999  0.498196  0.997129  1
  Pt  Pt28  1  0.001352  0.001352  0.000000  1
  Rh  Rh29  1  0.499373  0.999373  0.500000  1
