# generated using pymatgen
data_Ho6Lu4InSb5
_symmetry_space_group_name_H-M   'P 1'
_cell_length_a   8.86869800
_cell_length_b   8.88158171
_cell_length_c   6.30303000
_cell_angle_alpha   90.00000000
_cell_angle_beta   90.00000000
_cell_angle_gamma   119.95202580
_symmetry_Int_Tables_number   1
_chemical_formula_structural   Ho6Lu4InSb5
_chemical_formula_sum   'Ho6 Lu4 In1 Sb5'
_cell_volume   430.16981400
_cell_formula_units_Z   1
loop_
 _symmetry_equiv_pos_site_id
 _symmetry_equiv_pos_as_xyz
  1  'x, y, z'
loop_
 _atom_site_type_symbol
 _atom_site_label
 _atom_site_symmetry_multiplicity
 _atom_site_fract_x
 _atom_site_fract_y
 _atom_site_fract_z
 _atom_site_occupancy
  Ho  Ho0  1  0.757218  0.000000  0.750000  1
  Ho  Ho1  1  0.753625  0.755665  0.250000  1
  Ho  Ho2  1  0.997960  0.244335  0.250000  1
  Ho  Ho3  1  0.004049  0.758114  0.750000  1
  Ho  Ho4  1  0.245934  0.241886  0.750000  1
  Ho  Ho5  1  0.242274  0.000000  0.250000  1
  Lu  Lu6  1  0.333889  0.669208  0.000328  1
  Lu  Lu7  1  0.664682  0.330792  0.499672  1
  Lu  Lu8  1  0.664682  0.330792  0.000328  1
  Lu  Lu9  1  0.333889  0.669208  0.499672  1
  In  In10  1  0.395998  0.000000  0.750000  1
  Sb  Sb11  1  0.389658  0.391477  0.250000  1
  Sb  Sb12  1  0.998182  0.608523  0.250000  1
  Sb  Sb13  1  0.001011  0.391074  0.750000  1
  Sb  Sb14  1  0.609939  0.608926  0.750000  1
  Sb  Sb15  1  0.607010  0.000000  0.250000  1
