# generated using pymatgen
data_PrNd5(ThTe6)2
_symmetry_space_group_name_H-M   'P 1'
_cell_length_a   4.40657300
_cell_length_b   12.03241261
_cell_length_c   12.33903895
_cell_angle_alpha   89.67736480
_cell_angle_beta   90.00000000
_cell_angle_gamma   90.00000000
_symmetry_Int_Tables_number   1
_chemical_formula_structural   PrNd5(ThTe6)2
_chemical_formula_sum   'Pr1 Nd5 Th2 Te12'
_cell_volume   654.22650497
_cell_formula_units_Z   1
loop_
 _symmetry_equiv_pos_site_id
 _symmetry_equiv_pos_as_xyz
  1  'x, y, z'
loop_
 _atom_site_type_symbol
 _atom_site_label
 _atom_site_symmetry_multiplicity
 _atom_site_fract_x
 _atom_site_fract_y
 _atom_site_fract_z
 _atom_site_occupancy
  Pr  Pr0  1  0.750000  0.004847  0.804327  1
  Nd  Nd1  1  0.250000  0.994967  0.195487  1
  Nd  Nd2  1  0.250000  0.185152  0.518047  1
  Nd  Nd3  1  0.750000  0.814843  0.481809  1
  Nd  Nd4  1  0.750000  0.690981  0.978260  1
  Nd  Nd5  1  0.250000  0.308879  0.021840  1
  Th  Th6  1  0.250000  0.489066  0.697807  1
  Th  Th7  1  0.750000  0.510909  0.302194  1
  Te  Te8  1  0.250000  0.877186  0.953584  1
  Te  Te9  1  0.750000  0.122493  0.047625  1
  Te  Te10  1  0.750000  0.377930  0.541126  1
  Te  Te11  1  0.250000  0.622043  0.458864  1
  Te  Te12  1  0.250000  0.209230  0.773724  1
  Te  Te13  1  0.750000  0.791629  0.226128  1
  Te  Te14  1  0.750000  0.689300  0.718051  1
  Te  Te15  1  0.250000  0.310757  0.281981  1
  Te  Te16  1  0.250000  0.555482  0.116139  1
  Te  Te17  1  0.750000  0.444531  0.883901  1
  Te  Te18  1  0.750000  0.056822  0.377393  1
  Te  Te19  1  0.250000  0.942953  0.621713  1
