# generated using pymatgen
data_Tb2DyYGa12Ni
_symmetry_space_group_name_H-M   'P 1'
_cell_length_a   7.45838562
_cell_length_b   7.45838446
_cell_length_c   7.47363222
_cell_angle_alpha   109.47621068
_cell_angle_beta   109.47621534
_cell_angle_gamma   109.39396016
_symmetry_Int_Tables_number   1
_chemical_formula_structural   Tb2DyYGa12Ni
_chemical_formula_sum   'Tb2 Dy1 Y1 Ga12 Ni1'
_cell_volume   320.30171775
_cell_formula_units_Z   1
loop_
 _symmetry_equiv_pos_site_id
 _symmetry_equiv_pos_as_xyz
  1  'x, y, z'
loop_
 _atom_site_type_symbol
 _atom_site_label
 _atom_site_symmetry_multiplicity
 _atom_site_fract_x
 _atom_site_fract_y
 _atom_site_fract_z
 _atom_site_occupancy
  Tb  Tb0  1  0.000000  0.500000  0.000000  1
  Tb  Tb1  1  0.500000  0.000000  0.000000  1
  Dy  Dy2  1  0.500000  0.500000  0.500000  1
  Y  Y3  1  0.000000  0.000000  0.500000  1
  Ga  Ga4  1  0.749860  0.250140  0.500000  1
  Ga  Ga5  1  0.749875  0.500095  0.250235  1
  Ga  Ga6  1  0.499905  0.250125  0.749765  1
  Ga  Ga7  1  0.250125  0.499905  0.749765  1
  Ga  Ga8  1  0.250140  0.749860  0.500000  1
  Ga  Ga9  1  0.500095  0.749875  0.250235  1
  Ga  Ga10  1  0.711155  0.711155  0.999240  1
  Ga  Ga11  1  0.288846  0.000588  0.288679  1
  Ga  Ga12  1  0.000588  0.288846  0.288679  1
  Ga  Ga13  1  0.288845  0.288845  0.000760  1
  Ga  Ga14  1  0.711154  0.999412  0.711321  1
  Ga  Ga15  1  0.999412  0.711154  0.711321  1
  Ni  Ni16  1  0.000000  0.000000  0.000000  1
