# generated using pymatgen
data_Tb2Pr14In3AgIr4
_symmetry_space_group_name_H-M   'P 1'
_cell_length_a   9.98061235
_cell_length_b   9.97344673
_cell_length_c   9.97344620
_cell_angle_alpha   60.04386091
_cell_angle_beta   60.24984550
_cell_angle_gamma   60.24984094
_symmetry_Int_Tables_number   1
_chemical_formula_structural   Tb2Pr14In3AgIr4
_chemical_formula_sum   'Tb2 Pr14 In3 Ag1 Ir4'
_cell_volume   704.86723140
_cell_formula_units_Z   1
loop_
 _symmetry_equiv_pos_site_id
 _symmetry_equiv_pos_as_xyz
  1  'x, y, z'
loop_
 _atom_site_type_symbol
 _atom_site_label
 _atom_site_symmetry_multiplicity
 _atom_site_fract_x
 _atom_site_fract_y
 _atom_site_fract_z
 _atom_site_occupancy
  Tb  Tb0  1  0.704949  0.097354  0.097354  1
  Tb  Tb1  1  0.557083  0.943220  0.943220  1
  Pr  Pr2  1  0.099069  0.704407  0.098477  1
  Pr  Pr3  1  0.939092  0.941819  0.559694  1
  Pr  Pr4  1  0.939092  0.559694  0.941819  1
  Pr  Pr5  1  0.312887  0.690694  0.307806  1
  Pr  Pr6  1  0.940269  0.558736  0.558736  1
  Pr  Pr7  1  0.312887  0.307806  0.690694  1
  Pr  Pr8  1  0.100112  0.097704  0.097704  1
  Pr  Pr9  1  0.559009  0.558928  0.940567  1
  Pr  Pr10  1  0.099069  0.098477  0.704407  1
  Pr  Pr11  1  0.691390  0.303974  0.694622  1
  Pr  Pr12  1  0.691390  0.694622  0.303974  1
  Pr  Pr13  1  0.692579  0.307431  0.307431  1
  Pr  Pr14  1  0.309390  0.690080  0.690080  1
  Pr  Pr15  1  0.559009  0.940567  0.558928  1
  In  In16  1  0.008912  0.330559  0.330559  1
  In  In17  1  0.333251  0.009781  0.328236  1
  In  In18  1  0.333251  0.328236  0.009781  1
  Ag  Ag19  1  0.331979  0.329567  0.329567  1
  Ir  Ir20  1  0.883079  0.895932  0.895932  1
  Ir  Ir21  1  0.886865  0.894614  0.322499  1
  Ir  Ir22  1  0.328516  0.893297  0.893297  1
  Ir  Ir23  1  0.886865  0.322499  0.894614  1
