# generated using pymatgen
data_Nd12B3AsCl12
_symmetry_space_group_name_H-M   'P 1'
_cell_length_a   9.99247963
_cell_length_b   9.99248042
_cell_length_c   9.99248045
_cell_angle_alpha   109.93896094
_cell_angle_beta   109.93895765
_cell_angle_gamma   109.93895396
_symmetry_Int_Tables_number   1
_chemical_formula_structural   Nd12B3AsCl12
_chemical_formula_sum   'Nd12 B3 As1 Cl12'
_cell_volume   754.47112942
_cell_formula_units_Z   1
loop_
 _symmetry_equiv_pos_site_id
 _symmetry_equiv_pos_as_xyz
  1  'x, y, z'
loop_
 _atom_site_type_symbol
 _atom_site_label
 _atom_site_symmetry_multiplicity
 _atom_site_fract_x
 _atom_site_fract_y
 _atom_site_fract_z
 _atom_site_occupancy
  Nd  Nd0  1  0.481252  0.503184  0.231646  1
  Nd  Nd1  1  0.750000  0.234237  0.265763  1
  Nd  Nd2  1  0.750000  0.013584  0.486416  1
  Nd  Nd3  1  0.231646  0.481252  0.503184  1
  Nd  Nd4  1  0.265763  0.750000  0.234237  1
  Nd  Nd5  1  0.018748  0.268354  0.996816  1
  Nd  Nd6  1  0.996816  0.018748  0.268354  1
  Nd  Nd7  1  0.486416  0.750000  0.013584  1
  Nd  Nd8  1  0.503184  0.231646  0.481252  1
  Nd  Nd9  1  0.013584  0.486416  0.750000  1
  Nd  Nd10  1  0.268354  0.996816  0.018748  1
  Nd  Nd11  1  0.234237  0.265763  0.750000  1
  B  B12  1  0.498592  0.001408  0.250000  1
  B  B13  1  0.001408  0.250000  0.498592  1
  B  B14  1  0.250000  0.498592  0.001408  1
  As  As15  1  0.250000  0.250000  0.250000  1
  Cl  Cl16  1  0.250000  0.754509  0.745491  1
  Cl  Cl17  1  0.504866  0.503319  0.753572  1
  Cl  Cl18  1  0.995134  0.746428  0.996681  1
  Cl  Cl19  1  0.745491  0.250000  0.754509  1
  Cl  Cl20  1  0.996681  0.995134  0.746428  1
  Cl  Cl21  1  0.250000  0.999186  0.500814  1
  Cl  Cl22  1  0.753572  0.504866  0.503319  1
  Cl  Cl23  1  0.500814  0.250000  0.999186  1
  Cl  Cl24  1  0.754509  0.745491  0.250000  1
  Cl  Cl25  1  0.746428  0.996681  0.995134  1
  Cl  Cl26  1  0.999186  0.500814  0.250000  1
  Cl  Cl27  1  0.503319  0.753572  0.504866  1
