# generated using pymatgen
data_Ba(S8Cl)3
_symmetry_space_group_name_H-M   'P 1'
_cell_length_a   4.87582607
_cell_length_b   14.57280172
_cell_length_c   14.99761957
_cell_angle_alpha   119.92060942
_cell_angle_beta   95.10632202
_cell_angle_gamma   97.04897687
_symmetry_Int_Tables_number   1
_chemical_formula_structural   Ba(S8Cl)3
_chemical_formula_sum   'Ba1 S24 Cl3'
_cell_volume   902.54841492
_cell_formula_units_Z   1
loop_
 _symmetry_equiv_pos_site_id
 _symmetry_equiv_pos_as_xyz
  1  'x, y, z'
loop_
 _atom_site_type_symbol
 _atom_site_label
 _atom_site_symmetry_multiplicity
 _atom_site_fract_x
 _atom_site_fract_y
 _atom_site_fract_z
 _atom_site_occupancy
  Ba  Ba0  1  0.564084  0.999861  0.032617  1
  S  S1  1  0.357715  0.398473  0.995471  1
  S  S2  1  0.567977  0.732358  0.003602  1
  S  S3  1  0.263033  0.522121  0.129415  1
  S  S4  1  0.406265  0.756408  0.135470  1
  S  S5  1  0.562142  0.659857  0.183339  1
  S  S6  1  0.654491  0.378007  0.248411  1
  S  S7  1  0.834950  0.267943  0.270920  1
  S  S8  1  0.902672  0.529265  0.343867  1
  S  S9  1  0.130519  0.865341  0.390653  1
  S  S10  1  0.648929  0.243533  0.378516  1
  S  S11  1  0.364413  0.000095  0.403094  1
  S  S12  1  0.369277  0.809750  0.467428  1
  S  S13  1  0.737217  0.610462  0.478367  1
  S  S14  1  0.264604  0.134513  0.525151  1
  S  S15  1  0.901644  0.339986  0.522861  1
  S  S16  1  0.957920  0.601462  0.596655  1
  S  S17  1  0.267821  0.864993  0.614389  1
  S  S18  1  0.739857  0.477388  0.606802  1
  S  S19  1  0.559286  0.190674  0.657628  1
  S  S20  1  0.561704  0.000194  0.721584  1
  S  S21  1  0.403359  0.135343  0.749498  1
  S  S22  1  0.374618  0.471090  0.815128  1
  S  S23  1  0.277289  0.622165  0.870952  1
  S  S24  1  0.127987  0.389325  0.868128  1
  Cl  Cl25  1  0.080628  0.107156  0.971799  1
  Cl  Cl26  1  0.099930  0.000495  0.153831  1
  Cl  Cl27  1  0.972585  0.891740  0.864426  1
