# generated using pymatgen
data_Sr4Pd3Au
_symmetry_space_group_name_H-M   'P 1'
_cell_length_a   4.58778800
_cell_length_b   6.15259859
_cell_length_c   16.15068208
_cell_angle_alpha   89.75771365
_cell_angle_beta   90.00000000
_cell_angle_gamma   90.00000000
_symmetry_Int_Tables_number   1
_chemical_formula_structural   Sr4Pd3Au
_chemical_formula_sum   'Sr8 Pd6 Au2'
_cell_volume   455.87828771
_cell_formula_units_Z   2
loop_
 _symmetry_equiv_pos_site_id
 _symmetry_equiv_pos_as_xyz
  1  'x, y, z'
loop_
 _atom_site_type_symbol
 _atom_site_label
 _atom_site_symmetry_multiplicity
 _atom_site_fract_x
 _atom_site_fract_y
 _atom_site_fract_z
 _atom_site_occupancy
  Sr  Sr0  1  0.250000  0.750216  0.533750  1
  Sr  Sr1  1  0.750000  0.249784  0.466250  1
  Sr  Sr2  1  0.750000  0.258679  0.967400  1
  Sr  Sr3  1  0.250000  0.741321  0.032600  1
  Sr  Sr4  1  0.250000  0.987323  0.790930  1
  Sr  Sr5  1  0.750000  0.012677  0.209070  1
  Sr  Sr6  1  0.750000  0.487298  0.721000  1
  Sr  Sr7  1  0.250000  0.512702  0.279000  1
  Pd  Pd8  1  0.250000  0.249385  0.607030  1
  Pd  Pd9  1  0.750000  0.750615  0.392970  1
  Pd  Pd10  1  0.750000  0.750410  0.892689  1
  Pd  Pd11  1  0.250000  0.249590  0.107311  1
  Pd  Pd12  1  0.250000  0.490279  0.857241  1
  Pd  Pd13  1  0.750000  0.509721  0.142759  1
  Au  Au14  1  0.750000  0.989498  0.644422  1
  Au  Au15  1  0.250000  0.010502  0.355578  1
