# generated using pymatgen
data_Hf2Zr2(Ni3Pt)3
_symmetry_space_group_name_H-M   'P 1'
_cell_length_a   5.41061025
_cell_length_b   5.41061078
_cell_length_c   8.81063300
_cell_angle_alpha   90.00000000
_cell_angle_beta   90.00000000
_cell_angle_gamma   119.08625079
_symmetry_Int_Tables_number   1
_chemical_formula_structural   Hf2Zr2(Ni3Pt)3
_chemical_formula_sum   'Hf2 Zr2 Ni9 Pt3'
_cell_volume   225.40102213
_cell_formula_units_Z   1
loop_
 _symmetry_equiv_pos_site_id
 _symmetry_equiv_pos_as_xyz
  1  'x, y, z'
loop_
 _atom_site_type_symbol
 _atom_site_label
 _atom_site_symmetry_multiplicity
 _atom_site_fract_x
 _atom_site_fract_y
 _atom_site_fract_z
 _atom_site_occupancy
  Hf  Hf0  1  0.325399  0.674601  0.250000  1
  Hf  Hf1  1  0.674826  0.325174  0.750000  1
  Zr  Zr2  1  0.998096  0.001904  0.493472  1
  Zr  Zr3  1  0.998096  0.001904  0.006528  1
  Ni  Ni4  1  0.504351  0.003578  0.496258  1
  Ni  Ni5  1  0.996422  0.495649  0.496258  1
  Ni  Ni6  1  0.504351  0.003578  0.003742  1
  Ni  Ni7  1  0.996422  0.495649  0.003742  1
  Ni  Ni8  1  0.825081  0.645207  0.250000  1
  Ni  Ni9  1  0.354793  0.174919  0.250000  1
  Ni  Ni10  1  0.819558  0.180442  0.250000  1
  Ni  Ni11  1  0.172545  0.344532  0.750000  1
  Ni  Ni12  1  0.655468  0.827455  0.750000  1
  Pt  Pt13  1  0.499649  0.500351  0.499039  1
  Pt  Pt14  1  0.499649  0.500351  0.000961  1
  Pt  Pt15  1  0.175296  0.824704  0.750000  1
