# generated using pymatgen
data_Nd4Ga5(IrPd2)3
_symmetry_space_group_name_H-M   'P 1'
_cell_length_a   12.73464020
_cell_length_b   12.73464094
_cell_length_c   12.73464074
_cell_angle_alpha   25.51137875
_cell_angle_beta   25.51138401
_cell_angle_gamma   25.51137799
_symmetry_Int_Tables_number   1
_chemical_formula_structural   Nd4Ga5(IrPd2)3
_chemical_formula_sum   'Nd4 Ga5 Ir3 Pd6'
_cell_volume   337.23463630
_cell_formula_units_Z   1
loop_
 _symmetry_equiv_pos_site_id
 _symmetry_equiv_pos_as_xyz
  1  'x, y, z'
loop_
 _atom_site_type_symbol
 _atom_site_label
 _atom_site_symmetry_multiplicity
 _atom_site_fract_x
 _atom_site_fract_y
 _atom_site_fract_z
 _atom_site_occupancy
  Nd  Nd0  1  0.955368  0.955368  0.955368  1
  Nd  Nd1  1  0.044632  0.044632  0.044632  1
  Nd  Nd2  1  0.854323  0.854323  0.854323  1
  Nd  Nd3  1  0.145677  0.145677  0.145677  1
  Ga  Ga4  1  0.500000  0.500000  0.500000  1
  Ga  Ga5  1  0.721113  0.721113  0.721113  1
  Ga  Ga6  1  0.278887  0.278887  0.278887  1
  Ga  Ga7  1  0.612344  0.612344  0.612344  1
  Ga  Ga8  1  0.387656  0.387656  0.387656  1
  Ir  Ir9  1  0.500000  0.500000  0.000000  1
  Ir  Ir10  1  0.000000  0.500000  0.500000  1
  Ir  Ir11  1  0.500000  0.000000  0.500000  1
  Pd  Pd12  1  0.388918  0.892377  0.388918  1
  Pd  Pd13  1  0.388918  0.388918  0.892377  1
  Pd  Pd14  1  0.892377  0.388918  0.388918  1
  Pd  Pd15  1  0.611082  0.107623  0.611082  1
  Pd  Pd16  1  0.611082  0.611082  0.107623  1
  Pd  Pd17  1  0.107623  0.611082  0.611082  1
