# generated using pymatgen
data_Tb2Cu6Rh
_symmetry_space_group_name_H-M   'P 1'
_cell_length_a   5.03615500
_cell_length_b   5.03615706
_cell_length_c   12.81398600
_cell_angle_alpha   90.00000000
_cell_angle_beta   90.00000000
_cell_angle_gamma   120.84272068
_symmetry_Int_Tables_number   1
_chemical_formula_structural   Tb2Cu6Rh
_chemical_formula_sum   'Tb4 Cu12 Rh2'
_cell_volume   279.03731810
_cell_formula_units_Z   2
loop_
 _symmetry_equiv_pos_site_id
 _symmetry_equiv_pos_as_xyz
  1  'x, y, z'
loop_
 _atom_site_type_symbol
 _atom_site_label
 _atom_site_symmetry_multiplicity
 _atom_site_fract_x
 _atom_site_fract_y
 _atom_site_fract_z
 _atom_site_occupancy
  Tb  Tb0  1  0.313227  0.313227  0.116590  1
  Tb  Tb1  1  0.686773  0.686773  0.616590  1
  Tb  Tb2  1  0.313227  0.313227  0.383410  1
  Tb  Tb3  1  0.686773  0.686773  0.883410  1
  Cu  Cu4  1  0.822025  0.324261  0.250000  1
  Cu  Cu5  1  0.177975  0.675739  0.750000  1
  Cu  Cu6  1  0.324261  0.822025  0.250000  1
  Cu  Cu7  1  0.675739  0.177975  0.750000  1
  Cu  Cu8  1  0.996958  0.652422  0.076902  1
  Cu  Cu9  1  0.003042  0.347578  0.576902  1
  Cu  Cu10  1  0.652422  0.996958  0.423098  1
  Cu  Cu11  1  0.347578  0.003042  0.923098  1
  Cu  Cu12  1  0.003042  0.347578  0.923098  1
  Cu  Cu13  1  0.996958  0.652422  0.423098  1
  Cu  Cu14  1  0.347578  0.003042  0.576902  1
  Cu  Cu15  1  0.652422  0.996958  0.076902  1
  Rh  Rh16  1  0.824120  0.824120  0.250000  1
  Rh  Rh17  1  0.175880  0.175880  0.750000  1
