# generated using pymatgen
data_Sc4TcBr4
_symmetry_space_group_name_H-M   'P 1'
_cell_length_a   8.49950461
_cell_length_b   8.49950509
_cell_length_c   6.31464026
_cell_angle_alpha   88.53067622
_cell_angle_beta   88.53069036
_cell_angle_gamma   89.03159486
_symmetry_Int_Tables_number   1
_chemical_formula_structural   Sc4TcBr4
_chemical_formula_sum   'Sc8 Tc2 Br8'
_cell_volume   455.81944661
_cell_formula_units_Z   2
loop_
 _symmetry_equiv_pos_site_id
 _symmetry_equiv_pos_as_xyz
  1  'x, y, z'
loop_
 _atom_site_type_symbol
 _atom_site_label
 _atom_site_symmetry_multiplicity
 _atom_site_fract_x
 _atom_site_fract_y
 _atom_site_fract_z
 _atom_site_occupancy
  Sc  Sc0  1  0.246396  0.904605  0.017373  1
  Sc  Sc1  1  0.753604  0.095395  0.982627  1
  Sc  Sc2  1  0.095395  0.753604  0.482627  1
  Sc  Sc3  1  0.904605  0.246396  0.517373  1
  Sc  Sc4  1  0.753444  0.904661  0.513022  1
  Sc  Sc5  1  0.246556  0.095339  0.486978  1
  Sc  Sc6  1  0.095339  0.246556  0.986978  1
  Sc  Sc7  1  0.904661  0.753444  0.013022  1
  Tc  Tc8  1  0.992482  0.007518  0.250000  1
  Tc  Tc9  1  0.007518  0.992482  0.750000  1
  Br  Br10  1  0.417958  0.816374  0.408819  1
  Br  Br11  1  0.582042  0.183626  0.591181  1
  Br  Br12  1  0.183626  0.582042  0.091181  1
  Br  Br13  1  0.816374  0.417958  0.908819  1
  Br  Br14  1  0.412262  0.194303  0.097348  1
  Br  Br15  1  0.587738  0.805697  0.902652  1
  Br  Br16  1  0.805697  0.587738  0.402652  1
  Br  Br17  1  0.194303  0.412262  0.597348  1
