# generated using pymatgen
data_ZrPa2(GaNi)3
_symmetry_space_group_name_H-M   'P 1'
_cell_length_a   6.71880600
_cell_length_b   6.71880494
_cell_length_c   3.98267300
_cell_angle_alpha   90.00000000
_cell_angle_beta   90.00000000
_cell_angle_gamma   121.05546714
_symmetry_Int_Tables_number   1
_chemical_formula_structural   ZrPa2(GaNi)3
_chemical_formula_sum   'Zr1 Pa2 Ga3 Ni3'
_cell_volume   154.01800028
_cell_formula_units_Z   1
loop_
 _symmetry_equiv_pos_site_id
 _symmetry_equiv_pos_as_xyz
  1  'x, y, z'
loop_
 _atom_site_type_symbol
 _atom_site_label
 _atom_site_symmetry_multiplicity
 _atom_site_fract_x
 _atom_site_fract_y
 _atom_site_fract_z
 _atom_site_occupancy
  Zr  Zr0  1  0.586138  0.586138  0.500000  1
  Pa  Pa1  1  0.421568  0.999579  0.500000  1
  Pa  Pa2  1  0.999579  0.421568  0.500000  1
  Ga  Ga3  1  0.755758  0.987637  0.000000  1
  Ga  Ga4  1  0.987637  0.755758  0.000000  1
  Ga  Ga5  1  0.255645  0.255645  0.000000  1
  Ni  Ni6  1  0.322105  0.666957  0.000000  1
  Ni  Ni7  1  0.666957  0.322105  0.000000  1
  Ni  Ni8  1  0.004614  0.004614  0.500000  1
