# generated using pymatgen
data_EuSbPtO6
_symmetry_space_group_name_H-M   'P 1'
_cell_length_a   5.31356800
_cell_length_b   5.31356674
_cell_length_c   5.10901100
_cell_angle_alpha   90.00000000
_cell_angle_beta   90.00000000
_cell_angle_gamma   119.99999537
_symmetry_Int_Tables_number   1
_chemical_formula_structural   EuSbPtO6
_chemical_formula_sum   'Eu1 Sb1 Pt1 O6'
_cell_volume   124.92227154
_cell_formula_units_Z   1
loop_
 _symmetry_equiv_pos_site_id
 _symmetry_equiv_pos_as_xyz
  1  'x, y, z'
loop_
 _atom_site_type_symbol
 _atom_site_label
 _atom_site_symmetry_multiplicity
 _atom_site_fract_x
 _atom_site_fract_y
 _atom_site_fract_z
 _atom_site_occupancy
  Eu  Eu0  1  0.000000  0.000000  0.000000  1
  Sb  Sb1  1  0.333333  0.666666  0.500000  1
  Pt  Pt2  1  0.666668  0.333334  0.500000  1
  O  O3  1  0.362998  0.999606  0.283123  1
  O  O4  1  0.000394  0.363393  0.283123  1
  O  O5  1  0.636609  0.637002  0.283123  1
  O  O6  1  0.636609  0.999606  0.716877  1
  O  O7  1  0.362998  0.363393  0.716877  1
  O  O8  1  0.000394  0.637002  0.716877  1
