# generated using pymatgen
data_Dy3YAl16(GaIr3)2
_symmetry_space_group_name_H-M   'P 1'
_cell_length_a   7.54100605
_cell_length_b   7.54169691
_cell_length_c   9.50895200
_cell_angle_alpha   90.00000000
_cell_angle_beta   90.00000000
_cell_angle_gamma   119.39072300
_symmetry_Int_Tables_number   1
_chemical_formula_structural   Dy3YAl16(GaIr3)2
_chemical_formula_sum   'Dy3 Y1 Al16 Ga2 Ir6'
_cell_volume   471.18926250
_cell_formula_units_Z   1
loop_
 _symmetry_equiv_pos_site_id
 _symmetry_equiv_pos_as_xyz
  1  'x, y, z'
loop_
 _atom_site_type_symbol
 _atom_site_label
 _atom_site_symmetry_multiplicity
 _atom_site_fract_x
 _atom_site_fract_y
 _atom_site_fract_z
 _atom_site_occupancy
  Dy  Dy0  1  0.005882  0.326245  0.250000  1
  Dy  Dy1  1  0.673762  0.994125  0.750000  1
  Dy  Dy2  1  0.326241  0.005887  0.250000  1
  Y  Y3  1  0.994049  0.673532  0.750000  1
  Al  Al4  1  0.001422  0.335695  0.573068  1
  Al  Al5  1  0.998638  0.664226  0.426494  1
  Al  Al6  1  0.998638  0.664226  0.073506  1
  Al  Al7  1  0.335792  0.001462  0.926900  1
  Al  Al8  1  0.001422  0.335695  0.926932  1
  Al  Al9  1  0.664222  0.998639  0.073328  1
  Al  Al10  1  0.664222  0.998639  0.426672  1
  Al  Al11  1  0.335792  0.001462  0.573100  1
  Al  Al12  1  0.333985  0.333983  0.052650  1
  Al  Al13  1  0.665991  0.666038  0.947742  1
  Al  Al14  1  0.665991  0.666038  0.552258  1
  Al  Al15  1  0.333985  0.333983  0.447350  1
  Al  Al16  1  0.338605  0.549005  0.750000  1
  Al  Al17  1  0.661630  0.451013  0.250000  1
  Al  Al18  1  0.548725  0.338036  0.750000  1
  Al  Al19  1  0.451036  0.661689  0.250000  1
  Ga  Ga20  1  0.133444  0.133775  0.750000  1
  Ga  Ga21  1  0.866407  0.866452  0.250000  1
  Ir  Ir22  1  0.671520  0.328382  0.499931  1
  Ir  Ir23  1  0.328497  0.671579  0.499908  1
  Ir  Ir24  1  0.328497  0.671579  0.000092  1
  Ir  Ir25  1  0.671520  0.328382  0.000069  1
  Ir  Ir26  1  0.000040  0.000118  0.499877  1
  Ir  Ir27  1  0.000040  0.000118  0.000123  1
