# generated using pymatgen
data_TbTmIr2O7
_symmetry_space_group_name_H-M   'P 1'
_cell_length_a   7.22505315
_cell_length_b   7.22505375
_cell_length_c   7.20462400
_cell_angle_alpha   60.09350225
_cell_angle_beta   60.09349952
_cell_angle_gamma   60.19854679
_symmetry_Int_Tables_number   1
_chemical_formula_structural   TbTmIr2O7
_chemical_formula_sum   'Tb2 Tm2 Ir4 O14'
_cell_volume   266.71046379
_cell_formula_units_Z   2
loop_
 _symmetry_equiv_pos_site_id
 _symmetry_equiv_pos_as_xyz
  1  'x, y, z'
loop_
 _atom_site_type_symbol
 _atom_site_label
 _atom_site_symmetry_multiplicity
 _atom_site_fract_x
 _atom_site_fract_y
 _atom_site_fract_z
 _atom_site_occupancy
  Tb  Tb0  1  0.625000  0.125000  0.125000  1
  Tb  Tb1  1  0.125000  0.625000  0.125000  1
  Tm  Tm2  1  0.125000  0.125000  0.125000  1
  Tm  Tm3  1  0.125000  0.125000  0.625000  1
  Ir  Ir4  1  0.625000  0.625000  0.625000  1
  Ir  Ir5  1  0.125000  0.625000  0.625000  1
  Ir  Ir6  1  0.625000  0.625000  0.125000  1
  Ir  Ir7  1  0.625000  0.125000  0.625000  1
  O  O8  1  0.003399  0.003399  0.996601  1
  O  O9  1  0.246601  0.246601  0.253399  1
  O  O10  1  0.286744  0.286744  0.713256  1
  O  O11  1  0.537010  0.537010  0.962990  1
  O  O12  1  0.717700  0.286570  0.709026  1
  O  O13  1  0.717700  0.286570  0.286704  1
  O  O14  1  0.286570  0.717700  0.709026  1
  O  O15  1  0.286570  0.717700  0.286704  1
  O  O16  1  0.712990  0.712990  0.287010  1
  O  O17  1  0.963430  0.532300  0.540974  1
  O  O18  1  0.532300  0.963430  0.963296  1
  O  O19  1  0.963256  0.963256  0.536744  1
  O  O20  1  0.963430  0.532300  0.963296  1
  O  O21  1  0.532300  0.963430  0.540974  1
