# generated using pymatgen
data_YCoNiO5
_symmetry_space_group_name_H-M   'P 1'
_cell_length_a   5.69056100
_cell_length_b   7.26917800
_cell_length_c   8.35852500
_cell_angle_alpha   90.00000000
_cell_angle_beta   90.00000000
_cell_angle_gamma   90.00000000
_symmetry_Int_Tables_number   1
_chemical_formula_structural   YCoNiO5
_chemical_formula_sum   'Y4 Co4 Ni4 O20'
_cell_volume   345.75624452
_cell_formula_units_Z   4
loop_
 _symmetry_equiv_pos_site_id
 _symmetry_equiv_pos_as_xyz
  1  'x, y, z'
loop_
 _atom_site_type_symbol
 _atom_site_label
 _atom_site_symmetry_multiplicity
 _atom_site_fract_x
 _atom_site_fract_y
 _atom_site_fract_z
 _atom_site_occupancy
  Y  Y0  1  0.500000  0.361375  0.327773  1
  Y  Y1  1  0.500000  0.638625  0.672227  1
  Y  Y2  1  0.500000  0.138625  0.827773  1
  Y  Y3  1  0.500000  0.861375  0.172227  1
  Co  Co4  1  0.243190  0.000000  0.500000  1
  Co  Co5  1  0.756810  0.000000  0.500000  1
  Co  Co6  1  0.756810  0.500000  0.000000  1
  Co  Co7  1  0.243190  0.500000  0.000000  1
  Ni  Ni8  1  0.000000  0.086807  0.150710  1
  Ni  Ni9  1  0.000000  0.913193  0.849290  1
  Ni  Ni10  1  0.000000  0.413193  0.650710  1
  Ni  Ni11  1  0.000000  0.586807  0.349290  1
  O  O12  1  0.225569  0.000000  0.000000  1
  O  O13  1  0.774431  0.000000  0.000000  1
  O  O14  1  0.774431  0.500000  0.500000  1
  O  O15  1  0.225569  0.500000  0.500000  1
  O  O16  1  0.000000  0.350896  0.071504  1
  O  O17  1  0.000000  0.649104  0.928496  1
  O  O18  1  0.000000  0.149104  0.571504  1
  O  O19  1  0.000000  0.850896  0.428496  1
  O  O20  1  0.255832  0.105252  0.294228  1
  O  O21  1  0.744168  0.894748  0.705772  1
  O  O22  1  0.255832  0.894748  0.705772  1
  O  O23  1  0.744168  0.394748  0.794228  1
  O  O24  1  0.744168  0.105252  0.294228  1
  O  O25  1  0.255832  0.605252  0.205772  1
  O  O26  1  0.744168  0.605252  0.205772  1
  O  O27  1  0.255832  0.394748  0.794228  1
  O  O28  1  0.500000  0.338951  0.054144  1
  O  O29  1  0.500000  0.661049  0.945856  1
  O  O30  1  0.500000  0.161049  0.554144  1
  O  O31  1  0.500000  0.838951  0.445856  1
