# generated using pymatgen
data_LaDy3(ScIr)4
_symmetry_space_group_name_H-M   'P 1'
_cell_length_a   7.17817964
_cell_length_b   4.28673400
_cell_length_c   8.81398845
_cell_angle_alpha   90.00000000
_cell_angle_beta   89.63345338
_cell_angle_gamma   90.00000000
_symmetry_Int_Tables_number   1
_chemical_formula_structural   LaDy3(ScIr)4
_chemical_formula_sum   'La1 Dy3 Sc4 Ir4'
_cell_volume   271.20921889
_cell_formula_units_Z   1
loop_
 _symmetry_equiv_pos_site_id
 _symmetry_equiv_pos_as_xyz
  1  'x, y, z'
loop_
 _atom_site_type_symbol
 _atom_site_label
 _atom_site_symmetry_multiplicity
 _atom_site_fract_x
 _atom_site_fract_y
 _atom_site_fract_z
 _atom_site_occupancy
  La  La0  1  0.514468  0.750000  0.678019  1
  Dy  Dy1  1  0.976958  0.250000  0.175698  1
  Dy  Dy2  1  0.478571  0.250000  0.321449  1
  Dy  Dy3  1  0.019548  0.750000  0.828689  1
  Sc  Sc4  1  0.865757  0.250000  0.561659  1
  Sc  Sc5  1  0.357842  0.250000  0.942937  1
  Sc  Sc6  1  0.139722  0.750000  0.432241  1
  Sc  Sc7  1  0.642249  0.750000  0.067711  1
  Ir  Ir8  1  0.741836  0.250000  0.895520  1
  Ir  Ir9  1  0.236263  0.250000  0.601578  1
  Ir  Ir10  1  0.262163  0.750000  0.107856  1
  Ir  Ir11  1  0.764623  0.750000  0.386641  1
