# generated using pymatgen
data_CeNd3Zn4Ir3Rh
_symmetry_space_group_name_H-M   'P 1'
_cell_length_a   3.97190000
_cell_length_b   7.42164367
_cell_length_c   16.52784270
_cell_angle_alpha   90.06634106
_cell_angle_beta   90.00000000
_cell_angle_gamma   90.00000000
_symmetry_Int_Tables_number   1
_chemical_formula_structural   CeNd3Zn4Ir3Rh
_chemical_formula_sum   'Ce2 Nd6 Zn8 Ir6 Rh2'
_cell_volume   487.20785810
_cell_formula_units_Z   2
loop_
 _symmetry_equiv_pos_site_id
 _symmetry_equiv_pos_as_xyz
  1  'x, y, z'
loop_
 _atom_site_type_symbol
 _atom_site_label
 _atom_site_symmetry_multiplicity
 _atom_site_fract_x
 _atom_site_fract_y
 _atom_site_fract_z
 _atom_site_occupancy
  Ce  Ce0  1  0.250000  0.174340  0.939711  1
  Ce  Ce1  1  0.250000  0.672811  0.559948  1
  Nd  Nd2  1  0.750000  0.333373  0.439256  1
  Nd  Nd3  1  0.750000  0.949723  0.284395  1
  Nd  Nd4  1  0.750000  0.832057  0.061191  1
  Nd  Nd5  1  0.750000  0.449457  0.215574  1
  Nd  Nd6  1  0.250000  0.047073  0.715848  1
  Nd  Nd7  1  0.250000  0.546960  0.784219  1
  Zn  Zn8  1  0.750000  0.006331  0.560693  1
  Zn  Zn9  1  0.250000  0.621494  0.349434  1
  Zn  Zn10  1  0.750000  0.381797  0.651316  1
  Zn  Zn11  1  0.250000  0.501088  0.059478  1
  Zn  Zn12  1  0.750000  0.508493  0.939541  1
  Zn  Zn13  1  0.250000  0.002524  0.440925  1
  Zn  Zn14  1  0.250000  0.122375  0.150924  1
  Zn  Zn15  1  0.750000  0.880145  0.847884  1
  Ir  Ir16  1  0.750000  0.750876  0.441466  1
  Ir  Ir17  1  0.250000  0.242334  0.311650  1
  Ir  Ir18  1  0.750000  0.244583  0.824113  1
  Ir  Ir19  1  0.750000  0.744625  0.678406  1
  Ir  Ir20  1  0.250000  0.248085  0.566593  1
  Ir  Ir21  1  0.250000  0.741900  0.186569  1
  Rh  Rh22  1  0.750000  0.248571  0.057016  1
  Rh  Rh23  1  0.250000  0.748984  0.933849  1
