# generated using pymatgen
data_Y12Ga8Ir3Rh5
_symmetry_space_group_name_H-M   'P 1'
_cell_length_a   5.61055508
_cell_length_b   7.79449888
_cell_length_c   13.65354146
_cell_angle_alpha   90.07384426
_cell_angle_beta   90.03503677
_cell_angle_gamma   90.31301820
_symmetry_Int_Tables_number   1
_chemical_formula_structural   Y12Ga8Ir3Rh5
_chemical_formula_sum   'Y12 Ga8 Ir3 Rh5'
_cell_volume   597.07985359
_cell_formula_units_Z   1
loop_
 _symmetry_equiv_pos_site_id
 _symmetry_equiv_pos_as_xyz
  1  'x, y, z'
loop_
 _atom_site_type_symbol
 _atom_site_label
 _atom_site_symmetry_multiplicity
 _atom_site_fract_x
 _atom_site_fract_y
 _atom_site_fract_z
 _atom_site_occupancy
  Y  Y0  1  0.627575  0.261508  0.249071  1
  Y  Y1  1  0.374223  0.740572  0.750063  1
  Y  Y2  1  0.370759  0.764977  0.248627  1
  Y  Y3  1  0.628665  0.233174  0.750133  1
  Y  Y4  1  0.154150  0.397375  0.097378  1
  Y  Y5  1  0.846014  0.602340  0.902461  1
  Y  Y6  1  0.846607  0.602671  0.597401  1
  Y  Y7  1  0.848068  0.899215  0.402556  1
  Y  Y8  1  0.152646  0.400150  0.402191  1
  Y  Y9  1  0.149754  0.099079  0.597898  1
  Y  Y10  1  0.149894  0.099568  0.902113  1
  Y  Y11  1  0.850446  0.900186  0.097899  1
  Ga  Ga12  1  0.124019  0.109335  0.250872  1
  Ga  Ga13  1  0.877410  0.891115  0.750056  1
  Ga  Ga14  1  0.874291  0.608451  0.250076  1
  Ga  Ga15  1  0.125901  0.392361  0.749953  1
  Ga  Ga16  1  0.646792  0.251081  0.999113  1
  Ga  Ga17  1  0.352979  0.749179  0.000728  1
  Ga  Ga18  1  0.352456  0.749104  0.499602  1
  Ga  Ga19  1  0.647590  0.250458  0.500735  1
  Ir  Ir20  1  0.359442  0.040483  0.095012  1
  Ir  Ir21  1  0.640346  0.959632  0.905655  1
  Ir  Ir22  1  0.640411  0.960312  0.594370  1
  Rh  Rh23  1  0.639070  0.536071  0.405851  1
  Rh  Rh24  1  0.361305  0.039740  0.406195  1
  Rh  Rh25  1  0.359357  0.461737  0.593783  1
  Rh  Rh26  1  0.359294  0.463538  0.905783  1
  Rh  Rh27  1  0.640537  0.536587  0.094426  1
