# generated using pymatgen
data_Tb2Dy3ReRuO12
_symmetry_space_group_name_H-M   'P 1'
_cell_length_a   6.86436845
_cell_length_b   6.86584061
_cell_length_c   7.53722711
_cell_angle_alpha   73.77485742
_cell_angle_beta   73.76551368
_cell_angle_gamma   48.89276669
_symmetry_Int_Tables_number   1
_chemical_formula_structural   Tb2Dy3ReRuO12
_chemical_formula_sum   'Tb2 Dy3 Re1 Ru1 O12'
_cell_volume   254.72997851
_cell_formula_units_Z   1
loop_
 _symmetry_equiv_pos_site_id
 _symmetry_equiv_pos_as_xyz
  1  'x, y, z'
loop_
 _atom_site_type_symbol
 _atom_site_label
 _atom_site_symmetry_multiplicity
 _atom_site_fract_x
 _atom_site_fract_y
 _atom_site_fract_z
 _atom_site_occupancy
  Tb  Tb0  1  0.179737  0.213899  0.642714  1
  Tb  Tb1  1  0.179581  0.191334  0.173474  1
  Dy  Dy2  1  0.487553  0.512673  0.499977  1
  Dy  Dy3  1  0.786357  0.820080  0.357571  1
  Dy  Dy4  1  0.808418  0.820525  0.826132  1
  Re  Re5  1  0.299809  0.699877  0.000026  1
  Ru  Ru6  1  0.733815  0.265978  0.999995  1
  O  O7  1  0.412205  0.903048  0.915840  1
  O  O8  1  0.932759  0.414833  0.914818  1
  O  O9  1  0.896568  0.415910  0.422523  1
  O  O10  1  0.390617  0.910670  0.431700  1
  O  O11  1  0.502653  0.500822  0.202365  1
  O  O12  1  0.015318  0.982360  0.175260  1
  O  O13  1  0.016797  0.983711  0.825038  1
  O  O14  1  0.498958  0.496985  0.797757  1
  O  O15  1  0.096002  0.588505  0.084209  1
  O  O16  1  0.588103  0.064579  0.084984  1
  O  O17  1  0.088189  0.611888  0.568270  1
  O  O18  1  0.586562  0.102322  0.577344  1
