# generated using pymatgen
data_TbDy3In(FeB3)2
_symmetry_space_group_name_H-M   'P 1'
_cell_length_a   5.35647516
_cell_length_b   5.35647391
_cell_length_c   8.22143611
_cell_angle_alpha   70.98820403
_cell_angle_beta   70.98822037
_cell_angle_gamma   59.99998015
_symmetry_Int_Tables_number   1
_chemical_formula_structural   TbDy3In(FeB3)2
_chemical_formula_sum   'Tb1 Dy3 In1 Fe2 B6'
_cell_volume   189.28130340
_cell_formula_units_Z   1
loop_
 _symmetry_equiv_pos_site_id
 _symmetry_equiv_pos_as_xyz
  1  'x, y, z'
loop_
 _atom_site_type_symbol
 _atom_site_label
 _atom_site_symmetry_multiplicity
 _atom_site_fract_x
 _atom_site_fract_y
 _atom_site_fract_z
 _atom_site_occupancy
  Tb  Tb0  1  0.251493  0.251493  0.245524  1
  Dy  Dy1  1  0.749007  0.749007  0.752978  1
  Dy  Dy2  1  0.415861  0.415861  0.752417  1
  Dy  Dy3  1  0.584108  0.584108  0.247676  1
  In  In4  1  0.999942  0.999942  0.000175  1
  Fe  Fe5  1  0.116584  0.116584  0.650249  1
  Fe  Fe6  1  0.883374  0.883374  0.349875  1
  B  B7  1  0.167915  0.831886  0.500184  1
  B  B8  1  0.831886  0.500015  0.500184  1
  B  B9  1  0.500015  0.167915  0.500184  1
  B  B10  1  0.167915  0.500015  0.500184  1
  B  B11  1  0.500015  0.831886  0.500184  1
  B  B12  1  0.831886  0.167915  0.500184  1
