# generated using pymatgen
data_Pr5U4BiO20
_symmetry_space_group_name_H-M   'P 1'
_cell_length_a   6.83611067
_cell_length_b   7.73189510
_cell_length_c   8.65870826
_cell_angle_alpha   101.23978556
_cell_angle_beta   97.75389961
_cell_angle_gamma   107.22313288
_symmetry_Int_Tables_number   1
_chemical_formula_structural   Pr5U4BiO20
_chemical_formula_sum   'Pr5 U4 Bi1 O20'
_cell_volume   419.59721369
_cell_formula_units_Z   1
loop_
 _symmetry_equiv_pos_site_id
 _symmetry_equiv_pos_as_xyz
  1  'x, y, z'
loop_
 _atom_site_type_symbol
 _atom_site_label
 _atom_site_symmetry_multiplicity
 _atom_site_fract_x
 _atom_site_fract_y
 _atom_site_fract_z
 _atom_site_occupancy
  Pr  Pr0  1  0.611650  0.702975  0.700682  1
  Pr  Pr1  1  0.388350  0.297025  0.299318  1
  Pr  Pr2  1  0.200689  0.898178  0.894404  1
  Pr  Pr3  1  0.000000  0.500000  0.500000  1
  Pr  Pr4  1  0.799311  0.101822  0.105596  1
  U  U5  1  0.400996  0.803415  0.301370  1
  U  U6  1  0.198653  0.402774  0.902820  1
  U  U7  1  0.801347  0.597226  0.097180  1
  U  U8  1  0.599004  0.196585  0.698630  1
  Bi  Bi9  1  0.000000  0.000000  0.500000  1
  O  O10  1  0.434783  0.532628  0.131439  1
  O  O11  1  0.557743  0.994453  0.837268  1
  O  O12  1  0.279083  0.155664  0.745037  1
  O  O13  1  0.361871  0.601113  0.437769  1
  O  O14  1  0.056566  0.729255  0.323534  1
  O  O15  1  0.442257  0.005547  0.162732  1
  O  O16  1  0.148901  0.189475  0.027007  1
  O  O17  1  0.565217  0.467372  0.868561  1
  O  O18  1  0.855319  0.342543  0.950486  1
  O  O19  1  0.256989  0.600259  0.764135  1
  O  O20  1  0.954161  0.773388  0.651469  1
  O  O21  1  0.357063  0.056679  0.454713  1
  O  O22  1  0.642937  0.943321  0.545287  1
  O  O23  1  0.045839  0.226612  0.348531  1
  O  O24  1  0.743011  0.399741  0.235865  1
  O  O25  1  0.144681  0.657457  0.049514  1
  O  O26  1  0.851099  0.810525  0.972993  1
  O  O27  1  0.943434  0.270745  0.676466  1
  O  O28  1  0.638129  0.398887  0.562231  1
  O  O29  1  0.720917  0.844336  0.254963  1
