# generated using pymatgen
data_PaZn2H
_symmetry_space_group_name_H-M   'P 1'
_cell_length_a   4.13676100
_cell_length_b   4.13676100
_cell_length_c   7.06275900
_cell_angle_alpha   90.00000000
_cell_angle_beta   90.00000000
_cell_angle_gamma   90.00000000
_symmetry_Int_Tables_number   1
_chemical_formula_structural   PaZn2H
_chemical_formula_sum   'Pa2 Zn4 H2'
_cell_volume   120.86352268
_cell_formula_units_Z   2
loop_
 _symmetry_equiv_pos_site_id
 _symmetry_equiv_pos_as_xyz
  1  'x, y, z'
loop_
 _atom_site_type_symbol
 _atom_site_label
 _atom_site_symmetry_multiplicity
 _atom_site_fract_x
 _atom_site_fract_y
 _atom_site_fract_z
 _atom_site_occupancy
  Pa  Pa0  1  0.500000  0.000000  0.348767  1
  Pa  Pa1  1  0.000000  0.500000  0.651233  1
  Zn  Zn2  1  0.500000  0.500000  0.000000  1
  Zn  Zn3  1  0.000000  0.000000  0.000000  1
  Zn  Zn4  1  0.500000  0.000000  0.781313  1
  Zn  Zn5  1  0.000000  0.500000  0.218687  1
  H  H6  1  0.000000  0.000000  0.500000  1
  H  H7  1  0.500000  0.500000  0.500000  1
