# generated using pymatgen
data_Nd4Re3TcF28
_symmetry_space_group_name_H-M   'P 1'
_cell_length_a   5.69822287
_cell_length_b   9.17727874
_cell_length_c   12.29894200
_cell_angle_alpha   62.02339073
_cell_angle_beta   90.03171355
_cell_angle_gamma   90.04476348
_symmetry_Int_Tables_number   1
_chemical_formula_structural   Nd4Re3TcF28
_chemical_formula_sum   'Nd4 Re3 Tc1 F28'
_cell_volume   568.00233039
_cell_formula_units_Z   1
loop_
 _symmetry_equiv_pos_site_id
 _symmetry_equiv_pos_as_xyz
  1  'x, y, z'
loop_
 _atom_site_type_symbol
 _atom_site_label
 _atom_site_symmetry_multiplicity
 _atom_site_fract_x
 _atom_site_fract_y
 _atom_site_fract_z
 _atom_site_occupancy
  Nd  Nd0  1  0.257962  0.811450  0.264912  1
  Nd  Nd1  1  0.741913  0.188492  0.735223  1
  Nd  Nd2  1  0.758507  0.189144  0.235521  1
  Nd  Nd3  1  0.240897  0.811497  0.764149  1
  Re  Re4  1  0.243684  0.273373  0.957422  1
  Re  Re5  1  0.256693  0.273416  0.457410  1
  Re  Re6  1  0.743191  0.726323  0.542897  1
  Tc  Tc7  1  0.756313  0.726597  0.042591  1
  F  F8  1  0.934186  0.707443  0.415761  1
  F  F9  1  0.064140  0.292425  0.583857  1
  F  F10  1  0.436146  0.292232  0.084199  1
  F  F11  1  0.557877  0.709334  0.919081  1
  F  F12  1  0.478126  0.728966  0.135473  1
  F  F13  1  0.529857  0.271469  0.867004  1
  F  F14  1  0.970143  0.272166  0.366712  1
  F  F15  1  0.030863  0.727537  0.632755  1
  F  F16  1  0.949807  0.742700  0.168888  1
  F  F17  1  0.055801  0.256509  0.828188  1
  F  F18  1  0.444473  0.257294  0.327927  1
  F  F19  1  0.557522  0.742492  0.673130  1
  F  F20  1  0.769422  0.485331  0.138296  1
  F  F21  1  0.230576  0.516651  0.860517  1
  F  F22  1  0.269290  0.516753  0.361076  1
  F  F23  1  0.730369  0.482906  0.639517  1
  F  F24  1  0.949002  0.279823  0.041730  1
  F  F25  1  0.043947  0.719040  0.956484  1
  F  F26  1  0.447534  0.719310  0.459603  1
  F  F27  1  0.551650  0.280474  0.541072  1
  F  F28  1  0.741952  0.969819  0.449426  1
  F  F29  1  0.258628  0.029750  0.550372  1
  F  F30  1  0.242267  0.029832  0.051555  1
  F  F31  1  0.758211  0.967823  0.948552  1
  F  F32  1  0.590892  0.966891  0.231891  1
  F  F33  1  0.408370  0.033804  0.767942  1
  F  F34  1  0.090770  0.032859  0.269923  1
  F  F35  1  0.909021  0.968080  0.728940  1
