# generated using pymatgen
data_Sr3LiHg3Pd2
_symmetry_space_group_name_H-M   'P 1'
_cell_length_a   8.05305500
_cell_length_b   8.05305370
_cell_length_c   4.15545700
_cell_angle_alpha   90.00000000
_cell_angle_beta   90.00000000
_cell_angle_gamma   120.00000122
_symmetry_Int_Tables_number   1
_chemical_formula_structural   Sr3LiHg3Pd2
_chemical_formula_sum   'Sr3 Li1 Hg3 Pd2'
_cell_volume   233.38378533
_cell_formula_units_Z   1
loop_
 _symmetry_equiv_pos_site_id
 _symmetry_equiv_pos_as_xyz
  1  'x, y, z'
loop_
 _atom_site_type_symbol
 _atom_site_label
 _atom_site_symmetry_multiplicity
 _atom_site_fract_x
 _atom_site_fract_y
 _atom_site_fract_z
 _atom_site_occupancy
  Sr  Sr0  1  0.414730  0.414730  0.500000  1
  Sr  Sr1  1  0.585270  0.000000  0.500000  1
  Sr  Sr2  1  0.000000  0.585270  0.500000  1
  Li  Li3  1  0.000000  0.000000  0.500000  1
  Hg  Hg4  1  0.746740  0.746740  0.000000  1
  Hg  Hg5  1  0.253260  0.000000  0.000000  1
  Hg  Hg6  1  0.000000  0.253260  0.000000  1
  Pd  Pd7  1  0.666667  0.333333  0.000000  1
  Pd  Pd8  1  0.333333  0.666667  0.000000  1
