# generated using pymatgen
data_Er16In6FeIr
_symmetry_space_group_name_H-M   'P 1'
_cell_length_a   10.28480800
_cell_length_b   10.28480663
_cell_length_c   6.98502800
_cell_angle_alpha   90.00000000
_cell_angle_beta   90.00000000
_cell_angle_gamma   119.99999796
_symmetry_Int_Tables_number   1
_chemical_formula_structural   Er16In6FeIr
_chemical_formula_sum   'Er16 In6 Fe1 Ir1'
_cell_volume   639.86906060
_cell_formula_units_Z   1
loop_
 _symmetry_equiv_pos_site_id
 _symmetry_equiv_pos_as_xyz
  1  'x, y, z'
loop_
 _atom_site_type_symbol
 _atom_site_label
 _atom_site_symmetry_multiplicity
 _atom_site_fract_x
 _atom_site_fract_y
 _atom_site_fract_z
 _atom_site_occupancy
  Er  Er0  1  0.532299  0.064597  0.793728  1
  Er  Er1  1  0.935403  0.467701  0.793728  1
  Er  Er2  1  0.532299  0.467701  0.793728  1
  Er  Er3  1  0.464346  0.928694  0.291865  1
  Er  Er4  1  0.071306  0.535654  0.291865  1
  Er  Er5  1  0.464346  0.535654  0.291865  1
  Er  Er6  1  0.823389  0.646779  0.497651  1
  Er  Er7  1  0.353221  0.176611  0.497651  1
  Er  Er8  1  0.823389  0.176611  0.497651  1
  Er  Er9  1  0.178745  0.357490  0.999526  1
  Er  Er10  1  0.642510  0.821255  0.999526  1
  Er  Er11  1  0.178745  0.821255  0.999526  1
  Er  Er12  1  0.666667  0.333333  0.171983  1
  Er  Er13  1  0.333333  0.666667  0.679279  1
  Er  Er14  1  0.000000  0.000000  0.779148  1
  Er  Er15  1  0.000000  0.000000  0.277835  1
  In  In16  1  0.837558  0.675118  0.039956  1
  In  In17  1  0.324882  0.162442  0.039956  1
  In  In18  1  0.837558  0.162442  0.039956  1
  In  In19  1  0.163245  0.326489  0.540587  1
  In  In20  1  0.673511  0.836755  0.540587  1
  In  In21  1  0.163245  0.836755  0.540587  1
  Fe  Fe22  1  0.333333  0.666667  0.068091  1
  Ir  Ir23  1  0.666667  0.333333  0.569634  1
