# generated using pymatgen
data_Cs2MgZn2SiAs4
_symmetry_space_group_name_H-M   'P 1'
_cell_length_a   8.25434260
_cell_length_b   8.25434223
_cell_length_c   5.99688100
_cell_angle_alpha   90.00000000
_cell_angle_beta   90.00000000
_cell_angle_gamma   137.36886381
_symmetry_Int_Tables_number   1
_chemical_formula_structural   Cs2MgZn2SiAs4
_chemical_formula_sum   'Cs2 Mg1 Zn2 Si1 As4'
_cell_volume   276.72984878
_cell_formula_units_Z   1
loop_
 _symmetry_equiv_pos_site_id
 _symmetry_equiv_pos_as_xyz
  1  'x, y, z'
loop_
 _atom_site_type_symbol
 _atom_site_label
 _atom_site_symmetry_multiplicity
 _atom_site_fract_x
 _atom_site_fract_y
 _atom_site_fract_z
 _atom_site_occupancy
  Cs  Cs0  1  0.500000  0.000000  0.255401  1
  Cs  Cs1  1  0.000000  0.500000  0.744599  1
  Mg  Mg2  1  0.500000  0.500000  0.500000  1
  Zn  Zn3  1  0.500000  0.500000  0.000000  1
  Zn  Zn4  1  0.000000  0.000000  0.500000  1
  Si  Si5  1  0.000000  0.000000  0.000000  1
  As  As6  1  0.676393  0.868341  0.772661  1
  As  As7  1  0.131659  0.323607  0.227339  1
  As  As8  1  0.868341  0.676393  0.227339  1
  As  As9  1  0.323607  0.131659  0.772661  1
