# generated using pymatgen
data_Ce7Pr(Si3Ru)4
_symmetry_space_group_name_H-M   'P 1'
_cell_length_a   8.22967900
_cell_length_b   8.22968091
_cell_length_c   8.30854400
_cell_angle_alpha   90.00000000
_cell_angle_beta   90.00000000
_cell_angle_gamma   119.99999633
_symmetry_Int_Tables_number   1
_chemical_formula_structural   Ce7Pr(Si3Ru)4
_chemical_formula_sum   'Ce7 Pr1 Si12 Ru4'
_cell_volume   487.32811166
_cell_formula_units_Z   1
loop_
 _symmetry_equiv_pos_site_id
 _symmetry_equiv_pos_as_xyz
  1  'x, y, z'
loop_
 _atom_site_type_symbol
 _atom_site_label
 _atom_site_symmetry_multiplicity
 _atom_site_fract_x
 _atom_site_fract_y
 _atom_site_fract_z
 _atom_site_occupancy
  Ce  Ce0  1  0.499938  0.500062  0.750000  1
  Ce  Ce1  1  0.500097  0.499903  0.250000  1
  Ce  Ce2  1  0.000124  0.500062  0.750000  1
  Ce  Ce3  1  0.999805  0.499903  0.250000  1
  Ce  Ce4  1  0.499938  0.999876  0.750000  1
  Ce  Ce5  1  0.500097  0.000195  0.250000  1
  Ce  Ce6  1  0.000000  0.000000  0.750000  1
  Pr  Pr7  1  0.000000  0.000000  0.250000  1
  Si  Si8  1  0.833695  0.166305  0.996744  1
  Si  Si9  1  0.166335  0.833665  0.996612  1
  Si  Si10  1  0.332608  0.166305  0.996744  1
  Si  Si11  1  0.166335  0.833665  0.503388  1
  Si  Si12  1  0.667333  0.833665  0.996612  1
  Si  Si13  1  0.833695  0.166305  0.503256  1
  Si  Si14  1  0.833695  0.667392  0.996744  1
  Si  Si15  1  0.667333  0.833665  0.503388  1
  Si  Si16  1  0.166335  0.332667  0.996612  1
  Si  Si17  1  0.332608  0.166305  0.503256  1
  Si  Si18  1  0.166335  0.332667  0.503388  1
  Si  Si19  1  0.833695  0.667392  0.503256  1
  Ru  Ru20  1  0.666667  0.333333  0.003395  1
  Ru  Ru21  1  0.333333  0.666667  0.004792  1
  Ru  Ru22  1  0.333333  0.666667  0.495208  1
  Ru  Ru23  1  0.666667  0.333333  0.496605  1
