# generated using pymatgen
data_Ho10Cd3In5Au4
_symmetry_space_group_name_H-M   'P 1'
_cell_length_a   3.62376900
_cell_length_b   8.21022734
_cell_length_c   18.45920481
_cell_angle_alpha   89.94187889
_cell_angle_beta   90.00000000
_cell_angle_gamma   90.00000000
_symmetry_Int_Tables_number   1
_chemical_formula_structural   Ho10Cd3In5Au4
_chemical_formula_sum   'Ho10 Cd3 In5 Au4'
_cell_volume   549.19737575
_cell_formula_units_Z   1
loop_
 _symmetry_equiv_pos_site_id
 _symmetry_equiv_pos_as_xyz
  1  'x, y, z'
loop_
 _atom_site_type_symbol
 _atom_site_label
 _atom_site_symmetry_multiplicity
 _atom_site_fract_x
 _atom_site_fract_y
 _atom_site_fract_z
 _atom_site_occupancy
  Ho  Ho0  1  0.000000  0.501404  0.499382  1
  Ho  Ho1  1  0.000000  0.999912  0.999903  1
  Ho  Ho2  1  0.000000  0.739623  0.283293  1
  Ho  Ho3  1  0.000000  0.261914  0.717574  1
  Ho  Ho4  1  0.000000  0.760128  0.783788  1
  Ho  Ho5  1  0.000000  0.238288  0.216615  1
  Ho  Ho6  1  0.000000  0.615416  0.080448  1
  Ho  Ho7  1  0.000000  0.386303  0.919635  1
  Ho  Ho8  1  0.000000  0.881243  0.580234  1
  Ho  Ho9  1  0.000000  0.114474  0.420075  1
  Cd  Cd10  1  0.500000  0.711563  0.933442  1
  Cd  Cd11  1  0.500000  0.288790  0.066516  1
  Cd  Cd12  1  0.500000  0.787813  0.432878  1
  In  In13  1  0.500000  0.211055  0.566281  1
  In  In14  1  0.500000  0.579684  0.645898  1
  In  In15  1  0.500000  0.422418  0.353776  1
  In  In16  1  0.500000  0.922425  0.145365  1
  In  In17  1  0.500000  0.078377  0.854266  1
  Au  Au18  1  0.500000  0.525816  0.197114  1
  Au  Au19  1  0.500000  0.473913  0.803015  1
  Au  Au20  1  0.500000  0.973277  0.697400  1
  Au  Au21  1  0.500000  0.026165  0.303098  1
