# generated using pymatgen
data_HfTa3(TcOs)2
_symmetry_space_group_name_H-M   'P 1'
_cell_length_a   6.39345400
_cell_length_b   4.54167000
_cell_length_c   9.05871800
_cell_angle_alpha   90.00000000
_cell_angle_beta   90.00006747
_cell_angle_gamma   90.00000000
_symmetry_Int_Tables_number   1
_chemical_formula_structural   HfTa3(TcOs)2
_chemical_formula_sum   'Hf2 Ta6 Tc4 Os4'
_cell_volume   263.03761617
_cell_formula_units_Z   2
loop_
 _symmetry_equiv_pos_site_id
 _symmetry_equiv_pos_as_xyz
  1  'x, y, z'
loop_
 _atom_site_type_symbol
 _atom_site_label
 _atom_site_symmetry_multiplicity
 _atom_site_fract_x
 _atom_site_fract_y
 _atom_site_fract_z
 _atom_site_occupancy
  Hf  Hf0  1  0.499521  0.250001  0.874998  1
  Hf  Hf1  1  0.000363  0.250001  0.875000  1
  Ta  Ta2  1  0.000036  0.750001  0.125412  1
  Ta  Ta3  1  0.500094  0.750001  0.125417  1
  Ta  Ta4  1  0.999752  0.250001  0.374994  1
  Ta  Ta5  1  0.500343  0.250001  0.374999  1
  Ta  Ta6  1  0.499959  0.750001  0.624593  1
  Ta  Ta7  1  0.999904  0.750001  0.624598  1
  Tc  Tc8  1  0.750033  0.250001  0.130254  1
  Tc  Tc9  1  0.250037  0.750001  0.374999  1
  Tc  Tc10  1  0.749943  0.250001  0.619752  1
  Tc  Tc11  1  0.249951  0.750001  0.874999  1
  Os  Os12  1  0.250035  0.250001  0.130026  1
  Os  Os13  1  0.750038  0.750001  0.374995  1
  Os  Os14  1  0.249940  0.250001  0.619966  1
  Os  Os15  1  0.749951  0.750001  0.874995  1
