# generated using pymatgen
data_HoTm15(InRu)4
_symmetry_space_group_name_H-M   'P 1'
_cell_length_a   9.55229599
_cell_length_b   9.55192715
_cell_length_c   9.54542625
_cell_angle_alpha   59.53974724
_cell_angle_beta   59.53994104
_cell_angle_gamma   59.52477304
_symmetry_Int_Tables_number   1
_chemical_formula_structural   HoTm15(InRu)4
_chemical_formula_sum   'Ho1 Tm15 In4 Ru4'
_cell_volume   609.34183791
_cell_formula_units_Z   1
loop_
 _symmetry_equiv_pos_site_id
 _symmetry_equiv_pos_as_xyz
  1  'x, y, z'
loop_
 _atom_site_type_symbol
 _atom_site_label
 _atom_site_symmetry_multiplicity
 _atom_site_fract_x
 _atom_site_fract_y
 _atom_site_fract_z
 _atom_site_occupancy
  Ho  Ho0  1  0.058613  0.058608  0.441913  1
  Tm  Tm1  1  0.442808  0.058971  0.442611  1
  Tm  Tm2  1  0.058587  0.442156  0.058325  1
  Tm  Tm3  1  0.043356  0.651425  0.651870  1
  Tm  Tm4  1  0.442587  0.442579  0.058998  1
  Tm  Tm5  1  0.651434  0.043376  0.651845  1
  Tm  Tm6  1  0.191720  0.811272  0.191675  1
  Tm  Tm7  1  0.191798  0.191806  0.811296  1
  Tm  Tm8  1  0.808869  0.808889  0.191122  1
  Tm  Tm9  1  0.442154  0.058583  0.058321  1
  Tm  Tm10  1  0.811274  0.191720  0.191668  1
  Tm  Tm11  1  0.058972  0.442809  0.442614  1
  Tm  Tm12  1  0.808705  0.191349  0.808877  1
  Tm  Tm13  1  0.191342  0.808708  0.808882  1
  Tm  Tm14  1  0.651685  0.651648  0.043201  1
  Tm  Tm15  1  0.650330  0.650323  0.650425  1
  In  In16  1  0.417006  0.417007  0.417138  1
  In  In17  1  0.748536  0.417864  0.417394  1
  In  In18  1  0.417879  0.748521  0.417392  1
  In  In19  1  0.417460  0.417467  0.748811  1
  Ru  Ru20  1  0.857648  0.857648  0.419217  1
  Ru  Ru21  1  0.860367  0.860363  0.860762  1
  Ru  Ru22  1  0.419072  0.857821  0.857826  1
  Ru  Ru23  1  0.857799  0.419088  0.857816  1
