# generated using pymatgen
data_Er5Tm3Al8
_symmetry_space_group_name_H-M   'P 1'
_cell_length_a   5.56510000
_cell_length_b   5.80789900
_cell_length_c   11.31149000
_cell_angle_alpha   90.00221419
_cell_angle_beta   90.00000000
_cell_angle_gamma   90.00000000
_symmetry_Int_Tables_number   1
_chemical_formula_structural   Er5Tm3Al8
_chemical_formula_sum   'Er5 Tm3 Al8'
_cell_volume   365.60476193
_cell_formula_units_Z   1
loop_
 _symmetry_equiv_pos_site_id
 _symmetry_equiv_pos_as_xyz
  1  'x, y, z'
loop_
 _atom_site_type_symbol
 _atom_site_label
 _atom_site_symmetry_multiplicity
 _atom_site_fract_x
 _atom_site_fract_y
 _atom_site_fract_z
 _atom_site_occupancy
  Er  Er0  1  0.250000  0.161208  0.017072  1
  Er  Er1  1  0.750000  0.838740  0.982848  1
  Er  Er2  1  0.750000  0.161025  0.482957  1
  Er  Er3  1  0.250000  0.838850  0.517273  1
  Er  Er4  1  0.250000  0.398190  0.331058  1
  Tm  Tm5  1  0.750000  0.602277  0.668882  1
  Tm  Tm6  1  0.750000  0.397724  0.168885  1
  Tm  Tm7  1  0.250000  0.602261  0.831051  1
  Al  Al8  1  0.999964  0.930842  0.249942  1
  Al  Al9  1  0.499997  0.068995  0.750011  1
  Al  Al10  1  0.000003  0.068995  0.750011  1
  Al  Al11  1  0.500036  0.930842  0.249942  1
  Al  Al12  1  0.250000  0.659029  0.097091  1
  Al  Al13  1  0.750000  0.341041  0.902770  1
  Al  Al14  1  0.750000  0.659011  0.402842  1
  Al  Al15  1  0.250000  0.340972  0.597365  1
