# generated using pymatgen
data_Eu8Er12Sn15Pb
_symmetry_space_group_name_H-M   'P 1'
_cell_length_a   8.05937501
_cell_length_b   8.20725283
_cell_length_c   15.48933300
_cell_angle_alpha   90.02546711
_cell_angle_beta   89.99788856
_cell_angle_gamma   90.00405697
_symmetry_Int_Tables_number   1
_chemical_formula_structural   Eu8Er12Sn15Pb
_chemical_formula_sum   'Eu8 Er12 Sn15 Pb1'
_cell_volume   1024.54691246
_cell_formula_units_Z   1
loop_
 _symmetry_equiv_pos_site_id
 _symmetry_equiv_pos_as_xyz
  1  'x, y, z'
loop_
 _atom_site_type_symbol
 _atom_site_label
 _atom_site_symmetry_multiplicity
 _atom_site_fract_x
 _atom_site_fract_y
 _atom_site_fract_z
 _atom_site_occupancy
  Eu  Eu0  1  0.511741  0.324340  0.905934  1
  Eu  Eu1  1  0.011245  0.177084  0.593163  1
  Eu  Eu2  1  0.489686  0.677141  0.406950  1
  Eu  Eu3  1  0.986322  0.820322  0.093896  1
  Eu  Eu4  1  0.489719  0.675445  0.093871  1
  Eu  Eu5  1  0.989603  0.823030  0.406732  1
  Eu  Eu6  1  0.510502  0.322516  0.593432  1
  Eu  Eu7  1  0.008824  0.178295  0.905715  1
  Er  Er8  1  0.349816  0.836076  0.875454  1
  Er  Er9  1  0.849222  0.662776  0.623390  1
  Er  Er10  1  0.651625  0.162554  0.376626  1
  Er  Er11  1  0.149480  0.340170  0.124329  1
  Er  Er12  1  0.652092  0.162745  0.123697  1
  Er  Er13  1  0.150869  0.337321  0.376389  1
  Er  Er14  1  0.349442  0.837465  0.623505  1
  Er  Er15  1  0.849861  0.662492  0.876268  1
  Er  Er16  1  0.188395  0.497477  0.749829  1
  Er  Er17  1  0.688360  0.002649  0.749843  1
  Er  Er18  1  0.811508  0.502734  0.250364  1
  Er  Er19  1  0.312229  0.997538  0.251980  1
  Sn  Sn20  1  0.819499  0.459234  0.457746  1
  Sn  Sn21  1  0.681527  0.959189  0.542512  1
  Sn  Sn22  1  0.181862  0.540642  0.957279  1
  Sn  Sn23  1  0.681397  0.959345  0.957268  1
  Sn  Sn24  1  0.180830  0.540941  0.542359  1
  Sn  Sn25  1  0.319246  0.040927  0.457981  1
  Sn  Sn26  1  0.818514  0.458899  0.042136  1
  Sn  Sn27  1  0.549419  0.622299  0.749585  1
  Sn  Sn28  1  0.049101  0.877559  0.749832  1
  Sn  Sn29  1  0.451255  0.376896  0.250266  1
  Sn  Sn30  1  0.951898  0.122390  0.249472  1
  Sn  Sn31  1  0.317258  0.138136  0.750173  1
  Sn  Sn32  1  0.817496  0.362111  0.749502  1
  Sn  Sn33  1  0.681833  0.862007  0.250256  1
  Sn  Sn34  1  0.182541  0.638827  0.250112  1
  Pb  Pb35  1  0.315782  0.040426  0.042151  1
