# generated using pymatgen
data_Th3Mg(Pd5Pt)2
_symmetry_space_group_name_H-M   'P 1'
_cell_length_a   5.88709042
_cell_length_b   5.88708972
_cell_length_c   9.65060100
_cell_angle_alpha   90.00000000
_cell_angle_beta   90.00000000
_cell_angle_gamma   120.12345212
_symmetry_Int_Tables_number   1
_chemical_formula_structural   Th3Mg(Pd5Pt)2
_chemical_formula_sum   'Th3 Mg1 Pd10 Pt2'
_cell_volume   289.29754716
_cell_formula_units_Z   1
loop_
 _symmetry_equiv_pos_site_id
 _symmetry_equiv_pos_as_xyz
  1  'x, y, z'
loop_
 _atom_site_type_symbol
 _atom_site_label
 _atom_site_symmetry_multiplicity
 _atom_site_fract_x
 _atom_site_fract_y
 _atom_site_fract_z
 _atom_site_occupancy
  Th  Th0  1  0.999617  0.000383  0.492860  1
  Th  Th1  1  0.999617  0.000383  0.007140  1
  Th  Th2  1  0.667208  0.332792  0.750000  1
  Mg  Mg3  1  0.333461  0.666539  0.250000  1
  Pd  Pd4  1  0.497928  0.502072  0.494646  1
  Pd  Pd5  1  0.497534  0.995995  0.494346  1
  Pd  Pd6  1  0.004005  0.502466  0.494346  1
  Pd  Pd7  1  0.497928  0.502072  0.005354  1
  Pd  Pd8  1  0.497534  0.995995  0.005654  1
  Pd  Pd9  1  0.004005  0.502466  0.005654  1
  Pd  Pd10  1  0.824873  0.649572  0.250000  1
  Pd  Pd11  1  0.350428  0.175127  0.250000  1
  Pd  Pd12  1  0.825408  0.174592  0.250000  1
  Pd  Pd13  1  0.172940  0.827060  0.750000  1
  Pt  Pt14  1  0.172966  0.345452  0.750000  1
  Pt  Pt15  1  0.654548  0.827034  0.750000  1
