# generated using pymatgen
data_Li2P7(Ru3Pt)3
_symmetry_space_group_name_H-M   'P 1'
_cell_length_a   9.47057400
_cell_length_b   9.47057342
_cell_length_c   3.89128300
_cell_angle_alpha   90.00000000
_cell_angle_beta   90.00000000
_cell_angle_gamma   120.00000203
_symmetry_Int_Tables_number   1
_chemical_formula_structural   Li2P7(Ru3Pt)3
_chemical_formula_sum   'Li2 P7 Ru9 Pt3'
_cell_volume   302.25675574
_cell_formula_units_Z   1
loop_
 _symmetry_equiv_pos_site_id
 _symmetry_equiv_pos_as_xyz
  1  'x, y, z'
loop_
 _atom_site_type_symbol
 _atom_site_label
 _atom_site_symmetry_multiplicity
 _atom_site_fract_x
 _atom_site_fract_y
 _atom_site_fract_z
 _atom_site_occupancy
  Li  Li0  1  0.000000  0.000000  0.000000  1
  Li  Li1  1  0.333333  0.666667  0.500000  1
  P  P2  1  0.666667  0.333333  0.000000  1
  P  P3  1  0.079637  0.640555  0.000000  1
  P  P4  1  0.560920  0.920363  0.000000  1
  P  P5  1  0.359445  0.439080  0.000000  1
  P  P6  1  0.802709  0.742756  0.500000  1
  P  P7  1  0.940047  0.197291  0.500000  1
  P  P8  1  0.257244  0.059953  0.500000  1
  Ru  Ru9  1  0.827131  0.607622  0.000000  1
  Ru  Ru10  1  0.780492  0.172869  0.000000  1
  Ru  Ru11  1  0.392378  0.219508  0.000000  1
  Ru  Ru12  1  0.067886  0.779070  0.500000  1
  Ru  Ru13  1  0.711184  0.932114  0.500000  1
  Ru  Ru14  1  0.220930  0.288816  0.500000  1
  Ru  Ru15  1  0.883081  0.418358  0.500000  1
  Ru  Ru16  1  0.535277  0.116919  0.500000  1
  Ru  Ru17  1  0.581642  0.464723  0.500000  1
  Pt  Pt18  1  0.103927  0.414189  0.000000  1
  Pt  Pt19  1  0.310261  0.896073  0.000000  1
  Pt  Pt20  1  0.585811  0.689739  0.000000  1
