# generated using pymatgen
data_TbY8ErIr4
_symmetry_space_group_name_H-M   'P 1'
_cell_length_a   6.51012776
_cell_length_b   7.24947816
_cell_length_c   8.55665233
_cell_angle_alpha   96.72414051
_cell_angle_beta   112.35927488
_cell_angle_gamma   89.99999627
_symmetry_Int_Tables_number   1
_chemical_formula_structural   TbY8ErIr4
_chemical_formula_sum   'Tb1 Y8 Er1 Ir4'
_cell_volume   370.46468121
_cell_formula_units_Z   1
loop_
 _symmetry_equiv_pos_site_id
 _symmetry_equiv_pos_as_xyz
  1  'x, y, z'
loop_
 _atom_site_type_symbol
 _atom_site_label
 _atom_site_symmetry_multiplicity
 _atom_site_fract_x
 _atom_site_fract_y
 _atom_site_fract_z
 _atom_site_occupancy
  Tb  Tb0  1  0.572070  0.250000  0.000000  1
  Y  Y1  1  0.973464  0.916350  0.182459  1
  Y  Y2  1  0.791006  0.583650  0.817541  1
  Y  Y3  1  0.027382  0.082149  0.817092  1
  Y  Y4  1  0.210289  0.417851  0.182908  1
  Y  Y5  1  0.652045  0.816742  0.440103  1
  Y  Y6  1  0.211943  0.683258  0.559897  1
  Y  Y7  1  0.346521  0.182716  0.558624  1
  Y  Y8  1  0.787896  0.317284  0.441376  1
  Er  Er9  1  0.429622  0.750000  0.000000  1
  Ir  Ir10  1  0.821409  0.574081  0.217769  1
  Ir  Ir11  1  0.603640  0.925919  0.782231  1
  Ir  Ir12  1  0.177394  0.428463  0.782074  1
  Ir  Ir13  1  0.395319  0.071537  0.217926  1
