# generated using pymatgen
data_DyLu5(Co3P2)6
_symmetry_space_group_name_H-M   'P 1'
_cell_length_a   3.66099600
_cell_length_b   10.46035700
_cell_length_c   12.08833200
_cell_angle_alpha   90.00000000
_cell_angle_beta   90.00000000
_cell_angle_gamma   90.00000000
_symmetry_Int_Tables_number   1
_chemical_formula_structural   DyLu5(Co3P2)6
_chemical_formula_sum   'Dy1 Lu5 Co18 P12'
_cell_volume   462.92660429
_cell_formula_units_Z   1
loop_
 _symmetry_equiv_pos_site_id
 _symmetry_equiv_pos_as_xyz
  1  'x, y, z'
loop_
 _atom_site_type_symbol
 _atom_site_label
 _atom_site_symmetry_multiplicity
 _atom_site_fract_x
 _atom_site_fract_y
 _atom_site_fract_z
 _atom_site_occupancy
  Dy  Dy0  1  0.000000  0.500000  0.522977  1
  Lu  Lu1  1  0.500000  0.000000  0.477085  1
  Lu  Lu2  1  0.500000  0.818543  0.206069  1
  Lu  Lu3  1  0.500000  0.181457  0.206069  1
  Lu  Lu4  1  0.000000  0.682013  0.794386  1
  Lu  Lu5  1  0.000000  0.317987  0.794386  1
  Co  Co6  1  0.500000  0.500000  0.158895  1
  Co  Co7  1  0.000000  0.000000  0.839975  1
  Co  Co8  1  0.500000  0.500000  0.704674  1
  Co  Co9  1  0.000000  0.000000  0.296782  1
  Co  Co10  1  0.000000  0.500000  0.986596  1
  Co  Co11  1  0.500000  0.000000  0.014083  1
  Co  Co12  1  0.500000  0.332795  0.994420  1
  Co  Co13  1  0.500000  0.667205  0.994420  1
  Co  Co14  1  0.000000  0.166674  0.005518  1
  Co  Co15  1  0.000000  0.833326  0.005518  1
  Co  Co16  1  0.500000  0.296017  0.430479  1
  Co  Co17  1  0.500000  0.703983  0.430479  1
  Co  Co18  1  0.000000  0.201241  0.569330  1
  Co  Co19  1  0.000000  0.798759  0.569330  1
  Co  Co20  1  0.500000  0.878492  0.709468  1
  Co  Co21  1  0.500000  0.121508  0.709468  1
  Co  Co22  1  0.000000  0.622270  0.290019  1
  Co  Co23  1  0.000000  0.377730  0.290019  1
  P  P24  1  0.500000  0.500000  0.882395  1
  P  P25  1  0.000000  0.000000  0.118357  1
  P  P26  1  0.500000  0.500000  0.344051  1
  P  P27  1  0.000000  0.000000  0.653940  1
  P  P28  1  0.500000  0.310881  0.617561  1
  P  P29  1  0.500000  0.689119  0.617561  1
  P  P30  1  0.000000  0.187398  0.383104  1
  P  P31  1  0.000000  0.812602  0.383104  1
  P  P32  1  0.500000  0.846831  0.891781  1
  P  P33  1  0.500000  0.153169  0.891781  1
  P  P34  1  0.000000  0.654042  0.107960  1
  P  P35  1  0.000000  0.345958  0.107960  1
