# generated using pymatgen
data_Pr3Ge2BRh6
_symmetry_space_group_name_H-M   'P 1'
_cell_length_a   5.63281300
_cell_length_b   5.63281312
_cell_length_c   15.25141100
_cell_angle_alpha   90.00000000
_cell_angle_beta   90.00000000
_cell_angle_gamma   120.00000518
_symmetry_Int_Tables_number   1
_chemical_formula_structural   Pr3Ge2BRh6
_chemical_formula_sum   'Pr6 Ge4 B2 Rh12'
_cell_volume   419.07457194
_cell_formula_units_Z   2
loop_
 _symmetry_equiv_pos_site_id
 _symmetry_equiv_pos_as_xyz
  1  'x, y, z'
loop_
 _atom_site_type_symbol
 _atom_site_label
 _atom_site_symmetry_multiplicity
 _atom_site_fract_x
 _atom_site_fract_y
 _atom_site_fract_z
 _atom_site_occupancy
  Pr  Pr0  1  0.666667  0.333333  0.969827  1
  Pr  Pr1  1  0.666667  0.333333  0.530173  1
  Pr  Pr2  1  0.333333  0.666667  0.046722  1
  Pr  Pr3  1  0.666667  0.333333  0.750000  1
  Pr  Pr4  1  0.333333  0.666667  0.453278  1
  Pr  Pr5  1  0.333333  0.666667  0.250000  1
  Ge  Ge6  1  0.000000  0.000000  0.485597  1
  Ge  Ge7  1  0.000000  0.000000  0.750000  1
  Ge  Ge8  1  0.333333  0.666667  0.750000  1
  Ge  Ge9  1  0.000000  0.000000  0.014403  1
  B  B10  1  0.666667  0.333333  0.250000  1
  B  B11  1  0.000000  0.000000  0.250000  1
  Rh  Rh12  1  0.166689  0.333378  0.876001  1
  Rh  Rh13  1  0.166689  0.333378  0.623999  1
  Rh  Rh14  1  0.666622  0.833311  0.876001  1
  Rh  Rh15  1  0.331670  0.165835  0.345790  1
  Rh  Rh16  1  0.834165  0.668330  0.345790  1
  Rh  Rh17  1  0.834165  0.165835  0.345790  1
  Rh  Rh18  1  0.834165  0.165835  0.154210  1
  Rh  Rh19  1  0.331670  0.165835  0.154210  1
  Rh  Rh20  1  0.666622  0.833311  0.623999  1
  Rh  Rh21  1  0.166689  0.833311  0.623999  1
  Rh  Rh22  1  0.834165  0.668330  0.154210  1
  Rh  Rh23  1  0.166689  0.833311  0.876001  1
