# generated using pymatgen
data_Ti4GeAsRh10
_symmetry_space_group_name_H-M   'P 1'
_cell_length_a   3.97268500
_cell_length_b   5.45508610
_cell_length_c   10.64922715
_cell_angle_alpha   89.92717200
_cell_angle_beta   90.00000000
_cell_angle_gamma   90.00000000
_symmetry_Int_Tables_number   1
_chemical_formula_structural   Ti4GeAsRh10
_chemical_formula_sum   'Ti4 Ge1 As1 Rh10'
_cell_volume   230.78282236
_cell_formula_units_Z   1
loop_
 _symmetry_equiv_pos_site_id
 _symmetry_equiv_pos_as_xyz
  1  'x, y, z'
loop_
 _atom_site_type_symbol
 _atom_site_label
 _atom_site_symmetry_multiplicity
 _atom_site_fract_x
 _atom_site_fract_y
 _atom_site_fract_z
 _atom_site_occupancy
  Ti  Ti0  1  0.500000  0.327503  0.144158  1
  Ti  Ti1  1  0.500000  0.672497  0.855842  1
  Ti  Ti2  1  0.500000  0.823271  0.359346  1
  Ti  Ti3  1  0.500000  0.176729  0.640654  1
  Ge  Ge4  1  0.000000  0.500000  0.500000  1
  As  As5  1  0.000000  0.000000  0.000000  1
  Rh  Rh6  1  0.000000  0.000000  0.500000  1
  Rh  Rh7  1  0.000000  0.500000  0.000000  1
  Rh  Rh8  1  0.000000  0.070490  0.242143  1
  Rh  Rh9  1  0.000000  0.929510  0.757857  1
  Rh  Rh10  1  0.000000  0.570908  0.256885  1
  Rh  Rh11  1  0.000000  0.429092  0.743115  1
  Rh  Rh12  1  0.500000  0.305974  0.391406  1
  Rh  Rh13  1  0.500000  0.694026  0.608594  1
  Rh  Rh14  1  0.500000  0.807409  0.106850  1
  Rh  Rh15  1  0.500000  0.192591  0.893150  1
