# generated using pymatgen
data_La7HoLu2Si8O3
_symmetry_space_group_name_H-M   'P 1'
_cell_length_a   10.76034000
_cell_length_b   10.74484861
_cell_length_c   4.50377700
_cell_angle_alpha   90.00000000
_cell_angle_beta   90.00000000
_cell_angle_gamma   120.04771035
_symmetry_Int_Tables_number   1
_chemical_formula_structural   La7HoLu2Si8O3
_chemical_formula_sum   'La7 Ho1 Lu2 Si8 O3'
_cell_volume   450.73866369
_cell_formula_units_Z   1
loop_
 _symmetry_equiv_pos_site_id
 _symmetry_equiv_pos_as_xyz
  1  'x, y, z'
loop_
 _atom_site_type_symbol
 _atom_site_label
 _atom_site_symmetry_multiplicity
 _atom_site_fract_x
 _atom_site_fract_y
 _atom_site_fract_z
 _atom_site_occupancy
  La  La0  1  0.211801  0.787649  0.000000  1
  La  La1  1  0.575848  0.787649  0.000000  1
  La  La2  1  0.787814  0.575630  0.000000  1
  La  La3  1  0.000000  0.000000  0.000000  1
  La  La4  1  0.212186  0.424370  0.000000  1
  La  La5  1  0.424152  0.212351  0.000000  1
  La  La6  1  0.788199  0.212351  0.000000  1
  Ho  Ho7  1  0.500000  0.000000  0.500000  1
  Lu  Lu8  1  0.000000  0.500000  0.500000  1
  Lu  Lu9  1  0.500000  0.500000  0.500000  1
  Si  Si10  1  0.999708  0.775245  0.500000  1
  Si  Si11  1  0.000292  0.224755  0.500000  1
  Si  Si12  1  0.224464  0.224755  0.500000  1
  Si  Si13  1  0.775846  0.000000  0.500000  1
  Si  Si14  1  0.332047  0.664094  0.500000  1
  Si  Si15  1  0.224154  0.000000  0.500000  1
  Si  Si16  1  0.667953  0.335906  0.500000  1
  Si  Si17  1  0.775536  0.775245  0.500000  1
  O  O18  1  0.000000  0.500000  0.000000  1
  O  O19  1  0.500000  0.500000  0.000000  1
  O  O20  1  0.500000  0.000000  0.000000  1
