# generated using pymatgen
data_Tb2Ho7Er(In2Pd)4
_symmetry_space_group_name_H-M   'P 1'
_cell_length_a   3.60692600
_cell_length_b   8.16150616
_cell_length_c   18.27483736
_cell_angle_alpha   90.02281938
_cell_angle_beta   90.00000000
_cell_angle_gamma   90.00000000
_symmetry_Int_Tables_number   1
_chemical_formula_structural   Tb2Ho7Er(In2Pd)4
_chemical_formula_sum   'Tb2 Ho7 Er1 In8 Pd4'
_cell_volume   537.97368346
_cell_formula_units_Z   1
loop_
 _symmetry_equiv_pos_site_id
 _symmetry_equiv_pos_as_xyz
  1  'x, y, z'
loop_
 _atom_site_type_symbol
 _atom_site_label
 _atom_site_symmetry_multiplicity
 _atom_site_fract_x
 _atom_site_fract_y
 _atom_site_fract_z
 _atom_site_occupancy
  Tb  Tb0  1  0.000000  0.499788  0.500014  1
  Tb  Tb1  1  0.000000  0.999908  0.000084  1
  Ho  Ho2  1  0.000000  0.739350  0.281126  1
  Ho  Ho3  1  0.000000  0.260586  0.719088  1
  Ho  Ho4  1  0.000000  0.760857  0.780754  1
  Ho  Ho5  1  0.000000  0.239271  0.219307  1
  Ho  Ho6  1  0.000000  0.617595  0.083872  1
  Ho  Ho7  1  0.000000  0.382266  0.916296  1
  Ho  Ho8  1  0.000000  0.882044  0.583397  1
  Er  Er9  1  0.000000  0.117524  0.416200  1
  In  In10  1  0.500000  0.707638  0.932359  1
  In  In11  1  0.500000  0.292225  0.067688  1
  In  In12  1  0.500000  0.793072  0.432332  1
  In  In13  1  0.500000  0.207517  0.567734  1
  In  In14  1  0.500000  0.581105  0.650401  1
  In  In15  1  0.500000  0.418625  0.349812  1
  In  In16  1  0.500000  0.919062  0.150591  1
  In  In17  1  0.500000  0.080903  0.849472  1
  Pd  Pd18  1  0.500000  0.522706  0.196696  1
  Pd  Pd19  1  0.500000  0.476701  0.803236  1
  Pd  Pd20  1  0.500000  0.977003  0.695288  1
  Pd  Pd21  1  0.500000  0.024255  0.304254  1
