# generated using pymatgen
data_Zr6Co3Ni17P13
_symmetry_space_group_name_H-M   'P 1'
_cell_length_a   12.50636700
_cell_length_b   12.50636802
_cell_length_c   3.63760300
_cell_angle_alpha   90.00000000
_cell_angle_beta   90.00000000
_cell_angle_gamma   119.99999465
_symmetry_Int_Tables_number   1
_chemical_formula_structural   Zr6Co3Ni17P13
_chemical_formula_sum   'Zr6 Co3 Ni17 P13'
_cell_volume   492.72923146
_cell_formula_units_Z   1
loop_
 _symmetry_equiv_pos_site_id
 _symmetry_equiv_pos_as_xyz
  1  'x, y, z'
loop_
 _atom_site_type_symbol
 _atom_site_label
 _atom_site_symmetry_multiplicity
 _atom_site_fract_x
 _atom_site_fract_y
 _atom_site_fract_z
 _atom_site_occupancy
  Zr  Zr0  1  0.807548  0.948638  0.000000  1
  Zr  Zr1  1  0.051362  0.858911  0.000000  1
  Zr  Zr2  1  0.141089  0.192452  0.000000  1
  Zr  Zr3  1  0.524815  0.142381  0.500000  1
  Zr  Zr4  1  0.857619  0.382434  0.500000  1
  Zr  Zr5  1  0.617566  0.475185  0.500000  1
  Co  Co6  1  0.530675  0.770279  0.000000  1
  Co  Co7  1  0.229721  0.760396  0.000000  1
  Co  Co8  1  0.239604  0.469325  0.000000  1
  Ni  Ni9  1  0.000000  0.000000  0.500000  1
  Ni  Ni10  1  0.410111  0.824949  0.500000  1
  Ni  Ni11  1  0.175051  0.585161  0.500000  1
  Ni  Ni12  1  0.414839  0.589889  0.500000  1
  Ni  Ni13  1  0.666667  0.333333  0.000000  1
  Ni  Ni14  1  0.771628  0.686583  0.000000  1
  Ni  Ni15  1  0.313417  0.085045  0.000000  1
  Ni  Ni16  1  0.914955  0.228372  0.000000  1
  Ni  Ni17  1  0.657283  0.738488  0.500000  1
  Ni  Ni18  1  0.261512  0.918796  0.500000  1
  Ni  Ni19  1  0.081204  0.342717  0.500000  1
  Ni  Ni20  1  0.353365  0.255151  0.500000  1
  Ni  Ni21  1  0.744849  0.098214  0.500000  1
  Ni  Ni22  1  0.901786  0.646635  0.500000  1
  Ni  Ni23  1  0.575476  0.991221  0.000000  1
  Ni  Ni24  1  0.008779  0.584255  0.000000  1
  Ni  Ni25  1  0.415745  0.424524  0.000000  1
  P  P26  1  0.861469  0.806650  0.500000  1
  P  P27  1  0.193350  0.054819  0.500000  1
  P  P28  1  0.945181  0.138531  0.500000  1
  P  P29  1  0.614456  0.894402  0.500000  1
  P  P30  1  0.105598  0.720053  0.500000  1
  P  P31  1  0.279947  0.385544  0.500000  1
  P  P32  1  0.473060  0.281011  0.000000  1
  P  P33  1  0.718989  0.192050  0.000000  1
  P  P34  1  0.807950  0.526940  0.000000  1
  P  P35  1  0.383573  0.950921  0.000000  1
  P  P36  1  0.049079  0.432653  0.000000  1
  P  P37  1  0.567347  0.616427  0.000000  1
  P  P38  1  0.333333  0.666667  0.000000  1
