# generated using pymatgen
data_La6ZnGe3Ir4
_symmetry_space_group_name_H-M   'P 1'
_cell_length_a   5.79484900
_cell_length_b   8.34304300
_cell_length_c   13.62411700
_cell_angle_alpha   90.00000000
_cell_angle_beta   90.00000000
_cell_angle_gamma   90.00000000
_symmetry_Int_Tables_number   1
_chemical_formula_structural   La6ZnGe3Ir4
_chemical_formula_sum   'La12 Zn2 Ge6 Ir8'
_cell_volume   658.68074839
_cell_formula_units_Z   2
loop_
 _symmetry_equiv_pos_site_id
 _symmetry_equiv_pos_as_xyz
  1  'x, y, z'
loop_
 _atom_site_type_symbol
 _atom_site_label
 _atom_site_symmetry_multiplicity
 _atom_site_fract_x
 _atom_site_fract_y
 _atom_site_fract_z
 _atom_site_occupancy
  La  La0  1  0.147089  0.893157  0.597675  1
  La  La1  1  0.852911  0.106843  0.097675  1
  La  La2  1  0.147089  0.606843  0.402325  1
  La  La3  1  0.852911  0.393157  0.902325  1
  La  La4  1  0.842088  0.100331  0.401741  1
  La  La5  1  0.157912  0.899669  0.901741  1
  La  La6  1  0.842088  0.399669  0.598259  1
  La  La7  1  0.157912  0.600331  0.098259  1
  La  La8  1  0.364097  0.254998  0.748447  1
  La  La9  1  0.635903  0.745002  0.248447  1
  La  La10  1  0.364097  0.245002  0.251553  1
  La  La11  1  0.635903  0.754998  0.751553  1
  Zn  Zn12  1  0.367179  0.250000  0.500000  1
  Zn  Zn13  1  0.632821  0.750000  0.000000  1
  Ge  Ge14  1  0.857982  0.106681  0.750842  1
  Ge  Ge15  1  0.142018  0.893319  0.250842  1
  Ge  Ge16  1  0.857982  0.393319  0.249158  1
  Ge  Ge17  1  0.142018  0.606681  0.749158  1
  Ge  Ge18  1  0.633612  0.750000  0.500000  1
  Ge  Ge19  1  0.366388  0.250000  0.000000  1
  Ir  Ir20  1  0.632939  0.030194  0.594599  1
  Ir  Ir21  1  0.367061  0.969806  0.094599  1
  Ir  Ir22  1  0.632939  0.469806  0.405401  1
  Ir  Ir23  1  0.367061  0.530194  0.905401  1
  Ir  Ir24  1  0.367328  0.967147  0.410314  1
  Ir  Ir25  1  0.632672  0.032853  0.910314  1
  Ir  Ir26  1  0.367328  0.532853  0.589686  1
  Ir  Ir27  1  0.632672  0.467147  0.089686  1
