# generated using pymatgen
data_Y8TaTi(Si8W5)2
_symmetry_space_group_name_H-M   'P 1'
_cell_length_a   6.90351329
_cell_length_b   6.90351366
_cell_length_c   12.84448603
_cell_angle_alpha   89.97245503
_cell_angle_beta   90.02754401
_cell_angle_gamma   90.36863378
_symmetry_Int_Tables_number   1
_chemical_formula_structural   Y8TaTi(Si8W5)2
_chemical_formula_sum   'Y8 Ta1 Ti1 Si16 W10'
_cell_volume   612.13610522
_cell_formula_units_Z   1
loop_
 _symmetry_equiv_pos_site_id
 _symmetry_equiv_pos_as_xyz
  1  'x, y, z'
loop_
 _atom_site_type_symbol
 _atom_site_label
 _atom_site_symmetry_multiplicity
 _atom_site_fract_x
 _atom_site_fract_y
 _atom_site_fract_z
 _atom_site_occupancy
  Y  Y0  1  0.335366  0.999397  0.469003  1
  Y  Y1  1  0.500938  0.837395  0.718379  1
  Y  Y2  1  0.497936  0.161806  0.218892  1
  Y  Y3  1  0.837395  0.500938  0.281621  1
  Y  Y4  1  0.161806  0.497936  0.781108  1
  Y  Y5  1  0.664562  0.000790  0.968882  1
  Y  Y6  1  0.999397  0.335366  0.530997  1
  Y  Y7  1  0.000790  0.664562  0.031118  1
  Ta  Ta8  1  0.332313  0.332313  0.000000  1
  Ti  Ti9  1  0.668706  0.668706  0.500000  1
  Si  Si10  1  0.198987  0.124869  0.683585  1
  Si  Si11  1  0.374087  0.705519  0.932864  1
  Si  Si12  1  0.626980  0.295705  0.434154  1
  Si  Si13  1  0.705519  0.374087  0.067136  1
  Si  Si14  1  0.295705  0.626980  0.565846  1
  Si  Si15  1  0.800305  0.874898  0.184788  1
  Si  Si16  1  0.124869  0.198987  0.316415  1
  Si  Si17  1  0.874898  0.800305  0.815212  1
  Si  Si18  1  0.289448  0.961216  0.064986  1
  Si  Si19  1  0.534686  0.789995  0.312406  1
  Si  Si20  1  0.466246  0.209082  0.810283  1
  Si  Si21  1  0.789995  0.534686  0.687594  1
  Si  Si22  1  0.209082  0.466246  0.189717  1
  Si  Si23  1  0.709211  0.038709  0.565134  1
  Si  Si24  1  0.961216  0.289448  0.935014  1
  Si  Si25  1  0.038709  0.709211  0.434866  1
  W  W26  1  0.165931  0.834760  0.249144  1
  W  W27  1  0.834760  0.165931  0.750856  1
  W  W28  1  0.168500  0.002473  0.874300  1
  W  W29  1  0.495788  0.659717  0.123425  1
  W  W30  1  0.502729  0.341830  0.622840  1
  W  W31  1  0.659717  0.495788  0.876575  1
  W  W32  1  0.341830  0.502729  0.377160  1
  W  W33  1  0.832843  0.996271  0.375836  1
  W  W34  1  0.002473  0.168500  0.125700  1
  W  W35  1  0.996271  0.832843  0.624164  1
