# generated using pymatgen
data_TmLu3Al18Ir5Pt
_symmetry_space_group_name_H-M   'P 1'
_cell_length_a   7.53747227
_cell_length_b   7.53932729
_cell_length_c   9.40174901
_cell_angle_alpha   89.96696423
_cell_angle_beta   89.96502340
_cell_angle_gamma   119.61875487
_symmetry_Int_Tables_number   1
_chemical_formula_structural   TmLu3Al18Ir5Pt
_chemical_formula_sum   'Tm1 Lu3 Al18 Ir5 Pt1'
_cell_volume   464.46494323
_cell_formula_units_Z   1
loop_
 _symmetry_equiv_pos_site_id
 _symmetry_equiv_pos_as_xyz
  1  'x, y, z'
loop_
 _atom_site_type_symbol
 _atom_site_label
 _atom_site_symmetry_multiplicity
 _atom_site_fract_x
 _atom_site_fract_y
 _atom_site_fract_z
 _atom_site_occupancy
  Tm  Tm0  1  0.995244  0.671117  0.250914  1
  Lu  Lu1  1  0.004887  0.328940  0.749089  1
  Lu  Lu2  1  0.671075  0.995387  0.250889  1
  Lu  Lu3  1  0.328467  0.004441  0.749004  1
  Al  Al4  1  0.127706  0.127160  0.250289  1
  Al  Al5  1  0.873038  0.872350  0.749695  1
  Al  Al6  1  0.003208  0.334888  0.076852  1
  Al  Al7  1  0.002677  0.668221  0.922729  1
  Al  Al8  1  0.000405  0.664793  0.575684  1
  Al  Al9  1  0.335665  0.999906  0.424933  1
  Al  Al10  1  0.000141  0.334332  0.424250  1
  Al  Al11  1  0.665236  0.999871  0.575799  1
  Al  Al12  1  0.664688  0.996808  0.923116  1
  Al  Al13  1  0.332262  0.997676  0.076688  1
  Al  Al14  1  0.332596  0.332386  0.554042  1
  Al  Al15  1  0.667345  0.667418  0.446214  1
  Al  Al16  1  0.666571  0.670031  0.056970  1
  Al  Al17  1  0.329979  0.333200  0.942744  1
  Al  Al18  1  0.340364  0.549683  0.250386  1
  Al  Al19  1  0.660111  0.452409  0.747609  1
  Al  Al20  1  0.547071  0.339467  0.252438  1
  Al  Al21  1  0.450440  0.660066  0.749613  1
  Ir  Ir22  1  0.327775  0.672038  0.999917  1
  Ir  Ir23  1  0.327952  0.671869  0.500092  1
  Ir  Ir24  1  0.672454  0.327591  0.500110  1
  Ir  Ir25  1  0.999911  0.000320  0.999867  1
  Ir  Ir26  1  0.000301  0.999903  0.500124  1
  Pt  Pt27  1  0.672430  0.327729  0.999941  1
