# generated using pymatgen
data_HfZr3Ti2(NbP2)2
_symmetry_space_group_name_H-M   'P 1'
_cell_length_a   3.56047800
_cell_length_b   6.82989968
_cell_length_c   8.28840048
_cell_angle_alpha   90.11903817
_cell_angle_beta   90.00000000
_cell_angle_gamma   90.00000000
_symmetry_Int_Tables_number   1
_chemical_formula_structural   HfZr3Ti2(NbP2)2
_chemical_formula_sum   'Hf1 Zr3 Ti2 Nb2 P4'
_cell_volume   201.55446391
_cell_formula_units_Z   1
loop_
 _symmetry_equiv_pos_site_id
 _symmetry_equiv_pos_as_xyz
  1  'x, y, z'
loop_
 _atom_site_type_symbol
 _atom_site_label
 _atom_site_symmetry_multiplicity
 _atom_site_fract_x
 _atom_site_fract_y
 _atom_site_fract_z
 _atom_site_occupancy
  Hf  Hf0  1  0.750000  0.964643  0.331701  1
  Zr  Zr1  1  0.250000  0.034504  0.667095  1
  Zr  Zr2  1  0.250000  0.536059  0.831582  1
  Zr  Zr3  1  0.750000  0.465761  0.169066  1
  Ti  Ti4  1  0.750000  0.863586  0.941402  1
  Ti  Ti5  1  0.250000  0.637144  0.440512  1
  Nb  Nb6  1  0.750000  0.362198  0.559361  1
  Nb  Nb7  1  0.250000  0.136917  0.060138  1
  P  P8  1  0.250000  0.262313  0.358592  1
  P  P9  1  0.250000  0.762657  0.141881  1
  P  P10  1  0.750000  0.738477  0.640074  1
  P  P11  1  0.750000  0.235742  0.858599  1
