# generated using pymatgen
data_La2Tm18Si15Au
_symmetry_space_group_name_H-M   'P 1'
_cell_length_a   7.33425777
_cell_length_b   7.67415943
_cell_length_c   14.47124700
_cell_angle_alpha   89.59662753
_cell_angle_beta   89.92214483
_cell_angle_gamma   89.94676390
_symmetry_Int_Tables_number   1
_chemical_formula_structural   La2Tm18Si15Au
_chemical_formula_sum   'La2 Tm18 Si15 Au1'
_cell_volume   814.48219660
_cell_formula_units_Z   1
loop_
 _symmetry_equiv_pos_site_id
 _symmetry_equiv_pos_as_xyz
  1  'x, y, z'
loop_
 _atom_site_type_symbol
 _atom_site_label
 _atom_site_symmetry_multiplicity
 _atom_site_fract_x
 _atom_site_fract_y
 _atom_site_fract_z
 _atom_site_occupancy
  La  La0  1  0.519526  0.572962  0.340325  1
  La  La1  1  0.020325  0.425117  0.658153  1
  Tm  Tm2  1  0.816311  0.574945  0.874227  1
  Tm  Tm3  1  0.314424  0.423131  0.126083  1
  Tm  Tm4  1  0.181046  0.926585  0.374074  1
  Tm  Tm5  1  0.679987  0.069510  0.626490  1
  Tm  Tm6  1  0.181741  0.925288  0.627675  1
  Tm  Tm7  1  0.680137  0.072189  0.371578  1
  Tm  Tm8  1  0.821475  0.569891  0.127718  1
  Tm  Tm9  1  0.320396  0.428160  0.872680  1
  Tm  Tm10  1  0.647694  0.232982  0.998573  1
  Tm  Tm11  1  0.152257  0.762316  0.001373  1
  Tm  Tm12  1  0.348112  0.260506  0.499678  1
  Tm  Tm13  1  0.848644  0.737793  0.500025  1
  Tm  Tm14  1  0.478591  0.933842  0.844256  1
  Tm  Tm15  1  0.978756  0.070903  0.154172  1
  Tm  Tm16  1  0.474652  0.937389  0.154251  1
  Tm  Tm17  1  0.976001  0.068842  0.847390  1
  Tm  Tm18  1  0.524915  0.566054  0.651473  1
  Tm  Tm19  1  0.024726  0.432867  0.347970  1
  Si  Si20  1  0.020918  0.353345  0.000640  1
  Si  Si21  1  0.478056  0.859802  0.501041  1
  Si  Si22  1  0.976139  0.136309  0.499281  1
  Si  Si23  1  0.653234  0.277576  0.791086  1
  Si  Si24  1  0.153651  0.722480  0.208633  1
  Si  Si25  1  0.343616  0.214339  0.287136  1
  Si  Si26  1  0.847385  0.785241  0.713562  1
  Si  Si27  1  0.357519  0.216628  0.710773  1
  Si  Si28  1  0.860009  0.783220  0.288464  1
  Si  Si29  1  0.648782  0.269987  0.205488  1
  Si  Si30  1  0.149287  0.729439  0.794492  1
  Si  Si31  1  0.780219  0.884347  0.000835  1
  Si  Si32  1  0.265023  0.124278  0.999137  1
  Si  Si33  1  0.228897  0.622720  0.501979  1
  Si  Si34  1  0.727718  0.375698  0.498163  1
  Au  Au35  1  0.519829  0.653315  0.001128  1
