# generated using pymatgen
data_Ho2Er2Lu2FeBi2
_symmetry_space_group_name_H-M   'P 1'
_cell_length_a   8.22435717
_cell_length_b   8.22435766
_cell_length_c   4.15428400
_cell_angle_alpha   90.00000000
_cell_angle_beta   90.00000000
_cell_angle_gamma   120.12767200
_symmetry_Int_Tables_number   1
_chemical_formula_structural   Ho2Er2Lu2FeBi2
_chemical_formula_sum   'Ho2 Er2 Lu2 Fe1 Bi2'
_cell_volume   243.03599729
_cell_formula_units_Z   1
loop_
 _symmetry_equiv_pos_site_id
 _symmetry_equiv_pos_as_xyz
  1  'x, y, z'
loop_
 _atom_site_type_symbol
 _atom_site_label
 _atom_site_symmetry_multiplicity
 _atom_site_fract_x
 _atom_site_fract_y
 _atom_site_fract_z
 _atom_site_occupancy
  Ho  Ho0  1  0.611959  0.999962  0.000000  1
  Ho  Ho1  1  0.999962  0.611959  0.000000  1
  Er  Er2  1  0.770520  0.770520  0.500000  1
  Er  Er3  1  0.384970  0.384970  0.000000  1
  Lu  Lu4  1  0.229870  0.000356  0.500000  1
  Lu  Lu5  1  0.000356  0.229870  0.500000  1
  Fe  Fe6  1  0.004164  0.004164  0.000000  1
  Bi  Bi7  1  0.331953  0.666247  0.500000  1
  Bi  Bi8  1  0.666247  0.331953  0.500000  1
