# generated using pymatgen
data_MnNbOsF12
_symmetry_space_group_name_H-M   'P 1'
_cell_length_a   5.35981208
_cell_length_b   5.66673170
_cell_length_c   9.33527035
_cell_angle_alpha   73.86471923
_cell_angle_beta   88.60593571
_cell_angle_gamma   62.37046070
_symmetry_Int_Tables_number   1
_chemical_formula_structural   MnNbOsF12
_chemical_formula_sum   'Mn1 Nb1 Os1 F12'
_cell_volume   239.48026007
_cell_formula_units_Z   1
loop_
 _symmetry_equiv_pos_site_id
 _symmetry_equiv_pos_as_xyz
  1  'x, y, z'
loop_
 _atom_site_type_symbol
 _atom_site_label
 _atom_site_symmetry_multiplicity
 _atom_site_fract_x
 _atom_site_fract_y
 _atom_site_fract_z
 _atom_site_occupancy
  Mn  Mn0  1  0.506175  0.499865  0.500187  1
  Nb  Nb1  1  0.229637  0.993203  0.763444  1
  Os  Os2  1  0.772620  0.000520  0.246173  1
  F  F3  1  0.945315  0.229670  0.199505  1
  F  F4  1  0.054195  0.765303  0.794867  1
  F  F5  1  0.011169  0.767839  0.137593  1
  F  F6  1  0.462203  0.773719  0.627195  1
  F  F7  1  0.531806  0.229785  0.369505  1
  F  F8  1  0.944092  0.241651  0.575557  1
  F  F9  1  0.055573  0.761582  0.425844  1
  F  F10  1  0.405705  0.239925  0.680886  1
  F  F11  1  0.593631  0.759724  0.310964  1
  F  F12  1  0.514613  0.775811  0.926664  1
  F  F13  1  0.494826  0.221155  0.079683  1
  F  F14  1  0.978440  0.240248  0.861932  1
