# generated using pymatgen
data_CaLaB4Rh5
_symmetry_space_group_name_H-M   'P 1'
_cell_length_a   7.54460198
_cell_length_b   6.32962431
_cell_length_c   5.67753302
_cell_angle_alpha   77.64589193
_cell_angle_beta   55.03814503
_cell_angle_gamma   47.31596610
_symmetry_Int_Tables_number   1
_chemical_formula_structural   CaLaB4Rh5
_chemical_formula_sum   'Ca1 La1 B4 Rh5'
_cell_volume   156.33368609
_cell_formula_units_Z   1
loop_
 _symmetry_equiv_pos_site_id
 _symmetry_equiv_pos_as_xyz
  1  'x, y, z'
loop_
 _atom_site_type_symbol
 _atom_site_label
 _atom_site_symmetry_multiplicity
 _atom_site_fract_x
 _atom_site_fract_y
 _atom_site_fract_z
 _atom_site_occupancy
  Ca  Ca0  1  0.145399  0.145399  0.854601  1
  La  La1  1  0.859365  0.859365  0.140635  1
  B  B2  1  0.789579  0.468470  0.531530  1
  B  B3  1  0.207987  0.530661  0.469339  1
  B  B4  1  0.530661  0.207987  0.792013  1
  B  B5  1  0.468470  0.789579  0.210421  1
  Rh  Rh6  1  0.501350  0.501350  0.498650  1
  Rh  Rh7  1  0.500390  0.500390  0.999610  1
  Rh  Rh8  1  0.000390  0.000390  0.499610  1
  Rh  Rh9  1  0.748205  0.748205  0.751795  1
  Rh  Rh10  1  0.248205  0.248205  0.251795  1
