# generated using pymatgen
data_HfZrSn2(SeO3)8
_symmetry_space_group_name_H-M   'P 1'
_cell_length_a   8.57077727
_cell_length_b   8.47086048
_cell_length_c   8.56226241
_cell_angle_alpha   90.03248205
_cell_angle_beta   90.55782276
_cell_angle_gamma   89.97879836
_symmetry_Int_Tables_number   1
_chemical_formula_structural   HfZrSn2(SeO3)8
_chemical_formula_sum   'Hf1 Zr1 Sn2 Se8 O24'
_cell_volume   621.60656140
_cell_formula_units_Z   1
loop_
 _symmetry_equiv_pos_site_id
 _symmetry_equiv_pos_as_xyz
  1  'x, y, z'
loop_
 _atom_site_type_symbol
 _atom_site_label
 _atom_site_symmetry_multiplicity
 _atom_site_fract_x
 _atom_site_fract_y
 _atom_site_fract_z
 _atom_site_occupancy
  Hf  Hf0  1  0.500000  0.000000  0.500000  1
  Zr  Zr1  1  0.500000  0.500000  0.000000  1
  Sn  Sn2  1  0.000000  0.000000  0.000000  1
  Sn  Sn3  1  0.000000  0.500000  0.500000  1
  Se  Se4  1  0.836111  0.183875  0.681945  1
  Se  Se5  1  0.163889  0.816125  0.318055  1
  Se  Se6  1  0.690797  0.672030  0.671667  1
  Se  Se7  1  0.162151  0.684509  0.817256  1
  Se  Se8  1  0.308983  0.169935  0.826288  1
  Se  Se9  1  0.837849  0.315491  0.182744  1
  Se  Se10  1  0.691017  0.830065  0.173712  1
  Se  Se11  1  0.309203  0.327970  0.328333  1
  O  O12  1  0.237138  0.459027  0.467955  1
  O  O13  1  0.966471  0.239843  0.045357  1
  O  O14  1  0.034856  0.740339  0.454906  1
  O  O15  1  0.446104  0.264986  0.939934  1
  O  O16  1  0.274122  0.934118  0.439014  1
  O  O17  1  0.572227  0.543221  0.769494  1
  O  O18  1  0.960137  0.041388  0.761475  1
  O  O19  1  0.553896  0.735014  0.060066  1
  O  O20  1  0.572230  0.958108  0.273086  1
  O  O21  1  0.427770  0.041892  0.726914  1
  O  O22  1  0.762881  0.960441  0.033648  1
  O  O23  1  0.271034  0.566260  0.938506  1
  O  O24  1  0.038629  0.541564  0.738001  1
  O  O25  1  0.039863  0.958612  0.238525  1
  O  O26  1  0.237119  0.039559  0.966352  1
  O  O27  1  0.427773  0.456779  0.230506  1
  O  O28  1  0.762862  0.540973  0.532045  1
  O  O29  1  0.961371  0.458436  0.261999  1
  O  O30  1  0.033529  0.760157  0.954643  1
  O  O31  1  0.446231  0.231427  0.441127  1
  O  O32  1  0.553769  0.768573  0.558873  1
  O  O33  1  0.965144  0.259661  0.545094  1
  O  O34  1  0.725878  0.065882  0.560986  1
  O  O35  1  0.728966  0.433740  0.061494  1
