# generated using pymatgen
data_Th3(ZnPt)4
_symmetry_space_group_name_H-M   'P 1'
_cell_length_a   8.40828048
_cell_length_b   8.40827981
_cell_length_c   8.40827997
_cell_angle_alpha   152.04917331
_cell_angle_beta   125.83445652
_cell_angle_gamma   62.04386234
_symmetry_Int_Tables_number   1
_chemical_formula_structural   Th3(ZnPt)4
_chemical_formula_sum   'Th3 Zn4 Pt4'
_cell_volume   224.05266181
_cell_formula_units_Z   1
loop_
 _symmetry_equiv_pos_site_id
 _symmetry_equiv_pos_as_xyz
  1  'x, y, z'
loop_
 _atom_site_type_symbol
 _atom_site_label
 _atom_site_symmetry_multiplicity
 _atom_site_fract_x
 _atom_site_fract_y
 _atom_site_fract_z
 _atom_site_occupancy
  Th  Th0  1  0.500000  0.000000  0.500000  1
  Th  Th1  1  0.872044  0.872044  0.000000  1
  Th  Th2  1  0.127956  0.127956  0.000000  1
  Zn  Zn3  1  0.477925  0.673884  0.804041  1
  Zn  Zn4  1  0.869843  0.673884  0.195959  1
  Zn  Zn5  1  0.130157  0.326116  0.804041  1
  Zn  Zn6  1  0.522075  0.326116  0.195959  1
  Pt  Pt7  1  0.280029  0.780029  0.500000  1
  Pt  Pt8  1  0.719971  0.219971  0.500000  1
  Pt  Pt9  1  0.800814  0.500000  0.300814  1
  Pt  Pt10  1  0.199186  0.500000  0.699186  1
