# generated using pymatgen
data_Dy2YTcB7
_symmetry_space_group_name_H-M   'P 1'
_cell_length_a   8.07740929
_cell_length_b   8.07740934
_cell_length_c   9.34840300
_cell_angle_alpha   90.00000000
_cell_angle_beta   90.00000000
_cell_angle_gamma   154.70759161
_symmetry_Int_Tables_number   1
_chemical_formula_structural   Dy2YTcB7
_chemical_formula_sum   'Dy4 Y2 Tc2 B14'
_cell_volume   260.58628373
_cell_formula_units_Z   2
loop_
 _symmetry_equiv_pos_site_id
 _symmetry_equiv_pos_as_xyz
  1  'x, y, z'
loop_
 _atom_site_type_symbol
 _atom_site_label
 _atom_site_symmetry_multiplicity
 _atom_site_fract_x
 _atom_site_fract_y
 _atom_site_fract_z
 _atom_site_occupancy
  Dy  Dy0  1  0.895021  0.104979  0.440006  1
  Dy  Dy1  1  0.104979  0.895021  0.559994  1
  Dy  Dy2  1  0.895021  0.104979  0.059994  1
  Dy  Dy3  1  0.104979  0.895021  0.940006  1
  Y  Y4  1  0.242243  0.757757  0.250000  1
  Y  Y5  1  0.757757  0.242243  0.750000  1
  Tc  Tc6  1  0.052833  0.947167  0.250000  1
  Tc  Tc7  1  0.947167  0.052833  0.750000  1
  B  B8  1  0.726987  0.273013  0.466711  1
  B  B9  1  0.273013  0.726987  0.533289  1
  B  B10  1  0.726987  0.273013  0.033289  1
  B  B11  1  0.273013  0.726987  0.966711  1
  B  B12  1  0.631670  0.368330  0.150888  1
  B  B13  1  0.368330  0.631670  0.849112  1
  B  B14  1  0.631670  0.368330  0.349112  1
  B  B15  1  0.368330  0.631670  0.650888  1
  B  B16  1  0.520795  0.479205  0.095503  1
  B  B17  1  0.479205  0.520795  0.904497  1
  B  B18  1  0.520795  0.479205  0.404497  1
  B  B19  1  0.479205  0.520795  0.595503  1
  B  B20  1  0.457596  0.542404  0.250000  1
  B  B21  1  0.542404  0.457596  0.750000  1
