# generated using pymatgen
data_ZnIn11CoIr3
_symmetry_space_group_name_H-M   'P 1'
_cell_length_a   6.96979498
_cell_length_b   7.01522053
_cell_length_c   7.31036100
_cell_angle_alpha   90.00000000
_cell_angle_beta   90.00000000
_cell_angle_gamma   91.09568365
_symmetry_Int_Tables_number   1
_chemical_formula_structural   ZnIn11CoIr3
_chemical_formula_sum   'Zn1 In11 Co1 Ir3'
_cell_volume   357.37217852
_cell_formula_units_Z   1
loop_
 _symmetry_equiv_pos_site_id
 _symmetry_equiv_pos_as_xyz
  1  'x, y, z'
loop_
 _atom_site_type_symbol
 _atom_site_label
 _atom_site_symmetry_multiplicity
 _atom_site_fract_x
 _atom_site_fract_y
 _atom_site_fract_z
 _atom_site_occupancy
  Zn  Zn0  1  0.998852  0.500909  0.500000  1
  In  In1  1  0.328285  0.337864  0.264777  1
  In  In2  1  0.152016  0.845933  0.758102  1
  In  In3  1  0.152016  0.845933  0.241898  1
  In  In4  1  0.006993  0.496236  0.000000  1
  In  In5  1  0.857690  0.161968  0.241832  1
  In  In6  1  0.857690  0.161968  0.758168  1
  In  In7  1  0.494250  0.007895  0.000000  1
  In  In8  1  0.662400  0.652266  0.264516  1
  In  In9  1  0.662400  0.652266  0.735484  1
  In  In10  1  0.328285  0.337864  0.735223  1
  In  In11  1  0.500438  0.998952  0.500000  1
  Co  Co12  1  0.156921  0.155668  0.000000  1
  Ir  Ir13  1  0.658185  0.348654  0.500000  1
  Ir  Ir14  1  0.340207  0.648123  0.500000  1
  Ir  Ir15  1  0.843374  0.847502  0.000000  1
