# generated using pymatgen
data_Gd6Ho(ErPb2)3
_symmetry_space_group_name_H-M   'P 1'
_cell_length_a   9.06489600
_cell_length_b   9.06489581
_cell_length_c   6.63402700
_cell_angle_alpha   90.00000000
_cell_angle_beta   90.00000000
_cell_angle_gamma   120.00000069
_symmetry_Int_Tables_number   1
_chemical_formula_structural   Gd6Ho(ErPb2)3
_chemical_formula_sum   'Gd6 Ho1 Er3 Pb6'
_cell_volume   472.09946262
_cell_formula_units_Z   1
loop_
 _symmetry_equiv_pos_site_id
 _symmetry_equiv_pos_as_xyz
  1  'x, y, z'
loop_
 _atom_site_type_symbol
 _atom_site_label
 _atom_site_symmetry_multiplicity
 _atom_site_fract_x
 _atom_site_fract_y
 _atom_site_fract_z
 _atom_site_occupancy
  Gd  Gd0  1  0.759373  0.759360  0.749674  1
  Gd  Gd1  1  0.240640  0.000012  0.749674  1
  Gd  Gd2  1  0.999988  0.240627  0.749674  1
  Gd  Gd3  1  0.240640  0.240627  0.250326  1
  Gd  Gd4  1  0.759373  0.000012  0.250326  1
  Gd  Gd5  1  0.999988  0.759360  0.250326  1
  Ho  Ho6  1  0.666667  0.333333  0.000000  1
  Er  Er7  1  0.333333  0.666667  0.000000  1
  Er  Er8  1  0.333333  0.666667  0.500000  1
  Er  Er9  1  0.666667  0.333333  0.500000  1
  Pb  Pb10  1  0.396049  0.396439  0.749531  1
  Pb  Pb11  1  0.603561  0.999610  0.749531  1
  Pb  Pb12  1  0.000390  0.603951  0.749531  1
  Pb  Pb13  1  0.603561  0.603951  0.250469  1
  Pb  Pb14  1  0.396049  0.999610  0.250469  1
  Pb  Pb15  1  0.000390  0.396439  0.250469  1
