# generated using pymatgen
data_Hf6Ta4Al12Co7
_symmetry_space_group_name_H-M   'P 1'
_cell_length_a   8.59762056
_cell_length_b   8.59903143
_cell_length_c   8.59949210
_cell_angle_alpha   60.00944616
_cell_angle_beta   60.00949717
_cell_angle_gamma   60.00458569
_symmetry_Int_Tables_number   1
_chemical_formula_structural   Hf6Ta4Al12Co7
_chemical_formula_sum   'Hf6 Ta4 Al12 Co7'
_cell_volume   449.63781467
_cell_formula_units_Z   1
loop_
 _symmetry_equiv_pos_site_id
 _symmetry_equiv_pos_as_xyz
  1  'x, y, z'
loop_
 _atom_site_type_symbol
 _atom_site_label
 _atom_site_symmetry_multiplicity
 _atom_site_fract_x
 _atom_site_fract_y
 _atom_site_fract_z
 _atom_site_occupancy
  Hf  Hf0  1  0.688720  0.688654  0.311253  1
  Hf  Hf1  1  0.311362  0.688701  0.311297  1
  Hf  Hf2  1  0.688743  0.311353  0.311288  1
  Hf  Hf3  1  0.311307  0.311311  0.688773  1
  Hf  Hf4  1  0.688660  0.311296  0.688698  1
  Hf  Hf5  1  0.311281  0.688641  0.688743  1
  Ta  Ta6  1  0.881475  0.881483  0.355661  1
  Ta  Ta7  1  0.881340  0.355801  0.881446  1
  Ta  Ta8  1  0.355767  0.881343  0.881444  1
  Ta  Ta9  1  0.881415  0.881384  0.881318  1
  Al  Al10  1  0.121098  0.120924  0.636991  1
  Al  Al11  1  0.121104  0.636910  0.121009  1
  Al  Al12  1  0.636874  0.121052  0.121133  1
  Al  Al13  1  0.121039  0.121025  0.121117  1
  Al  Al14  1  0.663404  0.663422  0.009584  1
  Al  Al15  1  0.663405  0.009644  0.663353  1
  Al  Al16  1  0.009637  0.663543  0.663466  1
  Al  Al17  1  0.663218  0.663598  0.663512  1
  Al  Al18  1  0.335111  0.335065  0.994880  1
  Al  Al19  1  0.335106  0.994800  0.335133  1
  Al  Al20  1  0.994799  0.334983  0.335056  1
  Al  Al21  1  0.335286  0.334955  0.335010  1
  Co  Co22  1  0.000035  0.999981  0.999958  1
  Co  Co23  1  0.995460  0.995464  0.504561  1
  Co  Co24  1  0.504400  0.995577  0.504428  1
  Co  Co25  1  0.995429  0.504541  0.504579  1
  Co  Co26  1  0.504515  0.504505  0.995462  1
  Co  Co27  1  0.995451  0.504573  0.995418  1
  Co  Co28  1  0.504561  0.995472  0.995429  1
