# generated using pymatgen
data_Zr2Ti2TcGe4
_symmetry_space_group_name_H-M   'P 1'
_cell_length_a   6.74898400
_cell_length_b   6.88071800
_cell_length_c   13.17875000
_cell_angle_alpha   90.00000000
_cell_angle_beta   90.00000000
_cell_angle_gamma   90.00000000
_symmetry_Int_Tables_number   1
_chemical_formula_structural   Zr2Ti2TcGe4
_chemical_formula_sum   'Zr8 Ti8 Tc4 Ge16'
_cell_volume   611.99289068
_cell_formula_units_Z   4
loop_
 _symmetry_equiv_pos_site_id
 _symmetry_equiv_pos_as_xyz
  1  'x, y, z'
loop_
 _atom_site_type_symbol
 _atom_site_label
 _atom_site_symmetry_multiplicity
 _atom_site_fract_x
 _atom_site_fract_y
 _atom_site_fract_z
 _atom_site_occupancy
  Zr  Zr0  1  0.489779  0.675283  0.089100  1
  Zr  Zr1  1  0.989779  0.824717  0.410900  1
  Zr  Zr2  1  0.510221  0.324717  0.589100  1
  Zr  Zr3  1  0.010221  0.175283  0.910900  1
  Zr  Zr4  1  0.510221  0.324717  0.910900  1
  Zr  Zr5  1  0.010221  0.175283  0.589100  1
  Zr  Zr6  1  0.489779  0.675283  0.410900  1
  Zr  Zr7  1  0.989779  0.824717  0.089100  1
  Ti  Ti8  1  0.661539  0.162340  0.124992  1
  Ti  Ti9  1  0.161539  0.337660  0.375008  1
  Ti  Ti10  1  0.338461  0.837660  0.624992  1
  Ti  Ti11  1  0.838461  0.662340  0.875008  1
  Ti  Ti12  1  0.338461  0.837660  0.875008  1
  Ti  Ti13  1  0.838461  0.662340  0.624992  1
  Ti  Ti14  1  0.661539  0.162340  0.375008  1
  Ti  Ti15  1  0.161539  0.337660  0.124992  1
  Tc  Tc16  1  0.336910  0.011057  0.250000  1
  Tc  Tc17  1  0.836910  0.488943  0.250000  1
  Tc  Tc18  1  0.663090  0.988943  0.750000  1
  Tc  Tc19  1  0.163090  0.511057  0.750000  1
  Ge  Ge20  1  0.692445  0.849711  0.250000  1
  Ge  Ge21  1  0.192445  0.650289  0.250000  1
  Ge  Ge22  1  0.307555  0.150289  0.750000  1
  Ge  Ge23  1  0.807555  0.349711  0.750000  1
  Ge  Ge24  1  0.681835  0.956606  0.958415  1
  Ge  Ge25  1  0.181835  0.543394  0.541585  1
  Ge  Ge26  1  0.318165  0.043394  0.458415  1
  Ge  Ge27  1  0.818165  0.456606  0.041585  1
  Ge  Ge28  1  0.318165  0.043394  0.041585  1
  Ge  Ge29  1  0.818165  0.456606  0.458415  1
  Ge  Ge30  1  0.681835  0.956606  0.541585  1
  Ge  Ge31  1  0.181835  0.543394  0.958415  1
  Ge  Ge32  1  0.466315  0.381820  0.250000  1
  Ge  Ge33  1  0.966315  0.118180  0.250000  1
  Ge  Ge34  1  0.533685  0.618180  0.750000  1
  Ge  Ge35  1  0.033685  0.881820  0.750000  1
