# generated using pymatgen
data_DyYZr4Tc2F30
_symmetry_space_group_name_H-M   'P 1'
_cell_length_a   8.17312929
_cell_length_b   8.17313010
_cell_length_c   8.15359410
_cell_angle_alpha   79.79490945
_cell_angle_beta   79.79490828
_cell_angle_gamma   99.92064157
_symmetry_Int_Tables_number   1
_chemical_formula_structural   DyYZr4Tc2F30
_chemical_formula_sum   'Dy1 Y1 Zr4 Tc2 F30'
_cell_volume   515.76853873
_cell_formula_units_Z   1
loop_
 _symmetry_equiv_pos_site_id
 _symmetry_equiv_pos_as_xyz
  1  'x, y, z'
loop_
 _atom_site_type_symbol
 _atom_site_label
 _atom_site_symmetry_multiplicity
 _atom_site_fract_x
 _atom_site_fract_y
 _atom_site_fract_z
 _atom_site_occupancy
  Dy  Dy0  1  0.177978  0.822022  0.250000  1
  Y  Y1  1  0.821978  0.178022  0.750000  1
  Zr  Zr2  1  0.746913  0.677698  0.673220  1
  Zr  Zr3  1  0.322302  0.253087  0.826780  1
  Zr  Zr4  1  0.253124  0.322317  0.326651  1
  Zr  Zr5  1  0.677683  0.746876  0.173349  1
  Tc  Tc6  1  0.750080  0.249920  0.250000  1
  Tc  Tc7  1  0.249909  0.750091  0.750000  1
  F  F8  1  0.313693  0.350387  0.054761  1
  F  F9  1  0.935199  0.810633  0.152785  1
  F  F10  1  0.844355  0.461394  0.685411  1
  F  F11  1  0.460929  0.844236  0.185549  1
  F  F12  1  0.810651  0.934800  0.652569  1
  F  F13  1  0.350403  0.313698  0.554758  1
  F  F14  1  0.686302  0.649597  0.945241  1
  F  F15  1  0.065200  0.189349  0.847431  1
  F  F16  1  0.155764  0.539071  0.314451  1
  F  F17  1  0.538606  0.155645  0.814589  1
  F  F18  1  0.189367  0.064801  0.347215  1
  F  F19  1  0.649613  0.686307  0.445239  1
  F  F20  1  0.773411  0.281607  0.002672  1
  F  F21  1  0.998026  0.273664  0.217395  1
  F  F22  1  0.778582  0.500541  0.225004  1
  F  F23  1  0.500524  0.778581  0.725004  1
  F  F24  1  0.273658  0.998006  0.717396  1
  F  F25  1  0.281396  0.773485  0.502400  1
  F  F26  1  0.226515  0.718604  0.997600  1
  F  F27  1  0.001994  0.726342  0.782604  1
  F  F28  1  0.221419  0.499476  0.774996  1
  F  F29  1  0.499459  0.221418  0.274996  1
  F  F30  1  0.726336  0.001974  0.282605  1
  F  F31  1  0.718393  0.226589  0.497328  1
  F  F32  1  0.468091  0.531909  0.250000  1
  F  F33  1  0.746985  0.954599  0.972191  1
  F  F34  1  0.045401  0.253015  0.527809  1
  F  F35  1  0.252881  0.045023  0.028190  1
  F  F36  1  0.954977  0.747119  0.471810  1
  F  F37  1  0.531902  0.468098  0.750000  1
