# generated using pymatgen
data_Hf5Zr3Pd2(PtN)2
_symmetry_space_group_name_H-M   'P 1'
_cell_length_a   8.81306460
_cell_length_b   8.81306447
_cell_length_c   8.81306600
_cell_angle_alpha   60.00000176
_cell_angle_beta   60.00000225
_cell_angle_gamma   59.99999885
_symmetry_Int_Tables_number   1
_chemical_formula_structural   Hf5Zr3Pd2(PtN)2
_chemical_formula_sum   'Hf10 Zr6 Pd4 Pt4 N4'
_cell_volume   484.02292813
_cell_formula_units_Z   2
loop_
 _symmetry_equiv_pos_site_id
 _symmetry_equiv_pos_as_xyz
  1  'x, y, z'
loop_
 _atom_site_type_symbol
 _atom_site_label
 _atom_site_symmetry_multiplicity
 _atom_site_fract_x
 _atom_site_fract_y
 _atom_site_fract_z
 _atom_site_occupancy
  Hf  Hf0  1  0.120721  0.626427  0.626427  1
  Hf  Hf1  1  0.626427  0.120721  0.626427  1
  Hf  Hf2  1  0.626427  0.626427  0.120721  1
  Hf  Hf3  1  0.626427  0.626427  0.626427  1
  Hf  Hf4  1  0.818751  0.818751  0.181249  1
  Hf  Hf5  1  0.181249  0.181249  0.818751  1
  Hf  Hf6  1  0.818751  0.181249  0.818751  1
  Hf  Hf7  1  0.181249  0.818751  0.181249  1
  Hf  Hf8  1  0.181249  0.818751  0.818751  1
  Hf  Hf9  1  0.818751  0.181249  0.181249  1
  Zr  Zr10  1  0.432235  0.432235  0.067765  1
  Zr  Zr11  1  0.067765  0.067765  0.432235  1
  Zr  Zr12  1  0.432235  0.067765  0.432235  1
  Zr  Zr13  1  0.067765  0.432235  0.067765  1
  Zr  Zr14  1  0.067765  0.432235  0.432235  1
  Zr  Zr15  1  0.432235  0.067765  0.067765  1
  Pd  Pd16  1  0.765114  0.411629  0.411629  1
  Pd  Pd17  1  0.411629  0.765114  0.411629  1
  Pd  Pd18  1  0.411629  0.411629  0.765114  1
  Pd  Pd19  1  0.411629  0.411629  0.411629  1
  Pt  Pt20  1  0.466768  0.844411  0.844411  1
  Pt  Pt21  1  0.844411  0.466768  0.844411  1
  Pt  Pt22  1  0.844411  0.844411  0.466768  1
  Pt  Pt23  1  0.844411  0.844411  0.844411  1
  N  N24  1  0.632149  0.122617  0.122617  1
  N  N25  1  0.122617  0.632149  0.122617  1
  N  N26  1  0.122617  0.122617  0.632149  1
  N  N27  1  0.122617  0.122617  0.122617  1
