# generated using pymatgen
data_Nb3AlGaCuC
_symmetry_space_group_name_H-M   'P 1'
_cell_length_a   8.31028107
_cell_length_b   8.31028102
_cell_length_c   8.31028008
_cell_angle_alpha   60.01261959
_cell_angle_beta   60.01262441
_cell_angle_gamma   60.01261707
_symmetry_Int_Tables_number   1
_chemical_formula_structural   Nb3AlGaCuC
_chemical_formula_sum   'Nb12 Al4 Ga4 Cu4 C4'
_cell_volume   405.93483778
_cell_formula_units_Z   4
loop_
 _symmetry_equiv_pos_site_id
 _symmetry_equiv_pos_as_xyz
  1  'x, y, z'
loop_
 _atom_site_type_symbol
 _atom_site_label
 _atom_site_symmetry_multiplicity
 _atom_site_fract_x
 _atom_site_fract_y
 _atom_site_fract_z
 _atom_site_occupancy
  Nb  Nb0  1  0.566378  0.933810  0.566378  1
  Nb  Nb1  1  0.316794  0.683419  0.683419  1
  Nb  Nb2  1  0.683414  0.316516  0.316516  1
  Nb  Nb3  1  0.316516  0.683414  0.316516  1
  Nb  Nb4  1  0.683419  0.683419  0.316794  1
  Nb  Nb5  1  0.316516  0.316516  0.683414  1
  Nb  Nb6  1  0.566378  0.566378  0.933810  1
  Nb  Nb7  1  0.933810  0.566378  0.566378  1
  Nb  Nb8  1  0.566524  0.933648  0.933648  1
  Nb  Nb9  1  0.933648  0.933648  0.566524  1
  Nb  Nb10  1  0.683419  0.316794  0.683419  1
  Nb  Nb11  1  0.933648  0.566524  0.933648  1
  Al  Al12  1  0.916198  0.250337  0.916198  1
  Al  Al13  1  0.916198  0.916198  0.250337  1
  Al  Al14  1  0.250337  0.916198  0.916198  1
  Al  Al15  1  0.333484  0.333484  0.333484  1
  Ga  Ga16  1  0.916127  0.916127  0.916127  1
  Ga  Ga17  1  0.995945  0.334606  0.334606  1
  Ga  Ga18  1  0.334606  0.995945  0.334606  1
  Ga  Ga19  1  0.334606  0.334606  0.995945  1
  Cu  Cu20  1  0.123972  0.123972  0.123972  1
  Cu  Cu21  1  0.623558  0.126879  0.126879  1
  Cu  Cu22  1  0.126879  0.623558  0.126879  1
  Cu  Cu23  1  0.126879  0.126879  0.623558  1
  C  C24  1  0.624978  0.624978  0.624978  1
  C  C25  1  0.124755  0.625507  0.625507  1
  C  C26  1  0.625507  0.124755  0.625507  1
  C  C27  1  0.625507  0.625507  0.124755  1
