# generated using pymatgen
data_Nb6ReSi6MoRu4
_symmetry_space_group_name_H-M   'P 1'
_cell_length_a   7.50852325
_cell_length_b   7.51085618
_cell_length_c   7.51085621
_cell_angle_alpha   126.83952872
_cell_angle_beta   123.84150579
_cell_angle_gamma   81.00497277
_symmetry_Int_Tables_number   1
_chemical_formula_structural   Nb6ReSi6MoRu4
_chemical_formula_sum   'Nb6 Re1 Si6 Mo1 Ru4'
_cell_volume   271.33453174
_cell_formula_units_Z   1
loop_
 _symmetry_equiv_pos_site_id
 _symmetry_equiv_pos_as_xyz
  1  'x, y, z'
loop_
 _atom_site_type_symbol
 _atom_site_label
 _atom_site_symmetry_multiplicity
 _atom_site_fract_x
 _atom_site_fract_y
 _atom_site_fract_z
 _atom_site_occupancy
  Nb  Nb0  1  0.558027  0.093691  0.035917  1
  Nb  Nb1  1  0.441973  0.477890  0.535665  1
  Nb  Nb2  1  0.960735  0.491592  0.029145  1
  Nb  Nb3  1  0.039265  0.068410  0.530858  1
  Nb  Nb4  1  0.752123  0.919618  0.667041  1
  Nb  Nb5  1  0.247877  0.914918  0.167496  1
  Re  Re6  1  0.000000  0.250334  0.250334  1
  Si  Si7  1  0.779312  0.550037  0.270584  1
  Si  Si8  1  0.220688  0.491271  0.770725  1
  Si  Si9  1  0.334651  0.818623  0.492348  1
  Si  Si10  1  0.665349  0.157696  0.483973  1
  Si  Si11  1  0.826996  0.819826  0.985447  1
  Si  Si12  1  0.173004  0.158449  0.992830  1
  Mo  Mo13  1  0.500000  0.250412  0.750412  1
  Ru  Ru14  1  0.159391  0.744999  0.652669  1
  Ru  Ru15  1  0.840609  0.493276  0.585608  1
  Ru  Ru16  1  0.592009  0.747081  0.086081  1
  Ru  Ru17  1  0.407991  0.494071  0.155072  1
