# generated using pymatgen
data_Ho2TmLu5(WO6)4
_symmetry_space_group_name_H-M   'P 1'
_cell_length_a   5.33015200
_cell_length_b   7.61146320
_cell_length_c   11.33958481
_cell_angle_alpha   75.26331702
_cell_angle_beta   90.00000000
_cell_angle_gamma   90.00000000
_symmetry_Int_Tables_number   1
_chemical_formula_structural   Ho2TmLu5(WO6)4
_chemical_formula_sum   'Ho2 Tm1 Lu5 W4 O24'
_cell_volume   444.91655747
_cell_formula_units_Z   1
loop_
 _symmetry_equiv_pos_site_id
 _symmetry_equiv_pos_as_xyz
  1  'x, y, z'
loop_
 _atom_site_type_symbol
 _atom_site_label
 _atom_site_symmetry_multiplicity
 _atom_site_fract_x
 _atom_site_fract_y
 _atom_site_fract_z
 _atom_site_occupancy
  Ho  Ho0  1  0.684436  0.500000  0.750000  1
  Ho  Ho1  1  0.315045  0.500000  0.250000  1
  Tm  Tm2  1  0.740043  0.000000  0.750000  1
  Lu  Lu3  1  0.260683  0.000000  0.250000  1
  Lu  Lu4  1  0.186298  0.796800  0.578480  1
  Lu  Lu5  1  0.814055  0.796886  0.078954  1
  Lu  Lu6  1  0.186298  0.203200  0.921520  1
  Lu  Lu7  1  0.814055  0.203114  0.421046  1
  W  W8  1  0.254338  0.723378  0.886402  1
  W  W9  1  0.745567  0.723919  0.386078  1
  W  W10  1  0.254338  0.276622  0.613598  1
  W  W11  1  0.745567  0.276081  0.113922  1
  O  O12  1  0.039793  0.942251  0.896231  1
  O  O13  1  0.535431  0.848751  0.931922  1
  O  O14  1  0.961851  0.942545  0.395167  1
  O  O15  1  0.459632  0.791879  0.725868  1
  O  O16  1  0.464360  0.849814  0.431245  1
  O  O17  1  0.981127  0.712729  0.769652  1
  O  O18  1  0.538984  0.793113  0.225759  1
  O  O19  1  0.855772  0.635995  0.550099  1
  O  O20  1  0.359829  0.486438  0.887761  1
  O  O21  1  0.018768  0.713086  0.269358  1
  O  O22  1  0.359829  0.513562  0.612239  1
  O  O23  1  0.855772  0.364005  0.949901  1
  O  O24  1  0.143712  0.635176  0.050350  1
  O  O25  1  0.640379  0.486923  0.387303  1
  O  O26  1  0.981127  0.287271  0.730348  1
  O  O27  1  0.640379  0.513077  0.112697  1
  O  O28  1  0.143712  0.364824  0.449650  1
  O  O29  1  0.459632  0.208121  0.774132  1
  O  O30  1  0.018768  0.286914  0.230642  1
  O  O31  1  0.535431  0.151249  0.568078  1
  O  O32  1  0.538984  0.206887  0.274241  1
  O  O33  1  0.039793  0.057749  0.603769  1
  O  O34  1  0.464360  0.150186  0.068755  1
  O  O35  1  0.961851  0.057455  0.104833  1
