# generated using pymatgen
data_Hf10CuSiSb6
_symmetry_space_group_name_H-M   'P 1'
_cell_length_a   8.57209800
_cell_length_b   8.57209782
_cell_length_c   5.76547000
_cell_angle_alpha   90.00000000
_cell_angle_beta   90.00000000
_cell_angle_gamma   119.99999298
_symmetry_Int_Tables_number   1
_chemical_formula_structural   Hf10CuSiSb6
_chemical_formula_sum   'Hf10 Cu1 Si1 Sb6'
_cell_volume   366.89316806
_cell_formula_units_Z   1
loop_
 _symmetry_equiv_pos_site_id
 _symmetry_equiv_pos_as_xyz
  1  'x, y, z'
loop_
 _atom_site_type_symbol
 _atom_site_label
 _atom_site_symmetry_multiplicity
 _atom_site_fract_x
 _atom_site_fract_y
 _atom_site_fract_z
 _atom_site_occupancy
  Hf  Hf0  1  0.666667  0.333333  0.000000  1
  Hf  Hf1  1  0.333333  0.666667  0.000000  1
  Hf  Hf2  1  0.333333  0.666667  0.500000  1
  Hf  Hf3  1  0.666667  0.333333  0.500000  1
  Hf  Hf4  1  0.736727  0.736727  0.750264  1
  Hf  Hf5  1  0.263273  0.000000  0.750264  1
  Hf  Hf6  1  0.000000  0.263273  0.750264  1
  Hf  Hf7  1  0.263273  0.263273  0.249736  1
  Hf  Hf8  1  0.736727  0.000000  0.249736  1
  Hf  Hf9  1  0.000000  0.736727  0.249736  1
  Cu  Cu10  1  0.000000  0.000000  0.000000  1
  Si  Si11  1  0.000000  0.000000  0.500000  1
  Sb  Sb12  1  0.390347  0.390347  0.752464  1
  Sb  Sb13  1  0.609653  0.000000  0.752464  1
  Sb  Sb14  1  0.000000  0.609653  0.752464  1
  Sb  Sb15  1  0.609653  0.609653  0.247536  1
  Sb  Sb16  1  0.390347  0.000000  0.247536  1
  Sb  Sb17  1  0.000000  0.390347  0.247536  1
