# generated using pymatgen
data_EuTa3Cd3SnO14
_symmetry_space_group_name_H-M   'P 1'
_cell_length_a   7.41559667
_cell_length_b   7.41559700
_cell_length_c   7.50045070
_cell_angle_alpha   60.40294534
_cell_angle_beta   60.40294338
_cell_angle_gamma   60.27840688
_symmetry_Int_Tables_number   1
_chemical_formula_structural   EuTa3Cd3SnO14
_chemical_formula_sum   'Eu1 Ta3 Cd3 Sn1 O14'
_cell_volume   294.03528392
_cell_formula_units_Z   1
loop_
 _symmetry_equiv_pos_site_id
 _symmetry_equiv_pos_as_xyz
  1  'x, y, z'
loop_
 _atom_site_type_symbol
 _atom_site_label
 _atom_site_symmetry_multiplicity
 _atom_site_fract_x
 _atom_site_fract_y
 _atom_site_fract_z
 _atom_site_occupancy
  Eu  Eu0  1  0.125000  0.125000  0.625000  1
  Ta  Ta1  1  0.125000  0.625000  0.625000  1
  Ta  Ta2  1  0.625000  0.625000  0.125000  1
  Ta  Ta3  1  0.625000  0.125000  0.625000  1
  Cd  Cd4  1  0.125000  0.125000  0.125000  1
  Cd  Cd5  1  0.625000  0.125000  0.125000  1
  Cd  Cd6  1  0.125000  0.625000  0.125000  1
  Sn  Sn7  1  0.625000  0.625000  0.625000  1
  O  O8  1  0.547550  0.547550  0.957406  1
  O  O9  1  0.308288  0.308288  0.690390  1
  O  O10  1  0.938398  0.556503  0.934789  1
  O  O11  1  0.959672  0.542183  0.550165  1
  O  O12  1  0.556503  0.938398  0.934789  1
  O  O13  1  0.542183  0.959672  0.550165  1
  O  O14  1  0.311602  0.693497  0.315211  1
  O  O15  1  0.707817  0.290328  0.699835  1
  O  O16  1  0.248488  0.248488  0.243833  1
  O  O17  1  0.001512  0.001512  0.006167  1
  O  O18  1  0.941712  0.941712  0.559610  1
  O  O19  1  0.693497  0.311602  0.315211  1
  O  O20  1  0.290328  0.707817  0.699835  1
  O  O21  1  0.702450  0.702450  0.292594  1
