# generated using pymatgen
data_Er4ReB12Os
_symmetry_space_group_name_H-M   'P 1'
_cell_length_a   3.64558500
_cell_length_b   9.11961179
_cell_length_c   11.49424958
_cell_angle_alpha   90.13991713
_cell_angle_beta   90.00000000
_cell_angle_gamma   90.00000000
_symmetry_Int_Tables_number   1
_chemical_formula_structural   Er4ReB12Os
_chemical_formula_sum   'Er8 Re2 B24 Os2'
_cell_volume   382.14035960
_cell_formula_units_Z   2
loop_
 _symmetry_equiv_pos_site_id
 _symmetry_equiv_pos_as_xyz
  1  'x, y, z'
loop_
 _atom_site_type_symbol
 _atom_site_label
 _atom_site_symmetry_multiplicity
 _atom_site_fract_x
 _atom_site_fract_y
 _atom_site_fract_z
 _atom_site_occupancy
  Er  Er0  1  0.000000  0.320767  0.412417  1
  Er  Er1  1  0.000000  0.679233  0.587583  1
  Er  Er2  1  0.000000  0.824592  0.084695  1
  Er  Er3  1  0.000000  0.175408  0.915305  1
  Er  Er4  1  0.000000  0.943596  0.370689  1
  Er  Er5  1  0.000000  0.056404  0.629311  1
  Er  Er6  1  0.000000  0.442736  0.128752  1
  Er  Er7  1  0.000000  0.557264  0.871248  1
  Re  Re8  1  0.000000  0.138615  0.179583  1
  Re  Re9  1  0.000000  0.861385  0.820417  1
  B  B10  1  0.500000  0.553644  0.433387  1
  B  B11  1  0.500000  0.446356  0.566613  1
  B  B12  1  0.500000  0.053167  0.066638  1
  B  B13  1  0.500000  0.946833  0.933362  1
  B  B14  1  0.500000  0.749237  0.419028  1
  B  B15  1  0.500000  0.250763  0.580972  1
  B  B16  1  0.500000  0.249267  0.080674  1
  B  B17  1  0.500000  0.750733  0.919326  1
  B  B18  1  0.500000  0.791321  0.265682  1
  B  B19  1  0.500000  0.208679  0.734318  1
  B  B20  1  0.500000  0.292321  0.234785  1
  B  B21  1  0.500000  0.707679  0.765215  1
  B  B22  1  0.500000  0.630963  0.185749  1
  B  B23  1  0.500000  0.369037  0.814251  1
  B  B24  1  0.500000  0.131454  0.315146  1
  B  B25  1  0.500000  0.868546  0.684854  1
  B  B26  1  0.500000  0.982417  0.212450  1
  B  B27  1  0.500000  0.017583  0.787550  1
  B  B28  1  0.500000  0.482782  0.288024  1
  B  B29  1  0.500000  0.517218  0.711976  1
  B  B30  1  0.500000  0.602776  0.028794  1
  B  B31  1  0.500000  0.397224  0.971206  1
  B  B32  1  0.500000  0.103255  0.471582  1
  B  B33  1  0.500000  0.896745  0.528418  1
  Os  Os34  1  0.000000  0.637679  0.321923  1
  Os  Os35  1  0.000000  0.362321  0.678077  1
