# generated using pymatgen
data_Rb4Zr6GaI18
_symmetry_space_group_name_H-M   'P 1'
_cell_length_a   11.48657382
_cell_length_b   11.75029754
_cell_length_c   11.88007025
_cell_angle_alpha   118.82420984
_cell_angle_beta   100.32370102
_cell_angle_gamma   104.04364516
_symmetry_Int_Tables_number   1
_chemical_formula_structural   Rb4Zr6GaI18
_chemical_formula_sum   'Rb4 Zr6 Ga1 I18'
_cell_volume   1277.36969979
_cell_formula_units_Z   1
loop_
 _symmetry_equiv_pos_site_id
 _symmetry_equiv_pos_as_xyz
  1  'x, y, z'
loop_
 _atom_site_type_symbol
 _atom_site_label
 _atom_site_symmetry_multiplicity
 _atom_site_fract_x
 _atom_site_fract_y
 _atom_site_fract_z
 _atom_site_occupancy
  Rb  Rb0  1  0.651902  0.537208  0.226786  1
  Rb  Rb1  1  0.348098  0.462792  0.773214  1
  Rb  Rb2  1  0.687505  0.226338  0.564844  1
  Rb  Rb3  1  0.312495  0.773662  0.435156  1
  Zr  Zr4  1  0.148827  0.053336  0.229153  1
  Zr  Zr5  1  0.851173  0.946664  0.770847  1
  Zr  Zr6  1  0.861522  0.126526  0.132725  1
  Zr  Zr7  1  0.138478  0.873474  0.867275  1
  Zr  Zr8  1  0.144034  0.237738  0.043004  1
  Zr  Zr9  1  0.855966  0.762262  0.956996  1
  Ga  Ga10  1  0.000000  0.000000  0.000000  1
  I  I11  1  0.008684  0.404291  0.194502  1
  I  I12  1  0.991316  0.595709  0.805498  1
  I  I13  1  0.325617  0.327658  0.305760  1
  I  I14  1  0.674383  0.672342  0.694240  1
  I  I15  1  0.319004  0.517301  0.099130  1
  I  I16  1  0.680996  0.482699  0.900870  1
  I  I17  1  0.003948  0.797157  0.206684  1
  I  I18  1  0.996052  0.202843  0.793316  1
  I  I19  1  0.703999  0.270925  0.283527  1
  I  I20  1  0.296001  0.729075  0.716473  1
  I  I21  1  0.314364  0.126687  0.905965  1
  I  I22  1  0.685636  0.873313  0.094035  1
  I  I23  1  0.015336  0.202138  0.402306  1
  I  I24  1  0.984664  0.797862  0.597694  1
  I  I25  1  0.318897  0.925501  0.109560  1
  I  I26  1  0.681103  0.074499  0.890440  1
  I  I27  1  0.330287  0.119964  0.496602  1
  I  I28  1  0.669713  0.880036  0.503398  1
