# generated using pymatgen
data_HoLuNi2(B2Ir)2
_symmetry_space_group_name_H-M   'P 1'
_cell_length_a   5.03970210
_cell_length_b   5.03970195
_cell_length_c   7.27390047
_cell_angle_alpha   58.68215130
_cell_angle_beta   58.68215782
_cell_angle_gamma   61.74701825
_symmetry_Int_Tables_number   1
_chemical_formula_structural   HoLuNi2(B2Ir)2
_chemical_formula_sum   'Ho1 Lu1 Ni2 B4 Ir2'
_cell_volume   129.50167162
_cell_formula_units_Z   1
loop_
 _symmetry_equiv_pos_site_id
 _symmetry_equiv_pos_as_xyz
  1  'x, y, z'
loop_
 _atom_site_type_symbol
 _atom_site_label
 _atom_site_symmetry_multiplicity
 _atom_site_fract_x
 _atom_site_fract_y
 _atom_site_fract_z
 _atom_site_occupancy
  Ho  Ho0  1  0.873427  0.126573  0.250000  1
  Lu  Lu1  1  0.110655  0.889345  0.750000  1
  Ni  Ni2  1  0.527769  0.732661  0.294093  1
  Ni  Ni3  1  0.267339  0.472231  0.205907  1
  B  B4  1  0.169065  0.494115  0.504576  1
  B  B5  1  0.505885  0.830935  0.995424  1
  B  B6  1  0.842026  0.488083  0.471860  1
  B  B7  1  0.511917  0.157974  0.028140  1
  Ir  Ir8  1  0.729767  0.537850  0.801520  1
  Ir  Ir9  1  0.462150  0.270233  0.698480  1
