# generated using pymatgen
data_Li3Dy8Sc8Si16Ru
_symmetry_space_group_name_H-M   'P 1'
_cell_length_a   6.86917975
_cell_length_b   7.35997394
_cell_length_c   13.99253300
_cell_angle_alpha   90.00000000
_cell_angle_beta   90.00000000
_cell_angle_gamma   90.17780045
_symmetry_Int_Tables_number   1
_chemical_formula_structural   Li3Dy8Sc8Si16Ru
_chemical_formula_sum   'Li3 Dy8 Sc8 Si16 Ru1'
_cell_volume   707.41686022
_cell_formula_units_Z   1
loop_
 _symmetry_equiv_pos_site_id
 _symmetry_equiv_pos_as_xyz
  1  'x, y, z'
loop_
 _atom_site_type_symbol
 _atom_site_label
 _atom_site_symmetry_multiplicity
 _atom_site_fract_x
 _atom_site_fract_y
 _atom_site_fract_z
 _atom_site_occupancy
  Li  Li0  1  0.842517  0.494051  0.250000  1
  Li  Li1  1  0.341617  0.005817  0.250000  1
  Li  Li2  1  0.659403  0.991284  0.750000  1
  Dy  Dy3  1  0.014880  0.183338  0.095983  1
  Dy  Dy4  1  0.988264  0.821610  0.900914  1
  Dy  Dy5  1  0.489841  0.679432  0.901145  1
  Dy  Dy6  1  0.988264  0.821610  0.599086  1
  Dy  Dy7  1  0.515275  0.318903  0.098138  1
  Dy  Dy8  1  0.014880  0.183338  0.404017  1
  Dy  Dy9  1  0.515275  0.318903  0.401862  1
  Dy  Dy10  1  0.489841  0.679432  0.598855  1
  Sc  Sc11  1  0.331211  0.176227  0.626872  1
  Sc  Sc12  1  0.671116  0.821946  0.374231  1
  Sc  Sc13  1  0.171134  0.676622  0.375599  1
  Sc  Sc14  1  0.671116  0.821946  0.125769  1
  Sc  Sc15  1  0.822299  0.322989  0.628361  1
  Sc  Sc16  1  0.331211  0.176227  0.873128  1
  Sc  Sc17  1  0.822299  0.322989  0.871639  1
  Sc  Sc18  1  0.171134  0.676622  0.124401  1
  Si  Si19  1  0.035172  0.119490  0.750000  1
  Si  Si20  1  0.972584  0.894875  0.250000  1
  Si  Si21  1  0.471498  0.603164  0.250000  1
  Si  Si22  1  0.514147  0.406306  0.750000  1
  Si  Si23  1  0.276915  0.866417  0.750000  1
  Si  Si24  1  0.721966  0.119227  0.250000  1
  Si  Si25  1  0.217011  0.381813  0.250000  1
  Si  Si26  1  0.795264  0.618826  0.750000  1
  Si  Si27  1  0.153925  0.465690  0.547284  1
  Si  Si28  1  0.841052  0.537892  0.467291  1
  Si  Si29  1  0.341858  0.961726  0.466058  1
  Si  Si30  1  0.841052  0.537892  0.032709  1
  Si  Si31  1  0.659253  0.036789  0.535487  1
  Si  Si32  1  0.153925  0.465690  0.952716  1
  Si  Si33  1  0.659253  0.036789  0.964513  1
  Si  Si34  1  0.341858  0.961726  0.033942  1
  Ru  Ru35  1  0.151690  0.492402  0.750000  1
