# generated using pymatgen
data_Ba3NbCdSbO9
_symmetry_space_group_name_H-M   'P 1'
_cell_length_a   5.97109600
_cell_length_b   5.97109665
_cell_length_c   7.38027900
_cell_angle_alpha   90.00000000
_cell_angle_beta   90.00000000
_cell_angle_gamma   120.00000747
_symmetry_Int_Tables_number   1
_chemical_formula_structural   Ba3NbCdSbO9
_chemical_formula_sum   'Ba3 Nb1 Cd1 Sb1 O9'
_cell_volume   227.88279295
_cell_formula_units_Z   1
loop_
 _symmetry_equiv_pos_site_id
 _symmetry_equiv_pos_as_xyz
  1  'x, y, z'
loop_
 _atom_site_type_symbol
 _atom_site_label
 _atom_site_symmetry_multiplicity
 _atom_site_fract_x
 _atom_site_fract_y
 _atom_site_fract_z
 _atom_site_occupancy
  Ba  Ba0  1  0.000000  0.000000  0.008623  1
  Ba  Ba1  1  0.333333  0.666667  0.655472  1
  Ba  Ba2  1  0.666667  0.333333  0.329285  1
  Nb  Nb3  1  0.666667  0.333333  0.827184  1
  Cd  Cd4  1  0.000000  0.000000  0.498122  1
  Sb  Sb5  1  0.333333  0.666667  0.162908  1
  O  O6  1  0.175599  0.824401  0.316103  1
  O  O7  1  0.823409  0.176591  0.687826  1
  O  O8  1  0.175599  0.351198  0.316103  1
  O  O9  1  0.823409  0.646818  0.687826  1
  O  O10  1  0.648802  0.824401  0.316103  1
  O  O11  1  0.353182  0.176591  0.687826  1
  O  O12  1  0.497554  0.995108  0.002207  1
  O  O13  1  0.004892  0.502446  0.002207  1
  O  O14  1  0.497554  0.502446  0.002207  1
