# generated using pymatgen
data_Y5Er(Al3Co)8
_symmetry_space_group_name_H-M   'P 1'
_cell_length_a   8.65831400
_cell_length_b   8.66096400
_cell_length_c   9.30330700
_cell_angle_alpha   90.00000000
_cell_angle_beta   90.00000000
_cell_angle_gamma   119.98900798
_symmetry_Int_Tables_number   1
_chemical_formula_structural   Y5Er(Al3Co)8
_chemical_formula_sum   'Y5 Er1 Al24 Co8'
_cell_volume   604.24858570
_cell_formula_units_Z   1
loop_
 _symmetry_equiv_pos_site_id
 _symmetry_equiv_pos_as_xyz
  1  'x, y, z'
loop_
 _atom_site_type_symbol
 _atom_site_label
 _atom_site_symmetry_multiplicity
 _atom_site_fract_x
 _atom_site_fract_y
 _atom_site_fract_z
 _atom_site_occupancy
  Y  Y0  1  0.806205  0.612299  0.750000  1
  Y  Y1  1  0.612402  0.806143  0.250000  1
  Y  Y2  1  0.387593  0.193613  0.750000  1
  Y  Y3  1  0.193705  0.806102  0.250000  1
  Y  Y4  1  0.806068  0.193685  0.750000  1
  Er  Er5  1  0.195318  0.390096  0.250000  1
  Al  Al6  1  0.333260  0.666463  0.020329  1
  Al  Al7  1  0.666534  0.333154  0.980534  1
  Al  Al8  1  0.666534  0.333154  0.519466  1
  Al  Al9  1  0.333260  0.666463  0.479671  1
  Al  Al10  1  0.163034  0.326030  0.574095  1
  Al  Al11  1  0.836848  0.673824  0.424883  1
  Al  Al12  1  0.673696  0.836833  0.574787  1
  Al  Al13  1  0.836848  0.673824  0.075117  1
  Al  Al14  1  0.325644  0.163310  0.424595  1
  Al  Al15  1  0.163034  0.326030  0.925905  1
  Al  Al16  1  0.163168  0.836898  0.574795  1
  Al  Al17  1  0.325644  0.163310  0.075405  1
  Al  Al18  1  0.837641  0.163311  0.424578  1
  Al  Al19  1  0.673696  0.836833  0.925213  1
  Al  Al20  1  0.837641  0.163311  0.075422  1
  Al  Al21  1  0.163168  0.836898  0.925205  1
  Al  Al22  1  0.559857  0.119747  0.250000  1
  Al  Al23  1  0.440091  0.880127  0.750000  1
  Al  Al24  1  0.880938  0.440203  0.250000  1
  Al  Al25  1  0.119747  0.559621  0.750000  1
  Al  Al26  1  0.559265  0.440212  0.250000  1
  Al  Al27  1  0.439939  0.559537  0.750000  1
  Al  Al28  1  0.001153  0.002374  0.250000  1
  Al  Al29  1  0.000042  0.000054  0.750000  1
  Co  Co30  1  0.499939  0.999875  0.000132  1
  Co  Co31  1  0.000322  0.499632  0.000464  1
  Co  Co32  1  0.499939  0.999875  0.499868  1
  Co  Co33  1  0.499167  0.499501  0.000463  1
  Co  Co34  1  0.000322  0.499632  0.499536  1
  Co  Co35  1  0.499167  0.499501  0.499537  1
  Co  Co36  1  0.999585  0.999264  0.999968  1
  Co  Co37  1  0.999585  0.999264  0.500032  1
