# generated using pymatgen
data_Nd3BrO4
_symmetry_space_group_name_H-M   'P 1'
_cell_length_a   6.52992632
_cell_length_b   6.52992723
_cell_length_c   12.21735800
_cell_angle_alpha   90.00000000
_cell_angle_beta   90.00000000
_cell_angle_gamma   142.11893114
_symmetry_Int_Tables_number   1
_chemical_formula_structural   Nd3BrO4
_chemical_formula_sum   'Nd6 Br2 O8'
_cell_volume   319.87447316
_cell_formula_units_Z   2
loop_
 _symmetry_equiv_pos_site_id
 _symmetry_equiv_pos_as_xyz
  1  'x, y, z'
loop_
 _atom_site_type_symbol
 _atom_site_label
 _atom_site_symmetry_multiplicity
 _atom_site_fract_x
 _atom_site_fract_y
 _atom_site_fract_z
 _atom_site_occupancy
  Nd  Nd0  1  0.818762  0.181238  0.397480  1
  Nd  Nd1  1  0.181238  0.818762  0.602520  1
  Nd  Nd2  1  0.181238  0.818762  0.897480  1
  Nd  Nd3  1  0.818762  0.181238  0.102520  1
  Nd  Nd4  1  0.878581  0.121419  0.750000  1
  Nd  Nd5  1  0.121419  0.878581  0.250000  1
  Br  Br6  1  0.500000  0.500000  0.000000  1
  Br  Br7  1  0.500000  0.500000  0.500000  1
  O  O8  1  0.302109  0.697891  0.750000  1
  O  O9  1  0.697891  0.302109  0.250000  1
  O  O10  1  0.063155  0.936845  0.750000  1
  O  O11  1  0.936845  0.063155  0.250000  1
  O  O12  1  0.767575  0.232425  0.909871  1
  O  O13  1  0.232425  0.767575  0.090129  1
  O  O14  1  0.232425  0.767575  0.409871  1
  O  O15  1  0.767575  0.232425  0.590129  1
