# generated using pymatgen
data_Ta(VBr4)3
_symmetry_space_group_name_H-M   'P 1'
_cell_length_a   6.15743108
_cell_length_b   7.21420372
_cell_length_c   12.49085700
_cell_angle_alpha   90.00000000
_cell_angle_beta   90.00000000
_cell_angle_gamma   89.98369330
_symmetry_Int_Tables_number   1
_chemical_formula_structural   Ta(VBr4)3
_chemical_formula_sum   'Ta1 V3 Br12'
_cell_volume   554.85586443
_cell_formula_units_Z   1
loop_
 _symmetry_equiv_pos_site_id
 _symmetry_equiv_pos_as_xyz
  1  'x, y, z'
loop_
 _atom_site_type_symbol
 _atom_site_label
 _atom_site_symmetry_multiplicity
 _atom_site_fract_x
 _atom_site_fract_y
 _atom_site_fract_z
 _atom_site_occupancy
  Ta  Ta0  1  0.762611  0.745864  0.000000  1
  V  V1  1  0.742183  0.254134  0.500000  1
  V  V2  1  0.237716  0.745873  0.000000  1
  V  V3  1  0.257608  0.253984  0.500000  1
  Br  Br4  1  0.000027  0.977024  0.500000  1
  Br  Br5  1  0.503354  0.029597  0.000000  1
  Br  Br6  1  0.499871  0.536254  0.500000  1
  Br  Br7  1  0.996732  0.452393  0.000000  1
  Br  Br8  1  0.999789  0.393463  0.360920  1
  Br  Br9  1  0.503960  0.604287  0.141705  1
  Br  Br10  1  0.999789  0.393463  0.639080  1
  Br  Br11  1  0.503960  0.604287  0.858295  1
  Br  Br12  1  0.995972  0.892696  0.146695  1
  Br  Br13  1  0.500228  0.111992  0.358282  1
  Br  Br14  1  0.995972  0.892696  0.853305  1
  Br  Br15  1  0.500228  0.111992  0.641718  1
