# generated using pymatgen
data_Dy2Co8CuP6Ru
_symmetry_space_group_name_H-M   'P 1'
_cell_length_a   3.70448300
_cell_length_b   10.35538900
_cell_length_c   11.83097300
_cell_angle_alpha   90.00000000
_cell_angle_beta   90.00000000
_cell_angle_gamma   90.00000000
_symmetry_Int_Tables_number   1
_chemical_formula_structural   Dy2Co8CuP6Ru
_chemical_formula_sum   'Dy4 Co16 Cu2 P12 Ru2'
_cell_volume   453.85224409
_cell_formula_units_Z   2
loop_
 _symmetry_equiv_pos_site_id
 _symmetry_equiv_pos_as_xyz
  1  'x, y, z'
loop_
 _atom_site_type_symbol
 _atom_site_label
 _atom_site_symmetry_multiplicity
 _atom_site_fract_x
 _atom_site_fract_y
 _atom_site_fract_z
 _atom_site_occupancy
  Dy  Dy0  1  0.250000  0.581347  0.702309  1
  Dy  Dy1  1  0.250000  0.918653  0.202309  1
  Dy  Dy2  1  0.750000  0.416708  0.296409  1
  Dy  Dy3  1  0.750000  0.083292  0.796409  1
  Co  Co4  1  0.250000  0.407497  0.484859  1
  Co  Co5  1  0.250000  0.092503  0.984859  1
  Co  Co6  1  0.750000  0.592843  0.510987  1
  Co  Co7  1  0.750000  0.907157  0.010987  1
  Co  Co8  1  0.250000  0.220461  0.174814  1
  Co  Co9  1  0.250000  0.279539  0.674814  1
  Co  Co10  1  0.750000  0.777580  0.823911  1
  Co  Co11  1  0.750000  0.722420  0.323911  1
  Co  Co12  1  0.250000  0.884153  0.702682  1
  Co  Co13  1  0.250000  0.615847  0.202682  1
  Co  Co14  1  0.750000  0.116765  0.301245  1
  Co  Co15  1  0.750000  0.383235  0.801245  1
  Co  Co16  1  0.250000  0.463199  0.933542  1
  Co  Co17  1  0.250000  0.036801  0.433542  1
  Co  Co18  1  0.750000  0.534494  0.069540  1
  Co  Co19  1  0.750000  0.965506  0.569540  1
  Cu  Cu20  1  0.750000  0.287483  0.009165  1
  Cu  Cu21  1  0.750000  0.212517  0.509165  1
  P  P22  1  0.250000  0.421060  0.115112  1
  P  P23  1  0.250000  0.078940  0.615112  1
  P  P24  1  0.750000  0.577894  0.887768  1
  P  P25  1  0.750000  0.922106  0.387768  1
  P  P26  1  0.250000  0.271030  0.861828  1
  P  P27  1  0.250000  0.228970  0.361828  1
  P  P28  1  0.750000  0.730080  0.133656  1
  P  P29  1  0.750000  0.769920  0.633656  1
  P  P30  1  0.250000  0.596704  0.391453  1
  P  P31  1  0.250000  0.903296  0.891453  1
  P  P32  1  0.750000  0.399764  0.608376  1
  P  P33  1  0.750000  0.100236  0.108376  1
  Ru  Ru34  1  0.250000  0.712922  0.992342  1
  Ru  Ru35  1  0.250000  0.787078  0.492342  1
