# generated using pymatgen
data_Y2InB2Rh5
_symmetry_space_group_name_H-M   'P 1'
_cell_length_a   9.68803400
_cell_length_b   9.68803400
_cell_length_c   3.24664700
_cell_angle_alpha   90.00000000
_cell_angle_beta   90.00000000
_cell_angle_gamma   90.00000000
_symmetry_Int_Tables_number   1
_chemical_formula_structural   Y2InB2Rh5
_chemical_formula_sum   'Y4 In2 B4 Rh10'
_cell_volume   304.72380317
_cell_formula_units_Z   2
loop_
 _symmetry_equiv_pos_site_id
 _symmetry_equiv_pos_as_xyz
  1  'x, y, z'
loop_
 _atom_site_type_symbol
 _atom_site_label
 _atom_site_symmetry_multiplicity
 _atom_site_fract_x
 _atom_site_fract_y
 _atom_site_fract_z
 _atom_site_occupancy
  Y  Y0  1  0.675342  0.175342  0.000000  1
  Y  Y1  1  0.324658  0.824658  0.000000  1
  Y  Y2  1  0.175342  0.324658  0.000000  1
  Y  Y3  1  0.824658  0.675342  0.000000  1
  In  In4  1  0.000000  0.000000  0.000000  1
  In  In5  1  0.500000  0.500000  0.000000  1
  B  B6  1  0.120797  0.620797  0.000000  1
  B  B7  1  0.879203  0.379203  0.000000  1
  B  B8  1  0.620797  0.879203  0.000000  1
  B  B9  1  0.379203  0.120797  0.000000  1
  Rh  Rh10  1  0.500000  0.000000  0.500000  1
  Rh  Rh11  1  0.000000  0.500000  0.500000  1
  Rh  Rh12  1  0.226864  0.071096  0.500000  1
  Rh  Rh13  1  0.773136  0.928904  0.500000  1
  Rh  Rh14  1  0.071096  0.773136  0.500000  1
  Rh  Rh15  1  0.726864  0.428904  0.500000  1
  Rh  Rh16  1  0.928904  0.226864  0.500000  1
  Rh  Rh17  1  0.273136  0.571096  0.500000  1
  Rh  Rh18  1  0.571096  0.726864  0.500000  1
  Rh  Rh19  1  0.428904  0.273136  0.500000  1
