# generated using pymatgen
data_Zr4V3Mo2Os3
_symmetry_space_group_name_H-M   'P 1'
_cell_length_a   5.22031621
_cell_length_b   5.23980337
_cell_length_c   8.75513000
_cell_angle_alpha   90.00000000
_cell_angle_beta   90.00000000
_cell_angle_gamma   120.49055897
_symmetry_Int_Tables_number   1
_chemical_formula_structural   Zr4V3Mo2Os3
_chemical_formula_sum   'Zr4 V3 Mo2 Os3'
_cell_volume   206.36542349
_cell_formula_units_Z   1
loop_
 _symmetry_equiv_pos_site_id
 _symmetry_equiv_pos_as_xyz
  1  'x, y, z'
loop_
 _atom_site_type_symbol
 _atom_site_label
 _atom_site_symmetry_multiplicity
 _atom_site_fract_x
 _atom_site_fract_y
 _atom_site_fract_z
 _atom_site_occupancy
  Zr  Zr0  1  0.335357  0.667242  0.436348  1
  Zr  Zr1  1  0.667315  0.334075  0.555362  1
  Zr  Zr2  1  0.667315  0.334075  0.944638  1
  Zr  Zr3  1  0.335357  0.667242  0.063652  1
  V  V4  1  0.830600  0.664182  0.250000  1
  V  V5  1  0.333966  0.168994  0.250000  1
  V  V6  1  0.666102  0.831467  0.750000  1
  Mo  Mo7  1  0.172721  0.828257  0.750000  1
  Mo  Mo8  1  0.170475  0.337556  0.750000  1
  Os  Os9  1  0.999065  0.994479  0.494925  1
  Os  Os10  1  0.999065  0.994479  0.005075  1
  Os  Os11  1  0.822663  0.177949  0.250000  1
