# generated using pymatgen
data_Hf2Sc2Mn5Re3
_symmetry_space_group_name_H-M   'P 1'
_cell_length_a   5.12302600
_cell_length_b   5.03805171
_cell_length_c   8.29791000
_cell_angle_alpha   90.00274361
_cell_angle_beta   90.00000000
_cell_angle_gamma   120.55951228
_symmetry_Int_Tables_number   1
_chemical_formula_structural   Hf2Sc2Mn5Re3
_chemical_formula_sum   'Hf2 Sc2 Mn5 Re3'
_cell_volume   184.42180054
_cell_formula_units_Z   1
loop_
 _symmetry_equiv_pos_site_id
 _symmetry_equiv_pos_as_xyz
  1  'x, y, z'
loop_
 _atom_site_type_symbol
 _atom_site_label
 _atom_site_symmetry_multiplicity
 _atom_site_fract_x
 _atom_site_fract_y
 _atom_site_fract_z
 _atom_site_occupancy
  Hf  Hf0  1  0.332912  0.665827  0.437730  1
  Hf  Hf1  1  0.666169  0.332336  0.936226  1
  Sc  Sc2  1  0.665862  0.331722  0.564971  1
  Sc  Sc3  1  0.333150  0.666302  0.062746  1
  Mn  Mn4  1  0.652910  0.824543  0.749775  1
  Mn  Mn5  1  0.338238  0.167410  0.249705  1
  Mn  Mn6  1  0.829171  0.167410  0.249705  1
  Mn  Mn7  1  0.180916  0.361831  0.749823  1
  Mn  Mn8  1  0.171633  0.824543  0.749775  1
  Re  Re9  1  0.823818  0.647636  0.249854  1
  Re  Re10  1  0.002632  0.005264  0.508806  1
  Re  Re11  1  0.002589  0.005177  0.990882  1
