# generated using pymatgen
data_LaY(Zn2Pt)4
_symmetry_space_group_name_H-M   'P 1'
_cell_length_a   7.68794020
_cell_length_b   7.68794020
_cell_length_c   4.22558700
_cell_angle_alpha   90.00000000
_cell_angle_beta   90.00000000
_cell_angle_gamma   91.91562246
_symmetry_Int_Tables_number   1
_chemical_formula_structural   LaY(Zn2Pt)4
_chemical_formula_sum   'La1 Y1 Zn8 Pt4'
_cell_volume   249.61131165
_cell_formula_units_Z   1
loop_
 _symmetry_equiv_pos_site_id
 _symmetry_equiv_pos_as_xyz
  1  'x, y, z'
loop_
 _atom_site_type_symbol
 _atom_site_label
 _atom_site_symmetry_multiplicity
 _atom_site_fract_x
 _atom_site_fract_y
 _atom_site_fract_z
 _atom_site_occupancy
  La  La0  1  0.000000  0.000000  0.000000  1
  Y  Y1  1  0.500000  0.500000  0.500000  1
  Zn  Zn2  1  0.352092  0.095445  0.500000  1
  Zn  Zn3  1  0.647908  0.904555  0.500000  1
  Zn  Zn4  1  0.845600  0.409102  0.000000  1
  Zn  Zn5  1  0.154400  0.590898  0.000000  1
  Zn  Zn6  1  0.095445  0.352092  0.500000  1
  Zn  Zn7  1  0.904555  0.647908  0.500000  1
  Zn  Zn8  1  0.409102  0.845600  0.000000  1
  Zn  Zn9  1  0.590898  0.154400  0.000000  1
  Pt  Pt10  1  0.778997  0.221003  0.500000  1
  Pt  Pt11  1  0.221003  0.778997  0.500000  1
  Pt  Pt12  1  0.287572  0.287572  0.000000  1
  Pt  Pt13  1  0.712428  0.712428  0.000000  1
