# generated using pymatgen
data_Er10Bi3Pt2Pb
_symmetry_space_group_name_H-M   'P 1'
_cell_length_a   7.97254986
_cell_length_b   9.00854303
_cell_length_c   12.32890492
_cell_angle_alpha   90.03297356
_cell_angle_beta   90.02917314
_cell_angle_gamma   90.04424603
_symmetry_Int_Tables_number   1
_chemical_formula_structural   Er10Bi3Pt2Pb
_chemical_formula_sum   'Er20 Bi6 Pt4 Pb2'
_cell_volume   885.47447550
_cell_formula_units_Z   2
loop_
 _symmetry_equiv_pos_site_id
 _symmetry_equiv_pos_as_xyz
  1  'x, y, z'
loop_
 _atom_site_type_symbol
 _atom_site_label
 _atom_site_symmetry_multiplicity
 _atom_site_fract_x
 _atom_site_fract_y
 _atom_site_fract_z
 _atom_site_occupancy
  Er  Er0  1  0.668037  0.752088  0.710603  1
  Er  Er1  1  0.331963  0.247912  0.289397  1
  Er  Er2  1  0.163742  0.247649  0.787793  1
  Er  Er3  1  0.836258  0.752351  0.212207  1
  Er  Er4  1  0.127447  0.752479  0.803760  1
  Er  Er5  1  0.872553  0.247521  0.196240  1
  Er  Er6  1  0.633358  0.247398  0.695236  1
  Er  Er7  1  0.366642  0.752602  0.304764  1
  Er  Er8  1  0.550765  0.749921  0.000333  1
  Er  Er9  1  0.449235  0.250079  0.999667  1
  Er  Er10  1  0.048679  0.245051  0.500056  1
  Er  Er11  1  0.951321  0.754949  0.499944  1
  Er  Er12  1  0.822893  0.454735  0.932147  1
  Er  Er13  1  0.177107  0.545265  0.067853  1
  Er  Er14  1  0.323788  0.544500  0.568203  1
  Er  Er15  1  0.174935  0.955189  0.070529  1
  Er  Er16  1  0.676212  0.455500  0.431797  1
  Er  Er17  1  0.825065  0.044811  0.929471  1
  Er  Er18  1  0.679972  0.043424  0.433417  1
  Er  Er19  1  0.320028  0.956576  0.566583  1
  Bi  Bi20  1  0.434832  0.990492  0.827927  1
  Bi  Bi21  1  0.064706  0.508632  0.328186  1
  Bi  Bi22  1  0.565168  0.009508  0.172073  1
  Bi  Bi23  1  0.935294  0.491368  0.671814  1
  Bi  Bi24  1  0.565355  0.490952  0.172968  1
  Bi  Bi25  1  0.434645  0.509048  0.827032  1
  Pt  Pt26  1  0.924288  0.749365  0.989682  1
  Pt  Pt27  1  0.075712  0.250635  0.010318  1
  Pt  Pt28  1  0.426123  0.250206  0.510666  1
  Pt  Pt29  1  0.573877  0.749794  0.489334  1
  Pb  Pb30  1  0.935090  0.008084  0.672955  1
  Pb  Pb31  1  0.064910  0.991916  0.327045  1
