# generated using pymatgen
data_Ba20Si11Ge
_symmetry_space_group_name_H-M   'P 1'
_cell_length_a   8.43399100
_cell_length_b   8.43399100
_cell_length_c   17.00872500
_cell_angle_alpha   90.00000000
_cell_angle_beta   90.00000000
_cell_angle_gamma   90.00000000
_symmetry_Int_Tables_number   1
_chemical_formula_structural   Ba20Si11Ge
_chemical_formula_sum   'Ba20 Si11 Ge1'
_cell_volume   1209.86809968
_cell_formula_units_Z   1
loop_
 _symmetry_equiv_pos_site_id
 _symmetry_equiv_pos_as_xyz
  1  'x, y, z'
loop_
 _atom_site_type_symbol
 _atom_site_label
 _atom_site_symmetry_multiplicity
 _atom_site_fract_x
 _atom_site_fract_y
 _atom_site_fract_z
 _atom_site_occupancy
  Ba  Ba0  1  0.307714  0.671473  0.107451  1
  Ba  Ba1  1  0.171473  0.192286  0.107451  1
  Ba  Ba2  1  0.500000  0.000000  0.724725  1
  Ba  Ba3  1  0.329037  0.693415  0.393216  1
  Ba  Ba4  1  0.669772  0.694036  0.892536  1
  Ba  Ba5  1  0.193415  0.170963  0.393216  1
  Ba  Ba6  1  0.670963  0.306585  0.393216  1
  Ba  Ba7  1  0.170891  0.806529  0.606780  1
  Ba  Ba8  1  0.330228  0.305964  0.892536  1
  Ba  Ba9  1  0.194036  0.830228  0.892536  1
  Ba  Ba10  1  0.500000  0.000000  0.226325  1
  Ba  Ba11  1  0.829109  0.193471  0.606780  1
  Ba  Ba12  1  0.306529  0.329109  0.606780  1
  Ba  Ba13  1  0.806585  0.829037  0.393216  1
  Ba  Ba14  1  0.805964  0.169772  0.892536  1
  Ba  Ba15  1  0.828527  0.807714  0.107451  1
  Ba  Ba16  1  0.000000  0.500000  0.274265  1
  Ba  Ba17  1  0.000000  0.500000  0.773463  1
  Ba  Ba18  1  0.692286  0.328527  0.107451  1
  Ba  Ba19  1  0.693471  0.670891  0.606780  1
  Si  Si20  1  0.101258  0.101441  0.749720  1
  Si  Si21  1  0.398559  0.601258  0.749720  1
  Si  Si22  1  0.601280  0.601381  0.250328  1
  Si  Si23  1  0.500000  0.000000  0.014907  1
  Si  Si24  1  0.101381  0.898720  0.250328  1
  Si  Si25  1  0.601441  0.398742  0.749720  1
  Si  Si26  1  0.898742  0.898559  0.749720  1
  Si  Si27  1  0.398720  0.398619  0.250328  1
  Si  Si28  1  0.898619  0.101280  0.250328  1
  Si  Si29  1  0.500000  0.000000  0.514621  1
  Si  Si30  1  0.000000  0.500000  0.485509  1
  Ge  Ge31  1  0.000000  0.500000  0.986062  1
