# generated using pymatgen
data_Sm3Ho3Mn2(Co4P3)4
_symmetry_space_group_name_H-M   'P 1'
_cell_length_a   3.71002100
_cell_length_b   10.58419698
_cell_length_c   12.25392948
_cell_angle_alpha   89.91379935
_cell_angle_beta   90.00000000
_cell_angle_gamma   90.00000000
_symmetry_Int_Tables_number   1
_chemical_formula_structural   Sm3Ho3Mn2(Co4P3)4
_chemical_formula_sum   'Sm3 Ho3 Mn2 Co16 P12'
_cell_volume   481.18177184
_cell_formula_units_Z   1
loop_
 _symmetry_equiv_pos_site_id
 _symmetry_equiv_pos_as_xyz
  1  'x, y, z'
loop_
 _atom_site_type_symbol
 _atom_site_label
 _atom_site_symmetry_multiplicity
 _atom_site_fract_x
 _atom_site_fract_y
 _atom_site_fract_z
 _atom_site_occupancy
  Sm  Sm0  1  0.000000  0.500389  0.522259  1
  Sm  Sm1  1  0.500000  0.999986  0.477005  1
  Sm  Sm2  1  0.000000  0.318535  0.795128  1
  Ho  Ho3  1  0.500000  0.818237  0.205143  1
  Ho  Ho4  1  0.500000  0.181564  0.204024  1
  Ho  Ho5  1  0.000000  0.682351  0.795759  1
  Mn  Mn6  1  0.500000  0.500351  0.157702  1
  Mn  Mn7  1  0.000000  0.998947  0.842548  1
  Co  Co8  1  0.500000  0.502144  0.704441  1
  Co  Co9  1  0.000000  0.999578  0.295120  1
  Co  Co10  1  0.000000  0.501294  0.987947  1
  Co  Co11  1  0.500000  0.998786  0.014328  1
  Co  Co12  1  0.500000  0.333330  0.995675  1
  Co  Co13  1  0.500000  0.667854  0.995005  1
  Co  Co14  1  0.000000  0.165883  0.006791  1
  Co  Co15  1  0.000000  0.832984  0.006444  1
  Co  Co16  1  0.500000  0.296095  0.427824  1
  Co  Co17  1  0.500000  0.704315  0.429521  1
  Co  Co18  1  0.000000  0.203761  0.568369  1
  Co  Co19  1  0.000000  0.796224  0.570480  1
  Co  Co20  1  0.500000  0.879079  0.711265  1
  Co  Co21  1  0.500000  0.118770  0.709860  1
  Co  Co22  1  0.000000  0.620614  0.289282  1
  Co  Co23  1  0.000000  0.379517  0.288196  1
  P  P24  1  0.500000  0.502071  0.884895  1
  P  P25  1  0.000000  0.999349  0.117135  1
  P  P26  1  0.500000  0.499849  0.342205  1
  P  P27  1  0.000000  0.999936  0.657368  1
  P  P28  1  0.500000  0.308892  0.614258  1
  P  P29  1  0.500000  0.691231  0.617299  1
  P  P30  1  0.000000  0.190408  0.381494  1
  P  P31  1  0.000000  0.809287  0.382910  1
  P  P32  1  0.500000  0.846640  0.893706  1
  P  P33  1  0.500000  0.151218  0.894822  1
  P  P34  1  0.000000  0.653977  0.107398  1
  P  P35  1  0.000000  0.346554  0.106394  1
