# generated using pymatgen
data_CaTbDy4HoCoI12
_symmetry_space_group_name_H-M   'P 1'
_cell_length_a   9.70799752
_cell_length_b   9.77729605
_cell_length_c   9.77795346
_cell_angle_alpha   106.80817695
_cell_angle_beta   106.91535600
_cell_angle_gamma   106.80102214
_symmetry_Int_Tables_number   1
_chemical_formula_structural   CaTbDy4HoCoI12
_chemical_formula_sum   'Ca1 Tb1 Dy4 Ho1 Co1 I12'
_cell_volume   776.24999088
_cell_formula_units_Z   1
loop_
 _symmetry_equiv_pos_site_id
 _symmetry_equiv_pos_as_xyz
  1  'x, y, z'
loop_
 _atom_site_type_symbol
 _atom_site_label
 _atom_site_symmetry_multiplicity
 _atom_site_fract_x
 _atom_site_fract_y
 _atom_site_fract_z
 _atom_site_occupancy
  Ca  Ca0  1  0.499925  0.499949  0.500179  1
  Tb  Tb1  1  0.717894  0.977518  0.909070  1
  Dy  Dy2  1  0.095760  0.295475  0.023813  1
  Dy  Dy3  1  0.281636  0.022619  0.091333  1
  Dy  Dy4  1  0.976973  0.904075  0.704099  1
  Dy  Dy5  1  0.904527  0.704584  0.976122  1
  Ho  Ho6  1  0.023316  0.095471  0.293492  1
  Co  Co7  1  0.000189  0.999914  0.999618  1
  I  I8  1  0.148002  0.455098  0.377977  1
  I  I9  1  0.456929  0.376469  0.150193  1
  I  I10  1  0.376562  0.149039  0.454780  1
  I  I11  1  0.850978  0.543059  0.622134  1
  I  I12  1  0.543085  0.623237  0.850119  1
  I  I13  1  0.621678  0.850635  0.545058  1
  I  I14  1  0.681029  0.072590  0.223796  1
  I  I15  1  0.072493  0.223788  0.677856  1
  I  I16  1  0.226017  0.680782  0.073772  1
  I  I17  1  0.321037  0.928147  0.778328  1
  I  I18  1  0.927827  0.778002  0.321713  1
  I  I19  1  0.774141  0.319547  0.926549  1
