# generated using pymatgen
data_Ca5Zn(BiN)2
_symmetry_space_group_name_H-M   'P 1'
_cell_length_a   7.08145600
_cell_length_b   7.08685200
_cell_length_c   8.99207700
_cell_angle_alpha   90.00000000
_cell_angle_beta   90.00000000
_cell_angle_gamma   90.00000000
_symmetry_Int_Tables_number   1
_chemical_formula_structural   Ca5Zn(BiN)2
_chemical_formula_sum   'Ca10 Zn2 Bi4 N4'
_cell_volume   451.26945797
_cell_formula_units_Z   2
loop_
 _symmetry_equiv_pos_site_id
 _symmetry_equiv_pos_as_xyz
  1  'x, y, z'
loop_
 _atom_site_type_symbol
 _atom_site_label
 _atom_site_symmetry_multiplicity
 _atom_site_fract_x
 _atom_site_fract_y
 _atom_site_fract_z
 _atom_site_occupancy
  Ca  Ca0  1  0.750171  0.750157  0.980424  1
  Ca  Ca1  1  0.749829  0.250156  0.519576  1
  Ca  Ca2  1  0.249850  0.249838  0.528216  1
  Ca  Ca3  1  0.250151  0.749837  0.971783  1
  Ca  Ca4  1  0.249850  0.249838  0.971784  1
  Ca  Ca5  1  0.250151  0.749837  0.528217  1
  Ca  Ca6  1  0.750171  0.750157  0.519576  1
  Ca  Ca7  1  0.749829  0.250156  0.980424  1
  Ca  Ca8  1  0.492271  0.999989  0.250000  1
  Ca  Ca9  1  0.007729  0.499991  0.250000  1
  Zn  Zn10  1  0.509324  0.000005  0.750000  1
  Zn  Zn11  1  0.990676  0.500005  0.750000  1
  Bi  Bi12  1  0.498524  0.500000  0.250000  1
  Bi  Bi13  1  0.001475  0.999999  0.250000  1
  Bi  Bi14  1  0.506953  0.499999  0.750000  1
  Bi  Bi15  1  0.993047  0.999999  0.750000  1
  N  N16  1  0.000477  0.500009  0.974657  1
  N  N17  1  0.499522  0.000009  0.525342  1
  N  N18  1  0.000477  0.500009  0.525343  1
  N  N19  1  0.499522  0.000009  0.974658  1
