# generated using pymatgen
data_BaTh5(GePd)6
_symmetry_space_group_name_H-M   'P 1'
_cell_length_a   4.47041100
_cell_length_b   7.76234218
_cell_length_c   23.44059700
_cell_angle_alpha   90.16240246
_cell_angle_beta   90.00000000
_cell_angle_gamma   90.00000000
_symmetry_Int_Tables_number   1
_chemical_formula_structural   BaTh5(GePd)6
_chemical_formula_sum   'Ba2 Th10 Ge12 Pd12'
_cell_volume   813.40560438
_cell_formula_units_Z   2
loop_
 _symmetry_equiv_pos_site_id
 _symmetry_equiv_pos_as_xyz
  1  'x, y, z'
loop_
 _atom_site_type_symbol
 _atom_site_label
 _atom_site_symmetry_multiplicity
 _atom_site_fract_x
 _atom_site_fract_y
 _atom_site_fract_z
 _atom_site_occupancy
  Ba  Ba0  1  0.750000  0.237847  0.498705  1
  Ba  Ba1  1  0.250000  0.762153  0.501295  1
  Th  Th2  1  0.250000  0.722577  0.324040  1
  Th  Th3  1  0.750000  0.277423  0.675960  1
  Th  Th4  1  0.750000  0.238459  0.162264  1
  Th  Th5  1  0.250000  0.761541  0.837736  1
  Th  Th6  1  0.250000  0.763793  0.161054  1
  Th  Th7  1  0.750000  0.236207  0.838946  1
  Th  Th8  1  0.750000  0.280355  0.323260  1
  Th  Th9  1  0.250000  0.719645  0.676740  1
  Th  Th10  1  0.250000  0.735679  0.999892  1
  Th  Th11  1  0.750000  0.264321  0.000108  1
  Ge  Ge12  1  0.250000  0.086376  0.081611  1
  Ge  Ge13  1  0.750000  0.913624  0.918389  1
  Ge  Ge14  1  0.750000  0.589273  0.405313  1
  Ge  Ge15  1  0.250000  0.410727  0.594687  1
  Ge  Ge16  1  0.250000  0.083973  0.252179  1
  Ge  Ge17  1  0.750000  0.916027  0.747821  1
  Ge  Ge18  1  0.750000  0.589623  0.233575  1
  Ge  Ge19  1  0.250000  0.410377  0.766425  1
  Ge  Ge20  1  0.250000  0.080831  0.383547  1
  Ge  Ge21  1  0.750000  0.919169  0.616453  1
  Ge  Ge22  1  0.750000  0.584766  0.079338  1
  Ge  Ge23  1  0.250000  0.415234  0.920662  1
  Pd  Pd24  1  0.250000  0.417112  0.234539  1
  Pd  Pd25  1  0.750000  0.582888  0.765461  1
  Pd  Pd26  1  0.750000  0.920822  0.249546  1
  Pd  Pd27  1  0.250000  0.079178  0.750454  1
  Pd  Pd28  1  0.250000  0.413375  0.404632  1
  Pd  Pd29  1  0.750000  0.586625  0.595368  1
  Pd  Pd30  1  0.750000  0.919114  0.075472  1
  Pd  Pd31  1  0.250000  0.080886  0.924528  1
  Pd  Pd32  1  0.250000  0.417850  0.087888  1
  Pd  Pd33  1  0.750000  0.582150  0.912112  1
  Pd  Pd34  1  0.750000  0.920516  0.390283  1
  Pd  Pd35  1  0.250000  0.079484  0.609717  1
