# generated using pymatgen
data_RbNbSe2O7
_symmetry_space_group_name_H-M   'P 1'
_cell_length_a   7.35229581
_cell_length_b   7.35229634
_cell_length_c   7.64413900
_cell_angle_alpha   90.00000000
_cell_angle_beta   90.00000000
_cell_angle_gamma   110.18099273
_symmetry_Int_Tables_number   1
_chemical_formula_structural   RbNbSe2O7
_chemical_formula_sum   'Rb2 Nb2 Se4 O14'
_cell_volume   387.84534227
_cell_formula_units_Z   2
loop_
 _symmetry_equiv_pos_site_id
 _symmetry_equiv_pos_as_xyz
  1  'x, y, z'
loop_
 _atom_site_type_symbol
 _atom_site_label
 _atom_site_symmetry_multiplicity
 _atom_site_fract_x
 _atom_site_fract_y
 _atom_site_fract_z
 _atom_site_occupancy
  Rb  Rb0  1  0.978028  0.978028  0.357524  1
  Rb  Rb1  1  0.021972  0.021972  0.857524  1
  Nb  Nb2  1  0.514006  0.514006  0.905329  1
  Nb  Nb3  1  0.485994  0.485994  0.405329  1
  Se  Se4  1  0.529695  0.924922  0.627510  1
  Se  Se5  1  0.924922  0.529695  0.627510  1
  Se  Se6  1  0.470305  0.075078  0.127510  1
  Se  Se7  1  0.075078  0.470305  0.127510  1
  O  O8  1  0.548592  0.783157  0.811155  1
  O  O9  1  0.783157  0.548592  0.811155  1
  O  O10  1  0.451408  0.216843  0.311155  1
  O  O11  1  0.216843  0.451408  0.311155  1
  O  O12  1  0.537880  0.773189  0.446401  1
  O  O13  1  0.773189  0.537880  0.446401  1
  O  O14  1  0.462120  0.226811  0.946401  1
  O  O15  1  0.226811  0.462120  0.946401  1
  O  O16  1  0.752466  0.087957  0.618802  1
  O  O17  1  0.087957  0.752466  0.618802  1
  O  O18  1  0.247534  0.912043  0.118802  1
  O  O19  1  0.912043  0.247534  0.118802  1
  O  O20  1  0.419123  0.419123  0.632350  1
  O  O21  1  0.580877  0.580877  0.132350  1
