# generated using pymatgen
data_CaLu(CuSb2)2
_symmetry_space_group_name_H-M   'P 1'
_cell_length_a   4.33364200
_cell_length_b   4.33364200
_cell_length_c   9.89482000
_cell_angle_alpha   90.00000000
_cell_angle_beta   90.00000000
_cell_angle_gamma   90.00000000
_symmetry_Int_Tables_number   1
_chemical_formula_structural   CaLu(CuSb2)2
_chemical_formula_sum   'Ca1 Lu1 Cu2 Sb4'
_cell_volume   185.82920180
_cell_formula_units_Z   1
loop_
 _symmetry_equiv_pos_site_id
 _symmetry_equiv_pos_as_xyz
  1  'x, y, z'
loop_
 _atom_site_type_symbol
 _atom_site_label
 _atom_site_symmetry_multiplicity
 _atom_site_fract_x
 _atom_site_fract_y
 _atom_site_fract_z
 _atom_site_occupancy
  Ca  Ca0  1  0.000000  0.500000  0.748705  1
  Lu  Lu1  1  0.500000  0.000000  0.256826  1
  Cu  Cu2  1  0.500000  0.500000  0.494016  1
  Cu  Cu3  1  0.000000  0.000000  0.494016  1
  Sb  Sb4  1  0.500000  0.500000  0.011350  1
  Sb  Sb5  1  0.000000  0.000000  0.011350  1
  Sb  Sb6  1  0.000000  0.500000  0.336048  1
  Sb  Sb7  1  0.500000  0.000000  0.647687  1
