# generated using pymatgen
data_RbIrRh3Se8
_symmetry_space_group_name_H-M   'P 1'
_cell_length_a   3.81901940
_cell_length_b   8.39923664
_cell_length_c   9.48302736
_cell_angle_alpha   80.73124622
_cell_angle_beta   78.38344632
_cell_angle_gamma   76.85929256
_symmetry_Int_Tables_number   1
_chemical_formula_structural   RbIrRh3Se8
_chemical_formula_sum   'Rb1 Ir1 Rh3 Se8'
_cell_volume   288.02591887
_cell_formula_units_Z   1
loop_
 _symmetry_equiv_pos_site_id
 _symmetry_equiv_pos_as_xyz
  1  'x, y, z'
loop_
 _atom_site_type_symbol
 _atom_site_label
 _atom_site_symmetry_multiplicity
 _atom_site_fract_x
 _atom_site_fract_y
 _atom_site_fract_z
 _atom_site_occupancy
  Rb  Rb0  1  0.499490  0.000057  0.000962  1
  Ir  Ir1  1  0.633792  0.198301  0.534115  1
  Rh  Rh2  1  0.839861  0.500375  0.819900  1
  Rh  Rh3  1  0.161221  0.497733  0.179826  1
  Rh  Rh4  1  0.365853  0.804045  0.464247  1
  Se  Se5  1  0.456594  0.325286  0.761527  1
  Se  Se6  1  0.544649  0.673236  0.237465  1
  Se  Se7  1  0.897186  0.635385  0.570243  1
  Se  Se8  1  0.102697  0.364317  0.430290  1
  Se  Se9  1  0.213465  0.651898  0.921172  1
  Se  Se10  1  0.787022  0.346339  0.079619  1
  Se  Se11  1  0.826899  0.989146  0.357056  1
  Se  Se12  1  0.171272  0.013881  0.643576  1
