# generated using pymatgen
data_HoEr2In4CoNi
_symmetry_space_group_name_H-M   'P 1'
_cell_length_a   7.86278824
_cell_length_b   7.85972056
_cell_length_c   3.62477200
_cell_angle_alpha   90.00000000
_cell_angle_beta   90.00000000
_cell_angle_gamma   119.98385382
_symmetry_Int_Tables_number   1
_chemical_formula_structural   HoEr2In4CoNi
_chemical_formula_sum   'Ho1 Er2 In4 Co1 Ni1'
_cell_volume   194.02855438
_cell_formula_units_Z   1
loop_
 _symmetry_equiv_pos_site_id
 _symmetry_equiv_pos_as_xyz
  1  'x, y, z'
loop_
 _atom_site_type_symbol
 _atom_site_label
 _atom_site_symmetry_multiplicity
 _atom_site_fract_x
 _atom_site_fract_y
 _atom_site_fract_z
 _atom_site_occupancy
  Ho  Ho0  1  0.709319  0.950832  0.500000  1
  Er  Er1  1  0.241227  0.289904  0.500000  1
  Er  Er2  1  0.048970  0.758975  0.500000  1
  In  In3  1  0.918854  0.335482  0.000000  1
  In  In4  1  0.416196  0.081610  0.000000  1
  In  In5  1  0.665167  0.583360  0.000000  1
  In  In6  1  0.332819  0.666140  0.000000  1
  Co  Co7  1  0.000743  0.000192  0.000000  1
  Ni  Ni8  1  0.666705  0.333504  0.500000  1
