# generated using pymatgen
data_Nd7(ErIn4)5
_symmetry_space_group_name_H-M   'P 1'
_cell_length_a   6.62951094
_cell_length_b   10.51779687
_cell_length_c   12.43251538
_cell_angle_alpha   90.12678255
_cell_angle_beta   89.88306909
_cell_angle_gamma   89.94046577
_symmetry_Int_Tables_number   1
_chemical_formula_structural   Nd7(ErIn4)5
_chemical_formula_sum   'Nd7 Er5 In20'
_cell_volume   866.88815990
_cell_formula_units_Z   1
loop_
 _symmetry_equiv_pos_site_id
 _symmetry_equiv_pos_as_xyz
  1  'x, y, z'
loop_
 _atom_site_type_symbol
 _atom_site_label
 _atom_site_symmetry_multiplicity
 _atom_site_fract_x
 _atom_site_fract_y
 _atom_site_fract_z
 _atom_site_occupancy
  Nd  Nd0  1  0.610792  0.007895  0.642973  1
  Nd  Nd1  1  0.109661  0.991393  0.857529  1
  Nd  Nd2  1  0.390259  0.508562  0.356596  1
  Nd  Nd3  1  0.109744  0.508320  0.858554  1
  Nd  Nd4  1  0.389843  0.991608  0.356102  1
  Nd  Nd5  1  0.889363  0.008723  0.143458  1
  Nd  Nd6  1  0.610729  0.491558  0.642913  1
  Er  Er7  1  0.348491  0.750770  0.057229  1
  Er  Er8  1  0.149146  0.749714  0.556710  1
  Er  Er9  1  0.649840  0.250867  0.943689  1
  Er  Er10  1  0.850190  0.249506  0.442850  1
  Er  Er11  1  0.890923  0.491406  0.142096  1
  In  In12  1  0.617003  0.749555  0.501739  1
  In  In13  1  0.882592  0.746921  0.006337  1
  In  In14  1  0.383181  0.249899  0.497537  1
  In  In15  1  0.114205  0.250884  0.998191  1
  In  In16  1  0.653878  0.747204  0.242365  1
  In  In17  1  0.848311  0.749629  0.744766  1
  In  In18  1  0.348808  0.250073  0.756181  1
  In  In19  1  0.151114  0.252291  0.255090  1
  In  In20  1  0.115936  0.749464  0.282385  1
  In  In21  1  0.383569  0.749696  0.782524  1
  In  In22  1  0.883678  0.250064  0.717252  1
  In  In23  1  0.620808  0.253886  0.216031  1
  In  In24  1  0.876842  0.543102  0.400038  1
  In  In25  1  0.624384  0.955154  0.903283  1
  In  In26  1  0.123830  0.044495  0.596910  1
  In  In27  1  0.373372  0.456665  0.097849  1
  In  In28  1  0.123388  0.455715  0.596900  1
  In  In29  1  0.376090  0.045518  0.097118  1
  In  In30  1  0.876218  0.955293  0.402979  1
  In  In31  1  0.623811  0.544166  0.903825  1
