# generated using pymatgen
data_PuV(NF10)2
_symmetry_space_group_name_H-M   'P 1'
_cell_length_a   5.61750584
_cell_length_b   7.57880280
_cell_length_c   8.98435400
_cell_angle_alpha   88.78016168
_cell_angle_beta   109.33118577
_cell_angle_gamma   96.68679073
_symmetry_Int_Tables_number   1
_chemical_formula_structural   PuV(NF10)2
_chemical_formula_sum   'Pu1 V1 N2 F20'
_cell_volume   358.41860454
_cell_formula_units_Z   1
loop_
 _symmetry_equiv_pos_site_id
 _symmetry_equiv_pos_as_xyz
  1  'x, y, z'
loop_
 _atom_site_type_symbol
 _atom_site_label
 _atom_site_symmetry_multiplicity
 _atom_site_fract_x
 _atom_site_fract_y
 _atom_site_fract_z
 _atom_site_occupancy
  Pu  Pu0  1  0.007783  0.244513  0.703018  1
  V  V1  1  0.995007  0.754272  0.294721  1
  N  N2  1  0.296890  0.274171  0.215233  1
  N  N3  1  0.703942  0.726424  0.787601  1
  F  F4  1  0.059666  0.232727  0.213889  1
  F  F5  1  0.941285  0.767406  0.785989  1
  F  F6  1  0.373465  0.137756  0.156303  1
  F  F7  1  0.631266  0.861918  0.849288  1
  F  F8  1  0.924734  0.190116  0.908252  1
  F  F9  1  0.065686  0.802249  0.111310  1
  F  F10  1  0.078855  0.303636  0.498707  1
  F  F11  1  0.925575  0.702606  0.473081  1
  F  F12  1  0.763691  0.027716  0.593742  1
  F  F13  1  0.206449  0.948560  0.388482  1
  F  F14  1  0.307405  0.091312  0.789243  1
  F  F15  1  0.732029  0.885944  0.223556  1
  F  F16  1  0.227225  0.474594  0.814117  1
  F  F17  1  0.792050  0.554247  0.197445  1
  F  F18  1  0.699799  0.390819  0.631358  1
  F  F19  1  0.263185  0.624818  0.357359  1
  F  F20  1  0.699247  0.583995  0.877553  1
  F  F21  1  0.307245  0.416850  0.125824  1
  F  F22  1  0.544554  0.693645  0.640892  1
  F  F23  1  0.452967  0.309708  0.363038  1
