# generated using pymatgen
data_YbCeAl3Ir
_symmetry_space_group_name_H-M   'P 1'
_cell_length_a   5.57780100
_cell_length_b   5.57780044
_cell_length_c   8.71384000
_cell_angle_alpha   90.00000000
_cell_angle_beta   90.00000000
_cell_angle_gamma   119.99999742
_symmetry_Int_Tables_number   1
_chemical_formula_structural   YbCeAl3Ir
_chemical_formula_sum   'Yb2 Ce2 Al6 Ir2'
_cell_volume   234.78276450
_cell_formula_units_Z   2
loop_
 _symmetry_equiv_pos_site_id
 _symmetry_equiv_pos_as_xyz
  1  'x, y, z'
loop_
 _atom_site_type_symbol
 _atom_site_label
 _atom_site_symmetry_multiplicity
 _atom_site_fract_x
 _atom_site_fract_y
 _atom_site_fract_z
 _atom_site_occupancy
  Yb  Yb0  1  0.333333  0.666666  0.556680  1
  Yb  Yb1  1  0.333333  0.666666  0.943319  1
  Ce  Ce2  1  0.666666  0.333334  0.054762  1
  Ce  Ce3  1  0.666666  0.333334  0.445238  1
  Al  Al4  1  0.161125  0.322251  0.250000  1
  Al  Al5  1  0.161126  0.838875  0.250000  1
  Al  Al6  1  0.677750  0.838875  0.250000  1
  Al  Al7  1  0.323431  0.161714  0.750000  1
  Al  Al8  1  0.838283  0.161714  0.750000  1
  Al  Al9  1  0.838284  0.676569  0.750000  1
  Ir  Ir10  1  0.000000  0.000000  0.996477  1
  Ir  Ir11  1  0.000000  0.000000  0.503523  1
