# generated using pymatgen
data_Tb5PrDy10(CdPt)4
_symmetry_space_group_name_H-M   'P 1'
_cell_length_a   9.72228789
_cell_length_b   9.72228814
_cell_length_c   9.68327100
_cell_angle_alpha   60.13266927
_cell_angle_beta   60.13266841
_cell_angle_gamma   59.87559127
_symmetry_Int_Tables_number   1
_chemical_formula_structural   Tb5PrDy10(CdPt)4
_chemical_formula_sum   'Tb5 Pr1 Dy10 Cd4 Pt4'
_cell_volume   647.88871347
_cell_formula_units_Z   1
loop_
 _symmetry_equiv_pos_site_id
 _symmetry_equiv_pos_as_xyz
  1  'x, y, z'
loop_
 _atom_site_type_symbol
 _atom_site_label
 _atom_site_symmetry_multiplicity
 _atom_site_fract_x
 _atom_site_fract_y
 _atom_site_fract_z
 _atom_site_occupancy
  Tb  Tb0  1  0.936284  0.560928  0.565001  1
  Tb  Tb1  1  0.560928  0.936284  0.937788  1
  Tb  Tb2  1  0.560928  0.936284  0.565001  1
  Tb  Tb3  1  0.936284  0.560928  0.937788  1
  Tb  Tb4  1  0.565267  0.565267  0.934733  1
  Pr  Pr5  1  0.934984  0.934984  0.565016  1
  Dy  Dy6  1  0.351623  0.351623  0.349863  1
  Dy  Dy7  1  0.351623  0.351623  0.946891  1
  Dy  Dy8  1  0.354606  0.943027  0.351183  1
  Dy  Dy9  1  0.943027  0.354606  0.351183  1
  Dy  Dy10  1  0.810295  0.191401  0.188307  1
  Dy  Dy11  1  0.191401  0.810295  0.809997  1
  Dy  Dy12  1  0.191401  0.810295  0.188307  1
  Dy  Dy13  1  0.810295  0.191401  0.809997  1
  Dy  Dy14  1  0.190534  0.190534  0.809466  1
  Dy  Dy15  1  0.810878  0.810878  0.189122  1
  Cd  Cd16  1  0.581442  0.581442  0.581361  1
  Cd  Cd17  1  0.581442  0.581442  0.255753  1
  Cd  Cd18  1  0.578290  0.257141  0.582284  1
  Cd  Cd19  1  0.257141  0.578290  0.582284  1
  Pt  Pt20  1  0.143997  0.143997  0.142154  1
  Pt  Pt21  1  0.143997  0.143997  0.569851  1
  Pt  Pt22  1  0.142334  0.570996  0.143334  1
  Pt  Pt23  1  0.570996  0.142334  0.143334  1
