# generated using pymatgen
data_AcRh3Pb2
_symmetry_space_group_name_H-M   'P 1'
_cell_length_a   5.98792000
_cell_length_b   5.98792151
_cell_length_c   4.45689000
_cell_angle_alpha   90.00000000
_cell_angle_beta   90.00000000
_cell_angle_gamma   120.00000272
_symmetry_Int_Tables_number   1
_chemical_formula_structural   AcRh3Pb2
_chemical_formula_sum   'Ac1 Rh3 Pb2'
_cell_volume   138.39315924
_cell_formula_units_Z   1
loop_
 _symmetry_equiv_pos_site_id
 _symmetry_equiv_pos_as_xyz
  1  'x, y, z'
loop_
 _atom_site_type_symbol
 _atom_site_label
 _atom_site_symmetry_multiplicity
 _atom_site_fract_x
 _atom_site_fract_y
 _atom_site_fract_z
 _atom_site_occupancy
  Ac  Ac0  1  0.000000  0.000000  0.000000  1
  Rh  Rh1  1  0.000000  0.500000  0.000000  1
  Rh  Rh2  1  0.500000  0.500000  0.000000  1
  Rh  Rh3  1  0.500000  0.000000  0.000000  1
  Pb  Pb4  1  0.666667  0.333333  0.500000  1
  Pb  Pb5  1  0.333333  0.666667  0.500000  1
