# generated using pymatgen
data_Tb5Dy(Y3Ru2)2
_symmetry_space_group_name_H-M   'P 1'
_cell_length_a   6.36297574
_cell_length_b   7.31525154
_cell_length_c   9.26599114
_cell_angle_alpha   89.97867669
_cell_angle_beta   89.96009516
_cell_angle_gamma   89.98552130
_symmetry_Int_Tables_number   1
_chemical_formula_structural   Tb5Dy(Y3Ru2)2
_chemical_formula_sum   'Tb5 Dy1 Y6 Ru4'
_cell_volume   431.30179217
_cell_formula_units_Z   1
loop_
 _symmetry_equiv_pos_site_id
 _symmetry_equiv_pos_as_xyz
  1  'x, y, z'
loop_
 _atom_site_type_symbol
 _atom_site_label
 _atom_site_symmetry_multiplicity
 _atom_site_fract_x
 _atom_site_fract_y
 _atom_site_fract_z
 _atom_site_occupancy
  Tb  Tb0  1  0.172107  0.175926  0.065831  1
  Tb  Tb1  1  0.862884  0.542074  0.250016  1
  Tb  Tb2  1  0.636964  0.041569  0.250152  1
  Tb  Tb3  1  0.136543  0.457876  0.750269  1
  Tb  Tb4  1  0.363468  0.957668  0.750224  1
  Dy  Dy5  1  0.328475  0.675876  0.065840  1
  Y  Y6  1  0.171827  0.175800  0.435031  1
  Y  Y7  1  0.671585  0.324187  0.565546  1
  Y  Y8  1  0.828618  0.823710  0.934477  1
  Y  Y9  1  0.671191  0.323844  0.934526  1
  Y  Y10  1  0.828246  0.824143  0.565554  1
  Y  Y11  1  0.328264  0.675961  0.434601  1
  Ru  Ru12  1  0.037796  0.885114  0.248620  1
  Ru  Ru13  1  0.462295  0.384700  0.248894  1
  Ru  Ru14  1  0.963461  0.115723  0.750071  1
  Ru  Ru15  1  0.536278  0.615827  0.750346  1
