# generated using pymatgen
data_Sc2Al2GaOs
_symmetry_space_group_name_H-M   'P 1'
_cell_length_a   5.26346021
_cell_length_b   5.25706134
_cell_length_c   8.59561400
_cell_angle_alpha   90.00000000
_cell_angle_beta   90.00000000
_cell_angle_gamma   119.95978323
_symmetry_Int_Tables_number   1
_chemical_formula_structural   Sc2Al2GaOs
_chemical_formula_sum   'Sc4 Al4 Ga2 Os2'
_cell_volume   206.06193809
_cell_formula_units_Z   2
loop_
 _symmetry_equiv_pos_site_id
 _symmetry_equiv_pos_as_xyz
  1  'x, y, z'
loop_
 _atom_site_type_symbol
 _atom_site_label
 _atom_site_symmetry_multiplicity
 _atom_site_fract_x
 _atom_site_fract_y
 _atom_site_fract_z
 _atom_site_occupancy
  Sc  Sc0  1  0.332726  0.667771  0.054291  1
  Sc  Sc1  1  0.667274  0.335044  0.554291  1
  Sc  Sc2  1  0.332726  0.667771  0.445709  1
  Sc  Sc3  1  0.667274  0.335044  0.945709  1
  Al  Al4  1  0.673459  0.832692  0.750000  1
  Al  Al5  1  0.326541  0.159232  0.250000  1
  Al  Al6  1  0.830182  0.159899  0.250000  1
  Al  Al7  1  0.169818  0.329717  0.750000  1
  Ga  Ga8  1  0.829765  0.660605  0.250000  1
  Ga  Ga9  1  0.170235  0.830842  0.750000  1
  Os  Os10  1  0.000000  0.010692  0.500000  1
  Os  Os11  1  0.000000  0.010692  0.000000  1
