# generated using pymatgen
data_Zr(TaSe2)5
_symmetry_space_group_name_H-M   'P 1'
_cell_length_a   6.10266185
_cell_length_b   7.69256398
_cell_length_c   8.48973600
_cell_angle_alpha   110.01217644
_cell_angle_beta   97.07628122
_cell_angle_gamma   105.11089201
_symmetry_Int_Tables_number   1
_chemical_formula_structural   Zr(TaSe2)5
_chemical_formula_sum   'Zr1 Ta5 Se10'
_cell_volume   351.48799711
_cell_formula_units_Z   1
loop_
 _symmetry_equiv_pos_site_id
 _symmetry_equiv_pos_as_xyz
  1  'x, y, z'
loop_
 _atom_site_type_symbol
 _atom_site_label
 _atom_site_symmetry_multiplicity
 _atom_site_fract_x
 _atom_site_fract_y
 _atom_site_fract_z
 _atom_site_occupancy
  Zr  Zr0  1  0.669580  0.517667  0.988177  1
  Ta  Ta1  1  0.001486  0.993458  0.000985  1
  Ta  Ta2  1  0.599139  0.208475  0.202840  1
  Ta  Ta3  1  0.197801  0.399527  0.397576  1
  Ta  Ta4  1  0.794330  0.598072  0.605643  1
  Ta  Ta5  1  0.405833  0.792309  0.799440  1
  Se  Se6  1  0.234641  0.049375  0.301537  1
  Se  Se7  1  0.053934  0.643608  0.902891  1
  Se  Se8  1  0.832086  0.248319  0.499520  1
  Se  Se9  1  0.633263  0.864309  0.116866  1
  Se  Se10  1  0.414154  0.425298  0.685487  1
  Se  Se11  1  0.903862  0.562345  0.306690  1
  Se  Se12  1  0.701224  0.145685  0.895128  1
  Se  Se13  1  0.500583  0.751920  0.501005  1
  Se  Se14  1  0.290432  0.351174  0.095759  1
  Se  Se15  1  0.100455  0.946059  0.702053  1
