# generated using pymatgen
data_Rb2YbOsO6
_symmetry_space_group_name_H-M   'P 1'
_cell_length_a   5.97183714
_cell_length_b   5.97183639
_cell_length_c   5.97183700
_cell_angle_alpha   60.00000217
_cell_angle_beta   60.00000632
_cell_angle_gamma   60.00000006
_symmetry_Int_Tables_number   1
_chemical_formula_structural   Rb2YbOsO6
_chemical_formula_sum   'Rb2 Yb1 Os1 O6'
_cell_volume   150.59440326
_cell_formula_units_Z   1
loop_
 _symmetry_equiv_pos_site_id
 _symmetry_equiv_pos_as_xyz
  1  'x, y, z'
loop_
 _atom_site_type_symbol
 _atom_site_label
 _atom_site_symmetry_multiplicity
 _atom_site_fract_x
 _atom_site_fract_y
 _atom_site_fract_z
 _atom_site_occupancy
  Rb  Rb0  1  0.250000  0.250000  0.250000  1
  Rb  Rb1  1  0.750000  0.750000  0.750000  1
  Yb  Yb2  1  0.500000  0.500000  0.500000  1
  Os  Os3  1  0.000000  0.000000  0.000000  1
  O  O4  1  0.777390  0.222609  0.222609  1
  O  O5  1  0.222609  0.777390  0.222609  1
  O  O6  1  0.777390  0.777390  0.222610  1
  O  O7  1  0.777391  0.222610  0.777390  1
  O  O8  1  0.222610  0.777391  0.777390  1
  O  O9  1  0.222608  0.222608  0.777391  1
