# generated using pymatgen
data_Y2Pa2(Pd3Pt)3
_symmetry_space_group_name_H-M   'P 1'
_cell_length_a   7.20428949
_cell_length_b   7.20428964
_cell_length_c   7.18822600
_cell_angle_alpha   109.83165785
_cell_angle_beta   109.83165828
_cell_angle_gamma   108.84446871
_symmetry_Int_Tables_number   1
_chemical_formula_structural   Y2Pa2(Pd3Pt)3
_chemical_formula_sum   'Y2 Pa2 Pd9 Pt3'
_cell_volume   286.84317089
_cell_formula_units_Z   1
loop_
 _symmetry_equiv_pos_site_id
 _symmetry_equiv_pos_as_xyz
  1  'x, y, z'
loop_
 _atom_site_type_symbol
 _atom_site_label
 _atom_site_symmetry_multiplicity
 _atom_site_fract_x
 _atom_site_fract_y
 _atom_site_fract_z
 _atom_site_occupancy
  Y  Y0  1  0.250822  0.749178  0.000000  1
  Y  Y1  1  0.749178  0.250822  0.000000  1
  Pa  Pa2  1  0.250477  0.250477  0.500952  1
  Pa  Pa3  1  0.749523  0.749523  0.499048  1
  Pd  Pd4  1  0.499552  0.254197  0.254876  1
  Pd  Pd5  1  0.500448  0.745803  0.745124  1
  Pd  Pd6  1  0.999319  0.244675  0.745124  1
  Pd  Pd7  1  0.244675  0.999319  0.745124  1
  Pd  Pd8  1  0.000681  0.755325  0.254876  1
  Pd  Pd9  1  0.755325  0.000681  0.254876  1
  Pd  Pd10  1  0.254197  0.499552  0.254876  1
  Pd  Pd11  1  0.745803  0.500448  0.745124  1
  Pd  Pd12  1  0.000000  0.000000  0.000000  1
  Pt  Pt13  1  0.500000  0.000000  0.500000  1
  Pt  Pt14  1  0.000000  0.500000  0.500000  1
  Pt  Pt15  1  0.500000  0.500000  0.000000  1
