# generated using pymatgen
data_Er16Ag3HgPt4
_symmetry_space_group_name_H-M   'P 1'
_cell_length_a   9.52144832
_cell_length_b   9.52087146
_cell_length_c   9.52087100
_cell_angle_alpha   60.00000507
_cell_angle_beta   60.00200920
_cell_angle_gamma   60.00200962
_symmetry_Int_Tables_number   1
_chemical_formula_structural   Er16Ag3HgPt4
_chemical_formula_sum   'Er16 Ag3 Hg1 Pt4'
_cell_volume   610.31578963
_cell_formula_units_Z   1
loop_
 _symmetry_equiv_pos_site_id
 _symmetry_equiv_pos_as_xyz
  1  'x, y, z'
loop_
 _atom_site_type_symbol
 _atom_site_label
 _atom_site_symmetry_multiplicity
 _atom_site_fract_x
 _atom_site_fract_y
 _atom_site_fract_z
 _atom_site_occupancy
  Er  Er0  1  0.355241  0.355308  0.355308  1
  Er  Er1  1  0.355241  0.355308  0.934142  1
  Er  Er2  1  0.355241  0.934142  0.355308  1
  Er  Er3  1  0.933372  0.355543  0.355543  1
  Er  Er4  1  0.811402  0.188642  0.188642  1
  Er  Er5  1  0.188716  0.811255  0.811255  1
  Er  Er6  1  0.188716  0.811255  0.188773  1
  Er  Er7  1  0.811402  0.188642  0.811314  1
  Er  Er8  1  0.188716  0.188773  0.811255  1
  Er  Er9  1  0.811402  0.811314  0.188642  1
  Er  Er10  1  0.933126  0.565698  0.565698  1
  Er  Er11  1  0.566182  0.934142  0.934142  1
  Er  Er12  1  0.566182  0.934142  0.565535  1
  Er  Er13  1  0.933126  0.565698  0.935478  1
  Er  Er14  1  0.566182  0.565535  0.934142  1
  Er  Er15  1  0.933126  0.935478  0.565698  1
  Ag  Ag16  1  0.584782  0.583194  0.583194  1
  Ag  Ag17  1  0.584782  0.583194  0.248831  1
  Ag  Ag18  1  0.584782  0.248831  0.583194  1
  Hg  Hg19  1  0.248263  0.583912  0.583912  1
  Pt  Pt20  1  0.143843  0.144275  0.144275  1
  Pt  Pt21  1  0.143843  0.144275  0.567606  1
  Pt  Pt22  1  0.143843  0.567606  0.144275  1
  Pt  Pt23  1  0.568488  0.143837  0.143837  1
