# generated using pymatgen
data_La8Np(WO8)3
_symmetry_space_group_name_H-M   'P 1'
_cell_length_a   5.53189209
_cell_length_b   9.53810030
_cell_length_c   10.46684900
_cell_angle_alpha   89.99208872
_cell_angle_beta   89.87066758
_cell_angle_gamma   89.91615404
_symmetry_Int_Tables_number   1
_chemical_formula_structural   La8Np(WO8)3
_chemical_formula_sum   'La8 Np1 W3 O24'
_cell_volume   552.26811299
_cell_formula_units_Z   1
loop_
 _symmetry_equiv_pos_site_id
 _symmetry_equiv_pos_as_xyz
  1  'x, y, z'
loop_
 _atom_site_type_symbol
 _atom_site_label
 _atom_site_symmetry_multiplicity
 _atom_site_fract_x
 _atom_site_fract_y
 _atom_site_fract_z
 _atom_site_occupancy
  La  La0  1  0.024467  0.399227  0.040721  1
  La  La1  1  0.030279  0.280453  0.634853  1
  La  La2  1  0.472449  0.713824  0.136468  1
  La  La3  1  0.475173  0.603414  0.540043  1
  La  La4  1  0.523927  0.108825  0.953559  1
  La  La5  1  0.531463  0.220225  0.366288  1
  La  La6  1  0.967651  0.778119  0.861995  1
  La  La7  1  0.974326  0.895684  0.464444  1
  Np  Np8  1  0.039631  0.004312  0.143985  1
  W  W9  1  0.460039  0.996427  0.644971  1
  W  W10  1  0.539154  0.496843  0.853867  1
  W  W11  1  0.960943  0.502592  0.355541  1
  O  O12  1  0.077389  0.649949  0.471967  1
  O  O13  1  0.170396  0.547580  0.216244  1
  O  O14  1  0.195589  0.866193  0.677800  1
  O  O15  1  0.182503  0.856414  0.260385  1
  O  O16  1  0.219051  0.388229  0.437107  1
  O  O17  1  0.254053  0.086741  0.509928  1
  O  O18  1  0.253144  0.911567  0.003104  1
  O  O19  1  0.280539  0.612706  0.935551  1
  O  O20  1  0.318618  0.137826  0.755050  1
  O  O21  1  0.321651  0.142484  0.177183  1
  O  O22  1  0.329240  0.451324  0.716164  1
  O  O23  1  0.422642  0.352152  0.972839  1
  O  O24  1  0.574041  0.848920  0.528605  1
  O  O25  1  0.666512  0.949573  0.784234  1
  O  O26  1  0.697044  0.633360  0.324760  1
  O  O27  1  0.682492  0.635168  0.742347  1
  O  O28  1  0.721466  0.110826  0.567369  1
  O  O29  1  0.754173  0.413035  0.491808  1
  O  O30  1  0.747795  0.586546  0.989487  1
  O  O31  1  0.767493  0.881989  0.060113  1
  O  O32  1  0.819164  0.365096  0.243417  1
  O  O33  1  0.799799  0.364894  0.822625  1
  O  O34  1  0.824921  0.051339  0.296813  1
  O  O35  1  0.920790  0.156138  0.018363  1
