# generated using pymatgen
data_Y8Er2Si6C
_symmetry_space_group_name_H-M   'P 1'
_cell_length_a   8.45899300
_cell_length_b   8.45899463
_cell_length_c   6.38311300
_cell_angle_alpha   90.00000000
_cell_angle_beta   90.00000000
_cell_angle_gamma   119.99998971
_symmetry_Int_Tables_number   1
_chemical_formula_structural   Y8Er2Si6C
_chemical_formula_sum   'Y8 Er2 Si6 C1'
_cell_volume   395.54930373
_cell_formula_units_Z   1
loop_
 _symmetry_equiv_pos_site_id
 _symmetry_equiv_pos_as_xyz
  1  'x, y, z'
loop_
 _atom_site_type_symbol
 _atom_site_label
 _atom_site_symmetry_multiplicity
 _atom_site_fract_x
 _atom_site_fract_y
 _atom_site_fract_z
 _atom_site_occupancy
  Y  Y0  1  0.666667  0.333333  0.000000  1
  Y  Y1  1  0.333333  0.666667  0.000000  1
  Y  Y2  1  0.000000  0.763908  0.271049  1
  Y  Y3  1  0.236092  0.236092  0.271049  1
  Y  Y4  1  0.763908  0.000000  0.271049  1
  Y  Y5  1  0.000000  0.236092  0.728951  1
  Y  Y6  1  0.763908  0.763908  0.728951  1
  Y  Y7  1  0.236092  0.000000  0.728951  1
  Er  Er8  1  0.333333  0.666667  0.500000  1
  Er  Er9  1  0.666667  0.333333  0.500000  1
  Si  Si10  1  0.000000  0.399787  0.256152  1
  Si  Si11  1  0.600213  0.600213  0.256152  1
  Si  Si12  1  0.399787  0.000000  0.256152  1
  Si  Si13  1  0.000000  0.600213  0.743848  1
  Si  Si14  1  0.399787  0.399787  0.743848  1
  Si  Si15  1  0.600213  0.000000  0.743848  1
  C  C16  1  0.000000  0.000000  0.500000  1
