# generated using pymatgen
data_Pr3Mg2ZrIr3
_symmetry_space_group_name_H-M   'P 1'
_cell_length_a   7.31600300
_cell_length_b   7.47986689
_cell_length_c   4.34946400
_cell_angle_alpha   90.00000000
_cell_angle_beta   90.00000000
_cell_angle_gamma   119.27792371
_symmetry_Int_Tables_number   1
_chemical_formula_structural   Pr3Mg2ZrIr3
_chemical_formula_sum   'Pr3 Mg2 Zr1 Ir3'
_cell_volume   207.61002977
_cell_formula_units_Z   1
loop_
 _symmetry_equiv_pos_site_id
 _symmetry_equiv_pos_as_xyz
  1  'x, y, z'
loop_
 _atom_site_type_symbol
 _atom_site_label
 _atom_site_symmetry_multiplicity
 _atom_site_fract_x
 _atom_site_fract_y
 _atom_site_fract_z
 _atom_site_occupancy
  Pr  Pr0  1  0.400900  0.000000  0.500000  1
  Pr  Pr1  1  0.008781  0.423972  0.500000  1
  Pr  Pr2  1  0.584809  0.576028  0.500000  1
  Mg  Mg3  1  0.242187  0.241391  0.000000  1
  Mg  Mg4  1  0.000796  0.758608  0.000000  1
  Zr  Zr5  1  0.753163  0.000000  0.000000  1
  Ir  Ir6  1  0.678983  0.322002  0.000000  1
  Ir  Ir7  1  0.356981  0.677998  0.000000  1
  Ir  Ir8  1  0.973399  0.000000  0.500000  1
