# generated using pymatgen
data_HoEr2ZnCd3Ga2
_symmetry_space_group_name_H-M   'P 1'
_cell_length_a   7.23988018
_cell_length_b   7.23988020
_cell_length_c   4.34704600
_cell_angle_alpha   90.00000000
_cell_angle_beta   90.00000000
_cell_angle_gamma   120.06530014
_symmetry_Int_Tables_number   1
_chemical_formula_structural   HoEr2ZnCd3Ga2
_chemical_formula_sum   'Ho1 Er2 Zn1 Cd3 Ga2'
_cell_volume   197.19753437
_cell_formula_units_Z   1
loop_
 _symmetry_equiv_pos_site_id
 _symmetry_equiv_pos_as_xyz
  1  'x, y, z'
loop_
 _atom_site_type_symbol
 _atom_site_label
 _atom_site_symmetry_multiplicity
 _atom_site_fract_x
 _atom_site_fract_y
 _atom_site_fract_z
 _atom_site_occupancy
  Ho  Ho0  1  0.423071  0.423071  0.500000  1
  Er  Er1  1  0.577135  0.000064  0.500000  1
  Er  Er2  1  0.000064  0.577135  0.500000  1
  Zn  Zn3  1  0.999689  0.999689  0.500000  1
  Cd  Cd4  1  0.754786  0.754786  0.000000  1
  Cd  Cd5  1  0.245400  0.999750  0.000000  1
  Cd  Cd6  1  0.999750  0.245400  0.000000  1
  Ga  Ga7  1  0.666956  0.333149  0.000000  1
  Ga  Ga8  1  0.333149  0.666956  0.000000  1
