# generated using pymatgen
data_Tb3B7Os
_symmetry_space_group_name_H-M   'P 1'
_cell_length_a   8.10167608
_cell_length_b   8.10167602
_cell_length_c   9.37036000
_cell_angle_alpha   90.00000000
_cell_angle_beta   90.00000000
_cell_angle_gamma   154.79287834
_symmetry_Int_Tables_number   1
_chemical_formula_structural   Tb3B7Os
_chemical_formula_sum   'Tb6 B14 Os2'
_cell_volume   261.94207070
_cell_formula_units_Z   2
loop_
 _symmetry_equiv_pos_site_id
 _symmetry_equiv_pos_as_xyz
  1  'x, y, z'
loop_
 _atom_site_type_symbol
 _atom_site_label
 _atom_site_symmetry_multiplicity
 _atom_site_fract_x
 _atom_site_fract_y
 _atom_site_fract_z
 _atom_site_occupancy
  Tb  Tb0  1  0.894155  0.105845  0.439700  1
  Tb  Tb1  1  0.105845  0.894155  0.560300  1
  Tb  Tb2  1  0.894155  0.105845  0.060300  1
  Tb  Tb3  1  0.105845  0.894155  0.939700  1
  Tb  Tb4  1  0.244339  0.755661  0.250000  1
  Tb  Tb5  1  0.755661  0.244339  0.750000  1
  B  B6  1  0.727193  0.272807  0.466052  1
  B  B7  1  0.272807  0.727193  0.533948  1
  B  B8  1  0.727193  0.272807  0.033948  1
  B  B9  1  0.272807  0.727193  0.966052  1
  B  B10  1  0.631997  0.368003  0.150882  1
  B  B11  1  0.368003  0.631997  0.849119  1
  B  B12  1  0.631997  0.368003  0.349119  1
  B  B13  1  0.368003  0.631997  0.650881  1
  B  B14  1  0.521327  0.478673  0.096876  1
  B  B15  1  0.478673  0.521327  0.903124  1
  B  B16  1  0.521327  0.478673  0.403124  1
  B  B17  1  0.478673  0.521327  0.596876  1
  B  B18  1  0.458273  0.541727  0.250000  1
  B  B19  1  0.541727  0.458273  0.750000  1
  Os  Os20  1  0.054531  0.945469  0.250000  1
  Os  Os21  1  0.945469  0.054531  0.750000  1
