# generated using pymatgen
data_Na6VFe2As(CO7)2
_symmetry_space_group_name_H-M   'P 1'
_cell_length_a   8.66210089
_cell_length_b   8.66815379
_cell_length_c   9.24176000
_cell_angle_alpha   89.26981572
_cell_angle_beta   89.28424227
_cell_angle_gamma   104.44627386
_symmetry_Int_Tables_number   1
_chemical_formula_structural   Na6VFe2As(CO7)2
_chemical_formula_sum   'Na12 V2 Fe4 As2 C4 O28'
_cell_volume   671.82952366
_cell_formula_units_Z   2
loop_
 _symmetry_equiv_pos_site_id
 _symmetry_equiv_pos_as_xyz
  1  'x, y, z'
loop_
 _atom_site_type_symbol
 _atom_site_label
 _atom_site_symmetry_multiplicity
 _atom_site_fract_x
 _atom_site_fract_y
 _atom_site_fract_z
 _atom_site_occupancy
  Na  Na0  1  0.506235  0.256123  0.081606  1
  Na  Na1  1  0.006024  0.755912  0.081820  1
  Na  Na2  1  0.493419  0.743528  0.918583  1
  Na  Na3  1  0.993548  0.243345  0.919150  1
  Na  Na4  1  0.125931  0.122210  0.257602  1
  Na  Na5  1  0.625871  0.621956  0.257537  1
  Na  Na6  1  0.372261  0.876209  0.257668  1
  Na  Na7  1  0.871812  0.375856  0.257639  1
  Na  Na8  1  0.626966  0.125478  0.742954  1
  Na  Na9  1  0.128601  0.624604  0.744400  1
  Na  Na10  1  0.874710  0.876593  0.743404  1
  Na  Na11  1  0.373354  0.377533  0.744105  1
  V  V12  1  0.474359  0.225194  0.414595  1
  V  V13  1  0.975180  0.724712  0.415384  1
  Fe  Fe14  1  0.263722  0.513821  0.345494  1
  Fe  Fe15  1  0.732379  0.480465  0.655118  1
  Fe  Fe16  1  0.762789  0.012973  0.346005  1
  Fe  Fe17  1  0.230784  0.981839  0.654136  1
  As  As18  1  0.524814  0.773980  0.583505  1
  As  As19  1  0.025753  0.276074  0.583249  1
  C  C20  1  0.737663  0.987602  0.055952  1
  C  C21  1  0.237431  0.487583  0.056171  1
  C  C22  1  0.261789  0.012017  0.943666  1
  C  C23  1  0.762818  0.512446  0.944190  1
  O  O24  1  0.275936  0.025765  0.082839  1
  O  O25  1  0.774809  0.525427  0.083610  1
  O  O26  1  0.727328  0.977536  0.916297  1
  O  O27  1  0.227124  0.476874  0.916584  1
  O  O28  1  0.848343  0.098036  0.115046  1
  O  O29  1  0.348067  0.598341  0.114809  1
  O  O30  1  0.149868  0.900139  0.888558  1
  O  O31  1  0.651286  0.400774  0.887869  1
  O  O32  1  0.637387  0.887359  0.140148  1
  O  O33  1  0.137145  0.387619  0.140546  1
  O  O34  1  0.359641  0.110486  0.855786  1
  O  O35  1  0.862369  0.610696  0.857785  1
  O  O36  1  0.310490  0.061947  0.441208  1
  O  O37  1  0.812789  0.560445  0.441911  1
  O  O38  1  0.687509  0.936495  0.556841  1
  O  O39  1  0.188122  0.438431  0.555990  1
  O  O40  1  0.457264  0.707154  0.416617  1
  O  O41  1  0.956850  0.207017  0.417536  1
  O  O42  1  0.545024  0.299139  0.582400  1
  O  O43  1  0.049276  0.796966  0.583289  1
  O  O44  1  0.416907  0.366004  0.306458  1
  O  O45  1  0.916599  0.865500  0.308357  1
  O  O46  1  0.616131  0.167339  0.307949  1
  O  O47  1  0.116303  0.667678  0.307345  1
  O  O48  1  0.386592  0.830750  0.692704  1
  O  O49  1  0.888492  0.334884  0.692602  1
  O  O50  1  0.581820  0.634621  0.691620  1
  O  O51  1  0.082311  0.138525  0.693367  1
