# generated using pymatgen
data_Ho3Tm2Sn3
_symmetry_space_group_name_H-M   'P 1'
_cell_length_a   8.90527200
_cell_length_b   8.90527075
_cell_length_c   6.47360100
_cell_angle_alpha   90.00000000
_cell_angle_beta   90.00000000
_cell_angle_gamma   120.00040142
_symmetry_Int_Tables_number   1
_chemical_formula_structural   Ho3Tm2Sn3
_chemical_formula_sum   'Ho6 Tm4 Sn6'
_cell_volume   444.59965377
_cell_formula_units_Z   2
loop_
 _symmetry_equiv_pos_site_id
 _symmetry_equiv_pos_as_xyz
  1  'x, y, z'
loop_
 _atom_site_type_symbol
 _atom_site_label
 _atom_site_symmetry_multiplicity
 _atom_site_fract_x
 _atom_site_fract_y
 _atom_site_fract_z
 _atom_site_occupancy
  Ho  Ho0  1  0.999985  0.761972  0.750001  1
  Ho  Ho1  1  0.238016  0.238016  0.750001  1
  Ho  Ho2  1  0.761983  0.761984  0.250000  1
  Ho  Ho3  1  0.000015  0.238028  0.250000  1
  Ho  Ho4  1  0.761971  0.999985  0.750001  1
  Ho  Ho5  1  0.238029  0.000017  0.250000  1
  Tm  Tm6  1  0.333325  0.666673  0.500000  1
  Tm  Tm7  1  0.666674  0.333325  0.000000  1
  Tm  Tm8  1  0.666674  0.333325  0.500000  1
  Tm  Tm9  1  0.333325  0.666673  0.000000  1
  Sn  Sn10  1  0.396085  0.396085  0.250000  1
  Sn  Sn11  1  0.999985  0.603955  0.250000  1
  Sn  Sn12  1  0.396044  0.000014  0.750001  1
  Sn  Sn13  1  0.603957  0.999986  0.250000  1
  Sn  Sn14  1  0.000014  0.396044  0.750001  1
  Sn  Sn15  1  0.603915  0.603914  0.750001  1
