# generated using pymatgen
data_Ho3ErCoOs7
_symmetry_space_group_name_H-M   'P 1'
_cell_length_a   5.28906826
_cell_length_b   5.28921464
_cell_length_c   8.84552404
_cell_angle_alpha   89.97422148
_cell_angle_beta   89.97470918
_cell_angle_gamma   59.55114821
_symmetry_Int_Tables_number   1
_chemical_formula_structural   Ho3ErCoOs7
_chemical_formula_sum   'Ho3 Er1 Co1 Os7'
_cell_volume   213.32531693
_cell_formula_units_Z   1
loop_
 _symmetry_equiv_pos_site_id
 _symmetry_equiv_pos_as_xyz
  1  'x, y, z'
loop_
 _atom_site_type_symbol
 _atom_site_label
 _atom_site_symmetry_multiplicity
 _atom_site_fract_x
 _atom_site_fract_y
 _atom_site_fract_z
 _atom_site_occupancy
  Ho  Ho0  1  0.665883  0.666350  0.433368  1
  Ho  Ho1  1  0.665900  0.666188  0.066700  1
  Ho  Ho2  1  0.330541  0.330882  0.937435  1
  Er  Er3  1  0.330574  0.331086  0.562503  1
  Co  Co4  1  0.173742  0.173768  0.250350  1
  Os  Os5  1  0.993303  0.994120  0.497502  1
  Os  Os6  1  0.993282  0.993969  0.002624  1
  Os  Os7  1  0.827843  0.346047  0.749634  1
  Os  Os8  1  0.347687  0.826935  0.749625  1
  Os  Os9  1  0.833735  0.833696  0.749710  1
  Os  Os10  1  0.177637  0.659556  0.250273  1
  Os  Os11  1  0.659876  0.177400  0.250274  1
