# generated using pymatgen
data_Rb2MnVS4
_symmetry_space_group_name_H-M   'P 1'
_cell_length_a   13.86777644
_cell_length_b   12.34557432
_cell_length_c   7.43090495
_cell_angle_alpha   85.21149314
_cell_angle_beta   62.51446641
_cell_angle_gamma   32.27404671
_symmetry_Int_Tables_number   1
_chemical_formula_structural   Rb2MnVS4
_chemical_formula_sum   'Rb4 Mn2 V2 S8'
_cell_volume   459.23092201
_cell_formula_units_Z   2
loop_
 _symmetry_equiv_pos_site_id
 _symmetry_equiv_pos_as_xyz
  1  'x, y, z'
loop_
 _atom_site_type_symbol
 _atom_site_label
 _atom_site_symmetry_multiplicity
 _atom_site_fract_x
 _atom_site_fract_y
 _atom_site_fract_z
 _atom_site_occupancy
  Rb  Rb0  1  0.572624  0.572624  0.927376  1
  Rb  Rb1  1  0.927376  0.927376  0.572624  1
  Rb  Rb2  1  0.322624  0.322624  0.677376  1
  Rb  Rb3  1  0.677376  0.677376  0.322624  1
  Mn  Mn4  1  0.000000  0.000000  0.000000  1
  Mn  Mn5  1  0.250000  0.250000  0.250000  1
  V  V6  1  0.750000  0.750000  0.750000  1
  V  V7  1  0.500000  0.500000  0.500000  1
  S  S8  1  0.227948  0.876979  0.584757  1
  S  S9  1  0.310316  0.584757  0.876979  1
  S  S10  1  0.584757  0.310316  0.227948  1
  S  S11  1  0.876979  0.227948  0.310316  1
  S  S12  1  0.373021  0.022052  0.939684  1
  S  S13  1  0.939684  0.665243  0.373021  1
  S  S14  1  0.665243  0.939684  0.022052  1
  S  S15  1  0.022052  0.373021  0.665243  1
