# generated using pymatgen
data_Cs2LaNd9Os2Br17
_symmetry_space_group_name_H-M   'P 1'
_cell_length_a   9.64187717
_cell_length_b   11.24543030
_cell_length_c   11.24542232
_cell_angle_alpha   108.01538322
_cell_angle_beta   93.80342819
_cell_angle_gamma   93.80719896
_symmetry_Int_Tables_number   1
_chemical_formula_structural   Cs2LaNd9Os2Br17
_chemical_formula_sum   'Cs2 La1 Nd9 Os2 Br17'
_cell_volume   1152.11206633
_cell_formula_units_Z   1
loop_
 _symmetry_equiv_pos_site_id
 _symmetry_equiv_pos_as_xyz
  1  'x, y, z'
loop_
 _atom_site_type_symbol
 _atom_site_label
 _atom_site_symmetry_multiplicity
 _atom_site_fract_x
 _atom_site_fract_y
 _atom_site_fract_z
 _atom_site_occupancy
  Cs  Cs0  1  0.999922  0.822548  0.177317  1
  Cs  Cs1  1  0.999924  0.177320  0.822544  1
  La  La2  1  0.559161  0.832860  0.832871  1
  Nd  Nd3  1  0.438365  0.163668  0.163646  1
  Nd  Nd4  1  0.575202  0.507772  0.205523  1
  Nd  Nd5  1  0.833196  0.289293  0.289317  1
  Nd  Nd6  1  0.306883  0.440633  0.440625  1
  Nd  Nd7  1  0.424306  0.802562  0.484784  1
  Nd  Nd8  1  0.575137  0.205498  0.507759  1
  Nd  Nd9  1  0.692718  0.566635  0.566634  1
  Nd  Nd10  1  0.171654  0.709429  0.709445  1
  Nd  Nd11  1  0.424374  0.484799  0.802570  1
  Os  Os12  1  0.570977  0.358648  0.358657  1
  Os  Os13  1  0.431305  0.645450  0.645448  1
  Br  Br14  1  0.577823  0.680956  0.022829  1
  Br  Br15  1  0.714204  0.067360  0.067359  1
  Br  Br16  1  0.855383  0.448380  0.121224  1
  Br  Br17  1  0.135984  0.207606  0.207509  1
  Br  Br18  1  0.284862  0.603795  0.255981  1
  Br  Br19  1  0.421316  0.980437  0.310523  1
  Br  Br20  1  0.714465  0.744650  0.396346  1
  Br  Br21  1  0.855290  0.121200  0.448387  1
  Br  Br22  1  0.000151  0.500635  0.500793  1
  Br  Br23  1  0.144737  0.879340  0.549351  1
  Br  Br24  1  0.284816  0.256043  0.603845  1
  Br  Br25  1  0.577775  0.022790  0.680935  1
  Br  Br26  1  0.714489  0.396333  0.744564  1
  Br  Br27  1  0.869698  0.791281  0.791230  1
  Br  Br28  1  0.144799  0.549348  0.879344  1
  Br  Br29  1  0.279711  0.932139  0.932149  1
  Br  Br30  1  0.421376  0.310592  0.980492  1
