# generated using pymatgen
data_CaYbHo2(ReN3)4
_symmetry_space_group_name_H-M   'P 1'
_cell_length_a   7.33317437
_cell_length_b   7.33317496
_cell_length_c   6.23142755
_cell_angle_alpha   74.19085807
_cell_angle_beta   74.19085126
_cell_angle_gamma   83.21178995
_symmetry_Int_Tables_number   1
_chemical_formula_structural   CaYbHo2(ReN3)4
_chemical_formula_sum   'Ca1 Yb1 Ho2 Re4 N12'
_cell_volume   309.87655007
_cell_formula_units_Z   1
loop_
 _symmetry_equiv_pos_site_id
 _symmetry_equiv_pos_as_xyz
  1  'x, y, z'
loop_
 _atom_site_type_symbol
 _atom_site_label
 _atom_site_symmetry_multiplicity
 _atom_site_fract_x
 _atom_site_fract_y
 _atom_site_fract_z
 _atom_site_occupancy
  Ca  Ca0  1  0.700844  0.299156  0.250000  1
  Yb  Yb1  1  0.298871  0.701129  0.750000  1
  Ho  Ho2  1  0.911213  0.088787  0.750000  1
  Ho  Ho3  1  0.089858  0.910142  0.250000  1
  Re  Re4  1  0.620698  0.798542  0.266168  1
  Re  Re5  1  0.201458  0.379302  0.233832  1
  Re  Re6  1  0.378259  0.201017  0.734765  1
  Re  Re7  1  0.798983  0.621741  0.765235  1
  N  N8  1  0.347582  0.352904  0.945212  1
  N  N9  1  0.009239  0.216290  0.346400  1
  N  N10  1  0.783710  0.990761  0.153600  1
  N  N11  1  0.217146  0.006876  0.846366  1
  N  N12  1  0.651185  0.649451  0.052698  1
  N  N13  1  0.883119  0.379408  0.827434  1
  N  N14  1  0.118312  0.621835  0.167600  1
  N  N15  1  0.993124  0.782854  0.653634  1
  N  N16  1  0.378165  0.881688  0.332400  1
  N  N17  1  0.647096  0.652418  0.554788  1
  N  N18  1  0.620592  0.116881  0.672566  1
  N  N19  1  0.350549  0.348815  0.447302  1
