# generated using pymatgen
data_Ca6CePrBi6
_symmetry_space_group_name_H-M   'P 1'
_cell_length_a   8.43301954
_cell_length_b   8.47909669
_cell_length_c   8.41674592
_cell_angle_alpha   109.46100891
_cell_angle_beta   109.18065335
_cell_angle_gamma   109.41785712
_symmetry_Int_Tables_number   1
_chemical_formula_structural   Ca6CePrBi6
_chemical_formula_sum   'Ca6 Ce1 Pr1 Bi6'
_cell_volume   465.30365698
_cell_formula_units_Z   1
loop_
 _symmetry_equiv_pos_site_id
 _symmetry_equiv_pos_as_xyz
  1  'x, y, z'
loop_
 _atom_site_type_symbol
 _atom_site_label
 _atom_site_symmetry_multiplicity
 _atom_site_fract_x
 _atom_site_fract_y
 _atom_site_fract_z
 _atom_site_occupancy
  Ca  Ca0  1  0.502036  0.002622  0.142326  1
  Ca  Ca1  1  0.643082  0.502382  0.002513  1
  Ca  Ca2  1  0.997815  0.642070  0.499699  1
  Ca  Ca3  1  0.858376  0.855834  0.857753  1
  Ca  Ca4  1  0.999232  0.141682  0.497817  1
  Ca  Ca5  1  0.357477  0.355876  0.359101  1
  Ce  Ce6  1  0.143457  0.498969  0.999751  1
  Pr  Pr7  1  0.499732  0.999646  0.640962  1
  Bi  Bi8  1  0.622458  0.747606  0.374137  1
  Bi  Bi9  1  0.751411  0.375961  0.626473  1
  Bi  Bi10  1  0.250215  0.126891  0.874319  1
  Bi  Bi11  1  0.374432  0.626744  0.751073  1
  Bi  Bi12  1  0.125415  0.875163  0.250758  1
  Bi  Bi13  1  0.874860  0.248548  0.123316  1
