# generated using pymatgen
data_ErMn2(SnRu2)3
_symmetry_space_group_name_H-M   'P 1'
_cell_length_a   4.48405200
_cell_length_b   6.37333800
_cell_length_c   13.44882700
_cell_angle_alpha   90.00000000
_cell_angle_beta   90.00074126
_cell_angle_gamma   90.00000000
_symmetry_Int_Tables_number   1
_chemical_formula_structural   ErMn2(SnRu2)3
_chemical_formula_sum   'Er2 Mn4 Sn6 Ru12'
_cell_volume   384.34567518
_cell_formula_units_Z   2
loop_
 _symmetry_equiv_pos_site_id
 _symmetry_equiv_pos_as_xyz
  1  'x, y, z'
loop_
 _atom_site_type_symbol
 _atom_site_label
 _atom_site_symmetry_multiplicity
 _atom_site_fract_x
 _atom_site_fract_y
 _atom_site_fract_z
 _atom_site_occupancy
  Er  Er0  1  0.000004  0.500001  0.996916  1
  Er  Er1  1  0.499951  0.000000  0.170007  1
  Mn  Mn2  1  0.999939  0.500001  0.338663  1
  Mn  Mn3  1  0.500000  0.000000  0.500585  1
  Mn  Mn4  1  0.000081  0.500001  0.665740  1
  Mn  Mn5  1  0.500045  0.000000  0.827984  1
  Sn  Sn6  1  0.999991  0.000000  0.998920  1
  Sn  Sn7  1  0.499954  0.500001  0.167834  1
  Sn  Sn8  1  0.999939  0.000000  0.339727  1
  Sn  Sn9  1  0.500005  0.500001  0.506515  1
  Sn  Sn10  1  0.000042  0.000000  0.660083  1
  Sn  Sn11  1  0.500085  0.500001  0.827011  1
  Ru  Ru12  1  0.499996  0.237505  0.989130  1
  Ru  Ru13  1  0.499996  0.762496  0.989130  1
  Ru  Ru14  1  0.999940  0.262531  0.177791  1
  Ru  Ru15  1  0.999940  0.737470  0.177791  1
  Ru  Ru16  1  0.499934  0.262990  0.343307  1
  Ru  Ru17  1  0.499934  0.737008  0.343307  1
  Ru  Ru18  1  0.999996  0.255445  0.500607  1
  Ru  Ru19  1  0.999996  0.744553  0.500607  1
  Ru  Ru20  1  0.500056  0.244562  0.665766  1
  Ru  Ru21  1  0.500056  0.755436  0.665766  1
  Ru  Ru22  1  0.000064  0.237130  0.823407  1
  Ru  Ru23  1  0.000064  0.762871  0.823407  1
