# generated using pymatgen
data_TbHo3Co12(SiB3)2
_symmetry_space_group_name_H-M   'P 1'
_cell_length_a   5.10255207
_cell_length_b   5.10433029
_cell_length_c   12.33716600
_cell_angle_alpha   89.99922699
_cell_angle_beta   90.00072875
_cell_angle_gamma   119.97477491
_symmetry_Int_Tables_number   1
_chemical_formula_structural   TbHo3Co12(SiB3)2
_chemical_formula_sum   'Tb1 Ho3 Co12 Si2 B6'
_cell_volume   278.34446423
_cell_formula_units_Z   1
loop_
 _symmetry_equiv_pos_site_id
 _symmetry_equiv_pos_as_xyz
  1  'x, y, z'
loop_
 _atom_site_type_symbol
 _atom_site_label
 _atom_site_symmetry_multiplicity
 _atom_site_fract_x
 _atom_site_fract_y
 _atom_site_fract_z
 _atom_site_occupancy
  Tb  Tb0  1  0.000034  0.999931  0.999914  1
  Ho  Ho1  1  0.999954  0.000007  0.499799  1
  Ho  Ho2  1  0.999982  0.000041  0.257212  1
  Ho  Ho3  1  0.999998  0.999989  0.742570  1
  Co  Co4  1  0.500147  0.000423  0.381739  1
  Co  Co5  1  0.999636  0.499887  0.381365  1
  Co  Co6  1  0.500149  0.499866  0.381435  1
  Co  Co7  1  0.499766  0.999600  0.617992  1
  Co  Co8  1  0.499775  0.500145  0.618284  1
  Co  Co9  1  0.000329  0.500163  0.618234  1
  Co  Co10  1  0.499844  0.999742  0.148876  1
  Co  Co11  1  0.000298  0.500189  0.149536  1
  Co  Co12  1  0.499858  0.500199  0.149592  1
  Co  Co13  1  0.500152  0.000264  0.851433  1
  Co  Co14  1  0.500172  0.499770  0.850733  1
  Co  Co15  1  0.999686  0.499789  0.850955  1
  Si  Si16  1  0.333268  0.665307  0.000173  1
  Si  Si17  1  0.666799  0.334594  0.000353  1
  B  B18  1  0.333842  0.667645  0.263623  1
  B  B19  1  0.666159  0.332487  0.263401  1
  B  B20  1  0.666482  0.332526  0.736426  1
  B  B21  1  0.333554  0.667364  0.736732  1
  B  B22  1  0.333132  0.666256  0.499654  1
  B  B23  1  0.666881  0.333818  0.499970  1
