# generated using pymatgen
data_Tb6Er2Cu3Si12Pd
_symmetry_space_group_name_H-M   'P 1'
_cell_length_a   8.04174900
_cell_length_b   8.03363256
_cell_length_c   8.12013300
_cell_angle_alpha   89.99963131
_cell_angle_beta   90.00000000
_cell_angle_gamma   120.03343045
_symmetry_Int_Tables_number   1
_chemical_formula_structural   Tb6Er2Cu3Si12Pd
_chemical_formula_sum   'Tb6 Er2 Cu3 Si12 Pd1'
_cell_volume   454.16101731
_cell_formula_units_Z   1
loop_
 _symmetry_equiv_pos_site_id
 _symmetry_equiv_pos_as_xyz
  1  'x, y, z'
loop_
 _atom_site_type_symbol
 _atom_site_label
 _atom_site_symmetry_multiplicity
 _atom_site_fract_x
 _atom_site_fract_y
 _atom_site_fract_z
 _atom_site_occupancy
  Tb  Tb0  1  0.998830  0.499410  0.249371  1
  Tb  Tb1  1  0.998224  0.499102  0.750739  1
  Tb  Tb2  1  0.500581  0.499410  0.249371  1
  Tb  Tb3  1  0.500877  0.499102  0.750739  1
  Tb  Tb4  1  0.000003  0.000007  0.249058  1
  Tb  Tb5  1  0.000003  0.000006  0.750707  1
  Er  Er6  1  0.500539  0.001077  0.249457  1
  Er  Er7  1  0.500850  0.001700  0.750660  1
  Cu  Cu8  1  0.334009  0.668019  0.000395  1
  Cu  Cu9  1  0.665951  0.331900  0.999918  1
  Cu  Cu10  1  0.665992  0.331983  0.499104  1
  Si  Si11  1  0.169426  0.338851  0.999224  1
  Si  Si12  1  0.831071  0.662140  0.000756  1
  Si  Si13  1  0.660747  0.830753  0.999225  1
  Si  Si14  1  0.831212  0.662424  0.500535  1
  Si  Si15  1  0.338255  0.168726  0.000772  1
  Si  Si16  1  0.166019  0.332038  0.499216  1
  Si  Si17  1  0.170007  0.830753  0.999225  1
  Si  Si18  1  0.337894  0.168605  0.500548  1
  Si  Si19  1  0.830472  0.168726  0.000772  1
  Si  Si20  1  0.667848  0.834243  0.499204  1
  Si  Si21  1  0.830712  0.168605  0.500548  1
  Si  Si22  1  0.166395  0.834243  0.499204  1
  Pd  Pd23  1  0.334086  0.668172  0.501249  1
