# generated using pymatgen
data_Nd3Dy2(TcB3)2
_symmetry_space_group_name_H-M   'P 1'
_cell_length_a   5.57641923
_cell_length_b   5.57642215
_cell_length_c   8.69456491
_cell_angle_alpha   71.29568907
_cell_angle_beta   71.29568052
_cell_angle_gamma   59.99998805
_symmetry_Int_Tables_number   1
_chemical_formula_structural   Nd3Dy2(TcB3)2
_chemical_formula_sum   'Nd3 Dy2 Tc2 B6'
_cell_volume   217.50298588
_cell_formula_units_Z   1
loop_
 _symmetry_equiv_pos_site_id
 _symmetry_equiv_pos_as_xyz
  1  'x, y, z'
loop_
 _atom_site_type_symbol
 _atom_site_label
 _atom_site_symmetry_multiplicity
 _atom_site_fract_x
 _atom_site_fract_y
 _atom_site_fract_z
 _atom_site_occupancy
  Nd  Nd0  1  0.000000  0.000000  0.000000  1
  Nd  Nd1  1  0.250975  0.250975  0.247076  1
  Nd  Nd2  1  0.749025  0.749025  0.752924  1
  Dy  Dy3  1  0.421712  0.421712  0.734865  1
  Dy  Dy4  1  0.578288  0.578288  0.265135  1
  Tc  Tc5  1  0.113177  0.113177  0.660468  1
  Tc  Tc6  1  0.886823  0.886823  0.339532  1
  B  B7  1  0.169531  0.830469  0.500000  1
  B  B8  1  0.830469  0.500000  0.500000  1
  B  B9  1  0.500000  0.169531  0.500000  1
  B  B10  1  0.169531  0.500000  0.500000  1
  B  B11  1  0.500000  0.830469  0.500000  1
  B  B12  1  0.830469  0.169531  0.500000  1
