# generated using pymatgen
data_Nd6Ho10Cd4Ir3Pt
_symmetry_space_group_name_H-M   'P 1'
_cell_length_a   9.72887139
_cell_length_b   9.72887200
_cell_length_c   9.72887136
_cell_angle_alpha   60.10698402
_cell_angle_beta   60.10697840
_cell_angle_gamma   60.10698703
_symmetry_Int_Tables_number   1
_chemical_formula_structural   Nd6Ho10Cd4Ir3Pt
_chemical_formula_sum   'Nd6 Ho10 Cd4 Ir3 Pt1'
_cell_volume   652.71537452
_cell_formula_units_Z   1
loop_
 _symmetry_equiv_pos_site_id
 _symmetry_equiv_pos_as_xyz
  1  'x, y, z'
loop_
 _atom_site_type_symbol
 _atom_site_label
 _atom_site_symmetry_multiplicity
 _atom_site_fract_x
 _atom_site_fract_y
 _atom_site_fract_z
 _atom_site_occupancy
  Nd  Nd0  1  0.940718  0.559632  0.559632  1
  Nd  Nd1  1  0.561057  0.940227  0.940227  1
  Nd  Nd2  1  0.559632  0.940718  0.559632  1
  Nd  Nd3  1  0.940227  0.561057  0.940227  1
  Nd  Nd4  1  0.559632  0.559632  0.940718  1
  Nd  Nd5  1  0.940227  0.940227  0.561057  1
  Ho  Ho6  1  0.346977  0.346977  0.346977  1
  Ho  Ho7  1  0.349829  0.349829  0.955215  1
  Ho  Ho8  1  0.349829  0.955215  0.349829  1
  Ho  Ho9  1  0.955215  0.349829  0.349829  1
  Ho  Ho10  1  0.808184  0.188152  0.188152  1
  Ho  Ho11  1  0.185684  0.812737  0.812737  1
  Ho  Ho12  1  0.188152  0.808184  0.188152  1
  Ho  Ho13  1  0.812737  0.185684  0.812737  1
  Ho  Ho14  1  0.188152  0.188152  0.808184  1
  Ho  Ho15  1  0.812737  0.812737  0.185684  1
  Cd  Cd16  1  0.579369  0.579369  0.579369  1
  Cd  Cd17  1  0.579667  0.579667  0.261270  1
  Cd  Cd18  1  0.579667  0.261270  0.579667  1
  Cd  Cd19  1  0.261270  0.579667  0.579667  1
  Ir  Ir20  1  0.141875  0.141875  0.575344  1
  Ir  Ir21  1  0.141875  0.575344  0.141875  1
  Ir  Ir22  1  0.575344  0.141875  0.141875  1
  Pt  Pt23  1  0.141944  0.141944  0.141944  1
