# generated using pymatgen
data_ErTm3(Pa2Ga5)4
_symmetry_space_group_name_H-M   'P 1'
_cell_length_a   6.05382400
_cell_length_b   9.48201800
_cell_length_c   11.64138300
_cell_angle_alpha   90.00000000
_cell_angle_beta   90.00160672
_cell_angle_gamma   90.00000000
_symmetry_Int_Tables_number   1
_chemical_formula_structural   ErTm3(Pa2Ga5)4
_chemical_formula_sum   'Er1 Tm3 Pa8 Ga20'
_cell_volume   668.24411659
_cell_formula_units_Z   1
loop_
 _symmetry_equiv_pos_site_id
 _symmetry_equiv_pos_as_xyz
  1  'x, y, z'
loop_
 _atom_site_type_symbol
 _atom_site_label
 _atom_site_symmetry_multiplicity
 _atom_site_fract_x
 _atom_site_fract_y
 _atom_site_fract_z
 _atom_site_occupancy
  Er  Er0  1  0.857046  0.750000  0.072126  1
  Tm  Tm1  1  0.643153  0.750000  0.572148  1
  Tm  Tm2  1  0.143138  0.250000  0.927824  1
  Tm  Tm3  1  0.356876  0.250000  0.427840  1
  Pa  Pa4  1  0.880929  0.502585  0.352209  1
  Pa  Pa5  1  0.619047  0.997473  0.852138  1
  Pa  Pa6  1  0.119081  0.002578  0.647815  1
  Pa  Pa7  1  0.380911  0.497357  0.147825  1
  Pa  Pa8  1  0.119081  0.497422  0.647815  1
  Pa  Pa9  1  0.380911  0.002643  0.147825  1
  Pa  Pa10  1  0.880929  0.997415  0.352209  1
  Pa  Pa11  1  0.619047  0.502527  0.852138  1
  Ga  Ga12  1  0.873079  0.051805  0.090572  1
  Ga  Ga13  1  0.626886  0.448442  0.590516  1
  Ga  Ga14  1  0.126975  0.551518  0.909419  1
  Ga  Ga15  1  0.373103  0.948431  0.409466  1
  Ga  Ga16  1  0.126975  0.948482  0.909419  1
  Ga  Ga17  1  0.373103  0.551569  0.409466  1
  Ga  Ga18  1  0.873079  0.448195  0.090572  1
  Ga  Ga19  1  0.626886  0.051558  0.590516  1
  Ga  Ga20  1  0.154987  0.750000  0.263573  1
  Ga  Ga21  1  0.345209  0.750000  0.763401  1
  Ga  Ga22  1  0.845219  0.250000  0.736576  1
  Ga  Ga23  1  0.654786  0.250000  0.236569  1
  Ga  Ga24  1  0.391065  0.750000  0.993786  1
  Ga  Ga25  1  0.108637  0.750000  0.493835  1
  Ga  Ga26  1  0.608614  0.250000  0.006168  1
  Ga  Ga27  1  0.891345  0.250000  0.506174  1
  Ga  Ga28  1  0.595887  0.750000  0.291616  1
  Ga  Ga29  1  0.904013  0.750000  0.791423  1
  Ga  Ga30  1  0.404000  0.250000  0.708516  1
  Ga  Ga31  1  0.096003  0.250000  0.208506  1
