# generated using pymatgen
data_Y2P7Ru12
_symmetry_space_group_name_H-M   'P 1'
_cell_length_a   9.40828900
_cell_length_b   9.40828801
_cell_length_c   3.96183400
_cell_angle_alpha   90.00000000
_cell_angle_beta   90.00000000
_cell_angle_gamma   119.99999294
_symmetry_Int_Tables_number   1
_chemical_formula_structural   Y2P7Ru12
_chemical_formula_sum   'Y2 P7 Ru12'
_cell_volume   303.70237651
_cell_formula_units_Z   1
loop_
 _symmetry_equiv_pos_site_id
 _symmetry_equiv_pos_as_xyz
  1  'x, y, z'
loop_
 _atom_site_type_symbol
 _atom_site_label
 _atom_site_symmetry_multiplicity
 _atom_site_fract_x
 _atom_site_fract_y
 _atom_site_fract_z
 _atom_site_occupancy
  Y  Y0  1  0.666667  0.333333  0.500000  1
  Y  Y1  1  0.333333  0.666667  0.000000  1
  P  P2  1  0.600369  0.718012  0.500000  1
  P  P3  1  0.000000  0.000000  0.000000  1
  P  P4  1  0.281988  0.882356  0.500000  1
  P  P5  1  0.117644  0.399631  0.500000  1
  P  P6  1  0.885127  0.575449  0.000000  1
  P  P7  1  0.424551  0.309678  0.000000  1
  P  P8  1  0.690322  0.114873  0.000000  1
  Ru  Ru9  1  0.556750  0.949179  0.500000  1
  Ru  Ru10  1  0.392430  0.443250  0.500000  1
  Ru  Ru11  1  0.914552  0.122655  0.500000  1
  Ru  Ru12  1  0.208103  0.085448  0.500000  1
  Ru  Ru13  1  0.877345  0.791897  0.500000  1
  Ru  Ru14  1  0.728534  0.892158  0.000000  1
  Ru  Ru15  1  0.107842  0.836374  0.000000  1
  Ru  Ru16  1  0.163626  0.271466  0.000000  1
  Ru  Ru17  1  0.424515  0.065530  0.000000  1
  Ru  Ru18  1  0.934470  0.358986  0.000000  1
  Ru  Ru19  1  0.641014  0.575485  0.000000  1
  Ru  Ru20  1  0.050821  0.607570  0.500000  1
