# generated using pymatgen
data_Y8GaBCl12
_symmetry_space_group_name_H-M   'P 1'
_cell_length_a   3.88807500
_cell_length_b   12.98207124
_cell_length_c   13.43330401
_cell_angle_alpha   89.69388865
_cell_angle_beta   90.00000000
_cell_angle_gamma   90.00000000
_symmetry_Int_Tables_number   1
_chemical_formula_structural   Y8GaBCl12
_chemical_formula_sum   'Y8 Ga1 B1 Cl12'
_cell_volume   678.03992477
_cell_formula_units_Z   1
loop_
 _symmetry_equiv_pos_site_id
 _symmetry_equiv_pos_as_xyz
  1  'x, y, z'
loop_
 _atom_site_type_symbol
 _atom_site_label
 _atom_site_symmetry_multiplicity
 _atom_site_fract_x
 _atom_site_fract_y
 _atom_site_fract_z
 _atom_site_occupancy
  Y  Y0  1  0.000000  0.121451  0.096172  1
  Y  Y1  1  0.000000  0.878549  0.903828  1
  Y  Y2  1  0.000000  0.603345  0.418106  1
  Y  Y3  1  0.000000  0.396655  0.581894  1
  Y  Y4  1  0.500000  0.135587  0.840300  1
  Y  Y5  1  0.500000  0.864413  0.159700  1
  Y  Y6  1  0.500000  0.622088  0.644115  1
  Y  Y7  1  0.500000  0.377912  0.355885  1
  Ga  Ga8  1  0.500000  0.000000  0.000000  1
  B  B9  1  0.500000  0.500000  0.500000  1
  Cl  Cl10  1  0.500000  0.271648  0.679963  1
  Cl  Cl11  1  0.500000  0.728352  0.320037  1
  Cl  Cl12  1  0.500000  0.761517  0.811532  1
  Cl  Cl13  1  0.500000  0.238483  0.188468  1
  Cl  Cl14  1  0.000000  0.256505  0.926151  1
  Cl  Cl15  1  0.000000  0.743495  0.073849  1
  Cl  Cl16  1  0.000000  0.478193  0.248684  1
  Cl  Cl17  1  0.000000  0.521807  0.751316  1
  Cl  Cl18  1  0.000000  0.975073  0.257228  1
  Cl  Cl19  1  0.000000  0.024927  0.742772  1
  Cl  Cl20  1  0.000000  0.249052  0.429818  1
  Cl  Cl21  1  0.000000  0.750948  0.570182  1
