# generated using pymatgen
data_CaTb6Sn23OsRh5
_symmetry_space_group_name_H-M   'P 1'
_cell_length_a   9.87933804
_cell_length_b   9.87933886
_cell_length_c   10.15385515
_cell_angle_alpha   90.19289049
_cell_angle_beta   89.80710632
_cell_angle_gamma   119.95046279
_symmetry_Int_Tables_number   1
_chemical_formula_structural   CaTb6Sn23OsRh5
_chemical_formula_sum   'Ca1 Tb6 Sn23 Os1 Rh5'
_cell_volume   858.67854201
_cell_formula_units_Z   1
loop_
 _symmetry_equiv_pos_site_id
 _symmetry_equiv_pos_as_xyz
  1  'x, y, z'
loop_
 _atom_site_type_symbol
 _atom_site_label
 _atom_site_symmetry_multiplicity
 _atom_site_fract_x
 _atom_site_fract_y
 _atom_site_fract_z
 _atom_site_occupancy
  Ca  Ca0  1  0.996601  0.003399  0.004013  1
  Tb  Tb1  1  0.479478  0.520522  0.307915  1
  Tb  Tb2  1  0.521005  0.478995  0.691399  1
  Tb  Tb3  1  0.482606  0.959943  0.306133  1
  Tb  Tb4  1  0.520270  0.041751  0.692749  1
  Tb  Tb5  1  0.040057  0.517394  0.306133  1
  Tb  Tb6  1  0.958249  0.479730  0.692749  1
  Sn  Sn7  1  0.349049  0.999495  0.999668  1
  Sn  Sn8  1  0.648870  0.000392  0.000035  1
  Sn  Sn9  1  0.999608  0.351130  0.000035  1
  Sn  Sn10  1  0.000505  0.650951  0.999668  1
  Sn  Sn11  1  0.649431  0.649262  0.999898  1
  Sn  Sn12  1  0.350738  0.350569  0.999898  1
  Sn  Sn13  1  0.333309  0.666691  0.816209  1
  Sn  Sn14  1  0.667403  0.332597  0.182240  1
  Sn  Sn15  1  0.000383  0.999617  0.501329  1
  Sn  Sn16  1  0.780337  0.219663  0.458234  1
  Sn  Sn17  1  0.218562  0.781438  0.542874  1
  Sn  Sn18  1  0.780999  0.561465  0.455657  1
  Sn  Sn19  1  0.219672  0.438888  0.543313  1
  Sn  Sn20  1  0.438535  0.219001  0.455657  1
  Sn  Sn21  1  0.561112  0.780328  0.543313  1
  Sn  Sn22  1  0.333518  0.666482  0.116182  1
  Sn  Sn23  1  0.666012  0.333988  0.881562  1
  Sn  Sn24  1  0.119140  0.880860  0.275496  1
  Sn  Sn25  1  0.882026  0.117974  0.724338  1
  Sn  Sn26  1  0.118433  0.235190  0.278506  1
  Sn  Sn27  1  0.881920  0.763385  0.723052  1
  Sn  Sn28  1  0.764810  0.881567  0.278506  1
  Sn  Sn29  1  0.236615  0.118080  0.723052  1
  Os  Os30  1  0.830562  0.169438  0.201034  1
  Rh  Rh31  1  0.170036  0.829964  0.800163  1
  Rh  Rh32  1  0.829785  0.659676  0.199398  1
  Rh  Rh33  1  0.170595  0.340549  0.800098  1
  Rh  Rh34  1  0.340324  0.170215  0.199398  1
  Rh  Rh35  1  0.659451  0.829405  0.800098  1
