# generated using pymatgen
data_Ba3Ca(SiO4)2
_symmetry_space_group_name_H-M   'P 1'
_cell_length_a   5.84917400
_cell_length_b   5.84917326
_cell_length_c   7.47628900
_cell_angle_alpha   90.00000000
_cell_angle_beta   90.00000000
_cell_angle_gamma   119.99999286
_symmetry_Int_Tables_number   1
_chemical_formula_structural   Ba3Ca(SiO4)2
_chemical_formula_sum   'Ba3 Ca1 Si2 O8'
_cell_volume   221.51634182
_cell_formula_units_Z   1
loop_
 _symmetry_equiv_pos_site_id
 _symmetry_equiv_pos_as_xyz
  1  'x, y, z'
loop_
 _atom_site_type_symbol
 _atom_site_label
 _atom_site_symmetry_multiplicity
 _atom_site_fract_x
 _atom_site_fract_y
 _atom_site_fract_z
 _atom_site_occupancy
  Ba  Ba0  1  0.333333  0.666667  0.672922  1
  Ba  Ba1  1  0.666667  0.333333  0.327078  1
  Ba  Ba2  1  0.000000  0.000000  0.000000  1
  Ca  Ca3  1  0.000000  0.000000  0.500000  1
  Si  Si4  1  0.333333  0.666667  0.223529  1
  Si  Si5  1  0.666667  0.333333  0.776471  1
  O  O6  1  0.333333  0.666667  0.007197  1
  O  O7  1  0.666667  0.333333  0.992803  1
  O  O8  1  0.180748  0.819252  0.307639  1
  O  O9  1  0.819252  0.180748  0.692361  1
  O  O10  1  0.180748  0.361495  0.307639  1
  O  O11  1  0.819252  0.638505  0.692361  1
  O  O12  1  0.638505  0.819252  0.307639  1
  O  O13  1  0.361495  0.180748  0.692361  1
