# generated using pymatgen
data_Dy8Nb11Si16Ir
_symmetry_space_group_name_H-M   'P 1'
_cell_length_a   7.05480616
_cell_length_b   7.05480624
_cell_length_c   13.00859177
_cell_angle_alpha   89.81491256
_cell_angle_beta   90.18508548
_cell_angle_gamma   89.71807954
_symmetry_Int_Tables_number   1
_chemical_formula_structural   Dy8Nb11Si16Ir
_chemical_formula_sum   'Dy8 Nb11 Si16 Ir1'
_cell_volume   647.42676518
_cell_formula_units_Z   1
loop_
 _symmetry_equiv_pos_site_id
 _symmetry_equiv_pos_as_xyz
  1  'x, y, z'
loop_
 _atom_site_type_symbol
 _atom_site_label
 _atom_site_symmetry_multiplicity
 _atom_site_fract_x
 _atom_site_fract_y
 _atom_site_fract_z
 _atom_site_occupancy
  Dy  Dy0  1  0.996326  0.658700  0.032403  1
  Dy  Dy1  1  0.002596  0.343148  0.531793  1
  Dy  Dy2  1  0.658700  0.996326  0.967597  1
  Dy  Dy3  1  0.158042  0.504669  0.780820  1
  Dy  Dy4  1  0.841393  0.498663  0.283523  1
  Dy  Dy5  1  0.504669  0.158042  0.219180  1
  Dy  Dy6  1  0.498663  0.841393  0.716477  1
  Dy  Dy7  1  0.343148  0.002596  0.468207  1
  Nb  Nb8  1  0.340657  0.505355  0.375769  1
  Nb  Nb9  1  0.850403  0.997566  0.374817  1
  Nb  Nb10  1  0.006284  0.152057  0.126163  1
  Nb  Nb11  1  0.997566  0.850403  0.625183  1
  Nb  Nb12  1  0.505355  0.340657  0.624231  1
  Nb  Nb13  1  0.152057  0.006284  0.873837  1
  Nb  Nb14  1  0.824987  0.171478  0.746987  1
  Nb  Nb15  1  0.171478  0.824987  0.253013  1
  Nb  Nb16  1  0.328632  0.328632  0.000000  1
  Nb  Nb17  1  0.494925  0.652332  0.126001  1
  Nb  Nb18  1  0.652332  0.494925  0.873999  1
  Si  Si19  1  0.043390  0.710471  0.439377  1
  Si  Si20  1  0.953730  0.293618  0.935494  1
  Si  Si21  1  0.710471  0.043390  0.560623  1
  Si  Si22  1  0.205965  0.453998  0.186513  1
  Si  Si23  1  0.790596  0.551527  0.682324  1
  Si  Si24  1  0.453998  0.205965  0.813487  1
  Si  Si25  1  0.551527  0.790596  0.317676  1
  Si  Si26  1  0.293618  0.953730  0.064506  1
  Si  Si27  1  0.797451  0.864374  0.184053  1
  Si  Si28  1  0.299993  0.631148  0.566151  1
  Si  Si29  1  0.703792  0.365037  0.066981  1
  Si  Si30  1  0.631148  0.299993  0.433849  1
  Si  Si31  1  0.365037  0.703792  0.933019  1
  Si  Si32  1  0.134147  0.204325  0.316745  1
  Si  Si33  1  0.204325  0.134147  0.683255  1
  Si  Si34  1  0.864374  0.797451  0.815947  1
  Ir  Ir35  1  0.668225  0.668225  0.500000  1
