# generated using pymatgen
data_Yb3Y(InPd5)2
_symmetry_space_group_name_H-M   'P 1'
_cell_length_a   4.29176100
_cell_length_b   5.82616020
_cell_length_c   11.47654839
_cell_angle_alpha   89.97007955
_cell_angle_beta   90.00000000
_cell_angle_gamma   90.00000000
_symmetry_Int_Tables_number   1
_chemical_formula_structural   Yb3Y(InPd5)2
_chemical_formula_sum   'Yb3 Y1 In2 Pd10'
_cell_volume   286.96516730
_cell_formula_units_Z   1
loop_
 _symmetry_equiv_pos_site_id
 _symmetry_equiv_pos_as_xyz
  1  'x, y, z'
loop_
 _atom_site_type_symbol
 _atom_site_label
 _atom_site_symmetry_multiplicity
 _atom_site_fract_x
 _atom_site_fract_y
 _atom_site_fract_z
 _atom_site_occupancy
  Yb  Yb0  1  0.500000  0.810456  0.637214  1
  Yb  Yb1  1  0.500000  0.689755  0.141187  1
  Yb  Yb2  1  0.500000  0.189105  0.360235  1
  Y  Y3  1  0.500000  0.310331  0.861098  1
  In  In4  1  0.000000  0.500202  0.498768  1
  In  In5  1  0.000000  0.997256  0.002297  1
  Pd  Pd6  1  0.500000  0.702166  0.386226  1
  Pd  Pd7  1  0.500000  0.297934  0.613444  1
  Pd  Pd8  1  0.000000  0.056564  0.750576  1
  Pd  Pd9  1  0.500000  0.798729  0.886296  1
  Pd  Pd10  1  0.000000  0.441784  0.251635  1
  Pd  Pd11  1  0.000000  0.942262  0.248779  1
  Pd  Pd12  1  0.000000  0.559359  0.747981  1
  Pd  Pd13  1  0.000000  0.501155  0.001145  1
  Pd  Pd14  1  0.000000  0.000185  0.499642  1
  Pd  Pd15  1  0.500000  0.202757  0.113479  1
