# generated using pymatgen
data_La4In2Ag3Rh
_symmetry_space_group_name_H-M   'P 1'
_cell_length_a   8.24557980
_cell_length_b   8.24557980
_cell_length_c   3.96686400
_cell_angle_alpha   90.00000000
_cell_angle_beta   90.00000000
_cell_angle_gamma   89.76867875
_symmetry_Int_Tables_number   1
_chemical_formula_structural   La4In2Ag3Rh
_chemical_formula_sum   'La4 In2 Ag3 Rh1'
_cell_volume   269.70324396
_cell_formula_units_Z   1
loop_
 _symmetry_equiv_pos_site_id
 _symmetry_equiv_pos_as_xyz
  1  'x, y, z'
loop_
 _atom_site_type_symbol
 _atom_site_label
 _atom_site_symmetry_multiplicity
 _atom_site_fract_x
 _atom_site_fract_y
 _atom_site_fract_z
 _atom_site_occupancy
  La  La0  1  0.151837  0.318125  0.500000  1
  La  La1  1  0.695194  0.195194  0.500000  1
  La  La2  1  0.818125  0.651837  0.500000  1
  La  La3  1  0.325345  0.825345  0.500000  1
  In  In4  1  0.999165  0.001057  0.000000  1
  In  In5  1  0.501057  0.499165  0.000000  1
  Ag  Ag6  1  0.124371  0.624371  0.000000  1
  Ag  Ag7  1  0.629802  0.881023  0.000000  1
  Ag  Ag8  1  0.381023  0.129802  0.000000  1
  Rh  Rh9  1  0.874081  0.374081  0.000000  1
