# generated using pymatgen
data_Ce2Cr2(Re5C)3
_symmetry_space_group_name_H-M   'P 1'
_cell_length_a   6.98935135
_cell_length_b   6.99127960
_cell_length_c   6.98935249
_cell_angle_alpha   82.78112490
_cell_angle_beta   83.14879226
_cell_angle_gamma   82.78113071
_symmetry_Int_Tables_number   1
_chemical_formula_structural   Ce2Cr2(Re5C)3
_chemical_formula_sum   'Ce2 Cr2 Re15 C3'
_cell_volume   334.27451853
_cell_formula_units_Z   1
loop_
 _symmetry_equiv_pos_site_id
 _symmetry_equiv_pos_as_xyz
  1  'x, y, z'
loop_
 _atom_site_type_symbol
 _atom_site_label
 _atom_site_symmetry_multiplicity
 _atom_site_fract_x
 _atom_site_fract_y
 _atom_site_fract_z
 _atom_site_occupancy
  Ce  Ce0  1  0.648737  0.649307  0.648737  1
  Ce  Ce1  1  0.351263  0.350693  0.351263  1
  Cr  Cr2  1  0.000000  0.000000  0.500000  1
  Cr  Cr3  1  0.500000  0.000000  0.000000  1
  Re  Re4  1  0.000000  0.500000  0.000000  1
  Re  Re5  1  0.281217  0.724241  0.999498  1
  Re  Re6  1  0.721149  0.000000  0.278851  1
  Re  Re7  1  0.000502  0.275759  0.718783  1
  Re  Re8  1  0.278851  0.000000  0.721149  1
  Re  Re9  1  0.999498  0.724241  0.281217  1
  Re  Re10  1  0.718783  0.275759  0.000502  1
  Re  Re11  1  0.350841  0.344229  0.860123  1
  Re  Re12  1  0.345035  0.864868  0.345035  1
  Re  Re13  1  0.860123  0.344229  0.350841  1
  Re  Re14  1  0.649159  0.655771  0.139877  1
  Re  Re15  1  0.654965  0.135132  0.654965  1
  Re  Re16  1  0.139877  0.655771  0.649159  1
  Re  Re17  1  0.899930  0.901782  0.899930  1
  Re  Re18  1  0.100070  0.098218  0.100070  1
  C  C19  1  0.500000  0.500000  0.000000  1
  C  C20  1  0.500000  0.000000  0.500000  1
  C  C21  1  0.000000  0.500000  0.500000  1
