# generated using pymatgen
data_Y4Zr3AlPtRh3
_symmetry_space_group_name_H-M   'P 1'
_cell_length_a   4.55455600
_cell_length_b   7.08352670
_cell_length_c   8.18713559
_cell_angle_alpha   86.46292046
_cell_angle_beta   90.00000000
_cell_angle_gamma   90.00000000
_symmetry_Int_Tables_number   1
_chemical_formula_structural   Y4Zr3AlPtRh3
_chemical_formula_sum   'Y4 Zr3 Al1 Pt1 Rh3'
_cell_volume   263.63282302
_cell_formula_units_Z   1
loop_
 _symmetry_equiv_pos_site_id
 _symmetry_equiv_pos_as_xyz
  1  'x, y, z'
loop_
 _atom_site_type_symbol
 _atom_site_label
 _atom_site_symmetry_multiplicity
 _atom_site_fract_x
 _atom_site_fract_y
 _atom_site_fract_z
 _atom_site_occupancy
  Y  Y0  1  0.750000  0.992135  0.334900  1
  Y  Y1  1  0.250000  0.042332  0.669036  1
  Y  Y2  1  0.250000  0.513995  0.817270  1
  Y  Y3  1  0.750000  0.468936  0.186241  1
  Zr  Zr4  1  0.750000  0.861221  0.924994  1
  Zr  Zr5  1  0.250000  0.133238  0.074300  1
  Zr  Zr6  1  0.250000  0.638605  0.433494  1
  Al  Al7  1  0.750000  0.356558  0.568807  1
  Pt  Pt8  1  0.750000  0.725747  0.613292  1
  Rh  Rh9  1  0.250000  0.273177  0.383465  1
  Rh  Rh10  1  0.250000  0.762559  0.098380  1
  Rh  Rh11  1  0.750000  0.231497  0.895821  1
