# generated using pymatgen
data_FeOs8(RhO8)3
_symmetry_space_group_name_H-M   'P 1'
_cell_length_a   4.56447845
_cell_length_b   10.54438453
_cell_length_c   9.13931989
_cell_angle_alpha   64.31814197
_cell_angle_beta   89.90873831
_cell_angle_gamma   89.96045231
_symmetry_Int_Tables_number   1
_chemical_formula_structural   FeOs8(RhO8)3
_chemical_formula_sum   'Fe1 Os8 Rh3 O24'
_cell_volume   396.41838942
_cell_formula_units_Z   1
loop_
 _symmetry_equiv_pos_site_id
 _symmetry_equiv_pos_as_xyz
  1  'x, y, z'
loop_
 _atom_site_type_symbol
 _atom_site_label
 _atom_site_symmetry_multiplicity
 _atom_site_fract_x
 _atom_site_fract_y
 _atom_site_fract_z
 _atom_site_occupancy
  Fe  Fe0  1  0.000000  0.000000  0.000000  1
  Os  Os1  1  0.000000  0.668060  0.165970  1
  Os  Os2  1  0.000000  0.666041  0.666980  1
  Os  Os3  1  0.500696  0.167033  0.167151  1
  Os  Os4  1  0.499304  0.167033  0.665816  1
  Os  Os5  1  0.499304  0.832967  0.832849  1
  Os  Os6  1  0.500696  0.832967  0.334184  1
  Os  Os7  1  0.000000  0.333959  0.333020  1
  Os  Os8  1  0.000000  0.331940  0.834030  1
  Rh  Rh9  1  0.500000  0.500000  0.000000  1
  Rh  Rh10  1  0.000000  0.000000  0.500000  1
  Rh  Rh11  1  0.500000  0.500000  0.500000  1
  O  O12  1  0.688732  0.000000  0.156026  1
  O  O13  1  0.683112  0.000000  0.657170  1
  O  O14  1  0.815851  0.500787  0.157527  1
  O  O15  1  0.815851  0.499213  0.658314  1
  O  O16  1  0.184149  0.499213  0.842473  1
  O  O17  1  0.184149  0.500787  0.341686  1
  O  O18  1  0.316888  0.000000  0.342830  1
  O  O19  1  0.311268  0.000000  0.843974  1
  O  O20  1  0.697722  0.670935  0.815228  1
  O  O21  1  0.698181  0.672243  0.315270  1
  O  O22  1  0.301819  0.672243  0.012488  1
  O  O23  1  0.302278  0.670935  0.513838  1
  O  O24  1  0.302278  0.329065  0.184772  1
  O  O25  1  0.301819  0.327757  0.684730  1
  O  O26  1  0.198433  0.828734  0.684559  1
  O  O27  1  0.199650  0.829224  0.185579  1
  O  O28  1  0.800350  0.829224  0.985196  1
  O  O29  1  0.801567  0.828734  0.486706  1
  O  O30  1  0.801567  0.171266  0.315441  1
  O  O31  1  0.800350  0.170776  0.814421  1
  O  O32  1  0.199650  0.170776  0.014804  1
  O  O33  1  0.198433  0.171266  0.513294  1
  O  O34  1  0.698181  0.327757  0.987512  1
  O  O35  1  0.697722  0.329065  0.486162  1
