# generated using pymatgen
data_AlCu16Si3
_symmetry_space_group_name_H-M   'P 1'
_cell_length_a   6.23301350
_cell_length_b   6.23301350
_cell_length_c   6.23301350
_cell_angle_alpha   89.91414849
_cell_angle_beta   89.91414849
_cell_angle_gamma   89.91414849
_symmetry_Int_Tables_number   1
_chemical_formula_structural   AlCu16Si3
_chemical_formula_sum   'Al1 Cu16 Si3'
_cell_volume   242.15460959
_cell_formula_units_Z   1
loop_
 _symmetry_equiv_pos_site_id
 _symmetry_equiv_pos_as_xyz
  1  'x, y, z'
loop_
 _atom_site_type_symbol
 _atom_site_label
 _atom_site_symmetry_multiplicity
 _atom_site_fract_x
 _atom_site_fract_y
 _atom_site_fract_z
 _atom_site_occupancy
  Al  Al0  1  0.060654  0.060654  0.060654  1
  Cu  Cu1  1  0.808314  0.316997  0.190022  1
  Cu  Cu2  1  0.316997  0.190022  0.808314  1
  Cu  Cu3  1  0.190022  0.808314  0.316997  1
  Cu  Cu4  1  0.686474  0.686474  0.686474  1
  Cu  Cu5  1  0.048691  0.876363  0.703261  1
  Cu  Cu6  1  0.294627  0.548509  0.621846  1
  Cu  Cu7  1  0.378754  0.794828  0.950944  1
  Cu  Cu8  1  0.548509  0.621846  0.294627  1
  Cu  Cu9  1  0.794828  0.950944  0.378754  1
  Cu  Cu10  1  0.876363  0.703261  0.048691  1
  Cu  Cu11  1  0.950944  0.378754  0.794828  1
  Cu  Cu12  1  0.703261  0.048691  0.876363  1
  Cu  Cu13  1  0.621846  0.294627  0.548509  1
  Cu  Cu14  1  0.452463  0.120115  0.205930  1
  Cu  Cu15  1  0.205930  0.452463  0.120115  1
  Cu  Cu16  1  0.120115  0.205930  0.452463  1
  Si  Si17  1  0.440528  0.940833  0.559844  1
  Si  Si18  1  0.940833  0.559844  0.440528  1
  Si  Si19  1  0.559844  0.440528  0.940833  1
