# generated using pymatgen
data_TbYbY2(Ga2Ag)4
_symmetry_space_group_name_H-M   'P 1'
_cell_length_a   4.36770100
_cell_length_b   6.99781476
_cell_length_c   10.30211403
_cell_angle_alpha   90.31685767
_cell_angle_beta   90.00000000
_cell_angle_gamma   90.00000000
_symmetry_Int_Tables_number   1
_chemical_formula_structural   TbYbY2(Ga2Ag)4
_chemical_formula_sum   'Tb1 Yb1 Y2 Ga8 Ag4'
_cell_volume   314.87273270
_cell_formula_units_Z   1
loop_
 _symmetry_equiv_pos_site_id
 _symmetry_equiv_pos_as_xyz
  1  'x, y, z'
loop_
 _atom_site_type_symbol
 _atom_site_label
 _atom_site_symmetry_multiplicity
 _atom_site_fract_x
 _atom_site_fract_y
 _atom_site_fract_z
 _atom_site_occupancy
  Tb  Tb0  1  0.250000  0.780579  0.826025  1
  Yb  Yb1  1  0.250000  0.276546  0.671846  1
  Y  Y2  1  0.750000  0.222261  0.172623  1
  Y  Y3  1  0.750000  0.720487  0.328467  1
  Ga  Ga4  1  0.250000  0.704095  0.535826  1
  Ga  Ga5  1  0.750000  0.297850  0.464511  1
  Ga  Ga6  1  0.750000  0.792427  0.037472  1
  Ga  Ga7  1  0.250000  0.202200  0.964149  1
  Ga  Ga8  1  0.250000  0.926657  0.155211  1
  Ga  Ga9  1  0.750000  0.072044  0.849628  1
  Ga  Ga10  1  0.750000  0.571639  0.650445  1
  Ga  Ga11  1  0.250000  0.427492  0.344287  1
  Ag  Ag12  1  0.250000  0.544697  0.096412  1
  Ag  Ag13  1  0.750000  0.455564  0.900833  1
  Ag  Ag14  1  0.750000  0.959560  0.598474  1
  Ag  Ag15  1  0.250000  0.045900  0.403790  1
