# generated using pymatgen
data_Yb2Y5Lu(B6Os)4
_symmetry_space_group_name_H-M   'P 1'
_cell_length_a   3.64359300
_cell_length_b   9.15065682
_cell_length_c   11.54666203
_cell_angle_alpha   89.86229091
_cell_angle_beta   90.00000000
_cell_angle_gamma   90.00000000
_symmetry_Int_Tables_number   1
_chemical_formula_structural   Yb2Y5Lu(B6Os)4
_chemical_formula_sum   'Yb2 Y5 Lu1 B24 Os4'
_cell_volume   384.97925466
_cell_formula_units_Z   1
loop_
 _symmetry_equiv_pos_site_id
 _symmetry_equiv_pos_as_xyz
  1  'x, y, z'
loop_
 _atom_site_type_symbol
 _atom_site_label
 _atom_site_symmetry_multiplicity
 _atom_site_fract_x
 _atom_site_fract_y
 _atom_site_fract_z
 _atom_site_occupancy
  Yb  Yb0  1  0.000000  0.324787  0.414853  1
  Yb  Yb1  1  0.000000  0.675323  0.585640  1
  Y  Y2  1  0.000000  0.821444  0.085935  1
  Y  Y3  1  0.000000  0.178556  0.913461  1
  Y  Y4  1  0.000000  0.942045  0.370654  1
  Y  Y5  1  0.000000  0.058144  0.629860  1
  Y  Y6  1  0.000000  0.443025  0.129164  1
  Lu  Lu7  1  0.000000  0.557406  0.869289  1
  B  B8  1  0.500000  0.553625  0.432676  1
  B  B9  1  0.500000  0.446757  0.568018  1
  B  B10  1  0.500000  0.053435  0.066657  1
  B  B11  1  0.500000  0.945382  0.933015  1
  B  B12  1  0.500000  0.747069  0.418018  1
  B  B13  1  0.500000  0.253409  0.582407  1
  B  B14  1  0.500000  0.248043  0.081248  1
  B  B15  1  0.500000  0.750096  0.918235  1
  B  B16  1  0.500000  0.790405  0.264789  1
  B  B17  1  0.500000  0.210357  0.735491  1
  B  B18  1  0.500000  0.289883  0.234384  1
  B  B19  1  0.500000  0.708591  0.765910  1
  B  B20  1  0.500000  0.631074  0.185433  1
  B  B21  1  0.500000  0.370505  0.814977  1
  B  B22  1  0.500000  0.131319  0.313708  1
  B  B23  1  0.500000  0.868179  0.686570  1
  B  B24  1  0.500000  0.983315  0.211517  1
  B  B25  1  0.500000  0.016114  0.788665  1
  B  B26  1  0.500000  0.483484  0.288453  1
  B  B27  1  0.500000  0.517527  0.712646  1
  B  B28  1  0.500000  0.602484  0.026681  1
  B  B29  1  0.500000  0.398944  0.970384  1
  B  B30  1  0.500000  0.101066  0.472269  1
  B  B31  1  0.500000  0.898982  0.528166  1
  Os  Os32  1  0.000000  0.638908  0.319498  1
  Os  Os33  1  0.000000  0.362442  0.681509  1
  Os  Os34  1  0.000000  0.136804  0.177625  1
  Os  Os35  1  0.000000  0.861071  0.822197  1
