# generated using pymatgen
data_TbDyPa2(Al8Pt3)3
_symmetry_space_group_name_H-M   'P 1'
_cell_length_a   7.57734351
_cell_length_b   7.58576423
_cell_length_c   13.13354301
_cell_angle_alpha   84.49391576
_cell_angle_beta   78.91575947
_cell_angle_gamma   59.91730126
_symmetry_Int_Tables_number   1
_chemical_formula_structural   TbDyPa2(Al8Pt3)3
_chemical_formula_sum   'Tb1 Dy1 Pa2 Al24 Pt9'
_cell_volume   641.04461343
_cell_formula_units_Z   1
loop_
 _symmetry_equiv_pos_site_id
 _symmetry_equiv_pos_as_xyz
  1  'x, y, z'
loop_
 _atom_site_type_symbol
 _atom_site_label
 _atom_site_symmetry_multiplicity
 _atom_site_fract_x
 _atom_site_fract_y
 _atom_site_fract_z
 _atom_site_occupancy
  Tb  Tb0  1  0.733859  0.498474  0.808019  1
  Dy  Dy1  1  0.266127  0.501528  0.192017  1
  Pa  Pa2  1  0.395093  0.168169  0.804969  1
  Pa  Pa3  1  0.604896  0.831795  0.195033  1
  Al  Al4  1  0.684265  0.833668  0.944544  1
  Al  Al5  1  0.315612  0.166531  0.055341  1
  Al  Al6  1  0.145828  0.832677  0.561294  1
  Al  Al7  1  0.854192  0.167322  0.438676  1
  Al  Al8  1  0.480414  0.167446  0.558213  1
  Al  Al9  1  0.519566  0.832549  0.441840  1
  Al  Al10  1  0.214874  0.167681  0.330871  1
  Al  Al11  1  0.784981  0.832487  0.669173  1
  Al  Al12  1  0.437722  0.508605  0.669792  1
  Al  Al13  1  0.562226  0.491268  0.330247  1
  Al  Al14  1  0.108000  0.159817  0.668278  1
  Al  Al15  1  0.892162  0.840144  0.331763  1
  Al  Al16  1  0.353324  0.499299  0.943605  1
  Al  Al17  1  0.646642  0.500545  0.056384  1
  Al  Al18  1  0.015515  0.167851  0.952447  1
  Al  Al19  1  0.984672  0.832115  0.047526  1
  Al  Al20  1  0.185830  0.500002  0.441214  1
  Al  Al21  1  0.814181  0.500005  0.558741  1
  Al  Al22  1  0.736181  0.162717  0.182919  1
  Al  Al23  1  0.263835  0.837467  0.817087  1
  Al  Al24  1  0.062764  0.631045  0.815892  1
  Al  Al25  1  0.937402  0.368787  0.184111  1
  Al  Al26  1  0.854965  0.040430  0.816694  1
  Al  Al27  1  0.144862  0.959567  0.183310  1
  Pt  Pt28  1  0.120250  0.491211  0.639755  1
  Pt  Pt29  1  0.879807  0.508756  0.360263  1
  Pt  Pt30  1  0.656890  0.172487  0.999985  1
  Pt  Pt31  1  0.343083  0.827532  0.999983  1
  Pt  Pt32  1  0.537571  0.166286  0.360602  1
  Pt  Pt33  1  0.462385  0.833773  0.639415  1
  Pt  Pt34  1  0.778181  0.175211  0.638418  1
  Pt  Pt35  1  0.221798  0.824770  0.361596  1
  Pt  Pt36  1  0.000048  0.499987  0.999983  1
