# generated using pymatgen
data_YEr6Cd(Co3Sn11)2
_symmetry_space_group_name_H-M   'P 1'
_cell_length_a   9.65027400
_cell_length_b   9.65027362
_cell_length_c   9.99497200
_cell_angle_alpha   90.00000000
_cell_angle_beta   90.00000000
_cell_angle_gamma   120.00000130
_symmetry_Int_Tables_number   1
_chemical_formula_structural   YEr6Cd(Co3Sn11)2
_chemical_formula_sum   'Y1 Er6 Cd1 Co6 Sn22'
_cell_volume   806.10474887
_cell_formula_units_Z   1
loop_
 _symmetry_equiv_pos_site_id
 _symmetry_equiv_pos_as_xyz
  1  'x, y, z'
loop_
 _atom_site_type_symbol
 _atom_site_label
 _atom_site_symmetry_multiplicity
 _atom_site_fract_x
 _atom_site_fract_y
 _atom_site_fract_z
 _atom_site_occupancy
  Y  Y0  1  0.000000  0.000000  0.000000  1
  Er  Er1  1  0.479556  0.520444  0.306026  1
  Er  Er2  1  0.520444  0.479556  0.693974  1
  Er  Er3  1  0.479556  0.959114  0.306026  1
  Er  Er4  1  0.520444  0.040886  0.693974  1
  Er  Er5  1  0.040886  0.520444  0.306026  1
  Er  Er6  1  0.959114  0.479556  0.693974  1
  Cd  Cd7  1  0.000000  0.000000  0.500000  1
  Co  Co8  1  0.831704  0.168296  0.197241  1
  Co  Co9  1  0.168296  0.831704  0.802759  1
  Co  Co10  1  0.831704  0.663409  0.197241  1
  Co  Co11  1  0.168296  0.336591  0.802759  1
  Co  Co12  1  0.336591  0.168296  0.197241  1
  Co  Co13  1  0.663409  0.831704  0.802759  1
  Sn  Sn14  1  0.116910  0.883090  0.271498  1
  Sn  Sn15  1  0.883090  0.116910  0.728502  1
  Sn  Sn16  1  0.116910  0.233821  0.271498  1
  Sn  Sn17  1  0.883090  0.766179  0.728502  1
  Sn  Sn18  1  0.766179  0.883090  0.271498  1
  Sn  Sn19  1  0.233821  0.116910  0.728502  1
  Sn  Sn20  1  0.781994  0.218006  0.453703  1
  Sn  Sn21  1  0.218006  0.781994  0.546297  1
  Sn  Sn22  1  0.781994  0.563988  0.453703  1
  Sn  Sn23  1  0.218006  0.436012  0.546297  1
  Sn  Sn24  1  0.436012  0.218006  0.453703  1
  Sn  Sn25  1  0.563988  0.781994  0.546297  1
  Sn  Sn26  1  0.346324  0.000000  0.000000  1
  Sn  Sn27  1  0.653676  0.000000  0.000000  1
  Sn  Sn28  1  0.000000  0.346324  0.000000  1
  Sn  Sn29  1  0.000000  0.653676  0.000000  1
  Sn  Sn30  1  0.653676  0.653676  0.000000  1
  Sn  Sn31  1  0.346324  0.346324  0.000000  1
  Sn  Sn32  1  0.333333  0.666667  0.120957  1
  Sn  Sn33  1  0.666667  0.333333  0.879043  1
  Sn  Sn34  1  0.333333  0.666667  0.818762  1
  Sn  Sn35  1  0.666667  0.333333  0.181238  1
