# generated using pymatgen
data_PrTeRhO6
_symmetry_space_group_name_H-M   'P 1'
_cell_length_a   5.31076900
_cell_length_b   5.31071375
_cell_length_c   10.24262300
_cell_angle_alpha   89.99996560
_cell_angle_beta   89.99991368
_cell_angle_gamma   120.00074490
_symmetry_Int_Tables_number   1
_chemical_formula_structural   PrTeRhO6
_chemical_formula_sum   'Pr2 Te2 Rh2 O12'
_cell_volume   250.17785521
_cell_formula_units_Z   2
loop_
 _symmetry_equiv_pos_site_id
 _symmetry_equiv_pos_as_xyz
  1  'x, y, z'
loop_
 _atom_site_type_symbol
 _atom_site_label
 _atom_site_symmetry_multiplicity
 _atom_site_fract_x
 _atom_site_fract_y
 _atom_site_fract_z
 _atom_site_occupancy
  Pr  Pr0  1  0.999999  0.999998  0.999989  1
  Pr  Pr1  1  0.999995  0.999972  0.499994  1
  Te  Te2  1  0.666662  0.333333  0.249984  1
  Te  Te3  1  0.333337  0.666675  0.750000  1
  Rh  Rh4  1  0.333314  0.666698  0.250035  1
  Rh  Rh5  1  0.666681  0.333360  0.750005  1
  O  O6  1  0.641757  0.629901  0.143085  1
  O  O7  1  0.988154  0.358232  0.143081  1
  O  O8  1  0.370081  0.011828  0.143085  1
  O  O9  1  0.370086  0.358238  0.356919  1
  O  O10  1  0.988171  0.629910  0.356916  1
  O  O11  1  0.641750  0.011822  0.356919  1
  O  O12  1  0.358240  0.988153  0.643079  1
  O  O13  1  0.629906  0.641767  0.643075  1
  O  O14  1  0.011851  0.370098  0.643079  1
  O  O15  1  0.011861  0.641769  0.856920  1
  O  O16  1  0.629908  0.988154  0.856917  1
  O  O17  1  0.358244  0.370099  0.856915  1
