# generated using pymatgen
data_Pr8ZnAg7As16
_symmetry_space_group_name_H-M   'P 1'
_cell_length_a   5.79605541
_cell_length_b   5.84173800
_cell_length_c   21.21893465
_cell_angle_alpha   90.00000000
_cell_angle_beta   90.03577376
_cell_angle_gamma   90.00000000
_symmetry_Int_Tables_number   1
_chemical_formula_structural   Pr8ZnAg7As16
_chemical_formula_sum   'Pr8 Zn1 Ag7 As16'
_cell_volume   718.45255651
_cell_formula_units_Z   1
loop_
 _symmetry_equiv_pos_site_id
 _symmetry_equiv_pos_as_xyz
  1  'x, y, z'
loop_
 _atom_site_type_symbol
 _atom_site_label
 _atom_site_symmetry_multiplicity
 _atom_site_fract_x
 _atom_site_fract_y
 _atom_site_fract_z
 _atom_site_occupancy
  Pr  Pr0  1  0.252901  0.984173  0.616156  1
  Pr  Pr1  1  0.750075  0.014364  0.382857  1
  Pr  Pr2  1  0.747099  0.984173  0.883844  1
  Pr  Pr3  1  0.249925  0.014364  0.117143  1
  Pr  Pr4  1  0.747971  0.488376  0.612177  1
  Pr  Pr5  1  0.250072  0.513253  0.386574  1
  Pr  Pr6  1  0.252029  0.488376  0.887823  1
  Pr  Pr7  1  0.749928  0.513253  0.113426  1
  Zn  Zn8  1  0.000000  0.235546  0.750000  1
  Ag  Ag9  1  0.500000  0.733085  0.750000  1
  Ag  Ag10  1  0.000000  0.267155  0.250000  1
  Ag  Ag11  1  0.500000  0.267179  0.250000  1
  Ag  Ag12  1  0.000000  0.729291  0.750000  1
  Ag  Ag13  1  0.500000  0.235469  0.750000  1
  Ag  Ag14  1  0.000000  0.764830  0.250000  1
  Ag  Ag15  1  0.500000  0.764950  0.250000  1
  As  As16  1  0.757673  0.993691  0.664870  1
  As  As17  1  0.250127  0.013961  0.338378  1
  As  As18  1  0.242327  0.993691  0.835130  1
  As  As19  1  0.749873  0.013961  0.161622  1
  As  As20  1  0.243195  0.479034  0.663379  1
  As  As21  1  0.749847  0.514323  0.339348  1
  As  As22  1  0.756805  0.479034  0.836621  1
  As  As23  1  0.250153  0.514323  0.160652  1
  As  As24  1  0.021413  0.223961  0.501261  1
  As  As25  1  0.523385  0.773870  0.500164  1
  As  As26  1  0.978587  0.223961  0.998739  1
  As  As27  1  0.476615  0.773870  0.999836  1
  As  As28  1  0.975559  0.775894  0.499734  1
  As  As29  1  0.480250  0.226349  0.501340  1
  As  As30  1  0.024441  0.775894  0.000266  1
  As  As31  1  0.519750  0.226349  0.998660  1
