# generated using pymatgen
data_Tm6PtRh17
_symmetry_space_group_name_H-M   'P 1'
_cell_length_a   5.23997500
_cell_length_b   5.24016690
_cell_length_c   17.53169500
_cell_angle_alpha   90.00028294
_cell_angle_beta   89.99948178
_cell_angle_gamma   120.00158875
_symmetry_Int_Tables_number   1
_chemical_formula_structural   Tm6PtRh17
_chemical_formula_sum   'Tm6 Pt1 Rh17'
_cell_volume   416.89042399
_cell_formula_units_Z   1
loop_
 _symmetry_equiv_pos_site_id
 _symmetry_equiv_pos_as_xyz
  1  'x, y, z'
loop_
 _atom_site_type_symbol
 _atom_site_label
 _atom_site_symmetry_multiplicity
 _atom_site_fract_x
 _atom_site_fract_y
 _atom_site_fract_z
 _atom_site_occupancy
  Tm  Tm0  1  0.333338  0.666667  0.542148  1
  Tm  Tm1  1  0.666666  0.333331  0.043605  1
  Tm  Tm2  1  0.666662  0.333333  0.457852  1
  Tm  Tm3  1  0.333334  0.666669  0.956395  1
  Tm  Tm4  1  0.333318  0.666656  0.749399  1
  Tm  Tm5  1  0.666682  0.333344  0.250601  1
  Pt  Pt6  1  0.000000  0.000000  0.000000  1
  Rh  Rh7  1  0.167845  0.335717  0.126206  1
  Rh  Rh8  1  0.832464  0.664935  0.624990  1
  Rh  Rh9  1  0.664254  0.832108  0.126187  1
  Rh  Rh10  1  0.167865  0.832125  0.126191  1
  Rh  Rh11  1  0.832477  0.167552  0.624982  1
  Rh  Rh12  1  0.335085  0.167539  0.624984  1
  Rh  Rh13  1  0.832155  0.664283  0.873794  1
  Rh  Rh14  1  0.832135  0.167875  0.873809  1
  Rh  Rh15  1  0.335746  0.167892  0.873813  1
  Rh  Rh16  1  0.664915  0.832461  0.375016  1
  Rh  Rh17  1  0.167523  0.832448  0.375018  1
  Rh  Rh18  1  0.167536  0.335065  0.375010  1
  Rh  Rh19  1  0.999998  0.999964  0.250598  1
  Rh  Rh20  1  0.000002  0.000036  0.749402  1
  Rh  Rh21  1  0.333338  0.666706  0.249875  1
  Rh  Rh22  1  0.666662  0.333294  0.750125  1
  Rh  Rh23  1  0.000000  0.000000  0.500000  1
