# generated using pymatgen
data_YbDy(Co3Si2)2
_symmetry_space_group_name_H-M   'P 1'
_cell_length_a   6.26147680
_cell_length_b   6.26147666
_cell_length_c   6.26147589
_cell_angle_alpha   130.30000431
_cell_angle_beta   114.09799542
_cell_angle_gamma   86.84207335
_symmetry_Int_Tables_number   1
_chemical_formula_structural   YbDy(Co3Si2)2
_chemical_formula_sum   'Yb1 Dy1 Co6 Si4'
_cell_volume   163.02626585
_cell_formula_units_Z   1
loop_
 _symmetry_equiv_pos_site_id
 _symmetry_equiv_pos_as_xyz
  1  'x, y, z'
loop_
 _atom_site_type_symbol
 _atom_site_label
 _atom_site_symmetry_multiplicity
 _atom_site_fract_x
 _atom_site_fract_y
 _atom_site_fract_z
 _atom_site_occupancy
  Yb  Yb0  1  0.250000  0.535758  0.285758  1
  Dy  Dy1  1  0.750000  0.461969  0.711969  1
  Co  Co2  1  0.998698  0.000162  0.498859  1
  Co  Co3  1  0.501302  0.000162  0.001464  1
  Co  Co4  1  0.719591  0.000593  0.719782  1
  Co  Co5  1  0.219188  0.500191  0.719782  1
  Co  Co6  1  0.280812  0.000593  0.281002  1
  Co  Co7  1  0.780409  0.500191  0.281002  1
  Si  Si8  1  0.081119  0.880441  0.799322  1
  Si  Si9  1  0.921143  0.122012  0.200869  1
  Si  Si10  1  0.578857  0.779727  0.200869  1
  Si  Si11  1  0.418881  0.218202  0.799322  1
