# generated using pymatgen
data_Hf4Zn2InMo
_symmetry_space_group_name_H-M   'P 1'
_cell_length_a   6.76429200
_cell_length_b   6.66565700
_cell_length_c   6.76582000
_cell_angle_alpha   90.00000000
_cell_angle_beta   90.00000000
_cell_angle_gamma   90.00000000
_symmetry_Int_Tables_number   1
_chemical_formula_structural   Hf4Zn2InMo
_chemical_formula_sum   'Hf8 Zn4 In2 Mo2'
_cell_volume   305.06033894
_cell_formula_units_Z   2
loop_
 _symmetry_equiv_pos_site_id
 _symmetry_equiv_pos_as_xyz
  1  'x, y, z'
loop_
 _atom_site_type_symbol
 _atom_site_label
 _atom_site_symmetry_multiplicity
 _atom_site_fract_x
 _atom_site_fract_y
 _atom_site_fract_z
 _atom_site_occupancy
  Hf  Hf0  1  0.764273  0.500074  0.264294  1
  Hf  Hf1  1  0.764273  0.999925  0.264294  1
  Hf  Hf2  1  0.235728  0.000074  0.264296  1
  Hf  Hf3  1  0.235728  0.499925  0.264296  1
  Hf  Hf4  1  0.764273  0.500074  0.735703  1
  Hf  Hf5  1  0.764273  0.999925  0.735703  1
  Hf  Hf6  1  0.235726  0.000074  0.735706  1
  Hf  Hf7  1  0.235726  0.499925  0.735706  1
  Zn  Zn8  1  0.999891  0.250000  0.000000  1
  Zn  Zn9  1  0.000110  0.749999  0.000000  1
  Zn  Zn10  1  0.499858  0.749999  0.500000  1
  Zn  Zn11  1  0.500143  0.250000  0.500001  1
  In  In12  1  0.500020  0.250000  0.000000  1
  In  In13  1  0.499979  0.749999  0.000000  1
  Mo  Mo14  1  0.999912  0.250000  0.500000  1
  Mo  Mo15  1  0.000088  0.749999  0.500000  1
