# generated using pymatgen
data_KRb7La12(OsI14)2
_symmetry_space_group_name_H-M   'P 1'
_cell_length_a   10.27776417
_cell_length_b   10.19339673
_cell_length_c   22.98204318
_cell_angle_alpha   89.74070256
_cell_angle_beta   90.25626859
_cell_angle_gamma   89.98749791
_symmetry_Int_Tables_number   1
_chemical_formula_structural   KRb7La12(OsI14)2
_chemical_formula_sum   'K1 Rb7 La12 Os2 I28'
_cell_volume   2407.67247647
_cell_formula_units_Z   1
loop_
 _symmetry_equiv_pos_site_id
 _symmetry_equiv_pos_as_xyz
  1  'x, y, z'
loop_
 _atom_site_type_symbol
 _atom_site_label
 _atom_site_symmetry_multiplicity
 _atom_site_fract_x
 _atom_site_fract_y
 _atom_site_fract_z
 _atom_site_occupancy
  K  K0  1  0.326200  0.826407  0.749971  1
  Rb  Rb1  1  0.668303  0.168132  0.249959  1
  Rb  Rb2  1  0.168192  0.331875  0.249890  1
  Rb  Rb3  1  0.831708  0.668028  0.250114  1
  Rb  Rb4  1  0.331705  0.831874  0.249955  1
  Rb  Rb5  1  0.667719  0.167598  0.750044  1
  Rb  Rb6  1  0.168671  0.332002  0.749873  1
  Rb  Rb7  1  0.831838  0.668510  0.750134  1
  La  La8  1  0.409907  0.237669  0.999976  1
  La  La9  1  0.772574  0.404227  0.000148  1
  La  La10  1  0.227234  0.596164  0.999269  1
  La  La11  1  0.589965  0.762768  0.999312  1
  La  La12  1  0.500117  0.499967  0.122814  1
  La  La13  1  0.999953  0.000134  0.377157  1
  La  La14  1  0.273416  0.095413  0.500743  1
  La  La15  1  0.909994  0.262118  0.499878  1
  La  La16  1  0.090367  0.737644  0.500690  1
  La  La17  1  0.726921  0.904408  0.500018  1
  La  La18  1  0.000486  0.999538  0.623363  1
  La  La19  1  0.499580  0.500486  0.876659  1
  Os  Os20  1  0.499804  0.500408  0.999759  1
  Os  Os21  1  0.000371  0.999825  0.500247  1
  I  I22  1  0.694654  0.093367  0.999997  1
  I  I23  1  0.095867  0.305074  0.999758  1
  I  I24  1  0.903885  0.695463  0.999673  1
  I  I25  1  0.305276  0.906823  0.999992  1
  I  I26  1  0.398491  0.195108  0.141799  1
  I  I27  1  0.804059  0.398549  0.141840  1
  I  I28  1  0.196650  0.601759  0.141100  1
  I  I29  1  0.601073  0.804602  0.141256  1
  I  I30  1  0.999667  0.000262  0.229760  1
  I  I31  1  0.500244  0.499708  0.270223  1
  I  I32  1  0.303350  0.101103  0.358834  1
  I  I33  1  0.898532  0.305465  0.358051  1
  I  I34  1  0.101753  0.695359  0.358807  1
  I  I35  1  0.696393  0.898389  0.358274  1
  I  I36  1  0.595690  0.195712  0.499979  1
  I  I37  1  0.194506  0.406136  0.500397  1
  I  I38  1  0.806053  0.593566  0.500184  1
  I  I39  1  0.404489  0.804198  0.500038  1
  I  I40  1  0.305364  0.095900  0.643282  1
  I  I41  1  0.898676  0.304489  0.641675  1
  I  I42  1  0.105996  0.695817  0.642998  1
  I  I43  1  0.697350  0.898767  0.641568  1
  I  I44  1  0.497934  0.503796  0.729470  1
  I  I45  1  0.003655  0.998098  0.770539  1
  I  I46  1  0.398839  0.196106  0.858376  1
  I  I47  1  0.803169  0.398633  0.858394  1
  I  I48  1  0.197310  0.605947  0.857063  1
  I  I49  1  0.596046  0.806608  0.856696  1
