# generated using pymatgen
data_Zr4AlCr3Re4
_symmetry_space_group_name_H-M   'P 1'
_cell_length_a   5.17813585
_cell_length_b   5.14077410
_cell_length_c   8.61407206
_cell_angle_alpha   89.99999735
_cell_angle_beta   90.01175209
_cell_angle_gamma   119.76160427
_symmetry_Int_Tables_number   1
_chemical_formula_structural   Zr4AlCr3Re4
_chemical_formula_sum   'Zr4 Al1 Cr3 Re4'
_cell_volume   199.05787019
_cell_formula_units_Z   1
loop_
 _symmetry_equiv_pos_site_id
 _symmetry_equiv_pos_as_xyz
  1  'x, y, z'
loop_
 _atom_site_type_symbol
 _atom_site_label
 _atom_site_symmetry_multiplicity
 _atom_site_fract_x
 _atom_site_fract_y
 _atom_site_fract_z
 _atom_site_occupancy
  Zr  Zr0  1  0.333104  0.667237  0.434947  1
  Zr  Zr1  1  0.667474  0.332597  0.936847  1
  Zr  Zr2  1  0.666896  0.334132  0.565053  1
  Zr  Zr3  1  0.332526  0.665123  0.063153  1
  Al  Al4  1  0.000000  0.006299  0.500000  1
  Cr  Cr5  1  0.167328  0.333785  0.755888  1
  Cr  Cr6  1  0.832672  0.166458  0.244112  1
  Cr  Cr7  1  0.000000  0.006080  0.000000  1
  Re  Re8  1  0.339565  0.168386  0.246259  1
  Re  Re9  1  0.660435  0.828820  0.753741  1
  Re  Re10  1  0.832085  0.661584  0.246259  1
  Re  Re11  1  0.167915  0.829498  0.753741  1
