# generated using pymatgen
data_NdTh3CdHgPd4
_symmetry_space_group_name_H-M   'P 1'
_cell_length_a   7.94758168
_cell_length_b   7.94277073
_cell_length_c   3.82143900
_cell_angle_alpha   90.00000000
_cell_angle_beta   90.00000000
_cell_angle_gamma   91.17893556
_symmetry_Int_Tables_number   1
_chemical_formula_structural   NdTh3CdHgPd4
_chemical_formula_sum   'Nd1 Th3 Cd1 Hg1 Pd4'
_cell_volume   241.18040209
_cell_formula_units_Z   1
loop_
 _symmetry_equiv_pos_site_id
 _symmetry_equiv_pos_as_xyz
  1  'x, y, z'
loop_
 _atom_site_type_symbol
 _atom_site_label
 _atom_site_symmetry_multiplicity
 _atom_site_fract_x
 _atom_site_fract_y
 _atom_site_fract_z
 _atom_site_occupancy
  Nd  Nd0  1  0.826168  0.677832  0.500000  1
  Th  Th1  1  0.677282  0.172756  0.500000  1
  Th  Th2  1  0.323640  0.825638  0.500000  1
  Th  Th3  1  0.172393  0.325040  0.500000  1
  Cd  Cd4  1  0.503635  0.500491  0.000000  1
  Hg  Hg5  1  0.999331  0.995406  0.000000  1
  Pd  Pd6  1  0.135588  0.620939  0.000000  1
  Pd  Pd7  1  0.874514  0.368838  0.000000  1
  Pd  Pd8  1  0.615942  0.879738  0.000000  1
  Pd  Pd9  1  0.371507  0.133322  0.000000  1
