# generated using pymatgen
data_Rb2BO3
_symmetry_space_group_name_H-M   'P 1'
_cell_length_a   10.53931800
_cell_length_b   6.11948510
_cell_length_c   7.55347621
_cell_angle_alpha   83.09629633
_cell_angle_beta   90.00000000
_cell_angle_gamma   90.00000000
_symmetry_Int_Tables_number   1
_chemical_formula_structural   Rb2BO3
_chemical_formula_sum   'Rb8 B4 O12'
_cell_volume   483.63081580
_cell_formula_units_Z   4
loop_
 _symmetry_equiv_pos_site_id
 _symmetry_equiv_pos_as_xyz
  1  'x, y, z'
loop_
 _atom_site_type_symbol
 _atom_site_label
 _atom_site_symmetry_multiplicity
 _atom_site_fract_x
 _atom_site_fract_y
 _atom_site_fract_z
 _atom_site_occupancy
  Rb  Rb0  1  0.769663  0.742298  0.525402  1
  Rb  Rb1  1  0.269663  0.257702  0.974598  1
  Rb  Rb2  1  0.230337  0.257702  0.474598  1
  Rb  Rb3  1  0.730337  0.742298  0.025402  1
  Rb  Rb4  1  0.581908  0.242839  0.306139  1
  Rb  Rb5  1  0.081908  0.757161  0.193861  1
  Rb  Rb6  1  0.418092  0.757161  0.693861  1
  Rb  Rb7  1  0.918092  0.242839  0.806139  1
  B  B8  1  0.583680  0.250187  0.744304  1
  B  B9  1  0.916320  0.250187  0.244304  1
  B  B10  1  0.416320  0.749813  0.255696  1
  B  B11  1  0.083680  0.749813  0.755696  1
  O  O12  1  0.847084  0.065161  0.222028  1
  O  O13  1  0.347084  0.934839  0.277972  1
  O  O14  1  0.152916  0.934839  0.777972  1
  O  O15  1  0.652916  0.065161  0.722028  1
  O  O16  1  0.860428  0.424306  0.312597  1
  O  O17  1  0.639572  0.424306  0.812597  1
  O  O18  1  0.139572  0.575694  0.687403  1
  O  O19  1  0.360428  0.575694  0.187403  1
  O  O20  1  0.958800  0.738961  0.808405  1
  O  O21  1  0.458800  0.261039  0.691595  1
  O  O22  1  0.041200  0.261039  0.191595  1
  O  O23  1  0.541200  0.738961  0.308405  1
