# generated using pymatgen
data_Lu12Co2Ni2BiOs
_symmetry_space_group_name_H-M   'P 1'
_cell_length_a   8.13474477
_cell_length_b   8.13930803
_cell_length_c   8.13474277
_cell_angle_alpha   110.25960292
_cell_angle_beta   111.48288348
_cell_angle_gamma   106.68724377
_symmetry_Int_Tables_number   1
_chemical_formula_structural   Lu12Co2Ni2BiOs
_chemical_formula_sum   'Lu12 Co2 Ni2 Bi1 Os1'
_cell_volume   413.95776326
_cell_formula_units_Z   1
loop_
 _symmetry_equiv_pos_site_id
 _symmetry_equiv_pos_as_xyz
  1  'x, y, z'
loop_
 _atom_site_type_symbol
 _atom_site_label
 _atom_site_symmetry_multiplicity
 _atom_site_fract_x
 _atom_site_fract_y
 _atom_site_fract_z
 _atom_site_occupancy
  Lu  Lu0  1  0.278795  0.178699  0.457428  1
  Lu  Lu1  1  0.721205  0.821301  0.542572  1
  Lu  Lu2  1  0.278730  0.821301  0.100095  1
  Lu  Lu3  1  0.721270  0.178699  0.899905  1
  Lu  Lu4  1  0.623583  0.313817  0.309659  1
  Lu  Lu5  1  0.376417  0.686183  0.690341  1
  Lu  Lu6  1  0.004158  0.313817  0.690234  1
  Lu  Lu7  1  0.995842  0.686183  0.309766  1
  Lu  Lu8  1  0.220651  0.416295  0.195645  1
  Lu  Lu9  1  0.779349  0.583705  0.804355  1
  Lu  Lu10  1  0.220227  0.024419  0.804193  1
  Lu  Lu11  1  0.779773  0.975581  0.195807  1
  Co  Co12  1  0.386565  0.886546  0.499981  1
  Co  Co13  1  0.613435  0.113454  0.500019  1
  Ni  Ni14  1  0.000836  0.362325  0.361488  1
  Ni  Ni15  1  0.999164  0.637675  0.638512  1
  Bi  Bi16  1  0.500000  0.500000  0.000000  1
  Os  Os17  1  0.000000  0.000000  0.000000  1
