# generated using pymatgen
data_Tb2BiSb9O26
_symmetry_space_group_name_H-M   'P 1'
_cell_length_a   7.43921600
_cell_length_b   7.35974236
_cell_length_c   10.33290016
_cell_angle_alpha   88.90442618
_cell_angle_beta   90.00000000
_cell_angle_gamma   90.00000000
_symmetry_Int_Tables_number   1
_chemical_formula_structural   Tb2BiSb9O26
_chemical_formula_sum   'Tb2 Bi1 Sb9 O26'
_cell_volume   565.63023185
_cell_formula_units_Z   1
loop_
 _symmetry_equiv_pos_site_id
 _symmetry_equiv_pos_as_xyz
  1  'x, y, z'
loop_
 _atom_site_type_symbol
 _atom_site_label
 _atom_site_symmetry_multiplicity
 _atom_site_fract_x
 _atom_site_fract_y
 _atom_site_fract_z
 _atom_site_occupancy
  Tb  Tb0  1  0.499601  0.496632  0.002216  1
  Tb  Tb1  1  0.000399  0.496632  0.002216  1
  Bi  Bi2  1  0.250000  0.751164  0.742109  1
  Sb  Sb3  1  0.750000  0.272752  0.276402  1
  Sb  Sb4  1  0.501149  0.999422  0.999357  1
  Sb  Sb5  1  0.750000  0.756482  0.745845  1
  Sb  Sb6  1  0.250000  0.748031  0.252300  1
  Sb  Sb7  1  0.497113  0.501299  0.500460  1
  Sb  Sb8  1  0.002887  0.501299  0.500460  1
  Sb  Sb9  1  0.750000  0.253032  0.747379  1
  Sb  Sb10  1  0.250000  0.241459  0.251828  1
  Sb  Sb11  1  0.998851  0.999422  0.999357  1
  O  O12  1  0.449881  0.689671  0.369703  1
  O  O13  1  0.750000  0.453074  0.132478  1
  O  O14  1  0.250000  0.493088  0.163355  1
  O  O15  1  0.455908  0.308220  0.365284  1
  O  O16  1  0.558095  0.214790  0.884917  1
  O  O17  1  0.941905  0.214790  0.884917  1
  O  O18  1  0.443902  0.205264  0.118213  1
  O  O19  1  0.750000  0.992823  0.070260  1
  O  O20  1  0.250000  0.992521  0.921386  1
  O  O21  1  0.750000  0.005014  0.685142  1
  O  O22  1  0.548398  0.794013  0.875047  1
  O  O23  1  0.951602  0.794013  0.875047  1
  O  O24  1  0.441117  0.785569  0.113818  1
  O  O25  1  0.050119  0.689671  0.369703  1
  O  O26  1  0.547987  0.695233  0.630000  1
  O  O27  1  0.952013  0.695233  0.630000  1
  O  O28  1  0.250000  0.515093  0.576805  1
  O  O29  1  0.750000  0.507182  0.839251  1
  O  O30  1  0.750000  0.479235  0.421199  1
  O  O31  1  0.044092  0.308220  0.365284  1
  O  O32  1  0.551580  0.311377  0.628670  1
  O  O33  1  0.948420  0.311377  0.628670  1
  O  O34  1  0.056098  0.205264  0.118213  1
  O  O35  1  0.250000  0.995591  0.316799  1
  O  O36  1  0.058883  0.785569  0.113818  1
  O  O37  1  0.250000  0.540477  0.882093  1
