# generated using pymatgen
data_La16Cd3InIr4
_symmetry_space_group_name_H-M   'P 1'
_cell_length_a   10.13428408
_cell_length_b   10.13424326
_cell_length_c   10.13424285
_cell_angle_alpha   60.08143463
_cell_angle_beta   60.08169722
_cell_angle_gamma   60.08169937
_symmetry_Int_Tables_number   1
_chemical_formula_structural   La16Cd3InIr4
_chemical_formula_sum   'La16 Cd3 In1 Ir4'
_cell_volume   737.33208473
_cell_formula_units_Z   1
loop_
 _symmetry_equiv_pos_site_id
 _symmetry_equiv_pos_as_xyz
  1  'x, y, z'
loop_
 _atom_site_type_symbol
 _atom_site_label
 _atom_site_symmetry_multiplicity
 _atom_site_fract_x
 _atom_site_fract_y
 _atom_site_fract_z
 _atom_site_occupancy
  La  La0  1  0.597843  0.597841  0.597841  1
  La  La1  1  0.597930  0.597931  0.206483  1
  La  La2  1  0.597930  0.206483  0.597931  1
  La  La3  1  0.206483  0.597930  0.597930  1
  La  La4  1  0.059903  0.440134  0.440134  1
  La  La5  1  0.441767  0.058644  0.058644  1
  La  La6  1  0.440138  0.059904  0.440129  1
  La  La7  1  0.058642  0.441764  0.058642  1
  La  La8  1  0.440138  0.440129  0.059904  1
  La  La9  1  0.058642  0.058642  0.441764  1
  La  La10  1  0.190124  0.810268  0.810268  1
  La  La11  1  0.810634  0.189843  0.189843  1
  La  La12  1  0.810263  0.190125  0.810270  1
  La  La13  1  0.189845  0.810635  0.189846  1
  La  La14  1  0.810263  0.810270  0.190125  1
  La  La15  1  0.189845  0.189846  0.810635  1
  Cd  Cd16  1  0.829707  0.829707  0.510428  1
  Cd  Cd17  1  0.829707  0.510428  0.829707  1
  Cd  Cd18  1  0.510429  0.829707  0.829707  1
  In  In19  1  0.829988  0.829987  0.829987  1
  Ir  Ir20  1  0.390736  0.390736  0.390736  1
  Ir  Ir21  1  0.390968  0.390967  0.827110  1
  Ir  Ir22  1  0.390968  0.827110  0.390967  1
  Ir  Ir23  1  0.827110  0.390968  0.390968  1
