# generated using pymatgen
data_CsIrPtS4
_symmetry_space_group_name_H-M   'P 1'
_cell_length_a   6.30872800
_cell_length_b   7.28726300
_cell_length_c   15.98953800
_cell_angle_alpha   90.00000000
_cell_angle_beta   90.00000000
_cell_angle_gamma   90.00000000
_symmetry_Int_Tables_number   1
_chemical_formula_structural   CsIrPtS4
_chemical_formula_sum   'Cs4 Ir4 Pt4 S16'
_cell_volume   735.09278881
_cell_formula_units_Z   4
loop_
 _symmetry_equiv_pos_site_id
 _symmetry_equiv_pos_as_xyz
  1  'x, y, z'
loop_
 _atom_site_type_symbol
 _atom_site_label
 _atom_site_symmetry_multiplicity
 _atom_site_fract_x
 _atom_site_fract_y
 _atom_site_fract_z
 _atom_site_occupancy
  Cs  Cs0  1  0.351285  0.000000  0.000000  1
  Cs  Cs1  1  0.648715  0.500000  0.500000  1
  Cs  Cs2  1  0.031560  0.000000  0.500000  1
  Cs  Cs3  1  0.968440  0.500000  0.000000  1
  Ir  Ir4  1  0.001864  0.000000  0.250227  1
  Ir  Ir5  1  0.001864  0.000000  0.749773  1
  Ir  Ir6  1  0.998136  0.500000  0.249773  1
  Ir  Ir7  1  0.998136  0.500000  0.750227  1
  Pt  Pt8  1  0.500000  0.250000  0.250000  1
  Pt  Pt9  1  0.500000  0.750000  0.750000  1
  Pt  Pt10  1  0.500000  0.750000  0.250000  1
  Pt  Pt11  1  0.500000  0.250000  0.750000  1
  S  S12  1  0.836894  0.249644  0.324042  1
  S  S13  1  0.836894  0.750356  0.675958  1
  S  S14  1  0.163106  0.749644  0.175958  1
  S  S15  1  0.163106  0.250356  0.824042  1
  S  S16  1  0.163106  0.250356  0.175958  1
  S  S17  1  0.163106  0.749644  0.824042  1
  S  S18  1  0.836894  0.750356  0.324042  1
  S  S19  1  0.836894  0.249644  0.675958  1
  S  S20  1  0.672999  0.000000  0.176386  1
  S  S21  1  0.672999  0.000000  0.823614  1
  S  S22  1  0.327001  0.500000  0.323614  1
  S  S23  1  0.327001  0.500000  0.676386  1
  S  S24  1  0.333738  0.000000  0.323254  1
  S  S25  1  0.333738  0.000000  0.676746  1
  S  S26  1  0.666262  0.500000  0.176746  1
  S  S27  1  0.666262  0.500000  0.823254  1
