# generated using pymatgen
data_BaSrCoO4
_symmetry_space_group_name_H-M   'P 1'
_cell_length_a   7.52939800
_cell_length_b   5.99844945
_cell_length_c   11.39118979
_cell_angle_alpha   62.20981259
_cell_angle_beta   90.00000000
_cell_angle_gamma   90.00000000
_symmetry_Int_Tables_number   1
_chemical_formula_structural   BaSrCoO4
_chemical_formula_sum   'Ba4 Sr4 Co4 O16'
_cell_volume   455.14014913
_cell_formula_units_Z   4
loop_
 _symmetry_equiv_pos_site_id
 _symmetry_equiv_pos_as_xyz
  1  'x, y, z'
loop_
 _atom_site_type_symbol
 _atom_site_label
 _atom_site_symmetry_multiplicity
 _atom_site_fract_x
 _atom_site_fract_y
 _atom_site_fract_z
 _atom_site_occupancy
  Ba  Ba0  1  0.652071  0.318172  0.420775  1
  Ba  Ba1  1  0.152071  0.681828  0.079225  1
  Ba  Ba2  1  0.347929  0.681828  0.579225  1
  Ba  Ba3  1  0.847929  0.318172  0.920775  1
  Sr  Sr4  1  0.999221  0.973827  0.306026  1
  Sr  Sr5  1  0.499221  0.026173  0.193974  1
  Sr  Sr6  1  0.000779  0.026173  0.693974  1
  Sr  Sr7  1  0.500779  0.973827  0.806026  1
  Co  Co8  1  0.222183  0.337240  0.418929  1
  Co  Co9  1  0.722183  0.662760  0.081071  1
  Co  Co10  1  0.777817  0.662760  0.581071  1
  Co  Co11  1  0.277817  0.337240  0.918929  1
  O  O12  1  0.321080  0.219630  0.582678  1
  O  O13  1  0.821080  0.780370  0.917322  1
  O  O14  1  0.678920  0.780370  0.417322  1
  O  O15  1  0.178920  0.219630  0.082678  1
  O  O16  1  0.326675  0.158529  0.347093  1
  O  O17  1  0.826675  0.841471  0.152907  1
  O  O18  1  0.673325  0.841471  0.652907  1
  O  O19  1  0.173325  0.158529  0.847093  1
  O  O20  1  0.266825  0.671040  0.325501  1
  O  O21  1  0.766825  0.328960  0.174499  1
  O  O22  1  0.733175  0.328960  0.674499  1
  O  O23  1  0.233175  0.671040  0.825501  1
  O  O24  1  0.508745  0.273024  0.931884  1
  O  O25  1  0.008745  0.726976  0.568116  1
  O  O26  1  0.491255  0.726976  0.068116  1
  O  O27  1  0.991255  0.273024  0.431884  1
