# generated using pymatgen
data_Ca7La8Yb5Si16
_symmetry_space_group_name_H-M   'P 1'
_cell_length_a   7.55339172
_cell_length_b   7.94735339
_cell_length_c   15.11866800
_cell_angle_alpha   89.96974929
_cell_angle_beta   90.09193554
_cell_angle_gamma   89.90787623
_symmetry_Int_Tables_number   1
_chemical_formula_structural   Ca7La8Yb5Si16
_chemical_formula_sum   'Ca7 La8 Yb5 Si16'
_cell_volume   907.56320832
_cell_formula_units_Z   1
loop_
 _symmetry_equiv_pos_site_id
 _symmetry_equiv_pos_as_xyz
  1  'x, y, z'
loop_
 _atom_site_type_symbol
 _atom_site_label
 _atom_site_symmetry_multiplicity
 _atom_site_fract_x
 _atom_site_fract_y
 _atom_site_fract_z
 _atom_site_occupancy
  Ca  Ca0  1  0.645419  0.999989  0.250416  1
  Ca  Ca1  1  0.145529  0.500165  0.250372  1
  Ca  Ca2  1  0.854454  0.500115  0.749537  1
  Ca  Ca3  1  0.354268  0.999883  0.749751  1
  Ca  Ca4  1  0.678827  0.818531  0.878354  1
  Ca  Ca5  1  0.179021  0.681520  0.621539  1
  Ca  Ca6  1  0.821218  0.318497  0.121900  1
  La  La7  1  0.975563  0.816972  0.097220  1
  La  La8  1  0.475995  0.682963  0.403185  1
  La  La9  1  0.524952  0.316465  0.903075  1
  La  La10  1  0.024458  0.183071  0.596351  1
  La  La11  1  0.025618  0.183392  0.901309  1
  La  La12  1  0.524865  0.316665  0.597755  1
  La  La13  1  0.474443  0.683178  0.098833  1
  La  La14  1  0.975154  0.816942  0.401901  1
  Yb  Yb15  1  0.321946  0.182447  0.377424  1
  Yb  Yb16  1  0.320495  0.182667  0.123906  1
  Yb  Yb17  1  0.821241  0.316705  0.376827  1
  Yb  Yb18  1  0.179148  0.682926  0.876460  1
  Yb  Yb19  1  0.678837  0.817405  0.623132  1
  Si  Si20  1  0.757607  0.624348  0.250634  1
  Si  Si21  1  0.257576  0.876033  0.250047  1
  Si  Si22  1  0.742198  0.124223  0.749100  1
  Si  Si23  1  0.242747  0.375679  0.750455  1
  Si  Si24  1  0.029974  0.091245  0.250581  1
  Si  Si25  1  0.529861  0.408715  0.250789  1
  Si  Si26  1  0.470097  0.591265  0.749638  1
  Si  Si27  1  0.969939  0.908554  0.749714  1
  Si  Si28  1  0.859602  0.527262  0.961949  1
  Si  Si29  1  0.358604  0.973152  0.537479  1
  Si  Si30  1  0.640294  0.027039  0.038589  1
  Si  Si31  1  0.140985  0.471985  0.461782  1
  Si  Si32  1  0.144072  0.472508  0.036539  1
  Si  Si33  1  0.643131  0.027297  0.463189  1
  Si  Si34  1  0.355883  0.972458  0.963956  1
  Si  Si35  1  0.855979  0.527743  0.536311  1
