# generated using pymatgen
data_Na(PrB8)3
_symmetry_space_group_name_H-M   'P 1'
_cell_length_a   7.19035378
_cell_length_b   7.19035471
_cell_length_c   5.86471700
_cell_angle_alpha   90.00000000
_cell_angle_beta   90.00000000
_cell_angle_gamma   109.49869047
_symmetry_Int_Tables_number   1
_chemical_formula_structural   Na(PrB8)3
_chemical_formula_sum   'Na1 Pr3 B24'
_cell_volume   285.82334743
_cell_formula_units_Z   1
loop_
 _symmetry_equiv_pos_site_id
 _symmetry_equiv_pos_as_xyz
  1  'x, y, z'
loop_
 _atom_site_type_symbol
 _atom_site_label
 _atom_site_symmetry_multiplicity
 _atom_site_fract_x
 _atom_site_fract_y
 _atom_site_fract_z
 _atom_site_occupancy
  Na  Na0  1  0.000000  0.000000  0.000000  1
  Pr  Pr1  1  0.749523  0.250477  0.500000  1
  Pr  Pr2  1  0.500000  0.500000  0.000000  1
  Pr  Pr3  1  0.250477  0.749523  0.500000  1
  B  B4  1  0.175407  0.324262  0.650331  1
  B  B5  1  0.925311  0.575241  0.149210  1
  B  B6  1  0.675738  0.824593  0.650331  1
  B  B7  1  0.424759  0.074689  0.149210  1
  B  B8  1  0.175407  0.324262  0.349669  1
  B  B9  1  0.925311  0.575241  0.850790  1
  B  B10  1  0.675738  0.824593  0.349669  1
  B  B11  1  0.424759  0.074689  0.850790  1
  B  B12  1  0.399520  0.399520  0.500000  1
  B  B13  1  0.148600  0.650555  0.000000  1
  B  B14  1  0.899482  0.899482  0.500000  1
  B  B15  1  0.650555  0.148600  0.000000  1
  B  B16  1  0.324262  0.175407  0.650331  1
  B  B17  1  0.074689  0.424759  0.149210  1
  B  B18  1  0.824593  0.675738  0.650331  1
  B  B19  1  0.575241  0.925311  0.149210  1
  B  B20  1  0.100518  0.100518  0.500000  1
  B  B21  1  0.851400  0.349445  0.000000  1
  B  B22  1  0.600480  0.600480  0.500000  1
  B  B23  1  0.349445  0.851400  0.000000  1
  B  B24  1  0.324262  0.175407  0.349669  1
  B  B25  1  0.074689  0.424759  0.850790  1
  B  B26  1  0.824593  0.675738  0.349669  1
  B  B27  1  0.575241  0.925311  0.850790  1
