# generated using pymatgen
data_Se17N
_symmetry_space_group_name_H-M   'P 1'
_cell_length_a   18.04728900
_cell_length_b   6.79251684
_cell_length_c   9.30796631
_cell_angle_alpha   75.72344251
_cell_angle_beta   90.00000000
_cell_angle_gamma   90.00000000
_symmetry_Int_Tables_number   1
_chemical_formula_structural   Se17N
_chemical_formula_sum   'Se34 N2'
_cell_volume   1105.79234975
_cell_formula_units_Z   2
loop_
 _symmetry_equiv_pos_site_id
 _symmetry_equiv_pos_as_xyz
  1  'x, y, z'
loop_
 _atom_site_type_symbol
 _atom_site_label
 _atom_site_symmetry_multiplicity
 _atom_site_fract_x
 _atom_site_fract_y
 _atom_site_fract_z
 _atom_site_occupancy
  Se  Se0  1  0.364671  0.803035  0.265165  1
  Se  Se1  1  0.864671  0.196965  0.734835  1
  Se  Se2  1  0.986715  0.784134  0.003009  1
  Se  Se3  1  0.486715  0.215866  0.996991  1
  Se  Se4  1  0.031587  0.263737  0.397784  1
  Se  Se5  1  0.531587  0.736263  0.602216  1
  Se  Se6  1  0.758005  0.705008  0.259179  1
  Se  Se7  1  0.258005  0.294992  0.740821  1
  Se  Se8  1  0.194608  0.002046  0.998938  1
  Se  Se9  1  0.694608  0.997954  0.001062  1
  Se  Se10  1  0.773113  0.054373  0.371342  1
  Se  Se11  1  0.543492  0.962553  0.176246  1
  Se  Se12  1  0.707369  0.418959  0.169790  1
  Se  Se13  1  0.207369  0.581041  0.830210  1
  Se  Se14  1  0.004931  0.042390  0.249228  1
  Se  Se15  1  0.504931  0.957610  0.750772  1
  Se  Se16  1  0.910778  0.463878  0.828143  1
  Se  Se17  1  0.273113  0.945627  0.628658  1
  Se  Se18  1  0.460137  0.246298  0.541840  1
  Se  Se19  1  0.410778  0.536122  0.171857  1
  Se  Se20  1  0.729104  0.549177  0.894940  1
  Se  Se21  1  0.229104  0.450823  0.105060  1
  Se  Se22  1  0.960137  0.753702  0.458160  1
  Se  Se23  1  0.153747  0.701092  0.172456  1
  Se  Se24  1  0.660539  0.137173  0.457336  1
  Se  Se25  1  0.160539  0.862827  0.542664  1
  Se  Se26  1  0.037493  0.340281  0.910161  1
  Se  Se27  1  0.537493  0.659719  0.089839  1
  Se  Se28  1  0.835950  0.948780  0.958140  1
  Se  Se29  1  0.335950  0.051220  0.041860  1
  Se  Se30  1  0.920565  0.496197  0.353230  1
  Se  Se31  1  0.420565  0.503803  0.646770  1
  Se  Se32  1  0.653747  0.298908  0.827544  1
  Se  Se33  1  0.043492  0.037447  0.823754  1
  N  N34  1  0.789077  0.253073  0.205083  1
  N  N35  1  0.289077  0.746927  0.794917  1
