# generated using pymatgen
data_SrDyY2(Ir2O7)2
_symmetry_space_group_name_H-M   'P 1'
_cell_length_a   7.29606177
_cell_length_b   7.31754305
_cell_length_c   7.29357400
_cell_angle_alpha   60.10828660
_cell_angle_beta   60.01126962
_cell_angle_gamma   60.13104444
_symmetry_Int_Tables_number   1
_chemical_formula_structural   SrDyY2(Ir2O7)2
_chemical_formula_sum   'Sr1 Dy1 Y2 Ir4 O14'
_cell_volume   275.86679045
_cell_formula_units_Z   1
loop_
 _symmetry_equiv_pos_site_id
 _symmetry_equiv_pos_as_xyz
  1  'x, y, z'
loop_
 _atom_site_type_symbol
 _atom_site_label
 _atom_site_symmetry_multiplicity
 _atom_site_fract_x
 _atom_site_fract_y
 _atom_site_fract_z
 _atom_site_occupancy
  Sr  Sr0  1  0.125000  0.625000  0.125000  1
  Dy  Dy1  1  0.625000  0.125000  0.125000  1
  Y  Y2  1  0.125000  0.125000  0.625000  1
  Y  Y3  1  0.125000  0.125000  0.125000  1
  Ir  Ir4  1  0.125000  0.625000  0.625000  1
  Ir  Ir5  1  0.625000  0.125000  0.625000  1
  Ir  Ir6  1  0.625000  0.625000  0.125000  1
  Ir  Ir7  1  0.625000  0.625000  0.625000  1
  O  O8  1  0.691913  0.719716  0.294185  1
  O  O9  1  0.293332  0.290853  0.707908  1
  O  O10  1  0.707825  0.290633  0.708494  1
  O  O11  1  0.294456  0.719172  0.294412  1
  O  O12  1  0.294456  0.719172  0.691960  1
  O  O13  1  0.707825  0.290633  0.293047  1
  O  O14  1  0.558087  0.530284  0.955815  1
  O  O15  1  0.956668  0.959147  0.542092  1
  O  O16  1  0.542175  0.959367  0.541506  1
  O  O17  1  0.955544  0.530828  0.955588  1
  O  O18  1  0.955544  0.530828  0.558040  1
  O  O19  1  0.542175  0.959367  0.956953  1
  O  O20  1  0.257621  0.227836  0.257272  1
  O  O21  1  0.992379  0.022164  0.992728  1
