# generated using pymatgen
data_TbYMnCrC3
_symmetry_space_group_name_H-M   'P 1'
_cell_length_a   5.43468171
_cell_length_b   5.43468280
_cell_length_c   5.53701076
_cell_angle_alpha   75.48303839
_cell_angle_beta   75.48303482
_cell_angle_gamma   36.60271447
_symmetry_Int_Tables_number   1
_chemical_formula_structural   TbYMnCrC3
_chemical_formula_sum   'Tb1 Y1 Mn1 Cr1 C3'
_cell_volume   94.05270491
_cell_formula_units_Z   1
loop_
 _symmetry_equiv_pos_site_id
 _symmetry_equiv_pos_as_xyz
  1  'x, y, z'
loop_
 _atom_site_type_symbol
 _atom_site_label
 _atom_site_symmetry_multiplicity
 _atom_site_fract_x
 _atom_site_fract_y
 _atom_site_fract_z
 _atom_site_occupancy
  Tb  Tb0  1  0.396929  0.396929  0.316534  1
  Y  Y1  1  0.606593  0.606593  0.685717  1
  Mn  Mn2  1  0.157866  0.157866  0.109999  1
  Cr  Cr3  1  0.843280  0.843280  0.893615  1
  C  C4  1  0.707582  0.707582  0.220591  1
  C  C5  1  0.287214  0.287214  0.772760  1
  C  C6  1  0.000536  0.000536  0.000784  1
