# generated using pymatgen
data_Zr10InSb6
_symmetry_space_group_name_H-M   'P 1'
_cell_length_a   5.92355546
_cell_length_b   8.66523798
_cell_length_c   8.64727288
_cell_angle_alpha   119.93367620
_cell_angle_beta   89.76201423
_cell_angle_gamma   90.11716694
_symmetry_Int_Tables_number   1
_chemical_formula_structural   Zr10InSb6
_chemical_formula_sum   'Zr10 In1 Sb6'
_cell_volume   384.64391278
_cell_formula_units_Z   1
loop_
 _symmetry_equiv_pos_site_id
 _symmetry_equiv_pos_as_xyz
  1  'x, y, z'
loop_
 _atom_site_type_symbol
 _atom_site_label
 _atom_site_symmetry_multiplicity
 _atom_site_fract_x
 _atom_site_fract_y
 _atom_site_fract_z
 _atom_site_occupancy
  Zr  Zr0  1  0.500028  0.336310  0.668898  1
  Zr  Zr1  1  0.500039  0.663694  0.332611  1
  Zr  Zr2  1  0.001384  0.664957  0.332966  1
  Zr  Zr3  1  0.001377  0.335053  0.667996  1
  Zr  Zr4  1  0.772995  0.267899  0.999874  1
  Zr  Zr5  1  0.772991  0.732115  0.731986  1
  Zr  Zr6  1  0.778811  0.000009  0.264968  1
  Zr  Zr7  1  0.224589  0.730076  0.999064  1
  Zr  Zr8  1  0.224592  0.269935  0.269003  1
  Zr  Zr9  1  0.225725  0.000002  0.733588  1
  In  In10  1  0.259623  0.999947  0.386267  1
  Sb  Sb11  1  0.743211  0.613980  0.001595  1
  Sb  Sb12  1  0.743214  0.386036  0.387579  1
  Sb  Sb13  1  0.743805  0.999999  0.608562  1
  Sb  Sb14  1  0.254858  0.386146  0.999626  1
  Sb  Sb15  1  0.254870  0.613830  0.613521  1
  Sb  Sb16  1  0.497888  0.000016  0.001896  1
