# generated using pymatgen
data_Dy2Tm3Co19Si11P
_symmetry_space_group_name_H-M   'P 1'
_cell_length_a   12.12293039
_cell_length_b   12.15576123
_cell_length_c   3.71902100
_cell_angle_alpha   90.00000000
_cell_angle_beta   90.00000000
_cell_angle_gamma   120.08963085
_symmetry_Int_Tables_number   1
_chemical_formula_structural   Dy2Tm3Co19Si11P
_chemical_formula_sum   'Dy2 Tm3 Co19 Si11 P1'
_cell_volume   474.19402770
_cell_formula_units_Z   1
loop_
 _symmetry_equiv_pos_site_id
 _symmetry_equiv_pos_as_xyz
  1  'x, y, z'
loop_
 _atom_site_type_symbol
 _atom_site_label
 _atom_site_symmetry_multiplicity
 _atom_site_fract_x
 _atom_site_fract_y
 _atom_site_fract_z
 _atom_site_occupancy
  Dy  Dy0  1  0.667335  0.333473  0.000000  1
  Dy  Dy1  1  0.332665  0.666140  0.000000  1
  Tm  Tm2  1  0.185052  0.185964  0.500000  1
  Tm  Tm3  1  0.814948  0.000912  0.500000  1
  Tm  Tm4  1  0.000000  0.813720  0.500000  1
  Co  Co5  1  0.823950  0.196850  0.000000  1
  Co  Co6  1  0.803100  0.623265  0.000000  1
  Co  Co7  1  0.376596  0.179895  0.000000  1
  Co  Co8  1  0.196900  0.820166  0.000000  1
  Co  Co9  1  0.623404  0.803300  0.000000  1
  Co  Co10  1  0.176050  0.372901  0.000000  1
  Co  Co11  1  0.558407  0.558893  0.000000  1
  Co  Co12  1  0.441593  0.000486  0.000000  1
  Co  Co13  1  0.000000  0.441536  0.000000  1
  Co  Co14  1  0.645327  0.123578  0.500000  1
  Co  Co15  1  0.877170  0.520670  0.500000  1
  Co  Co16  1  0.478598  0.356174  0.500000  1
  Co  Co17  1  0.122830  0.643500  0.500000  1
  Co  Co18  1  0.521402  0.877576  0.500000  1
  Co  Co19  1  0.354673  0.478251  0.500000  1
  Co  Co20  1  0.719398  0.719362  0.500000  1
  Co  Co21  1  0.280602  0.999964  0.500000  1
  Co  Co22  1  0.000000  0.277213  0.500000  1
  Co  Co23  1  0.000000  0.004835  0.000000  1
  Si  Si24  1  0.370280  0.370693  0.000000  1
  Si  Si25  1  0.629720  0.000412  0.000000  1
  Si  Si26  1  0.000000  0.629247  0.000000  1
  Si  Si27  1  0.841051  0.318292  0.500000  1
  Si  Si28  1  0.682296  0.522403  0.500000  1
  Si  Si29  1  0.478151  0.160418  0.500000  1
  Si  Si30  1  0.317704  0.840108  0.500000  1
  Si  Si31  1  0.521849  0.682268  0.500000  1
  Si  Si32  1  0.158949  0.477241  0.500000  1
  Si  Si33  1  0.818009  0.817722  0.000000  1
  Si  Si34  1  0.181991  0.999714  0.000000  1
  P  P35  1  0.000000  0.182858  0.000000  1
