# generated using pymatgen
data_Rb2W(ClF2)2
_symmetry_space_group_name_H-M   'P 1'
_cell_length_a   6.92184074
_cell_length_b   6.92187502
_cell_length_c   5.28230924
_cell_angle_alpha   92.59568400
_cell_angle_beta   92.59526896
_cell_angle_gamma   55.16745337
_symmetry_Int_Tables_number   1
_chemical_formula_structural   Rb2W(ClF2)2
_chemical_formula_sum   'Rb2 W1 Cl2 F4'
_cell_volume   207.46847996
_cell_formula_units_Z   1
loop_
 _symmetry_equiv_pos_site_id
 _symmetry_equiv_pos_as_xyz
  1  'x, y, z'
loop_
 _atom_site_type_symbol
 _atom_site_label
 _atom_site_symmetry_multiplicity
 _atom_site_fract_x
 _atom_site_fract_y
 _atom_site_fract_z
 _atom_site_occupancy
  Rb  Rb0  1  0.359459  0.359458  0.327122  1
  Rb  Rb1  1  0.640541  0.640542  0.672878  1
  W  W2  1  0.000000  0.000000  0.000000  1
  Cl  Cl3  1  0.180967  0.180972  0.812258  1
  Cl  Cl4  1  0.819033  0.819028  0.187742  1
  F  F5  1  0.720037  0.174529  0.764573  1
  F  F6  1  0.174533  0.720042  0.764560  1
  F  F7  1  0.279963  0.825471  0.235427  1
  F  F8  1  0.825467  0.279958  0.235440  1
