# generated using pymatgen
data_TbYPS
_symmetry_space_group_name_H-M   'P 1'
_cell_length_a   6.89614428
_cell_length_b   6.89614368
_cell_length_c   6.89614369
_cell_angle_alpha   33.49696693
_cell_angle_beta   33.49697789
_cell_angle_gamma   33.49697403
_symmetry_Int_Tables_number   1
_chemical_formula_structural   TbYPS
_chemical_formula_sum   'Tb1 Y1 P1 S1'
_cell_volume   88.96690362
_cell_formula_units_Z   1
loop_
 _symmetry_equiv_pos_site_id
 _symmetry_equiv_pos_as_xyz
  1  'x, y, z'
loop_
 _atom_site_type_symbol
 _atom_site_label
 _atom_site_symmetry_multiplicity
 _atom_site_fract_x
 _atom_site_fract_y
 _atom_site_fract_z
 _atom_site_occupancy
  Tb  Tb0  1  0.247136  0.247136  0.247136  1
  Y  Y1  1  0.752892  0.752892  0.752892  1
  P  P2  1  0.499787  0.499787  0.499787  1
  S  S3  1  0.000185  0.000185  0.000185  1
