# generated using pymatgen
data_Sm2Th(GaRu)3
_symmetry_space_group_name_H-M   'P 1'
_cell_length_a   7.15216218
_cell_length_b   7.15216289
_cell_length_c   3.98601700
_cell_angle_alpha   90.00000000
_cell_angle_beta   90.00000000
_cell_angle_gamma   117.57664276
_symmetry_Int_Tables_number   1
_chemical_formula_structural   Sm2Th(GaRu)3
_chemical_formula_sum   'Sm2 Th1 Ga3 Ru3'
_cell_volume   180.73401956
_cell_formula_units_Z   1
loop_
 _symmetry_equiv_pos_site_id
 _symmetry_equiv_pos_as_xyz
  1  'x, y, z'
loop_
 _atom_site_type_symbol
 _atom_site_label
 _atom_site_symmetry_multiplicity
 _atom_site_fract_x
 _atom_site_fract_y
 _atom_site_fract_z
 _atom_site_occupancy
  Sm  Sm0  1  0.410433  0.999100  0.000000  1
  Sm  Sm1  1  0.999100  0.410433  0.000000  1
  Th  Th2  1  0.588839  0.588839  0.000000  1
  Ga  Ga3  1  0.008299  0.751042  0.500000  1
  Ga  Ga4  1  0.237006  0.237006  0.500000  1
  Ga  Ga5  1  0.751042  0.008299  0.500000  1
  Ru  Ru6  1  0.991470  0.991470  0.000000  1
  Ru  Ru7  1  0.660061  0.353749  0.500000  1
  Ru  Ru8  1  0.353749  0.660061  0.500000  1
