# generated using pymatgen
data_Ti8Al15Rh6Au
_symmetry_space_group_name_H-M   'P 1'
_cell_length_a   8.68142660
_cell_length_b   8.65450235
_cell_length_c   8.68708203
_cell_angle_alpha   119.90275810
_cell_angle_beta   119.79381691
_cell_angle_gamma   90.13647262
_symmetry_Int_Tables_number   1
_chemical_formula_structural   Ti8Al15Rh6Au
_chemical_formula_sum   'Ti8 Al15 Rh6 Au1'
_cell_volume   463.08481439
_cell_formula_units_Z   1
loop_
 _symmetry_equiv_pos_site_id
 _symmetry_equiv_pos_as_xyz
  1  'x, y, z'
loop_
 _atom_site_type_symbol
 _atom_site_label
 _atom_site_symmetry_multiplicity
 _atom_site_fract_x
 _atom_site_fract_y
 _atom_site_fract_z
 _atom_site_occupancy
  Ti  Ti0  1  0.789417  0.290507  0.074806  1
  Ti  Ti1  1  0.216822  0.289121  0.499698  1
  Ti  Ti2  1  0.210762  0.710344  0.500428  1
  Ti  Ti3  1  0.214241  0.715396  0.923286  1
  Ti  Ti4  1  0.789408  0.715142  0.500597  1
  Ti  Ti5  1  0.782809  0.284112  0.499754  1
  Ti  Ti6  1  0.389547  0.127160  0.751704  1
  Ti  Ti7  1  0.380381  0.635757  0.258226  1
  Al  Al8  1  0.997489  0.496775  0.499584  1
  Al  Al9  1  0.154207  0.345078  0.192109  1
  Al  Al10  1  0.158361  0.964567  0.816675  1
  Al  Al11  1  0.154195  0.353429  0.810726  1
  Al  Al12  1  0.541178  0.346145  0.196141  1
  Al  Al13  1  0.844629  0.652490  0.807008  1
  Al  Al14  1  0.841701  0.039164  0.184618  1
  Al  Al15  1  0.839771  0.646642  0.181177  1
  Al  Al16  1  0.466116  0.654111  0.810320  1
  Al  Al17  1  0.379308  0.122794  0.258625  1
  Al  Al18  1  0.861479  0.125889  0.751776  1
  Al  Al19  1  0.611281  0.873986  0.248607  1
  Al  Al20  1  0.620289  0.365072  0.742060  1
  Al  Al21  1  0.620269  0.876128  0.741330  1
  Al  Al22  1  0.138146  0.874685  0.249097  1
  Rh  Rh23  1  0.499165  0.999333  0.999775  1
  Rh  Rh24  1  0.498258  0.498731  0.001595  1
  Rh  Rh25  1  0.498151  0.499588  0.498429  1
  Rh  Rh26  1  0.001398  0.499384  0.001362  1
  Rh  Rh27  1  0.999824  0.999655  0.999425  1
  Rh  Rh28  1  0.500106  0.999484  0.501049  1
  Au  Au29  1  0.001289  0.999328  0.500011  1
