# generated using pymatgen
data_Zr2Mn6P7Ir6
_symmetry_space_group_name_H-M   'P 1'
_cell_length_a   9.36585200
_cell_length_b   9.36585221
_cell_length_c   3.78236000
_cell_angle_alpha   90.00000000
_cell_angle_beta   90.00000000
_cell_angle_gamma   119.99999927
_symmetry_Int_Tables_number   1
_chemical_formula_structural   Zr2Mn6P7Ir6
_chemical_formula_sum   'Zr2 Mn6 P7 Ir6'
_cell_volume   287.33470748
_cell_formula_units_Z   1
loop_
 _symmetry_equiv_pos_site_id
 _symmetry_equiv_pos_as_xyz
  1  'x, y, z'
loop_
 _atom_site_type_symbol
 _atom_site_label
 _atom_site_symmetry_multiplicity
 _atom_site_fract_x
 _atom_site_fract_y
 _atom_site_fract_z
 _atom_site_occupancy
  Zr  Zr0  1  0.000000  0.000000  0.000000  1
  Zr  Zr1  1  0.666667  0.333333  0.500000  1
  Mn  Mn2  1  0.605345  0.781525  0.000000  1
  Mn  Mn3  1  0.176181  0.394655  0.000000  1
  Mn  Mn4  1  0.218475  0.823819  0.000000  1
  Mn  Mn5  1  0.435048  0.543613  0.500000  1
  Mn  Mn6  1  0.108566  0.564952  0.500000  1
  Mn  Mn7  1  0.456387  0.891434  0.500000  1
  P  P8  1  0.631559  0.558118  0.000000  1
  P  P9  1  0.926559  0.368441  0.000000  1
  P  P10  1  0.441882  0.073441  0.000000  1
  P  P11  1  0.727074  0.941529  0.500000  1
  P  P12  1  0.214455  0.272926  0.500000  1
  P  P13  1  0.058471  0.785545  0.500000  1
  P  P14  1  0.333333  0.666667  0.000000  1
  Ir  Ir15  1  0.406399  0.305165  0.000000  1
  Ir  Ir16  1  0.898766  0.593601  0.000000  1
  Ir  Ir17  1  0.694835  0.101234  0.000000  1
  Ir  Ir18  1  0.783038  0.727689  0.500000  1
  Ir  Ir19  1  0.944651  0.216962  0.500000  1
  Ir  Ir20  1  0.272311  0.055349  0.500000  1
