# generated using pymatgen
data_Pr2B4Ir2Rh3
_symmetry_space_group_name_H-M   'P 1'
_cell_length_a   7.60065845
_cell_length_b   6.32305067
_cell_length_c   5.74623801
_cell_angle_alpha   77.90181200
_cell_angle_beta   54.43256422
_cell_angle_gamma   47.66561412
_symmetry_Int_Tables_number   1
_chemical_formula_structural   Pr2B4Ir2Rh3
_chemical_formula_sum   'Pr2 B4 Ir2 Rh3'
_cell_volume   158.25730673
_cell_formula_units_Z   1
loop_
 _symmetry_equiv_pos_site_id
 _symmetry_equiv_pos_as_xyz
  1  'x, y, z'
loop_
 _atom_site_type_symbol
 _atom_site_label
 _atom_site_symmetry_multiplicity
 _atom_site_fract_x
 _atom_site_fract_y
 _atom_site_fract_z
 _atom_site_occupancy
  Pr  Pr0  1  0.855031  0.855031  0.144969  1
  Pr  Pr1  1  0.144969  0.144969  0.855031  1
  B  B2  1  0.785377  0.478494  0.530710  1
  B  B3  1  0.205417  0.530710  0.478494  1
  B  B4  1  0.530710  0.205417  0.785377  1
  B  B5  1  0.478494  0.785377  0.205417  1
  Ir  Ir6  1  0.750000  0.750000  0.750000  1
  Ir  Ir7  1  0.500000  0.500000  0.500000  1
  Rh  Rh8  1  0.498979  0.498979  0.001021  1
  Rh  Rh9  1  0.001021  0.001021  0.498979  1
  Rh  Rh10  1  0.250000  0.250000  0.250000  1
