# generated using pymatgen
data_Tb3Gd5(RuCl6)2
_symmetry_space_group_name_H-M   'P 1'
_cell_length_a   4.06129100
_cell_length_b   13.14409252
_cell_length_c   13.62857300
_cell_angle_alpha   89.58878532
_cell_angle_beta   90.00000000
_cell_angle_gamma   90.00000000
_symmetry_Int_Tables_number   1
_chemical_formula_structural   Tb3Gd5(RuCl6)2
_chemical_formula_sum   'Tb3 Gd5 Ru2 Cl12'
_cell_volume   727.50153780
_cell_formula_units_Z   1
loop_
 _symmetry_equiv_pos_site_id
 _symmetry_equiv_pos_as_xyz
  1  'x, y, z'
loop_
 _atom_site_type_symbol
 _atom_site_label
 _atom_site_symmetry_multiplicity
 _atom_site_fract_x
 _atom_site_fract_y
 _atom_site_fract_z
 _atom_site_occupancy
  Tb  Tb0  1  0.000000  0.875004  0.412171  1
  Tb  Tb1  1  0.000000  0.628361  0.914881  1
  Tb  Tb2  1  0.000000  0.373852  0.089841  1
  Gd  Gd3  1  0.500000  0.112165  0.343236  1
  Gd  Gd4  1  0.500000  0.883729  0.651607  1
  Gd  Gd5  1  0.500000  0.613074  0.155713  1
  Gd  Gd6  1  0.500000  0.387598  0.849161  1
  Gd  Gd7  1  0.000000  0.128115  0.586617  1
  Ru  Ru8  1  0.500000  0.001111  0.498970  1
  Ru  Ru9  1  0.500000  0.501054  0.002663  1
  Cl  Cl10  1  0.500000  0.243304  0.174324  1
  Cl  Cl11  1  0.500000  0.753761  0.822059  1
  Cl  Cl12  1  0.500000  0.746313  0.323227  1
  Cl  Cl13  1  0.500000  0.260216  0.677077  1
  Cl  Cl14  1  0.000000  0.243024  0.410339  1
  Cl  Cl15  1  0.000000  0.753705  0.580841  1
  Cl  Cl16  1  0.000000  0.743431  0.085024  1
  Cl  Cl17  1  0.000000  0.257275  0.919592  1
  Cl  Cl18  1  0.000000  0.002589  0.247467  1
  Cl  Cl19  1  0.000000  0.991104  0.749261  1
  Cl  Cl20  1  0.000000  0.502308  0.252216  1
  Cl  Cl21  1  0.000000  0.498907  0.753715  1
