# generated using pymatgen
data_Cs2ZnCd25
_symmetry_space_group_name_H-M   'P 1'
_cell_length_a   9.99319944
_cell_length_b   9.99319835
_cell_length_c   9.99320000
_cell_angle_alpha   60.00000117
_cell_angle_beta   60.00000478
_cell_angle_gamma   59.99999575
_symmetry_Int_Tables_number   1
_chemical_formula_structural   Cs2ZnCd25
_chemical_formula_sum   'Cs2 Zn1 Cd25'
_cell_volume   705.66511753
_cell_formula_units_Z   1
loop_
 _symmetry_equiv_pos_site_id
 _symmetry_equiv_pos_as_xyz
  1  'x, y, z'
loop_
 _atom_site_type_symbol
 _atom_site_label
 _atom_site_symmetry_multiplicity
 _atom_site_fract_x
 _atom_site_fract_y
 _atom_site_fract_z
 _atom_site_occupancy
  Cs  Cs0  1  0.250000  0.250000  0.250000  1
  Cs  Cs1  1  0.750000  0.750000  0.750000  1
  Zn  Zn2  1  0.000000  0.000000  0.000000  1
  Cd  Cd3  1  0.444779  0.195620  0.804380  1
  Cd  Cd4  1  0.939829  0.707182  0.060171  1
  Cd  Cd5  1  0.707182  0.939829  0.292818  1
  Cd  Cd6  1  0.292818  0.707182  0.939829  1
  Cd  Cd7  1  0.939829  0.060171  0.292818  1
  Cd  Cd8  1  0.707182  0.060171  0.939829  1
  Cd  Cd9  1  0.292818  0.939829  0.060171  1
  Cd  Cd10  1  0.804380  0.444779  0.195620  1
  Cd  Cd11  1  0.195620  0.804380  0.444779  1
  Cd  Cd12  1  0.444779  0.555221  0.195620  1
  Cd  Cd13  1  0.444779  0.804380  0.555221  1
  Cd  Cd14  1  0.195620  0.555221  0.804380  1
  Cd  Cd15  1  0.555221  0.444779  0.804380  1
  Cd  Cd16  1  0.555221  0.195620  0.444779  1
  Cd  Cd17  1  0.804380  0.195620  0.555221  1
  Cd  Cd18  1  0.060171  0.939829  0.707182  1
  Cd  Cd19  1  0.060171  0.292818  0.939829  1
  Cd  Cd20  1  0.939829  0.292818  0.707182  1
  Cd  Cd21  1  0.060171  0.707182  0.292818  1
  Cd  Cd22  1  0.292818  0.060171  0.707182  1
  Cd  Cd23  1  0.707182  0.292818  0.060171  1
  Cd  Cd24  1  0.195620  0.444779  0.555221  1
  Cd  Cd25  1  0.804380  0.555221  0.444779  1
  Cd  Cd26  1  0.555221  0.804380  0.195620  1
  Cd  Cd27  1  0.500000  0.500000  0.500000  1
