# generated using pymatgen
data_NdTh4P12Ru19
_symmetry_space_group_name_H-M   'P 1'
_cell_length_a   12.67236100
_cell_length_b   12.67158705
_cell_length_c   4.02300900
_cell_angle_alpha   90.00000000
_cell_angle_beta   90.00000000
_cell_angle_gamma   120.00202827
_symmetry_Int_Tables_number   1
_chemical_formula_structural   NdTh4P12Ru19
_chemical_formula_sum   'Nd1 Th4 P12 Ru19'
_cell_volume   559.45003716
_cell_formula_units_Z   1
loop_
 _symmetry_equiv_pos_site_id
 _symmetry_equiv_pos_as_xyz
  1  'x, y, z'
loop_
 _atom_site_type_symbol
 _atom_site_label
 _atom_site_symmetry_multiplicity
 _atom_site_fract_x
 _atom_site_fract_y
 _atom_site_fract_z
 _atom_site_occupancy
  Nd  Nd0  1  0.188466  0.000000  0.500000  1
  Th  Th1  1  0.000583  0.186307  0.500000  1
  Th  Th2  1  0.814275  0.813693  0.500000  1
  Th  Th3  1  0.666683  0.333747  0.000000  1
  Th  Th4  1  0.332936  0.666253  0.000000  1
  P  P5  1  0.002045  0.814437  0.000000  1
  P  P6  1  0.187607  0.185563  0.000000  1
  P  P7  1  0.812792  0.000000  0.000000  1
  P  P8  1  0.694651  0.170405  0.500000  1
  P  P9  1  0.829792  0.525023  0.500000  1
  P  P10  1  0.475064  0.304076  0.500000  1
  P  P11  1  0.170988  0.695924  0.500000  1
  P  P12  1  0.524246  0.829595  0.500000  1
  P  P13  1  0.304769  0.474977  0.500000  1
  P  P14  1  0.999902  0.374876  0.000000  1
  P  P15  1  0.625027  0.625124  0.000000  1
  P  P16  1  0.374158  0.000000  0.000000  1
  Ru  Ru17  1  0.998854  0.554058  0.000000  1
  Ru  Ru18  1  0.444797  0.445942  0.000000  1
  Ru  Ru19  1  0.554591  0.000000  0.000000  1
  Ru  Ru20  1  0.999726  0.716110  0.500000  1
  Ru  Ru21  1  0.283616  0.283890  0.500000  1
  Ru  Ru22  1  0.715817  0.000000  0.500000  1
  Ru  Ru23  1  0.807069  0.183890  0.000000  1
  Ru  Ru24  1  0.816033  0.623758  0.000000  1
  Ru  Ru25  1  0.379081  0.194906  0.000000  1
  Ru  Ru26  1  0.184176  0.805094  0.000000  1
  Ru  Ru27  1  0.623179  0.816110  0.000000  1
  Ru  Ru28  1  0.192275  0.376242  0.000000  1
  Ru  Ru29  1  0.873649  0.366713  0.500000  1
  Ru  Ru30  1  0.632471  0.506991  0.500000  1
  Ru  Ru31  1  0.493069  0.125623  0.500000  1
  Ru  Ru32  1  0.367446  0.874377  0.500000  1
  Ru  Ru33  1  0.506936  0.633287  0.500000  1
  Ru  Ru34  1  0.125480  0.493009  0.500000  1
  Ru  Ru35  1  0.997747  0.000000  0.000000  1
