# generated using pymatgen
data_TmZr2RuF15
_symmetry_space_group_name_H-M   'P 1'
_cell_length_a   8.08028505
_cell_length_b   8.08028469
_cell_length_c   8.13331925
_cell_angle_alpha   79.75931228
_cell_angle_beta   79.75931697
_cell_angle_gamma   99.74282423
_symmetry_Int_Tables_number   1
_chemical_formula_structural   TmZr2RuF15
_chemical_formula_sum   'Tm2 Zr4 Ru2 F30'
_cell_volume   503.06784405
_cell_formula_units_Z   2
loop_
 _symmetry_equiv_pos_site_id
 _symmetry_equiv_pos_as_xyz
  1  'x, y, z'
loop_
 _atom_site_type_symbol
 _atom_site_label
 _atom_site_symmetry_multiplicity
 _atom_site_fract_x
 _atom_site_fract_y
 _atom_site_fract_z
 _atom_site_occupancy
  Tm  Tm0  1  0.675657  0.324343  0.750000  1
  Tm  Tm1  1  0.324343  0.675657  0.250000  1
  Zr  Zr2  1  0.822254  0.750298  0.324704  1
  Zr  Zr3  1  0.249702  0.177746  0.175296  1
  Zr  Zr4  1  0.177746  0.249702  0.675296  1
  Zr  Zr5  1  0.750298  0.822254  0.824704  1
  Ru  Ru6  1  0.249255  0.750745  0.750000  1
  Ru  Ru7  1  0.750745  0.249255  0.250000  1
  F  F8  1  0.149536  0.185220  0.947064  1
  F  F9  1  0.687115  0.559757  0.849663  1
  F  F10  1  0.045247  0.655011  0.313512  1
  F  F11  1  0.655011  0.045247  0.813512  1
  F  F12  1  0.559757  0.687115  0.349663  1
  F  F13  1  0.185220  0.149536  0.447064  1
  F  F14  1  0.850464  0.814780  0.052936  1
  F  F15  1  0.312885  0.440243  0.150337  1
  F  F16  1  0.954753  0.344989  0.686488  1
  F  F17  1  0.344989  0.954753  0.186488  1
  F  F18  1  0.440243  0.312885  0.650337  1
  F  F19  1  0.814780  0.850464  0.552936  1
  F  F20  1  0.967266  0.032734  0.750000  1
  F  F21  1  0.541603  0.753069  0.029348  1
  F  F22  1  0.246931  0.458397  0.470652  1
  F  F23  1  0.458397  0.246931  0.970652  1
  F  F24  1  0.753069  0.541603  0.529348  1
  F  F25  1  0.032734  0.967266  0.250000  1
  F  F26  1  0.217435  0.726462  0.991958  1
  F  F27  1  0.227237  0.498491  0.782975  1
  F  F28  1  0.995446  0.717055  0.775142  1
  F  F29  1  0.717055  0.995446  0.275142  1
  F  F30  1  0.498491  0.227237  0.282975  1
  F  F31  1  0.726462  0.217435  0.491958  1
  F  F32  1  0.782565  0.273538  0.008042  1
  F  F33  1  0.772763  0.501509  0.217025  1
  F  F34  1  0.004554  0.282945  0.224858  1
  F  F35  1  0.282945  0.004554  0.724858  1
  F  F36  1  0.501509  0.772763  0.717025  1
  F  F37  1  0.273538  0.782565  0.508042  1
