# generated using pymatgen
data_HoTm(ThPt2)2
_symmetry_space_group_name_H-M   'P 1'
_cell_length_a   4.59086200
_cell_length_b   5.68851825
_cell_length_c   7.12931117
_cell_angle_alpha   90.13627979
_cell_angle_beta   90.00000000
_cell_angle_gamma   90.00000000
_symmetry_Int_Tables_number   1
_chemical_formula_structural   HoTm(ThPt2)2
_chemical_formula_sum   'Ho1 Tm1 Th2 Pt4'
_cell_volume   186.18287655
_cell_formula_units_Z   1
loop_
 _symmetry_equiv_pos_site_id
 _symmetry_equiv_pos_as_xyz
  1  'x, y, z'
loop_
 _atom_site_type_symbol
 _atom_site_label
 _atom_site_symmetry_multiplicity
 _atom_site_fract_x
 _atom_site_fract_y
 _atom_site_fract_z
 _atom_site_occupancy
  Ho  Ho0  1  0.250000  0.643388  0.182050  1
  Tm  Tm1  1  0.250000  0.856807  0.681820  1
  Th  Th2  1  0.750000  0.359803  0.817780  1
  Th  Th3  1  0.750000  0.139539  0.318470  1
  Pt  Pt4  1  0.250000  0.157896  0.044540  1
  Pt  Pt5  1  0.750000  0.842308  0.952571  1
  Pt  Pt6  1  0.750000  0.659356  0.456698  1
  Pt  Pt7  1  0.250000  0.340903  0.546071  1
