# generated using pymatgen
data_NdDyHf2(NiAs)4
_symmetry_space_group_name_H-M   'P 1'
_cell_length_a   4.00502300
_cell_length_b   4.00502218
_cell_length_c   14.97963500
_cell_angle_alpha   90.00000000
_cell_angle_beta   90.00000000
_cell_angle_gamma   119.99999853
_symmetry_Int_Tables_number   1
_chemical_formula_structural   NdDyHf2(NiAs)4
_chemical_formula_sum   'Nd1 Dy1 Hf2 Ni4 As4'
_cell_volume   208.08549562
_cell_formula_units_Z   1
loop_
 _symmetry_equiv_pos_site_id
 _symmetry_equiv_pos_as_xyz
  1  'x, y, z'
loop_
 _atom_site_type_symbol
 _atom_site_label
 _atom_site_symmetry_multiplicity
 _atom_site_fract_x
 _atom_site_fract_y
 _atom_site_fract_z
 _atom_site_occupancy
  Nd  Nd0  1  0.000000  0.000000  0.000000  1
  Dy  Dy1  1  0.000000  0.000000  0.500000  1
  Hf  Hf2  1  0.000000  0.000000  0.253134  1
  Hf  Hf3  1  0.000000  0.000000  0.746866  1
  Ni  Ni4  1  0.333333  0.666667  0.163428  1
  Ni  Ni5  1  0.666667  0.333333  0.836572  1
  Ni  Ni6  1  0.666667  0.333333  0.654847  1
  Ni  Ni7  1  0.333333  0.666667  0.345153  1
  As  As8  1  0.333333  0.666667  0.620290  1
  As  As9  1  0.666667  0.333333  0.379710  1
  As  As10  1  0.666667  0.333333  0.128652  1
  As  As11  1  0.333333  0.666667  0.871348  1
