# generated using pymatgen
data_Er2Ta2NbSi4
_symmetry_space_group_name_H-M   'P 1'
_cell_length_a   7.02213116
_cell_length_b   7.02428516
_cell_length_c   12.96472312
_cell_angle_alpha   89.97699599
_cell_angle_beta   89.96852690
_cell_angle_gamma   90.01316414
_symmetry_Int_Tables_number   1
_chemical_formula_structural   Er2Ta2NbSi4
_chemical_formula_sum   'Er8 Ta8 Nb4 Si16'
_cell_volume   639.49065921
_cell_formula_units_Z   4
loop_
 _symmetry_equiv_pos_site_id
 _symmetry_equiv_pos_as_xyz
  1  'x, y, z'
loop_
 _atom_site_type_symbol
 _atom_site_label
 _atom_site_symmetry_multiplicity
 _atom_site_fract_x
 _atom_site_fract_y
 _atom_site_fract_z
 _atom_site_occupancy
  Er  Er0  1  0.998716  0.340195  0.218331  1
  Er  Er1  1  0.001501  0.659552  0.718396  1
  Er  Er2  1  0.159840  0.498579  0.468403  1
  Er  Er3  1  0.500839  0.840187  0.031727  1
  Er  Er4  1  0.840360  0.501651  0.968432  1
  Er  Er5  1  0.499009  0.159667  0.531684  1
  Er  Er6  1  0.340214  0.998857  0.781535  1
  Er  Er7  1  0.659913  0.000934  0.281465  1
  Ta  Ta8  1  0.169896  0.170287  0.999405  1
  Ta  Ta9  1  0.829979  0.829963  0.500230  1
  Ta  Ta10  1  0.329818  0.669882  0.250187  1
  Ta  Ta11  1  0.670150  0.330166  0.750185  1
  Ta  Ta12  1  0.153862  0.992135  0.376077  1
  Ta  Ta13  1  0.845712  0.007876  0.875745  1
  Ta  Ta14  1  0.507363  0.654620  0.626593  1
  Ta  Ta15  1  0.345722  0.493038  0.873654  1
  Nb  Nb16  1  0.492579  0.345886  0.126090  1
  Nb  Nb17  1  0.653793  0.506995  0.374138  1
  Nb  Nb18  1  0.993065  0.154426  0.624166  1
  Nb  Nb19  1  0.006865  0.845960  0.123873  1
  Si  Si20  1  0.294944  0.043813  0.186287  1
  Si  Si21  1  0.704591  0.956084  0.686269  1
  Si  Si22  1  0.455944  0.795269  0.436427  1
  Si  Si23  1  0.204517  0.543522  0.063662  1
  Si  Si24  1  0.543996  0.204362  0.936166  1
  Si  Si25  1  0.795840  0.456588  0.563948  1
  Si  Si26  1  0.044030  0.296070  0.813908  1
  Si  Si27  1  0.956094  0.704242  0.313843  1
  Si  Si28  1  0.366343  0.294806  0.318726  1
  Si  Si29  1  0.633282  0.704819  0.819030  1
  Si  Si30  1  0.204927  0.866848  0.568543  1
  Si  Si31  1  0.132965  0.795339  0.930871  1
  Si  Si32  1  0.796070  0.133350  0.068294  1
  Si  Si33  1  0.866866  0.203700  0.431044  1
  Si  Si34  1  0.296186  0.367236  0.681219  1
  Si  Si35  1  0.704204  0.633095  0.181451  1
