# generated using pymatgen
data_Rb4Na2ErInBi4
_symmetry_space_group_name_H-M   'P 1'
_cell_length_a   10.22574378
_cell_length_b   10.22574262
_cell_length_c   10.22574284
_cell_angle_alpha   136.70944522
_cell_angle_beta   62.38837079
_cell_angle_gamma   137.35710472
_symmetry_Int_Tables_number   1
_chemical_formula_structural   Rb4Na2ErInBi4
_chemical_formula_sum   'Rb4 Na2 Er1 In1 Bi4'
_cell_volume   490.68959337
_cell_formula_units_Z   1
loop_
 _symmetry_equiv_pos_site_id
 _symmetry_equiv_pos_as_xyz
  1  'x, y, z'
loop_
 _atom_site_type_symbol
 _atom_site_label
 _atom_site_symmetry_multiplicity
 _atom_site_fract_x
 _atom_site_fract_y
 _atom_site_fract_z
 _atom_site_occupancy
  Rb  Rb0  1  0.820665  0.257792  0.091938  1
  Rb  Rb1  1  0.679334  0.771273  0.437127  1
  Rb  Rb2  1  0.334147  0.242208  0.562873  1
  Rb  Rb3  1  0.165853  0.728726  0.908061  1
  Na  Na4  1  0.750000  0.250000  0.500000  1
  Na  Na5  1  0.250000  0.750000  0.500000  1
  Er  Er6  1  0.250000  0.250000  0.000000  1
  In  In7  1  0.750001  0.750001  0.000000  1
  Bi  Bi8  1  0.400269  0.725909  0.121880  1
  Bi  Bi9  1  0.099730  0.221609  0.325639  1
  Bi  Bi10  1  0.895969  0.774090  0.674361  1
  Bi  Bi11  1  0.604030  0.278391  0.878120  1
