# generated using pymatgen
data_Er12Si12PdRh3
_symmetry_space_group_name_H-M   'P 1'
_cell_length_a   4.19724800
_cell_length_b   10.64995361
_cell_length_c   12.26366700
_cell_angle_alpha   90.13960339
_cell_angle_beta   90.00000000
_cell_angle_gamma   90.00000000
_symmetry_Int_Tables_number   1
_chemical_formula_structural   Er12Si12PdRh3
_chemical_formula_sum   'Er12 Si12 Pd1 Rh3'
_cell_volume   548.19037660
_cell_formula_units_Z   1
loop_
 _symmetry_equiv_pos_site_id
 _symmetry_equiv_pos_as_xyz
  1  'x, y, z'
loop_
 _atom_site_type_symbol
 _atom_site_label
 _atom_site_symmetry_multiplicity
 _atom_site_fract_x
 _atom_site_fract_y
 _atom_site_fract_z
 _atom_site_occupancy
  Er  Er0  1  0.250000  0.879441  0.020882  1
  Er  Er1  1  0.250000  0.622170  0.519813  1
  Er  Er2  1  0.750000  0.120077  0.979881  1
  Er  Er3  1  0.750000  0.379378  0.478800  1
  Er  Er4  1  0.250000  0.921734  0.602195  1
  Er  Er5  1  0.250000  0.578962  0.103440  1
  Er  Er6  1  0.750000  0.079468  0.396038  1
  Er  Er7  1  0.750000  0.420372  0.896803  1
  Er  Er8  1  0.250000  0.664739  0.801546  1
  Er  Er9  1  0.250000  0.839745  0.300847  1
  Er  Er10  1  0.750000  0.338744  0.199178  1
  Er  Er11  1  0.750000  0.159438  0.699695  1
  Si  Si12  1  0.250000  0.012833  0.822055  1
  Si  Si13  1  0.250000  0.485159  0.323546  1
  Si  Si14  1  0.750000  0.984837  0.177438  1
  Si  Si15  1  0.750000  0.520856  0.676502  1
  Si  Si16  1  0.250000  0.244257  0.845361  1
  Si  Si17  1  0.250000  0.252348  0.341144  1
  Si  Si18  1  0.750000  0.752279  0.158375  1
  Si  Si19  1  0.750000  0.749384  0.658036  1
  Si  Si20  1  0.250000  0.193703  0.538936  1
  Si  Si21  1  0.250000  0.301182  0.042406  1
  Si  Si22  1  0.750000  0.801158  0.457833  1
  Si  Si23  1  0.750000  0.698067  0.959148  1
  Pd  Pd24  1  0.250000  0.391184  0.682226  1
  Rh  Rh25  1  0.250000  0.108617  0.181095  1
  Rh  Rh26  1  0.750000  0.609326  0.318264  1
  Rh  Rh27  1  0.750000  0.890546  0.818514  1
