# generated using pymatgen
data_Y3Th(Sc3Pt4)2
_symmetry_space_group_name_H-M   'P 1'
_cell_length_a   7.36186200
_cell_length_b   7.34314492
_cell_length_c   14.11481590
_cell_angle_alpha   90.22342351
_cell_angle_beta   90.00000000
_cell_angle_gamma   90.00000000
_symmetry_Int_Tables_number   1
_chemical_formula_structural   Y3Th(Sc3Pt4)2
_chemical_formula_sum   'Y6 Th2 Sc12 Pt16'
_cell_volume   763.03013031
_cell_formula_units_Z   2
loop_
 _symmetry_equiv_pos_site_id
 _symmetry_equiv_pos_as_xyz
  1  'x, y, z'
loop_
 _atom_site_type_symbol
 _atom_site_label
 _atom_site_symmetry_multiplicity
 _atom_site_fract_x
 _atom_site_fract_y
 _atom_site_fract_z
 _atom_site_occupancy
  Y  Y0  1  0.496111  0.325365  0.594639  1
  Y  Y1  1  0.996111  0.174635  0.905361  1
  Y  Y2  1  0.995823  0.176562  0.595944  1
  Y  Y3  1  0.495823  0.323438  0.904056  1
  Y  Y4  1  0.502382  0.673081  0.405210  1
  Y  Y5  1  0.002382  0.826919  0.094790  1
  Th  Th6  1  0.004139  0.822801  0.407443  1
  Th  Th7  1  0.504139  0.677199  0.092557  1
  Sc  Sc8  1  0.677288  0.002087  0.249417  1
  Sc  Sc9  1  0.177288  0.497913  0.250583  1
  Sc  Sc10  1  0.821607  0.499777  0.749403  1
  Sc  Sc11  1  0.321607  0.000223  0.750597  1
  Sc  Sc12  1  0.652523  0.834021  0.624224  1
  Sc  Sc13  1  0.152523  0.665979  0.875776  1
  Sc  Sc14  1  0.843660  0.333186  0.377100  1
  Sc  Sc15  1  0.343660  0.166814  0.122900  1
  Sc  Sc16  1  0.347339  0.168946  0.375635  1
  Sc  Sc17  1  0.847339  0.331054  0.124365  1
  Sc  Sc18  1  0.159980  0.663584  0.627251  1
  Sc  Sc19  1  0.659980  0.836416  0.872749  1
  Pt  Pt20  1  0.812152  0.644753  0.251797  1
  Pt  Pt21  1  0.312152  0.855247  0.248203  1
  Pt  Pt22  1  0.686800  0.143938  0.749065  1
  Pt  Pt23  1  0.186800  0.356062  0.750935  1
  Pt  Pt24  1  0.545275  0.373210  0.248669  1
  Pt  Pt25  1  0.045275  0.126790  0.251331  1
  Pt  Pt26  1  0.957298  0.875809  0.748737  1
  Pt  Pt27  1  0.457298  0.624191  0.751263  1
  Pt  Pt28  1  0.822880  0.544842  0.542321  1
  Pt  Pt29  1  0.322880  0.955158  0.957679  1
  Pt  Pt30  1  0.679600  0.042312  0.458904  1
  Pt  Pt31  1  0.179600  0.457688  0.041096  1
  Pt  Pt32  1  0.177805  0.456332  0.458900  1
  Pt  Pt33  1  0.677805  0.043668  0.041100  1
  Pt  Pt34  1  0.317339  0.957633  0.540149  1
  Pt  Pt35  1  0.817339  0.542367  0.959851  1
