# generated using pymatgen
data_DyY2(CdHg)3
_symmetry_space_group_name_H-M   'P 1'
_cell_length_a   8.11276200
_cell_length_b   8.11212722
_cell_length_c   3.88240100
_cell_angle_alpha   90.00000000
_cell_angle_beta   90.00000000
_cell_angle_gamma   120.00258854
_symmetry_Int_Tables_number   1
_chemical_formula_structural   DyY2(CdHg)3
_chemical_formula_sum   'Dy1 Y2 Cd3 Hg3'
_cell_volume   221.27032912
_cell_formula_units_Z   1
loop_
 _symmetry_equiv_pos_site_id
 _symmetry_equiv_pos_as_xyz
  1  'x, y, z'
loop_
 _atom_site_type_symbol
 _atom_site_label
 _atom_site_symmetry_multiplicity
 _atom_site_fract_x
 _atom_site_fract_y
 _atom_site_fract_z
 _atom_site_occupancy
  Dy  Dy0  1  0.396518  0.000000  0.499999  1
  Y  Y1  1  0.000014  0.396469  0.499999  1
  Y  Y2  1  0.603545  0.603531  0.499999  1
  Cd  Cd3  1  0.726647  0.000000  0.000000  1
  Cd  Cd4  1  0.273300  0.273276  0.000000  1
  Cd  Cd5  1  0.000023  0.726725  0.000000  1
  Hg  Hg6  1  0.666526  0.333179  0.000000  1
  Hg  Hg7  1  0.333347  0.666820  0.000000  1
  Hg  Hg8  1  0.000079  0.000000  0.499999  1
