# generated using pymatgen
data_Tb17Lu3SnPb15
_symmetry_space_group_name_H-M   'P 1'
_cell_length_a   8.19345256
_cell_length_b   8.28203550
_cell_length_c   15.68457200
_cell_angle_alpha   90.00000000
_cell_angle_beta   90.00000000
_cell_angle_gamma   89.77451663
_symmetry_Int_Tables_number   1
_chemical_formula_structural   Tb17Lu3SnPb15
_chemical_formula_sum   'Tb17 Lu3 Sn1 Pb15'
_cell_volume   1064.32273786
_cell_formula_units_Z   1
loop_
 _symmetry_equiv_pos_site_id
 _symmetry_equiv_pos_as_xyz
  1  'x, y, z'
loop_
 _atom_site_type_symbol
 _atom_site_label
 _atom_site_symmetry_multiplicity
 _atom_site_fract_x
 _atom_site_fract_y
 _atom_site_fract_z
 _atom_site_occupancy
  Tb  Tb0  1  0.376762  0.841724  0.878983  1
  Tb  Tb1  1  0.876344  0.658295  0.620498  1
  Tb  Tb2  1  0.622126  0.160876  0.378356  1
  Tb  Tb3  1  0.124611  0.342077  0.120984  1
  Tb  Tb4  1  0.622126  0.160876  0.121644  1
  Tb  Tb5  1  0.124611  0.342077  0.379016  1
  Tb  Tb6  1  0.376762  0.841724  0.621017  1
  Tb  Tb7  1  0.876344  0.658295  0.879502  1
  Tb  Tb8  1  0.534076  0.323255  0.900686  1
  Tb  Tb9  1  0.033872  0.176627  0.599804  1
  Tb  Tb10  1  0.466472  0.673996  0.399757  1
  Tb  Tb11  1  0.965969  0.822770  0.099714  1
  Tb  Tb12  1  0.466472  0.673996  0.100243  1
  Tb  Tb13  1  0.965969  0.822770  0.400286  1
  Tb  Tb14  1  0.534076  0.323255  0.599314  1
  Tb  Tb15  1  0.033872  0.176627  0.900196  1
  Tb  Tb16  1  0.292339  0.005943  0.250000  1
  Lu  Lu17  1  0.208672  0.504482  0.750000  1
  Lu  Lu18  1  0.708769  0.995509  0.750000  1
  Lu  Lu19  1  0.788271  0.494363  0.250000  1
  Sn  Sn20  1  0.427433  0.376438  0.250000  1
  Pb  Pb21  1  0.282067  0.033726  0.042823  1
  Pb  Pb22  1  0.782089  0.466640  0.456238  1
  Pb  Pb23  1  0.718036  0.967227  0.543739  1
  Pb  Pb24  1  0.218381  0.533405  0.956024  1
  Pb  Pb25  1  0.718036  0.967227  0.956261  1
  Pb  Pb26  1  0.218381  0.533405  0.543976  1
  Pb  Pb27  1  0.282067  0.033726  0.457177  1
  Pb  Pb28  1  0.782089  0.466640  0.043762  1
  Pb  Pb29  1  0.571754  0.625019  0.750000  1
  Pb  Pb30  1  0.071210  0.874231  0.750000  1
  Pb  Pb31  1  0.926368  0.125909  0.250000  1
  Pb  Pb32  1  0.346890  0.155423  0.750000  1
  Pb  Pb33  1  0.845858  0.345630  0.750000  1
  Pb  Pb34  1  0.655224  0.844900  0.250000  1
  Pb  Pb35  1  0.155601  0.650916  0.250000  1
