# generated using pymatgen
data_Tb4Tc3Ni17P12
_symmetry_space_group_name_H-M   'P 1'
_cell_length_a   3.71199500
_cell_length_b   10.51051839
_cell_length_c   11.93981748
_cell_angle_alpha   90.25883721
_cell_angle_beta   90.00000000
_cell_angle_gamma   90.00000000
_symmetry_Int_Tables_number   1
_chemical_formula_structural   Tb4Tc3Ni17P12
_chemical_formula_sum   'Tb4 Tc3 Ni17 P12'
_cell_volume   465.82712632
_cell_formula_units_Z   1
loop_
 _symmetry_equiv_pos_site_id
 _symmetry_equiv_pos_as_xyz
  1  'x, y, z'
loop_
 _atom_site_type_symbol
 _atom_site_label
 _atom_site_symmetry_multiplicity
 _atom_site_fract_x
 _atom_site_fract_y
 _atom_site_fract_z
 _atom_site_occupancy
  Tb  Tb0  1  0.250000  0.584487  0.703861  1
  Tb  Tb1  1  0.250000  0.913268  0.206716  1
  Tb  Tb2  1  0.750000  0.412293  0.295103  1
  Tb  Tb3  1  0.750000  0.087751  0.794066  1
  Tc  Tc4  1  0.250000  0.713327  0.990319  1
  Tc  Tc5  1  0.250000  0.792527  0.485604  1
  Tc  Tc6  1  0.750000  0.287597  0.012243  1
  Ni  Ni7  1  0.750000  0.213171  0.510532  1
  Ni  Ni8  1  0.250000  0.408048  0.488639  1
  Ni  Ni9  1  0.250000  0.090285  0.987790  1
  Ni  Ni10  1  0.750000  0.591008  0.511791  1
  Ni  Ni11  1  0.750000  0.910382  0.010565  1
  Ni  Ni12  1  0.250000  0.218930  0.178910  1
  Ni  Ni13  1  0.250000  0.278576  0.676508  1
  Ni  Ni14  1  0.750000  0.777842  0.821186  1
  Ni  Ni15  1  0.750000  0.719831  0.320815  1
  Ni  Ni16  1  0.250000  0.884902  0.702333  1
  Ni  Ni17  1  0.250000  0.611040  0.204676  1
  Ni  Ni18  1  0.750000  0.117139  0.299832  1
  Ni  Ni19  1  0.750000  0.385612  0.796900  1
  Ni  Ni20  1  0.250000  0.465495  0.930198  1
  Ni  Ni21  1  0.250000  0.037888  0.431351  1
  Ni  Ni22  1  0.750000  0.535006  0.070085  1
  Ni  Ni23  1  0.750000  0.970036  0.569031  1
  P  P24  1  0.250000  0.416589  0.111817  1
  P  P25  1  0.250000  0.081297  0.613070  1
  P  P26  1  0.750000  0.581946  0.888083  1
  P  P27  1  0.750000  0.916695  0.388716  1
  P  P28  1  0.250000  0.270158  0.869647  1
  P  P29  1  0.250000  0.231439  0.371403  1
  P  P30  1  0.750000  0.731267  0.129354  1
  P  P31  1  0.750000  0.770408  0.629275  1
  P  P32  1  0.250000  0.597079  0.391894  1
  P  P33  1  0.250000  0.901896  0.889223  1
  P  P34  1  0.750000  0.397685  0.607484  1
  P  P35  1  0.750000  0.097107  0.110984  1
