# generated using pymatgen
data_YEr7(MgSn4)2
_symmetry_space_group_name_H-M   'P 1'
_cell_length_a   7.63428202
_cell_length_b   8.20137603
_cell_length_c   15.20304803
_cell_angle_alpha   90.00634501
_cell_angle_beta   89.99814955
_cell_angle_gamma   90.00810473
_symmetry_Int_Tables_number   1
_chemical_formula_structural   YEr7(MgSn4)2
_chemical_formula_sum   'Y2 Er14 Mg4 Sn16'
_cell_volume   951.88741330
_cell_formula_units_Z   2
loop_
 _symmetry_equiv_pos_site_id
 _symmetry_equiv_pos_as_xyz
  1  'x, y, z'
loop_
 _atom_site_type_symbol
 _atom_site_label
 _atom_site_symmetry_multiplicity
 _atom_site_fract_x
 _atom_site_fract_y
 _atom_site_fract_z
 _atom_site_occupancy
  Y  Y0  1  0.998816  0.184764  0.090711  1
  Y  Y1  1  0.001184  0.815236  0.909289  1
  Er  Er2  1  0.501156  0.684716  0.909318  1
  Er  Er3  1  0.001130  0.815141  0.590708  1
  Er  Er4  1  0.498844  0.315284  0.090682  1
  Er  Er5  1  0.998870  0.184859  0.409292  1
  Er  Er6  1  0.498901  0.315170  0.409377  1
  Er  Er7  1  0.501099  0.684830  0.590623  1
  Er  Er8  1  0.335159  0.169033  0.628684  1
  Er  Er9  1  0.664841  0.830967  0.371316  1
  Er  Er10  1  0.164896  0.668994  0.371287  1
  Er  Er11  1  0.664787  0.830889  0.128781  1
  Er  Er12  1  0.835104  0.331006  0.628713  1
  Er  Er13  1  0.335213  0.169111  0.871219  1
  Er  Er14  1  0.835066  0.331041  0.871180  1
  Er  Er15  1  0.164934  0.668959  0.128820  1
  Mg  Mg16  1  0.159264  0.505237  0.749974  1
  Mg  Mg17  1  0.840736  0.494763  0.250026  1
  Mg  Mg18  1  0.340781  0.005286  0.250006  1
  Mg  Mg19  1  0.659219  0.994714  0.749994  1
  Sn  Sn20  1  0.021680  0.091941  0.749861  1
  Sn  Sn21  1  0.978320  0.908059  0.250139  1
  Sn  Sn22  1  0.478445  0.591662  0.250014  1
  Sn  Sn23  1  0.521555  0.408338  0.749986  1
  Sn  Sn24  1  0.182674  0.462985  0.538500  1
  Sn  Sn25  1  0.817326  0.537015  0.461500  1
  Sn  Sn26  1  0.317347  0.962987  0.461513  1
  Sn  Sn27  1  0.817154  0.537107  0.038466  1
  Sn  Sn28  1  0.682653  0.037013  0.538487  1
  Sn  Sn29  1  0.182846  0.462893  0.961534  1
  Sn  Sn30  1  0.681913  0.037271  0.961559  1
  Sn  Sn31  1  0.318087  0.962729  0.038441  1
  Sn  Sn32  1  0.302875  0.846775  0.749879  1
  Sn  Sn33  1  0.697125  0.153225  0.250121  1
  Sn  Sn34  1  0.197659  0.346958  0.250241  1
  Sn  Sn35  1  0.802341  0.653042  0.749759  1
