# generated using pymatgen
data_Ba2ErAg5S6
_symmetry_space_group_name_H-M   'P 1'
_cell_length_a   4.21166000
_cell_length_b   7.33968477
_cell_length_c   11.25175503
_cell_angle_alpha   95.18927478
_cell_angle_beta   90.00000000
_cell_angle_gamma   106.67306898
_symmetry_Int_Tables_number   1
_chemical_formula_structural   Ba2ErAg5S6
_chemical_formula_sum   'Ba2 Er1 Ag5 S6'
_cell_volume   331.70560180
_cell_formula_units_Z   1
loop_
 _symmetry_equiv_pos_site_id
 _symmetry_equiv_pos_as_xyz
  1  'x, y, z'
loop_
 _atom_site_type_symbol
 _atom_site_label
 _atom_site_symmetry_multiplicity
 _atom_site_fract_x
 _atom_site_fract_y
 _atom_site_fract_z
 _atom_site_occupancy
  Ba  Ba0  1  0.252730  0.505459  0.702447  1
  Ba  Ba1  1  0.747270  0.494541  0.297553  1
  Er  Er2  1  0.500000  0.000000  0.500000  1
  Ag  Ag3  1  0.018288  0.036575  0.255469  1
  Ag  Ag4  1  0.981712  0.963425  0.744531  1
  Ag  Ag5  1  0.352722  0.705445  0.040084  1
  Ag  Ag6  1  0.647278  0.294555  0.959916  1
  Ag  Ag7  1  0.000000  0.000000  0.000000  1
  S  S8  1  0.123595  0.247189  0.455416  1
  S  S9  1  0.876405  0.752811  0.544584  1
  S  S10  1  0.157966  0.315933  0.102265  1
  S  S11  1  0.842034  0.684067  0.897735  1
  S  S12  1  0.412916  0.825832  0.268014  1
  S  S13  1  0.587084  0.174168  0.731986  1
