# generated using pymatgen
data_LiEu(B3O5)3
_symmetry_space_group_name_H-M   'P 1'
_cell_length_a   8.61179428
_cell_length_b   8.61179439
_cell_length_c   8.61179500
_cell_angle_alpha   77.83245126
_cell_angle_beta   77.83245110
_cell_angle_gamma   77.83246111
_symmetry_Int_Tables_number   1
_chemical_formula_structural   LiEu(B3O5)3
_chemical_formula_sum   'Li2 Eu2 B18 O30'
_cell_volume   600.98528163
_cell_formula_units_Z   2
loop_
 _symmetry_equiv_pos_site_id
 _symmetry_equiv_pos_as_xyz
  1  'x, y, z'
loop_
 _atom_site_type_symbol
 _atom_site_label
 _atom_site_symmetry_multiplicity
 _atom_site_fract_x
 _atom_site_fract_y
 _atom_site_fract_z
 _atom_site_occupancy
  Li  Li0  1  0.233258  0.233258  0.233258  1
  Li  Li1  1  0.733258  0.733258  0.733258  1
  Eu  Eu2  1  0.492133  0.492133  0.492133  1
  Eu  Eu3  1  0.992133  0.992133  0.992133  1
  B  B4  1  0.625126  0.768867  0.103832  1
  B  B5  1  0.711274  0.275434  0.833598  1
  B  B6  1  0.333598  0.775434  0.211274  1
  B  B7  1  0.211274  0.333598  0.775434  1
  B  B8  1  0.268867  0.125126  0.603832  1
  B  B9  1  0.603832  0.268867  0.125126  1
  B  B10  1  0.125126  0.603832  0.268867  1
  B  B11  1  0.275434  0.833598  0.711274  1
  B  B12  1  0.768867  0.103832  0.625126  1
  B  B13  1  0.103832  0.625126  0.768867  1
  B  B14  1  0.280571  0.939735  0.422699  1
  B  B15  1  0.422699  0.280571  0.939735  1
  B  B16  1  0.939735  0.422699  0.280571  1
  B  B17  1  0.780571  0.922699  0.439735  1
  B  B18  1  0.439735  0.780571  0.922699  1
  B  B19  1  0.922699  0.439735  0.780571  1
  B  B20  1  0.833598  0.711274  0.275434  1
  B  B21  1  0.775434  0.211274  0.333598  1
  O  O22  1  0.769218  0.795388  0.125261  1
  O  O23  1  0.125261  0.769218  0.795388  1
  O  O24  1  0.231159  0.505058  0.735085  1
  O  O25  1  0.505058  0.735085  0.231159  1
  O  O26  1  0.795388  0.125261  0.769218  1
  O  O27  1  0.005058  0.731159  0.235085  1
  O  O28  1  0.731159  0.235085  0.005058  1
  O  O29  1  0.235085  0.005058  0.731159  1
  O  O30  1  0.274777  0.259769  0.925454  1
  O  O31  1  0.259769  0.925454  0.274777  1
  O  O32  1  0.925454  0.274777  0.259769  1
  O  O33  1  0.759769  0.774777  0.425454  1
  O  O34  1  0.774777  0.425454  0.759769  1
  O  O35  1  0.425454  0.759769  0.774777  1
  O  O36  1  0.269218  0.625261  0.295388  1
  O  O37  1  0.295388  0.269218  0.625261  1
  O  O38  1  0.307476  0.811238  0.542512  1
  O  O39  1  0.542512  0.307476  0.811238  1
  O  O40  1  0.811238  0.542512  0.307476  1
  O  O41  1  0.807476  0.042512  0.311238  1
  O  O42  1  0.311238  0.807476  0.042512  1
  O  O43  1  0.042512  0.311238  0.807476  1
  O  O44  1  0.274931  0.098572  0.446677  1
  O  O45  1  0.446677  0.274931  0.098572  1
  O  O46  1  0.098572  0.446677  0.274931  1
  O  O47  1  0.774931  0.946677  0.598572  1
  O  O48  1  0.598572  0.774931  0.946677  1
  O  O49  1  0.946677  0.598572  0.774931  1
  O  O50  1  0.735085  0.231159  0.505058  1
  O  O51  1  0.625261  0.295388  0.269218  1
