# generated using pymatgen
data_Pa2Ga2CuPt
_symmetry_space_group_name_H-M   'P 1'
_cell_length_a   5.71160690
_cell_length_b   5.71160640
_cell_length_c   6.66260146
_cell_angle_alpha   51.83653193
_cell_angle_beta   51.83653251
_cell_angle_gamma   45.88861186
_symmetry_Int_Tables_number   1
_chemical_formula_structural   Pa2Ga2CuPt
_chemical_formula_sum   'Pa2 Ga2 Cu1 Pt1'
_cell_volume   115.70903561
_cell_formula_units_Z   1
loop_
 _symmetry_equiv_pos_site_id
 _symmetry_equiv_pos_as_xyz
  1  'x, y, z'
loop_
 _atom_site_type_symbol
 _atom_site_label
 _atom_site_symmetry_multiplicity
 _atom_site_fract_x
 _atom_site_fract_y
 _atom_site_fract_z
 _atom_site_occupancy
  Pa  Pa0  1  0.530050  0.530050  0.233364  1
  Pa  Pa1  1  0.468120  0.468120  0.759499  1
  Ga  Ga2  1  0.832702  0.832702  0.213209  1
  Ga  Ga3  1  0.157546  0.157546  0.788901  1
  Cu  Cu4  1  0.176304  0.176304  0.363663  1
  Pt  Pt5  1  0.835276  0.835276  0.641366  1
