# generated using pymatgen
data_Y20Si15Hg
_symmetry_space_group_name_H-M   'P 1'
_cell_length_a   7.46802318
_cell_length_b   7.73441989
_cell_length_c   14.73305748
_cell_angle_alpha   89.92611203
_cell_angle_beta   89.36031569
_cell_angle_gamma   90.09107066
_symmetry_Int_Tables_number   1
_chemical_formula_structural   Y20Si15Hg
_chemical_formula_sum   'Y20 Si15 Hg1'
_cell_volume   850.93874555
_cell_formula_units_Z   1
loop_
 _symmetry_equiv_pos_site_id
 _symmetry_equiv_pos_as_xyz
  1  'x, y, z'
loop_
 _atom_site_type_symbol
 _atom_site_label
 _atom_site_symmetry_multiplicity
 _atom_site_fract_x
 _atom_site_fract_y
 _atom_site_fract_z
 _atom_site_occupancy
  Y  Y0  1  0.649320  0.989658  0.250758  1
  Y  Y1  1  0.151211  0.511122  0.249351  1
  Y  Y2  1  0.849037  0.489708  0.747610  1
  Y  Y3  1  0.348510  0.011865  0.748733  1
  Y  Y4  1  0.975787  0.822987  0.101881  1
  Y  Y5  1  0.470837  0.684072  0.401164  1
  Y  Y6  1  0.519066  0.313105  0.899286  1
  Y  Y7  1  0.030062  0.182366  0.597980  1
  Y  Y8  1  0.029063  0.176164  0.899778  1
  Y  Y9  1  0.529385  0.316164  0.598028  1
  Y  Y10  1  0.475186  0.682357  0.101106  1
  Y  Y11  1  0.969935  0.816757  0.400649  1
  Y  Y12  1  0.673780  0.829781  0.873949  1
  Y  Y13  1  0.182792  0.679613  0.621303  1
  Y  Y14  1  0.821882  0.319411  0.126228  1
  Y  Y15  1  0.317760  0.178563  0.377993  1
  Y  Y16  1  0.322510  0.177109  0.124312  1
  Y  Y17  1  0.818413  0.320808  0.377818  1
  Y  Y18  1  0.183195  0.676321  0.877237  1
  Y  Y19  1  0.682982  0.822325  0.621356  1
  Si  Si20  1  0.766989  0.628186  0.251999  1
  Si  Si21  1  0.266763  0.873079  0.251773  1
  Si  Si22  1  0.734918  0.126779  0.748180  1
  Si  Si23  1  0.231281  0.373193  0.747623  1
  Si  Si24  1  0.022895  0.103718  0.251686  1
  Si  Si25  1  0.523196  0.395733  0.252172  1
  Si  Si26  1  0.476927  0.603752  0.747703  1
  Si  Si27  1  0.977140  0.892784  0.748177  1
  Si  Si28  1  0.355529  0.972063  0.540058  1
  Si  Si29  1  0.649762  0.028744  0.041337  1
  Si  Si30  1  0.145032  0.471279  0.460187  1
  Si  Si31  1  0.160513  0.470379  0.042638  1
  Si  Si32  1  0.644405  0.028261  0.459230  1
  Si  Si33  1  0.350984  0.969526  0.961284  1
  Si  Si34  1  0.856230  0.529169  0.539081  1
  Hg  Hg35  1  0.836725  0.533097  0.960353  1
