# generated using pymatgen
data_Zr6FeBiTe
_symmetry_space_group_name_H-M   'P 1'
_cell_length_a   7.91449300
_cell_length_b   7.91449275
_cell_length_c   3.62771700
_cell_angle_alpha   90.00000000
_cell_angle_beta   90.00000000
_cell_angle_gamma   119.99999685
_symmetry_Int_Tables_number   1
_chemical_formula_structural   Zr6FeBiTe
_chemical_formula_sum   'Zr6 Fe1 Bi1 Te1'
_cell_volume   196.79326481
_cell_formula_units_Z   1
loop_
 _symmetry_equiv_pos_site_id
 _symmetry_equiv_pos_as_xyz
  1  'x, y, z'
loop_
 _atom_site_type_symbol
 _atom_site_label
 _atom_site_symmetry_multiplicity
 _atom_site_fract_x
 _atom_site_fract_y
 _atom_site_fract_z
 _atom_site_occupancy
  Zr  Zr0  1  0.760573  0.761738  0.500000  1
  Zr  Zr1  1  0.007836  0.606136  0.000000  1
  Zr  Zr2  1  0.238262  0.998835  0.500000  1
  Zr  Zr3  1  0.001165  0.239427  0.500000  1
  Zr  Zr4  1  0.598300  0.992164  0.000000  1
  Zr  Zr5  1  0.393864  0.401700  0.000000  1
  Fe  Fe6  1  0.000000  0.000000  0.000000  1
  Bi  Bi7  1  0.666667  0.333333  0.500000  1
  Te  Te8  1  0.333333  0.666667  0.500000  1
