# generated using pymatgen
data_Sr5CrTcN7
_symmetry_space_group_name_H-M   'P 1'
_cell_length_a   6.42639783
_cell_length_b   9.02843793
_cell_length_c   9.21147932
_cell_angle_alpha   114.34783176
_cell_angle_beta   98.00081148
_cell_angle_gamma   90.22365844
_symmetry_Int_Tables_number   1
_chemical_formula_structural   Sr5CrTcN7
_chemical_formula_sum   'Sr10 Cr2 Tc2 N14'
_cell_volume   481.06508864
_cell_formula_units_Z   2
loop_
 _symmetry_equiv_pos_site_id
 _symmetry_equiv_pos_as_xyz
  1  'x, y, z'
loop_
 _atom_site_type_symbol
 _atom_site_label
 _atom_site_symmetry_multiplicity
 _atom_site_fract_x
 _atom_site_fract_y
 _atom_site_fract_z
 _atom_site_occupancy
  Sr  Sr0  1  0.853045  0.584459  0.337902  1
  Sr  Sr1  1  0.272837  0.982710  0.569367  1
  Sr  Sr2  1  0.701985  0.409844  0.844538  1
  Sr  Sr3  1  0.298015  0.590156  0.155462  1
  Sr  Sr4  1  0.406784  0.786234  0.907612  1
  Sr  Sr5  1  0.593216  0.213766  0.092388  1
  Sr  Sr6  1  0.146955  0.415541  0.662098  1
  Sr  Sr7  1  0.883292  0.836528  0.756348  1
  Sr  Sr8  1  0.116708  0.163472  0.243652  1
  Sr  Sr9  1  0.727163  0.017290  0.430633  1
  Cr  Cr10  1  0.573434  0.366654  0.477780  1
  Cr  Cr11  1  0.426566  0.633346  0.522220  1
  Tc  Tc12  1  0.116746  0.217013  0.911516  1
  Tc  Tc13  1  0.883254  0.782987  0.088484  1
  N  N14  1  0.561566  0.558544  0.667945  1
  N  N15  1  0.438434  0.441456  0.332055  1
  N  N16  1  0.176941  0.691717  0.573529  1
  N  N17  1  0.823059  0.308283  0.426471  1
  N  N18  1  0.422969  0.208422  0.485470  1
  N  N19  1  0.577031  0.791578  0.514530  1
  N  N20  1  0.945817  0.137221  0.711874  1
  N  N21  1  0.054183  0.862779  0.288126  1
  N  N22  1  0.226348  0.047839  0.956245  1
  N  N23  1  0.773652  0.952161  0.043755  1
  N  N24  1  0.349997  0.332444  0.901551  1
  N  N25  1  0.973980  0.348467  0.074165  1
  N  N26  1  0.026020  0.651533  0.925835  1
  N  N27  1  0.650003  0.667556  0.098449  1
