# generated using pymatgen
data_MgPd2PtO6
_symmetry_space_group_name_H-M   'P 1'
_cell_length_a   6.16147394
_cell_length_b   6.15648014
_cell_length_c   3.21229400
_cell_angle_alpha   90.00000000
_cell_angle_beta   90.00000000
_cell_angle_gamma   108.75208942
_symmetry_Int_Tables_number   1
_chemical_formula_structural   MgPd2PtO6
_chemical_formula_sum   'Mg1 Pd2 Pt1 O6'
_cell_volume   115.38382828
_cell_formula_units_Z   1
loop_
 _symmetry_equiv_pos_site_id
 _symmetry_equiv_pos_as_xyz
  1  'x, y, z'
loop_
 _atom_site_type_symbol
 _atom_site_label
 _atom_site_symmetry_multiplicity
 _atom_site_fract_x
 _atom_site_fract_y
 _atom_site_fract_z
 _atom_site_occupancy
  Mg  Mg0  1  0.500000  0.500000  0.000000  1
  Pd  Pd1  1  0.000000  0.000000  0.000000  1
  Pd  Pd2  1  0.000000  0.500000  0.500000  1
  Pt  Pt3  1  0.500000  0.000000  0.500000  1
  O  O4  1  0.085575  0.337559  0.000000  1
  O  O5  1  0.914425  0.662441  0.000000  1
  O  O6  1  0.341121  0.086399  0.000000  1
  O  O7  1  0.658879  0.913601  0.000000  1
  O  O8  1  0.645994  0.350886  0.500000  1
  O  O9  1  0.354006  0.649114  0.500000  1
