# generated using pymatgen
data_Ho2AlSi13Rh6
_symmetry_space_group_name_H-M   'P 1'
_cell_length_a   8.02213321
_cell_length_b   8.02213280
_cell_length_c   8.02213200
_cell_angle_alpha   57.03603853
_cell_angle_beta   57.03604043
_cell_angle_gamma   57.03603590
_symmetry_Int_Tables_number   1
_chemical_formula_structural   Ho2AlSi13Rh6
_chemical_formula_sum   'Ho2 Al1 Si13 Rh6'
_cell_volume   340.10785216
_cell_formula_units_Z   1
loop_
 _symmetry_equiv_pos_site_id
 _symmetry_equiv_pos_as_xyz
  1  'x, y, z'
loop_
 _atom_site_type_symbol
 _atom_site_label
 _atom_site_symmetry_multiplicity
 _atom_site_fract_x
 _atom_site_fract_y
 _atom_site_fract_z
 _atom_site_occupancy
  Ho  Ho0  1  0.999432  0.999432  0.999432  1
  Ho  Ho1  1  0.500568  0.500568  0.500568  1
  Al  Al2  1  0.750000  0.750000  0.750000  1
  Si  Si3  1  0.250000  0.250000  0.250000  1
  Si  Si4  1  0.850145  0.064825  0.671395  1
  Si  Si5  1  0.671395  0.850145  0.064825  1
  Si  Si6  1  0.064825  0.671395  0.850145  1
  Si  Si7  1  0.649855  0.828605  0.435175  1
  Si  Si8  1  0.435175  0.649855  0.828605  1
  Si  Si9  1  0.828605  0.435175  0.649855  1
  Si  Si10  1  0.169609  0.562467  0.355840  1
  Si  Si11  1  0.562467  0.355840  0.169609  1
  Si  Si12  1  0.355840  0.169609  0.562467  1
  Si  Si13  1  0.937533  0.330391  0.144160  1
  Si  Si14  1  0.330391  0.144160  0.937533  1
  Si  Si15  1  0.144160  0.937533  0.330391  1
  Rh  Rh16  1  0.080941  0.419059  0.750000  1
  Rh  Rh17  1  0.250000  0.928586  0.571414  1
  Rh  Rh18  1  0.571414  0.250000  0.928586  1
  Rh  Rh19  1  0.928586  0.571414  0.250000  1
  Rh  Rh20  1  0.419059  0.750000  0.080941  1
  Rh  Rh21  1  0.750000  0.080941  0.419059  1
