# generated using pymatgen
data_Tm2AlTc3
_symmetry_space_group_name_H-M   'P 1'
_cell_length_a   5.32870700
_cell_length_b   5.32870707
_cell_length_c   8.93222700
_cell_angle_alpha   90.00000000
_cell_angle_beta   90.00000000
_cell_angle_gamma   119.99999336
_symmetry_Int_Tables_number   1
_chemical_formula_structural   Tm2AlTc3
_chemical_formula_sum   'Tm4 Al2 Tc6'
_cell_volume   219.65146296
_cell_formula_units_Z   2
loop_
 _symmetry_equiv_pos_site_id
 _symmetry_equiv_pos_as_xyz
  1  'x, y, z'
loop_
 _atom_site_type_symbol
 _atom_site_label
 _atom_site_symmetry_multiplicity
 _atom_site_fract_x
 _atom_site_fract_y
 _atom_site_fract_z
 _atom_site_occupancy
  Tm  Tm0  1  0.333333  0.666667  0.432595  1
  Tm  Tm1  1  0.666667  0.333333  0.567405  1
  Tm  Tm2  1  0.666667  0.333333  0.932595  1
  Tm  Tm3  1  0.333333  0.666667  0.067405  1
  Al  Al4  1  0.000000  0.000000  0.500000  1
  Al  Al5  1  0.000000  0.000000  0.000000  1
  Tc  Tc6  1  0.829923  0.170077  0.250000  1
  Tc  Tc7  1  0.829923  0.659845  0.250000  1
  Tc  Tc8  1  0.340155  0.170077  0.250000  1
  Tc  Tc9  1  0.170077  0.829923  0.750000  1
  Tc  Tc10  1  0.170077  0.340155  0.750000  1
  Tc  Tc11  1  0.659845  0.829923  0.750000  1
