# generated using pymatgen
data_Pr16MgTl3(OsPd)2
_symmetry_space_group_name_H-M   'P 1'
_cell_length_a   10.10315927
_cell_length_b   10.10319187
_cell_length_c   10.18564152
_cell_angle_alpha   59.88034668
_cell_angle_beta   59.88047351
_cell_angle_gamma   59.84452519
_symmetry_Int_Tables_number   1
_chemical_formula_structural   Pr16MgTl3(OsPd)2
_chemical_formula_sum   'Pr16 Mg1 Tl3 Os2 Pd2'
_cell_volume   732.97766476
_cell_formula_units_Z   1
loop_
 _symmetry_equiv_pos_site_id
 _symmetry_equiv_pos_as_xyz
  1  'x, y, z'
loop_
 _atom_site_type_symbol
 _atom_site_label
 _atom_site_symmetry_multiplicity
 _atom_site_fract_x
 _atom_site_fract_y
 _atom_site_fract_z
 _atom_site_occupancy
  Pr  Pr0  1  0.348946  0.348966  0.354366  1
  Pr  Pr1  1  0.349112  0.349102  0.946163  1
  Pr  Pr2  1  0.343259  0.957709  0.350758  1
  Pr  Pr3  1  0.957713  0.343240  0.350778  1
  Pr  Pr4  1  0.817333  0.188555  0.192599  1
  Pr  Pr5  1  0.186226  0.818945  0.804993  1
  Pr  Pr6  1  0.188553  0.817334  0.192597  1
  Pr  Pr7  1  0.818957  0.186235  0.804988  1
  Pr  Pr8  1  0.191038  0.191044  0.808052  1
  Pr  Pr9  1  0.808524  0.808523  0.191215  1
  Pr  Pr10  1  0.938326  0.555274  0.566721  1
  Pr  Pr11  1  0.551574  0.940806  0.944563  1
  Pr  Pr12  1  0.555247  0.938353  0.566720  1
  Pr  Pr13  1  0.940821  0.551558  0.944580  1
  Pr  Pr14  1  0.562038  0.562025  0.941356  1
  Pr  Pr15  1  0.941857  0.941849  0.557072  1
  Mg  Mg16  1  0.574124  0.574118  0.571572  1
  Tl  Tl17  1  0.583873  0.583888  0.249780  1
  Tl  Tl18  1  0.584416  0.248159  0.583773  1
  Tl  Tl19  1  0.248164  0.584423  0.583774  1
  Os  Os20  1  0.145125  0.145136  0.138341  1
  Os  Os21  1  0.144298  0.144284  0.575021  1
  Pd  Pd22  1  0.147292  0.573174  0.140112  1
  Pd  Pd23  1  0.573185  0.147300  0.140107  1
