# generated using pymatgen
data_Tb20Ir5Ru4Pt3
_symmetry_space_group_name_H-M   'P 1'
_cell_length_a   10.90971435
_cell_length_b   10.90971435
_cell_length_c   6.48299626
_cell_angle_alpha   90.02282813
_cell_angle_beta   90.02282813
_cell_angle_gamma   90.13108300
_symmetry_Int_Tables_number   1
_chemical_formula_structural   Tb20Ir5Ru4Pt3
_chemical_formula_sum   'Tb20 Ir5 Ru4 Pt3'
_cell_volume   771.61617815
_cell_formula_units_Z   1
loop_
 _symmetry_equiv_pos_site_id
 _symmetry_equiv_pos_as_xyz
  1  'x, y, z'
loop_
 _atom_site_type_symbol
 _atom_site_label
 _atom_site_symmetry_multiplicity
 _atom_site_fract_x
 _atom_site_fract_y
 _atom_site_fract_z
 _atom_site_occupancy
  Tb  Tb0  1  0.295489  0.085648  0.373761  1
  Tb  Tb1  1  0.294678  0.910272  0.879419  1
  Tb  Tb2  1  0.703678  0.088342  0.875499  1
  Tb  Tb3  1  0.702665  0.911165  0.375047  1
  Tb  Tb4  1  0.584228  0.792614  0.879271  1
  Tb  Tb5  1  0.584152  0.207310  0.379516  1
  Tb  Tb6  1  0.412215  0.792683  0.379539  1
  Tb  Tb7  1  0.415324  0.207291  0.879444  1
  Tb  Tb8  1  0.207386  0.415772  0.620729  1
  Tb  Tb9  1  0.207317  0.587785  0.120461  1
  Tb  Tb10  1  0.792690  0.415848  0.120484  1
  Tb  Tb11  1  0.792709  0.584676  0.620556  1
  Tb  Tb12  1  0.914352  0.704511  0.126239  1
  Tb  Tb13  1  0.911658  0.296322  0.624501  1
  Tb  Tb14  1  0.089728  0.705322  0.620581  1
  Tb  Tb15  1  0.088835  0.297335  0.124953  1
  Tb  Tb16  1  0.001344  0.998209  0.498798  1
  Tb  Tb17  1  0.001791  0.998656  0.001202  1
  Tb  Tb18  1  0.499804  0.500090  0.000304  1
  Tb  Tb19  1  0.499910  0.500196  0.499696  1
  Ir  Ir20  1  0.150970  0.849030  0.250000  1
  Ir  Ir21  1  0.653347  0.346653  0.750000  1
  Ir  Ir22  1  0.653476  0.653522  0.249986  1
  Ir  Ir23  1  0.346478  0.346524  0.250014  1
  Ir  Ir24  1  0.347332  0.652668  0.750000  1
  Ru  Ru25  1  0.500490  0.000058  0.123028  1
  Ru  Ru26  1  0.500508  0.000124  0.624073  1
  Ru  Ru27  1  0.999876  0.499492  0.875927  1
  Ru  Ru28  1  0.999942  0.499510  0.376972  1
  Pt  Pt29  1  0.847923  0.152077  0.250000  1
  Pt  Pt30  1  0.846931  0.847226  0.750049  1
  Pt  Pt31  1  0.152774  0.153069  0.749951  1
