# generated using pymatgen
data_Er5U2O12
_symmetry_space_group_name_H-M   'P 1'
_cell_length_a   6.57416617
_cell_length_b   6.60335939
_cell_length_c   6.53678400
_cell_angle_alpha   99.40865401
_cell_angle_beta   98.76830276
_cell_angle_gamma   99.24560088
_symmetry_Int_Tables_number   1
_chemical_formula_structural   Er5U2O12
_chemical_formula_sum   'Er5 U2 O12'
_cell_volume   271.62445890
_cell_formula_units_Z   1
loop_
 _symmetry_equiv_pos_site_id
 _symmetry_equiv_pos_as_xyz
  1  'x, y, z'
loop_
 _atom_site_type_symbol
 _atom_site_label
 _atom_site_symmetry_multiplicity
 _atom_site_fract_x
 _atom_site_fract_y
 _atom_site_fract_z
 _atom_site_occupancy
  Er  Er0  1  0.860682  0.691124  0.396886  1
  Er  Er1  1  0.390005  0.855436  0.680914  1
  Er  Er2  1  0.311104  0.612104  0.143918  1
  Er  Er3  1  0.144370  0.317306  0.605315  1
  Er  Er4  1  0.605306  0.133481  0.314376  1
  U  U5  1  0.689139  0.396225  0.862347  1
  U  U6  1  0.004223  0.004237  0.001548  1
  O  O7  1  0.425546  0.176379  0.583545  1
  O  O8  1  0.585093  0.422189  0.168956  1
  O  O9  1  0.175825  0.582847  0.430220  1
  O  O10  1  0.569762  0.817911  0.411689  1
  O  O11  1  0.420898  0.572593  0.821654  1
  O  O12  1  0.813392  0.416329  0.575009  1
  O  O13  1  0.078373  0.319904  0.940492  1
  O  O14  1  0.685955  0.055164  0.916631  1
  O  O15  1  0.055341  0.916447  0.686081  1
  O  O16  1  0.924977  0.684683  0.062490  1
  O  O17  1  0.317118  0.943964  0.080146  1
  O  O18  1  0.942887  0.081676  0.317784  1
