# generated using pymatgen
data_BaSb12(IrOs)2
_symmetry_space_group_name_H-M   'P 1'
_cell_length_a   8.18291930
_cell_length_b   8.19202779
_cell_length_c   8.19202845
_cell_angle_alpha   109.50937250
_cell_angle_beta   109.47364881
_cell_angle_gamma   109.47570141
_symmetry_Int_Tables_number   1
_chemical_formula_structural   BaSb12(IrOs)2
_chemical_formula_sum   'Ba1 Sb12 Ir2 Os2'
_cell_volume   422.50072184
_cell_formula_units_Z   1
loop_
 _symmetry_equiv_pos_site_id
 _symmetry_equiv_pos_as_xyz
  1  'x, y, z'
loop_
 _atom_site_type_symbol
 _atom_site_label
 _atom_site_symmetry_multiplicity
 _atom_site_fract_x
 _atom_site_fract_y
 _atom_site_fract_z
 _atom_site_occupancy
  Ba  Ba0  1  0.000000  0.000000  0.000000  1
  Sb  Sb1  1  0.344042  0.185185  0.844443  1
  Sb  Sb2  1  0.655958  0.814815  0.155557  1
  Sb  Sb3  1  0.655958  0.500400  0.841143  1
  Sb  Sb4  1  0.344042  0.499600  0.158857  1
  Sb  Sb5  1  0.187532  0.843882  0.343650  1
  Sb  Sb6  1  0.812468  0.156118  0.656350  1
  Sb  Sb7  1  0.500717  0.841585  0.659133  1
  Sb  Sb8  1  0.499283  0.158415  0.340867  1
  Sb  Sb9  1  0.841539  0.341108  0.185228  1
  Sb  Sb10  1  0.158461  0.658892  0.814772  1
  Sb  Sb11  1  0.841539  0.656311  0.500430  1
  Sb  Sb12  1  0.158461  0.343689  0.499570  1
  Ir  Ir13  1  0.000000  0.000000  0.500000  1
  Ir  Ir14  1  0.000000  0.500000  0.000000  1
  Os  Os15  1  0.500000  0.000000  0.000000  1
  Os  Os16  1  0.500000  0.500000  0.500000  1
