# generated using pymatgen
data_Li4GeSb3Rh8
_symmetry_space_group_name_H-M   'P 1'
_cell_length_a   6.12287900
_cell_length_b   6.13140100
_cell_length_c   6.12292100
_cell_angle_alpha   90.00000937
_cell_angle_beta   89.99945726
_cell_angle_gamma   90.00038339
_symmetry_Int_Tables_number   1
_chemical_formula_structural   Li4GeSb3Rh8
_chemical_formula_sum   'Li4 Ge1 Sb3 Rh8'
_cell_volume   229.86563738
_cell_formula_units_Z   1
loop_
 _symmetry_equiv_pos_site_id
 _symmetry_equiv_pos_as_xyz
  1  'x, y, z'
loop_
 _atom_site_type_symbol
 _atom_site_label
 _atom_site_symmetry_multiplicity
 _atom_site_fract_x
 _atom_site_fract_y
 _atom_site_fract_z
 _atom_site_occupancy
  Li  Li0  1  0.500002  0.749987  0.249951  1
  Li  Li1  1  0.000010  0.250005  0.249961  1
  Li  Li2  1  0.000005  0.749991  0.750044  1
  Li  Li3  1  0.499993  0.250006  0.750043  1
  Ge  Ge4  1  0.500020  0.249998  0.250016  1
  Sb  Sb5  1  0.999984  0.750001  0.250020  1
  Sb  Sb6  1  0.999988  0.249996  0.749978  1
  Sb  Sb7  1  0.500010  0.750001  0.749985  1
  Rh  Rh8  1  0.255157  0.005261  0.005163  1
  Rh  Rh9  1  0.744848  0.005259  0.005172  1
  Rh  Rh10  1  0.744837  0.494748  0.005167  1
  Rh  Rh11  1  0.255146  0.494767  0.005159  1
  Rh  Rh12  1  0.255161  0.494745  0.494830  1
  Rh  Rh13  1  0.255171  0.005256  0.494837  1
  Rh  Rh14  1  0.744826  0.494730  0.494835  1
  Rh  Rh15  1  0.744839  0.005247  0.494840  1
