# generated using pymatgen
data_Rb3Hf2CuTe10
_symmetry_space_group_name_H-M   'P 1'
_cell_length_a   10.01262755
_cell_length_b   11.14585526
_cell_length_c   11.18478783
_cell_angle_alpha   88.80763715
_cell_angle_beta   90.27083478
_cell_angle_gamma   78.42207134
_symmetry_Int_Tables_number   1
_chemical_formula_structural   Rb3Hf2CuTe10
_chemical_formula_sum   'Rb6 Hf4 Cu2 Te20'
_cell_volume   1222.50129544
_cell_formula_units_Z   2
loop_
 _symmetry_equiv_pos_site_id
 _symmetry_equiv_pos_as_xyz
  1  'x, y, z'
loop_
 _atom_site_type_symbol
 _atom_site_label
 _atom_site_symmetry_multiplicity
 _atom_site_fract_x
 _atom_site_fract_y
 _atom_site_fract_z
 _atom_site_occupancy
  Rb  Rb0  1  0.883410  0.892000  0.259928  1
  Rb  Rb1  1  0.116590  0.108000  0.740072  1
  Rb  Rb2  1  0.441939  0.770215  0.387961  1
  Rb  Rb3  1  0.558061  0.229785  0.612039  1
  Rb  Rb4  1  0.298644  0.630346  0.897663  1
  Rb  Rb5  1  0.701356  0.369654  0.102337  1
  Hf  Hf6  1  0.109829  0.375885  0.365367  1
  Hf  Hf7  1  0.890171  0.624115  0.634633  1
  Hf  Hf8  1  0.309558  0.158340  0.142534  1
  Hf  Hf9  1  0.690442  0.841660  0.857466  1
  Cu  Cu10  1  0.921442  0.375305  0.558335  1
  Cu  Cu11  1  0.078558  0.624695  0.441665  1
  Te  Te12  1  0.840412  0.558537  0.393141  1
  Te  Te13  1  0.159588  0.441463  0.606859  1
  Te  Te14  1  0.926824  0.202858  0.407519  1
  Te  Te15  1  0.073176  0.797142  0.592481  1
  Te  Te16  1  0.198170  0.589771  0.239043  1
  Te  Te17  1  0.801830  0.410229  0.760957  1
  Te  Te18  1  0.216831  0.113753  0.395358  1
  Te  Te19  1  0.783169  0.886247  0.604642  1
  Te  Te20  1  0.077269  0.364225  0.105469  1
  Te  Te21  1  0.922731  0.635775  0.894531  1
  Te  Te22  1  0.397706  0.356136  0.292694  1
  Te  Te23  1  0.602294  0.643864  0.707306  1
  Te  Te24  1  0.039149  0.122008  0.065081  1
  Te  Te25  1  0.960851  0.877992  0.934919  1
  Te  Te26  1  0.531495  0.086566  0.309134  1
  Te  Te27  1  0.468505  0.913434  0.690866  1
  Te  Te28  1  0.331066  0.911147  0.068806  1
  Te  Te29  1  0.668934  0.088853  0.931194  1
  Te  Te30  1  0.407425  0.250543  0.925860  1
  Te  Te31  1  0.592575  0.749457  0.074140  1
