# generated using pymatgen
data_SmHo3(WO6)2
_symmetry_space_group_name_H-M   'P 1'
_cell_length_a   5.41621200
_cell_length_b   7.72333149
_cell_length_c   11.50484856
_cell_angle_alpha   75.41666215
_cell_angle_beta   90.00000000
_cell_angle_gamma   90.00000000
_symmetry_Int_Tables_number   1
_chemical_formula_structural   SmHo3(WO6)2
_chemical_formula_sum   'Sm2 Ho6 W4 O24'
_cell_volume   465.75655071
_cell_formula_units_Z   2
loop_
 _symmetry_equiv_pos_site_id
 _symmetry_equiv_pos_as_xyz
  1  'x, y, z'
loop_
 _atom_site_type_symbol
 _atom_site_label
 _atom_site_symmetry_multiplicity
 _atom_site_fract_x
 _atom_site_fract_y
 _atom_site_fract_z
 _atom_site_occupancy
  Sm  Sm0  1  0.684937  0.500000  0.750000  1
  Sm  Sm1  1  0.315063  0.500000  0.250000  1
  Ho  Ho2  1  0.739991  0.000000  0.750000  1
  Ho  Ho3  1  0.260009  0.000000  0.250000  1
  Ho  Ho4  1  0.187603  0.797811  0.577359  1
  Ho  Ho5  1  0.812397  0.797811  0.077359  1
  Ho  Ho6  1  0.187603  0.202189  0.922641  1
  Ho  Ho7  1  0.812397  0.202189  0.422641  1
  W  W8  1  0.253445  0.725392  0.885373  1
  W  W9  1  0.746555  0.725392  0.385373  1
  W  W10  1  0.253445  0.274608  0.614627  1
  W  W11  1  0.746555  0.274608  0.114627  1
  O  O12  1  0.039704  0.940672  0.895647  1
  O  O13  1  0.530352  0.849135  0.930776  1
  O  O14  1  0.960296  0.940672  0.395647  1
  O  O15  1  0.458535  0.792292  0.727559  1
  O  O16  1  0.469648  0.849135  0.430776  1
  O  O17  1  0.985475  0.715474  0.770059  1
  O  O18  1  0.541465  0.792292  0.227559  1
  O  O19  1  0.855183  0.638537  0.547240  1
  O  O20  1  0.355295  0.490815  0.888340  1
  O  O21  1  0.014525  0.715474  0.270059  1
  O  O22  1  0.355295  0.509185  0.611660  1
  O  O23  1  0.855183  0.361463  0.952760  1
  O  O24  1  0.144817  0.638537  0.047240  1
  O  O25  1  0.644705  0.490815  0.388340  1
  O  O26  1  0.985475  0.284526  0.729941  1
  O  O27  1  0.644705  0.509185  0.111660  1
  O  O28  1  0.144817  0.361463  0.452760  1
  O  O29  1  0.458535  0.207708  0.772441  1
  O  O30  1  0.014525  0.284526  0.229941  1
  O  O31  1  0.530352  0.150865  0.569224  1
  O  O32  1  0.541465  0.207708  0.272441  1
  O  O33  1  0.039704  0.059328  0.604353  1
  O  O34  1  0.469648  0.150865  0.069224  1
  O  O35  1  0.960296  0.059328  0.104353  1
