# generated using pymatgen
data_TbPr7Np4O24
_symmetry_space_group_name_H-M   'P 1'
_cell_length_a   5.73267016
_cell_length_b   8.07742436
_cell_length_c   12.21658200
_cell_angle_alpha   74.56075477
_cell_angle_beta   89.98643732
_cell_angle_gamma   89.91902959
_symmetry_Int_Tables_number   1
_chemical_formula_structural   TbPr7Np4O24
_chemical_formula_sum   'Tb1 Pr7 Np4 O24'
_cell_volume   545.27689519
_cell_formula_units_Z   1
loop_
 _symmetry_equiv_pos_site_id
 _symmetry_equiv_pos_as_xyz
  1  'x, y, z'
loop_
 _atom_site_type_symbol
 _atom_site_label
 _atom_site_symmetry_multiplicity
 _atom_site_fract_x
 _atom_site_fract_y
 _atom_site_fract_z
 _atom_site_occupancy
  Tb  Tb0  1  0.811944  0.209699  0.420220  1
  Pr  Pr1  1  0.743389  0.000954  0.747243  1
  Pr  Pr2  1  0.256578  0.001813  0.253160  1
  Pr  Pr3  1  0.186575  0.794527  0.577422  1
  Pr  Pr4  1  0.810640  0.793676  0.077742  1
  Pr  Pr5  1  0.693517  0.499098  0.748904  1
  Pr  Pr6  1  0.307925  0.498681  0.253099  1
  Pr  Pr7  1  0.190850  0.206081  0.922187  1
  Np  Np8  1  0.253392  0.722876  0.885350  1
  Np  Np9  1  0.746157  0.722869  0.385566  1
  Np  Np10  1  0.254081  0.276884  0.611320  1
  Np  Np11  1  0.748360  0.276307  0.117089  1
  O  O12  1  0.046220  0.938749  0.895680  1
  O  O13  1  0.537035  0.849243  0.930645  1
  O  O14  1  0.944383  0.945737  0.397470  1
  O  O15  1  0.444986  0.795534  0.730740  1
  O  O16  1  0.457584  0.842434  0.431181  1
  O  O17  1  0.971477  0.711301  0.769477  1
  O  O18  1  0.554031  0.793837  0.232006  1
  O  O19  1  0.864134  0.631893  0.548568  1
  O  O20  1  0.381896  0.489700  0.884029  1
  O  O21  1  0.029978  0.713723  0.271974  1
  O  O22  1  0.380564  0.509132  0.612888  1
  O  O23  1  0.864805  0.367101  0.952549  1
  O  O24  1  0.135336  0.631111  0.048916  1
  O  O25  1  0.626921  0.485015  0.384621  1
  O  O26  1  0.973554  0.288067  0.729181  1
  O  O27  1  0.617964  0.508965  0.116425  1
  O  O28  1  0.124558  0.365840  0.449519  1
  O  O29  1  0.445862  0.204101  0.765975  1
  O  O30  1  0.027513  0.287347  0.234327  1
  O  O31  1  0.545125  0.156200  0.561829  1
  O  O32  1  0.560007  0.203868  0.274141  1
  O  O33  1  0.047285  0.063096  0.601328  1
  O  O34  1  0.461437  0.153394  0.071792  1
  O  O35  1  0.953937  0.061147  0.105439  1
