# generated using pymatgen
data_Eu3Y5(WO6)4
_symmetry_space_group_name_H-M   'P 1'
_cell_length_a   5.46671500
_cell_length_b   7.77605242
_cell_length_c   11.59235273
_cell_angle_alpha   75.73664235
_cell_angle_beta   90.00000000
_cell_angle_gamma   90.00000000
_symmetry_Int_Tables_number   1
_chemical_formula_structural   Eu3Y5(WO6)4
_chemical_formula_sum   'Eu3 Y5 W4 O24'
_cell_volume   477.59385378
_cell_formula_units_Z   1
loop_
 _symmetry_equiv_pos_site_id
 _symmetry_equiv_pos_as_xyz
  1  'x, y, z'
loop_
 _atom_site_type_symbol
 _atom_site_label
 _atom_site_symmetry_multiplicity
 _atom_site_fract_x
 _atom_site_fract_y
 _atom_site_fract_z
 _atom_site_occupancy
  Eu  Eu0  1  0.255644  0.000000  0.750000  1
  Eu  Eu1  1  0.317641  0.500000  0.750000  1
  Eu  Eu2  1  0.683463  0.500000  0.250000  1
  Y  Y3  1  0.184801  0.792916  0.078784  1
  Y  Y4  1  0.742975  0.000000  0.250000  1
  Y  Y5  1  0.184801  0.207084  0.421216  1
  Y  Y6  1  0.814156  0.204987  0.923686  1
  Y  Y7  1  0.814156  0.795013  0.576314  1
  W  W8  1  0.745583  0.723023  0.886384  1
  W  W9  1  0.254627  0.727151  0.384378  1
  W  W10  1  0.745583  0.276977  0.613616  1
  W  W11  1  0.254627  0.272849  0.115622  1
  O  O12  1  0.853383  0.365065  0.453665  1
  O  O13  1  0.469109  0.842095  0.932625  1
  O  O14  1  0.853383  0.634935  0.046335  1
  O  O15  1  0.012348  0.284913  0.728813  1
  O  O16  1  0.984919  0.282755  0.229187  1
  O  O17  1  0.149452  0.358777  0.954914  1
  O  O18  1  0.647023  0.489930  0.888274  1
  O  O19  1  0.533205  0.152816  0.070258  1
  O  O20  1  0.149452  0.641223  0.545086  1
  O  O21  1  0.012348  0.715087  0.771187  1
  O  O22  1  0.455541  0.207800  0.272064  1
  O  O23  1  0.044879  0.941214  0.395527  1
  O  O24  1  0.469109  0.157905  0.567375  1
  O  O25  1  0.984919  0.717245  0.270813  1
  O  O26  1  0.951673  0.062974  0.600645  1
  O  O27  1  0.546439  0.212416  0.770599  1
  O  O28  1  0.546439  0.787584  0.729401  1
  O  O29  1  0.044879  0.058786  0.104473  1
  O  O30  1  0.647023  0.510070  0.611726  1
  O  O31  1  0.353000  0.506155  0.113125  1
  O  O32  1  0.455541  0.792200  0.227936  1
  O  O33  1  0.353000  0.493845  0.386875  1
  O  O34  1  0.533205  0.847184  0.429742  1
  O  O35  1  0.951673  0.937026  0.899355  1
