# generated using pymatgen
data_Mg3BiP6N13
_symmetry_space_group_name_H-M   'P 1'
_cell_length_a   7.16403245
_cell_length_b   7.16403302
_cell_length_c   7.16403237
_cell_angle_alpha   109.18676953
_cell_angle_beta   109.18677313
_cell_angle_gamma   109.18676037
_symmetry_Int_Tables_number   1
_chemical_formula_structural   Mg3BiP6N13
_chemical_formula_sum   'Mg3 Bi1 P6 N13'
_cell_volume   285.98396523
_cell_formula_units_Z   1
loop_
 _symmetry_equiv_pos_site_id
 _symmetry_equiv_pos_as_xyz
  1  'x, y, z'
loop_
 _atom_site_type_symbol
 _atom_site_label
 _atom_site_symmetry_multiplicity
 _atom_site_fract_x
 _atom_site_fract_y
 _atom_site_fract_z
 _atom_site_occupancy
  Mg  Mg0  1  0.989999  0.685501  0.989999  1
  Mg  Mg1  1  0.685501  0.989999  0.989999  1
  Mg  Mg2  1  0.989999  0.989999  0.685501  1
  Bi  Bi3  1  0.267772  0.267772  0.267772  1
  P  P4  1  0.506204  0.254318  0.759712  1
  P  P5  1  0.506204  0.759712  0.254318  1
  P  P6  1  0.759712  0.254318  0.506204  1
  P  P7  1  0.254318  0.506204  0.759712  1
  P  P8  1  0.759712  0.506204  0.254318  1
  P  P9  1  0.254318  0.759712  0.506204  1
  N  N10  1  0.961661  0.961661  0.961661  1
  N  N11  1  0.003400  0.734513  0.446596  1
  N  N12  1  0.275884  0.722906  0.275884  1
  N  N13  1  0.286077  0.567414  0.567414  1
  N  N14  1  0.567414  0.567414  0.286077  1
  N  N15  1  0.567414  0.286077  0.567414  1
  N  N16  1  0.734513  0.003400  0.446596  1
  N  N17  1  0.446596  0.003400  0.734513  1
  N  N18  1  0.734513  0.446596  0.003400  1
  N  N19  1  0.275884  0.275884  0.722906  1
  N  N20  1  0.722906  0.275884  0.275884  1
  N  N21  1  0.003400  0.446596  0.734513  1
  N  N22  1  0.446596  0.734513  0.003400  1
