# generated using pymatgen
data_Er6Zn21AsRu2
_symmetry_space_group_name_H-M   'P 1'
_cell_length_a   8.99430335
_cell_length_b   9.03984695
_cell_length_c   9.03984678
_cell_angle_alpha   59.15407112
_cell_angle_beta   60.16651699
_cell_angle_gamma   60.16652248
_symmetry_Int_Tables_number   1
_chemical_formula_structural   Er6Zn21AsRu2
_chemical_formula_sum   'Er6 Zn21 As1 Ru2'
_cell_volume   517.60198740
_cell_formula_units_Z   1
loop_
 _symmetry_equiv_pos_site_id
 _symmetry_equiv_pos_as_xyz
  1  'x, y, z'
loop_
 _atom_site_type_symbol
 _atom_site_label
 _atom_site_symmetry_multiplicity
 _atom_site_fract_x
 _atom_site_fract_y
 _atom_site_fract_z
 _atom_site_occupancy
  Er  Er0  1  0.717234  0.282766  0.282766  1
  Er  Er1  1  0.724914  0.288521  0.711479  1
  Er  Er2  1  0.724914  0.711479  0.288521  1
  Er  Er3  1  0.282766  0.717234  0.717234  1
  Er  Er4  1  0.275086  0.711479  0.288521  1
  Er  Er5  1  0.275086  0.288521  0.711479  1
  Zn  Zn6  1  0.637542  0.121309  0.121309  1
  Zn  Zn7  1  0.121775  0.632915  0.123535  1
  Zn  Zn8  1  0.121775  0.123535  0.632915  1
  Zn  Zn9  1  0.119841  0.121309  0.121309  1
  Zn  Zn10  1  0.362458  0.878691  0.878691  1
  Zn  Zn11  1  0.878225  0.367085  0.876465  1
  Zn  Zn12  1  0.878225  0.876465  0.367085  1
  Zn  Zn13  1  0.880159  0.878691  0.878691  1
  Zn  Zn14  1  0.500000  0.000000  0.000000  1
  Zn  Zn15  1  0.500000  0.000000  0.500000  1
  Zn  Zn16  1  0.500000  0.500000  0.000000  1
  Zn  Zn17  1  0.000000  0.500000  0.000000  1
  Zn  Zn18  1  0.000000  0.000000  0.500000  1
  Zn  Zn19  1  0.009885  0.330516  0.330516  1
  Zn  Zn20  1  0.334068  0.002853  0.329010  1
  Zn  Zn21  1  0.334068  0.329010  0.002853  1
  Zn  Zn22  1  0.329081  0.330516  0.330516  1
  Zn  Zn23  1  0.990115  0.669484  0.669484  1
  Zn  Zn24  1  0.665932  0.997147  0.670990  1
  Zn  Zn25  1  0.665932  0.670990  0.997147  1
  Zn  Zn26  1  0.670919  0.669484  0.669484  1
  As  As27  1  0.500000  0.500000  0.500000  1
  Ru  Ru28  1  0.000000  0.500000  0.500000  1
  Ru  Ru29  1  0.000000  0.000000  0.000000  1
