# generated using pymatgen
data_Ti2BIrRh5
_symmetry_space_group_name_H-M   'P 1'
_cell_length_a   5.60151884
_cell_length_b   5.60151864
_cell_length_c   5.60151884
_cell_angle_alpha   120.06661977
_cell_angle_beta   89.88464166
_cell_angle_gamma   120.06661977
_symmetry_Int_Tables_number   1
_chemical_formula_structural   Ti2BIrRh5
_chemical_formula_sum   'Ti2 B1 Ir1 Rh5'
_cell_volume   124.15491886
_cell_formula_units_Z   1
loop_
 _symmetry_equiv_pos_site_id
 _symmetry_equiv_pos_as_xyz
  1  'x, y, z'
loop_
 _atom_site_type_symbol
 _atom_site_label
 _atom_site_symmetry_multiplicity
 _atom_site_fract_x
 _atom_site_fract_y
 _atom_site_fract_z
 _atom_site_occupancy
  Ti  Ti0  1  0.750116  0.500000  0.250116  1
  Ti  Ti1  1  0.250116  0.500000  0.750116  1
  B  B2  1  0.500685  0.000000  0.500685  1
  Ir  Ir3  1  0.241298  0.000000  0.241298  1
  Rh  Rh4  1  0.241657  0.483349  0.241657  1
  Rh  Rh5  1  0.758308  0.000000  0.241657  1
  Rh  Rh6  1  0.757852  0.000000  0.757852  1
  Rh  Rh7  1  0.241657  0.000000  0.758308  1
  Rh  Rh8  1  0.758308  0.516651  0.758308  1
