# generated using pymatgen
data_GaTc3Se4
_symmetry_space_group_name_H-M   'P 1'
_cell_length_a   6.68814522
_cell_length_b   12.52937824
_cell_length_c   11.18668345
_cell_angle_alpha   89.98918000
_cell_angle_beta   102.12650854
_cell_angle_gamma   89.99542741
_symmetry_Int_Tables_number   1
_chemical_formula_structural   GaTc3Se4
_chemical_formula_sum   'Ga4 Tc12 Se16'
_cell_volume   916.50748278
_cell_formula_units_Z   4
loop_
 _symmetry_equiv_pos_site_id
 _symmetry_equiv_pos_as_xyz
  1  'x, y, z'
loop_
 _atom_site_type_symbol
 _atom_site_label
 _atom_site_symmetry_multiplicity
 _atom_site_fract_x
 _atom_site_fract_y
 _atom_site_fract_z
 _atom_site_occupancy
  Ga  Ga0  1  0.232698  0.711617  0.200878  1
  Ga  Ga1  1  0.267081  0.211558  0.299164  1
  Ga  Ga2  1  0.767303  0.288385  0.799099  1
  Ga  Ga3  1  0.732987  0.788433  0.700824  1
  Tc  Tc4  1  0.100184  0.873450  0.077361  1
  Tc  Tc5  1  0.399606  0.373488  0.422606  1
  Tc  Tc6  1  0.899662  0.126550  0.922686  1
  Tc  Tc7  1  0.600526  0.626504  0.577351  1
  Tc  Tc8  1  0.240929  0.014117  0.939636  1
  Tc  Tc9  1  0.259021  0.514246  0.560422  1
  Tc  Tc10  1  0.758907  0.985883  0.060405  1
  Tc  Tc11  1  0.741115  0.485752  0.439537  1
  Tc  Tc12  1  0.120437  0.077954  0.138052  1
  Tc  Tc13  1  0.379704  0.577987  0.362075  1
  Tc  Tc14  1  0.879405  0.922048  0.861980  1
  Tc  Tc15  1  0.620427  0.422010  0.637885  1
  Se  Se16  1  0.245825  0.209636  0.998698  1
  Se  Se17  1  0.254480  0.709793  0.501465  1
  Se  Se18  1  0.754048  0.790352  0.001345  1
  Se  Se19  1  0.745658  0.290192  0.498501  1
  Se  Se20  1  0.984790  0.940104  0.265737  1
  Se  Se21  1  0.515099  0.439937  0.234180  1
  Se  Se22  1  0.015057  0.059915  0.734292  1
  Se  Se23  1  0.485076  0.560052  0.765794  1
  Se  Se24  1  0.207865  0.817968  0.883043  1
  Se  Se25  1  0.292025  0.318226  0.616900  1
  Se  Se26  1  0.792004  0.182045  0.117011  1
  Se  Se27  1  0.708121  0.681772  0.383062  1
  Se  Se28  1  0.437261  0.963794  0.163395  1
  Se  Se29  1  0.062696  0.463881  0.336633  1
  Se  Se30  1  0.562567  0.036226  0.836685  1
  Se  Se31  1  0.937443  0.536128  0.663302  1
