# generated using pymatgen
data_Ba2Np2O7
_symmetry_space_group_name_H-M   'P 1'
_cell_length_a   8.13273206
_cell_length_b   8.11545472
_cell_length_c   8.22590692
_cell_angle_alpha   120.32580498
_cell_angle_beta   120.51908078
_cell_angle_gamma   60.56760960
_symmetry_Int_Tables_number   1
_chemical_formula_structural   Ba2Np2O7
_chemical_formula_sum   'Ba4 Np4 O14'
_cell_volume   383.01594050
_cell_formula_units_Z   2
loop_
 _symmetry_equiv_pos_site_id
 _symmetry_equiv_pos_as_xyz
  1  'x, y, z'
loop_
 _atom_site_type_symbol
 _atom_site_label
 _atom_site_symmetry_multiplicity
 _atom_site_fract_x
 _atom_site_fract_y
 _atom_site_fract_z
 _atom_site_occupancy
  Ba  Ba0  1  0.000000  0.000000  0.000000  1
  Ba  Ba1  1  0.499999  0.000000  0.499999  1
  Ba  Ba2  1  0.000000  0.499999  0.499999  1
  Ba  Ba3  1  0.500000  0.500000  0.500000  1
  Np  Np4  1  0.500001  0.000000  0.000000  1
  Np  Np5  1  0.500000  0.500000  0.000000  1
  Np  Np6  1  0.000000  0.500001  0.000000  1
  Np  Np7  1  0.000000  0.000000  0.500000  1
  O  O8  1  0.824313  0.414169  0.050910  1
  O  O9  1  0.414518  0.824253  0.051112  1
  O  O10  1  0.250584  0.249369  0.088234  1
  O  O11  1  0.593034  0.593385  0.305649  1
  O  O12  1  0.675854  0.085502  0.312322  1
  O  O13  1  0.085835  0.675801  0.312397  1
  O  O14  1  0.093302  0.092960  0.380829  1
  O  O15  1  0.906697  0.907039  0.619170  1
  O  O16  1  0.914165  0.324199  0.687604  1
  O  O17  1  0.324146  0.914498  0.687679  1
  O  O18  1  0.406967  0.406616  0.694352  1
  O  O19  1  0.749416  0.750631  0.911765  1
  O  O20  1  0.585482  0.175747  0.948888  1
  O  O21  1  0.175687  0.585831  0.949090  1
