# generated using pymatgen
data_AsSe8Cl3
_symmetry_space_group_name_H-M   'P 1'
_cell_length_a   9.11580332
_cell_length_b   9.75858483
_cell_length_c   11.62169848
_cell_angle_alpha   94.06373885
_cell_angle_beta   108.94472586
_cell_angle_gamma   107.77812612
_symmetry_Int_Tables_number   1
_chemical_formula_structural   AsSe8Cl3
_chemical_formula_sum   'As2 Se16 Cl6'
_cell_volume   914.40355611
_cell_formula_units_Z   2
loop_
 _symmetry_equiv_pos_site_id
 _symmetry_equiv_pos_as_xyz
  1  'x, y, z'
loop_
 _atom_site_type_symbol
 _atom_site_label
 _atom_site_symmetry_multiplicity
 _atom_site_fract_x
 _atom_site_fract_y
 _atom_site_fract_z
 _atom_site_occupancy
  As  As0  1  0.785882  0.042974  0.849832  1
  As  As1  1  0.214118  0.957026  0.150168  1
  Se  Se2  1  0.846869  0.518649  0.830404  1
  Se  Se3  1  0.153131  0.481351  0.169596  1
  Se  Se4  1  0.707482  0.431097  0.615733  1
  Se  Se5  1  0.292518  0.568903  0.384267  1
  Se  Se6  1  0.724035  0.197295  0.572986  1
  Se  Se7  1  0.275965  0.802705  0.427014  1
  Se  Se8  1  0.938169  0.225862  0.494498  1
  Se  Se9  1  0.061831  0.774138  0.505502  1
  Se  Se10  1  0.884208  0.321001  0.138442  1
  Se  Se11  1  0.115792  0.678999  0.861558  1
  Se  Se12  1  0.702871  0.454438  0.080768  1
  Se  Se13  1  0.297129  0.545562  0.919232  1
  Se  Se14  1  0.653081  0.528076  0.258097  1
  Se  Se15  1  0.346919  0.471924  0.741903  1
  Se  Se16  1  0.826582  0.774381  0.342715  1
  Se  Se17  1  0.173418  0.225619  0.657285  1
  Cl  Cl18  1  0.528897  0.041292  0.795026  1
  Cl  Cl19  1  0.471103  0.958708  0.204974  1
  Cl  Cl20  1  0.781021  0.909650  0.997763  1
  Cl  Cl21  1  0.218979  0.090350  0.002237  1
  Cl  Cl22  1  0.751461  0.867835  0.700501  1
  Cl  Cl23  1  0.248539  0.132165  0.299499  1
