# generated using pymatgen
data_ErTm3Si4TcRh3
_symmetry_space_group_name_H-M   'P 1'
_cell_length_a   4.25360300
_cell_length_b   6.88643814
_cell_length_c   7.28335951
_cell_angle_alpha   90.04850438
_cell_angle_beta   90.00000000
_cell_angle_gamma   90.00000000
_symmetry_Int_Tables_number   1
_chemical_formula_structural   ErTm3Si4TcRh3
_chemical_formula_sum   'Er1 Tm3 Si4 Tc1 Rh3'
_cell_volume   213.34535708
_cell_formula_units_Z   1
loop_
 _symmetry_equiv_pos_site_id
 _symmetry_equiv_pos_as_xyz
  1  'x, y, z'
loop_
 _atom_site_type_symbol
 _atom_site_label
 _atom_site_symmetry_multiplicity
 _atom_site_fract_x
 _atom_site_fract_y
 _atom_site_fract_z
 _atom_site_occupancy
  Er  Er0  1  0.750000  0.001465  0.186485  1
  Tm  Tm1  1  0.250000  0.495779  0.690851  1
  Tm  Tm2  1  0.750000  0.507857  0.310386  1
  Tm  Tm3  1  0.250000  0.000205  0.812157  1
  Si  Si4  1  0.250000  0.297835  0.109000  1
  Si  Si5  1  0.750000  0.703464  0.887352  1
  Si  Si6  1  0.250000  0.795958  0.399873  1
  Si  Si7  1  0.750000  0.202180  0.604182  1
  Tc  Tc8  1  0.750000  0.843805  0.567963  1
  Rh  Rh9  1  0.250000  0.155636  0.431379  1
  Rh  Rh10  1  0.750000  0.343242  0.934041  1
  Rh  Rh11  1  0.250000  0.652573  0.066332  1
