# generated using pymatgen
data_Y2TaCo9As7Ru2
_symmetry_space_group_name_H-M   'P 1'
_cell_length_a   3.81705600
_cell_length_b   9.41025573
_cell_length_c   9.43430994
_cell_angle_alpha   119.73411369
_cell_angle_beta   90.00000000
_cell_angle_gamma   90.00000000
_symmetry_Int_Tables_number   1
_chemical_formula_structural   Y2TaCo9As7Ru2
_chemical_formula_sum   'Y2 Ta1 Co9 As7 Ru2'
_cell_volume   294.25787020
_cell_formula_units_Z   1
loop_
 _symmetry_equiv_pos_site_id
 _symmetry_equiv_pos_as_xyz
  1  'x, y, z'
loop_
 _atom_site_type_symbol
 _atom_site_label
 _atom_site_symmetry_multiplicity
 _atom_site_fract_x
 _atom_site_fract_y
 _atom_site_fract_z
 _atom_site_occupancy
  Y  Y0  1  0.000000  0.667868  0.337399  1
  Y  Y1  1  0.500000  0.330113  0.664721  1
  Ta  Ta2  1  0.500000  0.782923  0.896146  1
  Co  Co3  1  0.000000  0.570301  0.938212  1
  Co  Co4  1  0.000000  0.368379  0.428652  1
  Co  Co5  1  0.000000  0.058992  0.630015  1
  Co  Co6  1  0.000000  0.876635  0.158647  1
  Co  Co7  1  0.000000  0.286784  0.126602  1
  Co  Co8  1  0.000000  0.843811  0.722725  1
  Co  Co9  1  0.500000  0.948289  0.384023  1
  Co  Co10  1  0.500000  0.433485  0.051652  1
  Co  Co11  1  0.500000  0.618335  0.564358  1
  As  As12  1  0.000000  0.011364  0.006587  1
  As  As13  1  0.500000  0.705704  0.123146  1
  As  As14  1  0.500000  0.409312  0.291282  1
  As  As15  1  0.500000  0.882354  0.589531  1
  As  As16  1  0.000000  0.580152  0.694135  1
  As  As17  1  0.000000  0.112045  0.412177  1
  As  As18  1  0.000000  0.299896  0.887148  1
  Ru  Ru19  1  0.500000  0.117238  0.217392  1
  Ru  Ru20  1  0.500000  0.096020  0.875452  1
