# generated using pymatgen
data_Ca5Sn6Sb6Rh19
_symmetry_space_group_name_H-M   'P 1'
_cell_length_a   13.81364800
_cell_length_b   13.81364792
_cell_length_c   4.27346400
_cell_angle_alpha   90.00000000
_cell_angle_beta   90.00000000
_cell_angle_gamma   120.00000018
_symmetry_Int_Tables_number   1
_chemical_formula_structural   Ca5Sn6Sb6Rh19
_chemical_formula_sum   'Ca5 Sn6 Sb6 Rh19'
_cell_volume   706.19956956
_cell_formula_units_Z   1
loop_
 _symmetry_equiv_pos_site_id
 _symmetry_equiv_pos_as_xyz
  1  'x, y, z'
loop_
 _atom_site_type_symbol
 _atom_site_label
 _atom_site_symmetry_multiplicity
 _atom_site_fract_x
 _atom_site_fract_y
 _atom_site_fract_z
 _atom_site_occupancy
  Ca  Ca0  1  0.000000  0.188695  0.500000  1
  Ca  Ca1  1  0.811305  0.811305  0.500000  1
  Ca  Ca2  1  0.188695  0.000000  0.500000  1
  Ca  Ca3  1  0.666667  0.333333  0.000000  1
  Ca  Ca4  1  0.333333  0.666667  0.000000  1
  Sn  Sn5  1  0.482930  0.323074  0.500000  1
  Sn  Sn6  1  0.676926  0.159856  0.500000  1
  Sn  Sn7  1  0.840144  0.517070  0.500000  1
  Sn  Sn8  1  0.517070  0.840144  0.500000  1
  Sn  Sn9  1  0.159856  0.676926  0.500000  1
  Sn  Sn10  1  0.323074  0.482930  0.500000  1
  Sb  Sb11  1  0.818556  0.000000  0.000000  1
  Sb  Sb12  1  0.181444  0.181444  0.000000  1
  Sb  Sb13  1  0.000000  0.818556  0.000000  1
  Sb  Sb14  1  0.373174  0.000000  0.000000  1
  Sb  Sb15  1  0.000000  0.373174  0.000000  1
  Sb  Sb16  1  0.626826  0.626826  0.000000  1
  Rh  Rh17  1  0.808035  0.182649  0.000000  1
  Rh  Rh18  1  0.374614  0.191965  0.000000  1
  Rh  Rh19  1  0.651136  0.525226  0.500000  1
  Rh  Rh20  1  0.874090  0.348864  0.500000  1
  Rh  Rh21  1  0.348864  0.874090  0.500000  1
  Rh  Rh22  1  0.525226  0.651136  0.500000  1
  Rh  Rh23  1  0.125910  0.474774  0.500000  1
  Rh  Rh24  1  0.817351  0.625386  0.000000  1
  Rh  Rh25  1  0.625386  0.817351  0.000000  1
  Rh  Rh26  1  0.182649  0.808035  0.000000  1
  Rh  Rh27  1  0.191965  0.374614  0.000000  1
  Rh  Rh28  1  0.000000  0.721725  0.500000  1
  Rh  Rh29  1  0.278275  0.278275  0.500000  1
  Rh  Rh30  1  0.721725  0.000000  0.500000  1
  Rh  Rh31  1  0.000000  0.560673  0.000000  1
  Rh  Rh32  1  0.439327  0.439327  0.000000  1
  Rh  Rh33  1  0.560673  0.000000  0.000000  1
  Rh  Rh34  1  0.000000  0.000000  0.000000  1
  Rh  Rh35  1  0.474774  0.125910  0.500000  1
