# generated using pymatgen
data_TbCe3(Ni2Sn)2
_symmetry_space_group_name_H-M   'P 1'
_cell_length_a   7.45706036
_cell_length_b   7.45706036
_cell_length_c   3.67117200
_cell_angle_alpha   90.00000000
_cell_angle_beta   90.00000000
_cell_angle_gamma   91.04884854
_symmetry_Int_Tables_number   1
_chemical_formula_structural   TbCe3(Ni2Sn)2
_chemical_formula_sum   'Tb1 Ce3 Ni4 Sn2'
_cell_volume   204.11140777
_cell_formula_units_Z   1
loop_
 _symmetry_equiv_pos_site_id
 _symmetry_equiv_pos_as_xyz
  1  'x, y, z'
loop_
 _atom_site_type_symbol
 _atom_site_label
 _atom_site_symmetry_multiplicity
 _atom_site_fract_x
 _atom_site_fract_y
 _atom_site_fract_z
 _atom_site_occupancy
  Tb  Tb0  1  0.824754  0.675246  0.500000  1
  Ce  Ce1  1  0.676847  0.175739  0.500000  1
  Ce  Ce2  1  0.324261  0.823153  0.500000  1
  Ce  Ce3  1  0.174150  0.325850  0.500000  1
  Ni  Ni4  1  0.879718  0.369566  0.000000  1
  Ni  Ni5  1  0.130434  0.620282  0.000000  1
  Ni  Ni6  1  0.373387  0.126613  0.000000  1
  Ni  Ni7  1  0.615085  0.884915  0.000000  1
  Sn  Sn8  1  0.504524  0.503161  0.000000  1
  Sn  Sn9  1  0.996839  0.995476  0.000000  1
