# generated using pymatgen
data_CaHo6FeCl12
_symmetry_space_group_name_H-M   'P 1'
_cell_length_a   8.59816344
_cell_length_b   8.91086369
_cell_length_c   8.87385719
_cell_angle_alpha   107.38324468
_cell_angle_beta   106.31175784
_cell_angle_gamma   106.43859568
_symmetry_Int_Tables_number   1
_chemical_formula_structural   CaHo6FeCl12
_chemical_formula_sum   'Ca1 Ho6 Fe1 Cl12'
_cell_volume   570.57354779
_cell_formula_units_Z   1
loop_
 _symmetry_equiv_pos_site_id
 _symmetry_equiv_pos_as_xyz
  1  'x, y, z'
loop_
 _atom_site_type_symbol
 _atom_site_label
 _atom_site_symmetry_multiplicity
 _atom_site_fract_x
 _atom_site_fract_y
 _atom_site_fract_z
 _atom_site_occupancy
  Ca  Ca0  1  0.500000  0.500000  0.500000  1
  Ho  Ho1  1  0.296691  0.099181  0.022965  1
  Ho  Ho2  1  0.020730  0.319832  0.109787  1
  Ho  Ho3  1  0.110366  0.025787  0.320049  1
  Ho  Ho4  1  0.889633  0.974213  0.679951  1
  Ho  Ho5  1  0.979270  0.680168  0.890212  1
  Ho  Ho6  1  0.703309  0.900819  0.977034  1
  Fe  Fe7  1  0.000000  0.000000  0.000000  1
  Cl  Cl8  1  0.677417  0.211422  0.068404  1
  Cl  Cl9  1  0.370500  0.447845  0.158637  1
  Cl  Cl10  1  0.072260  0.681726  0.214098  1
  Cl  Cl11  1  0.783774  0.928192  0.315256  1
  Cl  Cl12  1  0.455480  0.160567  0.371438  1
  Cl  Cl13  1  0.154051  0.372857  0.455495  1
  Cl  Cl14  1  0.845950  0.627143  0.544506  1
  Cl  Cl15  1  0.544520  0.839434  0.628562  1
  Cl  Cl16  1  0.216225  0.071808  0.684744  1
  Cl  Cl17  1  0.927740  0.318274  0.785901  1
  Cl  Cl18  1  0.629501  0.552156  0.841363  1
  Cl  Cl19  1  0.322583  0.788577  0.931596  1
