# generated using pymatgen
data_Nb4Pd5Pt7
_symmetry_space_group_name_H-M   'P 1'
_cell_length_a   5.60489232
_cell_length_b   4.91574576
_cell_length_c   9.36394895
_cell_angle_alpha   79.81302378
_cell_angle_beta   89.92265095
_cell_angle_gamma   89.97235641
_symmetry_Int_Tables_number   1
_chemical_formula_structural   Nb4Pd5Pt7
_chemical_formula_sum   'Nb4 Pd5 Pt7'
_cell_volume   253.93027793
_cell_formula_units_Z   1
loop_
 _symmetry_equiv_pos_site_id
 _symmetry_equiv_pos_as_xyz
  1  'x, y, z'
loop_
 _atom_site_type_symbol
 _atom_site_label
 _atom_site_symmetry_multiplicity
 _atom_site_fract_x
 _atom_site_fract_y
 _atom_site_fract_z
 _atom_site_occupancy
  Nb  Nb0  1  0.745894  0.376844  0.377494  1
  Nb  Nb1  1  0.251989  0.620978  0.623289  1
  Nb  Nb2  1  0.750335  0.210845  0.872707  1
  Nb  Nb3  1  0.251345  0.788760  0.126647  1
  Pd  Pd4  1  0.751425  0.793669  0.127899  1
  Pd  Pd5  1  0.250083  0.206361  0.872365  1
  Pd  Pd6  1  0.751582  0.615345  0.624370  1
  Pd  Pd7  1  0.247517  0.386293  0.375681  1
  Pd  Pd8  1  0.999656  0.878161  0.374531  1
  Pt  Pt9  1  0.498077  0.124089  0.624732  1
  Pt  Pt10  1  0.000700  0.125307  0.624624  1
  Pt  Pt11  1  0.501774  0.873900  0.374809  1
  Pt  Pt12  1  0.999082  0.292900  0.123871  1
  Pt  Pt13  1  0.499034  0.707194  0.876671  1
  Pt  Pt14  1  0.000724  0.708288  0.875991  1
  Pt  Pt15  1  0.500781  0.291065  0.124320  1
