# generated using pymatgen
data_Ba8Li4Si11Sn
_symmetry_space_group_name_H-M   'P 1'
_cell_length_a   12.47413980
_cell_length_b   10.76303944
_cell_length_c   8.86539171
_cell_angle_alpha   78.18273630
_cell_angle_beta   57.60847456
_cell_angle_gamma   44.22011629
_symmetry_Int_Tables_number   1
_chemical_formula_structural   Ba8Li4Si11Sn
_chemical_formula_sum   'Ba8 Li4 Si11 Sn1'
_cell_volume   667.73800184
_cell_formula_units_Z   1
loop_
 _symmetry_equiv_pos_site_id
 _symmetry_equiv_pos_as_xyz
  1  'x, y, z'
loop_
 _atom_site_type_symbol
 _atom_site_label
 _atom_site_symmetry_multiplicity
 _atom_site_fract_x
 _atom_site_fract_y
 _atom_site_fract_z
 _atom_site_occupancy
  Ba  Ba0  1  0.879425  0.867628  0.123633  1
  Ba  Ba1  1  0.129907  0.121848  0.872618  1
  Ba  Ba2  1  0.369392  0.374628  0.125528  1
  Ba  Ba3  1  0.127097  0.126753  0.374067  1
  Ba  Ba4  1  0.624553  0.626931  0.377157  1
  Ba  Ba5  1  0.371700  0.375959  0.629790  1
  Ba  Ba6  1  0.623688  0.628494  0.872644  1
  Ba  Ba7  1  0.873762  0.875677  0.625738  1
  Li  Li8  1  0.167752  0.832510  0.167927  1
  Li  Li9  1  0.840748  0.159704  0.815668  1
  Li  Li10  1  0.081715  0.417013  0.082712  1
  Li  Li11  1  0.418139  0.083301  0.417091  1
  Si  Si12  1  0.830569  0.179505  0.347200  1
  Si  Si13  1  0.186358  0.821332  0.658350  1
  Si  Si14  1  0.338817  0.654355  0.818299  1
  Si  Si15  1  0.593917  0.907224  0.592232  1
  Si  Si16  1  0.906367  0.593805  0.906851  1
  Si  Si17  1  0.654544  0.344229  0.662683  1
  Si  Si18  1  0.321950  0.677821  0.352693  1
  Si  Si19  1  0.910892  0.595936  0.432561  1
  Si  Si20  1  0.059954  0.432486  0.596870  1
  Si  Si21  1  0.432431  0.060579  0.911167  1
  Si  Si22  1  0.595688  0.910767  0.061438  1
  Sn  Sn23  1  0.660634  0.331517  0.175083  1
