# generated using pymatgen
data_Er5Tm5(Bi2Rh)2
_symmetry_space_group_name_H-M   'P 1'
_cell_length_a   7.91838416
_cell_length_b   8.96102100
_cell_length_c   12.35383524
_cell_angle_alpha   90.00000000
_cell_angle_beta   89.97736824
_cell_angle_gamma   90.00000000
_symmetry_Int_Tables_number   1
_chemical_formula_structural   Er5Tm5(Bi2Rh)2
_chemical_formula_sum   'Er10 Tm10 Bi8 Rh4'
_cell_volume   876.58863074
_cell_formula_units_Z   2
loop_
 _symmetry_equiv_pos_site_id
 _symmetry_equiv_pos_as_xyz
  1  'x, y, z'
loop_
 _atom_site_type_symbol
 _atom_site_label
 _atom_site_symmetry_multiplicity
 _atom_site_fract_x
 _atom_site_fract_y
 _atom_site_fract_z
 _atom_site_occupancy
  Er  Er0  1  0.162843  0.250000  0.792437  1
  Er  Er1  1  0.837157  0.750000  0.207563  1
  Er  Er2  1  0.125309  0.750000  0.808973  1
  Er  Er3  1  0.874691  0.250000  0.191027  1
  Er  Er4  1  0.625460  0.250000  0.691033  1
  Er  Er5  1  0.374540  0.750000  0.308967  1
  Er  Er6  1  0.549114  0.750000  0.998625  1
  Er  Er7  1  0.450886  0.250000  0.001375  1
  Er  Er8  1  0.049196  0.250000  0.501269  1
  Er  Er9  1  0.950804  0.750000  0.498731  1
  Tm  Tm10  1  0.662739  0.750000  0.707349  1
  Tm  Tm11  1  0.337261  0.250000  0.292651  1
  Tm  Tm12  1  0.824980  0.456182  0.933458  1
  Tm  Tm13  1  0.175020  0.543818  0.066542  1
  Tm  Tm14  1  0.325080  0.543872  0.566555  1
  Tm  Tm15  1  0.175020  0.956182  0.066542  1
  Tm  Tm16  1  0.674920  0.456128  0.433445  1
  Tm  Tm17  1  0.824980  0.043818  0.933458  1
  Tm  Tm18  1  0.674920  0.043872  0.433445  1
  Tm  Tm19  1  0.325080  0.956128  0.566555  1
  Bi  Bi20  1  0.934151  0.008740  0.673421  1
  Bi  Bi21  1  0.065849  0.991260  0.326579  1
  Bi  Bi22  1  0.434437  0.991015  0.826541  1
  Bi  Bi23  1  0.065849  0.508740  0.326579  1
  Bi  Bi24  1  0.565563  0.008985  0.173459  1
  Bi  Bi25  1  0.934151  0.491260  0.673421  1
  Bi  Bi26  1  0.565563  0.491015  0.173459  1
  Bi  Bi27  1  0.434437  0.508985  0.826541  1
  Rh  Rh28  1  0.925077  0.750000  0.990179  1
  Rh  Rh29  1  0.074923  0.250000  0.009821  1
  Rh  Rh30  1  0.424953  0.250000  0.509582  1
  Rh  Rh31  1  0.575047  0.750000  0.490418  1
