# generated using pymatgen
data_Rb5Na(Al2As3)2
_symmetry_space_group_name_H-M   'P 1'
_cell_length_a   6.37231600
_cell_length_b   7.71736486
_cell_length_c   10.74611338
_cell_angle_alpha   69.38390496
_cell_angle_beta   90.00000000
_cell_angle_gamma   90.00000000
_symmetry_Int_Tables_number   1
_chemical_formula_structural   Rb5Na(Al2As3)2
_chemical_formula_sum   'Rb5 Na1 Al4 As6'
_cell_volume   494.62418978
_cell_formula_units_Z   1
loop_
 _symmetry_equiv_pos_site_id
 _symmetry_equiv_pos_as_xyz
  1  'x, y, z'
loop_
 _atom_site_type_symbol
 _atom_site_label
 _atom_site_symmetry_multiplicity
 _atom_site_fract_x
 _atom_site_fract_y
 _atom_site_fract_z
 _atom_site_occupancy
  Rb  Rb0  1  0.750000  0.153396  0.865948  1
  Rb  Rb1  1  0.750000  0.506205  0.146839  1
  Rb  Rb2  1  0.250000  0.490523  0.863046  1
  Rb  Rb3  1  0.750000  0.605842  0.510646  1
  Rb  Rb4  1  0.250000  0.852505  0.123845  1
  Na  Na5  1  0.250000  0.361787  0.490862  1
  Al  Al6  1  0.000506  0.068907  0.344780  1
  Al  Al7  1  0.499753  0.928407  0.655072  1
  Al  Al8  1  0.499494  0.068907  0.344780  1
  Al  Al9  1  0.000247  0.928407  0.655072  1
  As  As10  1  0.250000  0.809520  0.503422  1
  As  As11  1  0.750000  0.171498  0.496461  1
  As  As12  1  0.250000  0.317940  0.227528  1
  As  As13  1  0.750000  0.697924  0.797663  1
  As  As14  1  0.250000  0.077519  0.761405  1
  As  As15  1  0.750000  0.960711  0.212631  1
