# generated using pymatgen
data_Tb3HoEr4(ReC2)4
_symmetry_space_group_name_H-M   'P 1'
_cell_length_a   5.09813700
_cell_length_b   6.58032895
_cell_length_c   9.83183742
_cell_angle_alpha   89.89136305
_cell_angle_beta   90.00000000
_cell_angle_gamma   90.00000000
_symmetry_Int_Tables_number   1
_chemical_formula_structural   Tb3HoEr4(ReC2)4
_chemical_formula_sum   'Tb3 Ho1 Er4 Re4 C8'
_cell_volume   329.83217189
_cell_formula_units_Z   1
loop_
 _symmetry_equiv_pos_site_id
 _symmetry_equiv_pos_as_xyz
  1  'x, y, z'
loop_
 _atom_site_type_symbol
 _atom_site_label
 _atom_site_symmetry_multiplicity
 _atom_site_fract_x
 _atom_site_fract_y
 _atom_site_fract_z
 _atom_site_occupancy
  Tb  Tb0  1  0.250000  0.032761  0.284957  1
  Tb  Tb1  1  0.750000  0.967103  0.715209  1
  Tb  Tb2  1  0.250000  0.532691  0.215191  1
  Ho  Ho3  1  0.750000  0.466889  0.784370  1
  Er  Er4  1  0.750000  0.822650  0.056819  1
  Er  Er5  1  0.250000  0.677351  0.557202  1
  Er  Er6  1  0.750000  0.322402  0.443125  1
  Er  Er7  1  0.250000  0.177768  0.942793  1
  Re  Re8  1  0.750000  0.278503  0.133647  1
  Re  Re9  1  0.250000  0.221981  0.634080  1
  Re  Re10  1  0.750000  0.777948  0.366302  1
  Re  Re11  1  0.250000  0.721317  0.866158  1
  C  C12  1  0.750000  0.175656  0.950232  1
  C  C13  1  0.250000  0.825855  0.049047  1
  C  C14  1  0.750000  0.673506  0.549576  1
  C  C15  1  0.250000  0.325939  0.450990  1
  C  C16  1  0.750000  0.045825  0.259407  1
  C  C17  1  0.250000  0.454167  0.759865  1
  C  C18  1  0.750000  0.545703  0.240485  1
  C  C19  1  0.250000  0.953983  0.740543  1
