# generated using pymatgen
data_Cs2AcBr5
_symmetry_space_group_name_H-M   'P 1'
_cell_length_a   9.20277900
_cell_length_b   9.90881400
_cell_length_c   14.71125900
_cell_angle_alpha   90.00000000
_cell_angle_beta   90.00000000
_cell_angle_gamma   90.00000000
_symmetry_Int_Tables_number   1
_chemical_formula_structural   Cs2AcBr5
_chemical_formula_sum   'Cs8 Ac4 Br20'
_cell_volume   1341.49948603
_cell_formula_units_Z   4
loop_
 _symmetry_equiv_pos_site_id
 _symmetry_equiv_pos_as_xyz
  1  'x, y, z'
loop_
 _atom_site_type_symbol
 _atom_site_label
 _atom_site_symmetry_multiplicity
 _atom_site_fract_x
 _atom_site_fract_y
 _atom_site_fract_z
 _atom_site_occupancy
  Cs  Cs0  1  0.945904  0.004396  0.828368  1
  Cs  Cs1  1  0.054096  0.995604  0.171632  1
  Cs  Cs2  1  0.445904  0.995604  0.671632  1
  Cs  Cs3  1  0.054096  0.504396  0.171632  1
  Cs  Cs4  1  0.554096  0.004396  0.328368  1
  Cs  Cs5  1  0.945904  0.495604  0.828368  1
  Cs  Cs6  1  0.554096  0.495604  0.328368  1
  Cs  Cs7  1  0.445904  0.504396  0.671632  1
  Ac  Ac8  1  0.931290  0.750000  0.504055  1
  Ac  Ac9  1  0.068710  0.250000  0.495945  1
  Ac  Ac10  1  0.431290  0.250000  0.995945  1
  Ac  Ac11  1  0.568710  0.750000  0.004055  1
  Br  Br12  1  0.119855  0.750000  0.675922  1
  Br  Br13  1  0.880145  0.250000  0.324078  1
  Br  Br14  1  0.619855  0.250000  0.824078  1
  Br  Br15  1  0.380145  0.750000  0.175922  1
  Br  Br16  1  0.838974  0.042051  0.573244  1
  Br  Br17  1  0.161026  0.957949  0.426756  1
  Br  Br18  1  0.338974  0.957949  0.926756  1
  Br  Br19  1  0.161026  0.542051  0.426756  1
  Br  Br20  1  0.661026  0.042051  0.073244  1
  Br  Br21  1  0.838974  0.457949  0.573244  1
  Br  Br22  1  0.661026  0.457949  0.073244  1
  Br  Br23  1  0.338974  0.542051  0.926756  1
  Br  Br24  1  0.594890  0.750000  0.511606  1
  Br  Br25  1  0.405110  0.250000  0.488394  1
  Br  Br26  1  0.094890  0.250000  0.988394  1
  Br  Br27  1  0.905110  0.750000  0.011606  1
  Br  Br28  1  0.655453  0.750000  0.802763  1
  Br  Br29  1  0.344547  0.250000  0.197237  1
  Br  Br30  1  0.155453  0.250000  0.697237  1
  Br  Br31  1  0.844547  0.750000  0.302763  1
