# generated using pymatgen
data_Th4UP12Ru19
_symmetry_space_group_name_H-M   'P 1'
_cell_length_a   12.68750897
_cell_length_b   12.68750762
_cell_length_c   3.99195900
_cell_angle_alpha   90.00000000
_cell_angle_beta   90.00000000
_cell_angle_gamma   120.12841486
_symmetry_Int_Tables_number   1
_chemical_formula_structural   Th4UP12Ru19
_chemical_formula_sum   'Th4 U1 P12 Ru19'
_cell_volume   555.78388784
_cell_formula_units_Z   1
loop_
 _symmetry_equiv_pos_site_id
 _symmetry_equiv_pos_as_xyz
  1  'x, y, z'
loop_
 _atom_site_type_symbol
 _atom_site_label
 _atom_site_symmetry_multiplicity
 _atom_site_fract_x
 _atom_site_fract_y
 _atom_site_fract_z
 _atom_site_occupancy
  Th  Th0  1  0.811025  0.999890  0.500000  1
  Th  Th1  1  0.999890  0.811025  0.500000  1
  Th  Th2  1  0.333090  0.666170  0.000000  1
  Th  Th3  1  0.666170  0.333090  0.000000  1
  U  U4  1  0.184114  0.184114  0.500000  1
  P  P5  1  0.816307  0.816307  0.000000  1
  P  P6  1  0.185952  0.000370  0.000000  1
  P  P7  1  0.000370  0.185952  0.000000  1
  P  P8  1  0.170333  0.476042  0.500000  1
  P  P9  1  0.523831  0.694039  0.500000  1
  P  P10  1  0.305547  0.830720  0.500000  1
  P  P11  1  0.694039  0.523831  0.500000  1
  P  P12  1  0.830720  0.305547  0.500000  1
  P  P13  1  0.476042  0.170333  0.500000  1
  P  P14  1  0.373576  0.373576  0.000000  1
  P  P15  1  0.624390  0.999876  0.000000  1
  P  P16  1  0.999876  0.624390  0.000000  1
  Ru  Ru17  1  0.554339  0.554339  0.000000  1
  Ru  Ru18  1  0.445123  0.002211  0.000000  1
  Ru  Ru19  1  0.002211  0.445123  0.000000  1
  Ru  Ru20  1  0.716188  0.716188  0.500000  1
  Ru  Ru21  1  0.283916  0.002599  0.500000  1
  Ru  Ru22  1  0.002599  0.283916  0.500000  1
  Ru  Ru23  1  0.183963  0.370494  0.000000  1
  Ru  Ru24  1  0.623704  0.806913  0.000000  1
  Ru  Ru25  1  0.193502  0.817464  0.000000  1
  Ru  Ru26  1  0.806913  0.623704  0.000000  1
  Ru  Ru27  1  0.817464  0.193502  0.000000  1
  Ru  Ru28  1  0.370494  0.183963  0.000000  1
  Ru  Ru29  1  0.365145  0.490914  0.500000  1
  Ru  Ru30  1  0.507065  0.874468  0.500000  1
  Ru  Ru31  1  0.126231  0.633635  0.500000  1
  Ru  Ru32  1  0.874468  0.507065  0.500000  1
  Ru  Ru33  1  0.633635  0.126231  0.500000  1
  Ru  Ru34  1  0.490914  0.365145  0.500000  1
  Ru  Ru35  1  0.006852  0.006852  0.000000  1
