# generated using pymatgen
data_RbNp(GeO3)3
_symmetry_space_group_name_H-M   'P 1'
_cell_length_a   7.32406335
_cell_length_b   7.32376756
_cell_length_c   10.68248600
_cell_angle_alpha   90.00000000
_cell_angle_beta   90.00000000
_cell_angle_gamma   120.03660295
_symmetry_Int_Tables_number   1
_chemical_formula_structural   RbNp(GeO3)3
_chemical_formula_sum   'Rb2 Np2 Ge6 O18'
_cell_volume   496.05440070
_cell_formula_units_Z   2
loop_
 _symmetry_equiv_pos_site_id
 _symmetry_equiv_pos_as_xyz
  1  'x, y, z'
loop_
 _atom_site_type_symbol
 _atom_site_label
 _atom_site_symmetry_multiplicity
 _atom_site_fract_x
 _atom_site_fract_y
 _atom_site_fract_z
 _atom_site_occupancy
  Rb  Rb0  1  0.666670  0.333494  0.000002  1
  Rb  Rb1  1  0.666670  0.333494  0.499998  1
  Np  Np2  1  0.333385  0.666714  0.999992  1
  Np  Np3  1  0.333385  0.666714  0.500008  1
  Ge  Ge4  1  0.068853  0.280411  0.250000  1
  Ge  Ge5  1  0.211732  0.931157  0.250000  1
  Ge  Ge6  1  0.719495  0.788172  0.250000  1
  Ge  Ge7  1  0.719481  0.931082  0.750000  1
  Ge  Ge8  1  0.211704  0.280433  0.750000  1
  Ge  Ge9  1  0.068681  0.788224  0.750000  1
  O  O10  1  0.258335  0.195264  0.250000  1
  O  O11  1  0.936788  0.741611  0.250000  1
  O  O12  1  0.804872  0.062967  0.250000  1
  O  O13  1  0.804768  0.741656  0.750000  1
  O  O14  1  0.936856  0.195187  0.750000  1
  O  O15  1  0.258162  0.062969  0.750000  1
  O  O16  1  0.092462  0.427306  0.114460  1
  O  O17  1  0.334960  0.907744  0.385551  1
  O  O18  1  0.572813  0.665126  0.385475  1
  O  O19  1  0.572813  0.665126  0.114525  1
  O  O20  1  0.334960  0.907744  0.114449  1
  O  O21  1  0.572733  0.907678  0.885551  1
  O  O22  1  0.334838  0.427263  0.885486  1
  O  O23  1  0.092273  0.665112  0.885509  1
  O  O24  1  0.334838  0.427263  0.614514  1
  O  O25  1  0.092273  0.665112  0.614491  1
  O  O26  1  0.092462  0.427306  0.385540  1
  O  O27  1  0.572733  0.907678  0.614449  1
