# generated using pymatgen
data_Sm2Ga2(SiPd)3
_symmetry_space_group_name_H-M   'P 1'
_cell_length_a   8.40110443
_cell_length_b   8.40110434
_cell_length_c   8.40110415
_cell_angle_alpha   138.39173009
_cell_angle_beta   105.86812974
_cell_angle_gamma   88.78944760
_symmetry_Int_Tables_number   1
_chemical_formula_structural   Sm2Ga2(SiPd)3
_chemical_formula_sum   'Sm4 Ga4 Si6 Pd6'
_cell_volume   362.79480404
_cell_formula_units_Z   2
loop_
 _symmetry_equiv_pos_site_id
 _symmetry_equiv_pos_as_xyz
  1  'x, y, z'
loop_
 _atom_site_type_symbol
 _atom_site_label
 _atom_site_symmetry_multiplicity
 _atom_site_fract_x
 _atom_site_fract_y
 _atom_site_fract_z
 _atom_site_occupancy
  Sm  Sm0  1  0.636725  0.870376  0.766349  1
  Sm  Sm1  1  0.363275  0.129624  0.233651  1
  Sm  Sm2  1  0.104028  0.370376  0.733651  1
  Sm  Sm3  1  0.895972  0.629624  0.266349  1
  Ga  Ga4  1  0.273611  0.023611  0.750000  1
  Ga  Ga5  1  0.726389  0.976389  0.250000  1
  Ga  Ga6  1  0.726389  0.476389  0.750000  1
  Ga  Ga7  1  0.273611  0.523611  0.250000  1
  Si  Si8  1  0.457364  0.609100  0.848264  1
  Si  Si9  1  0.542636  0.390900  0.151736  1
  Si  Si10  1  0.760836  0.109100  0.651736  1
  Si  Si11  1  0.239164  0.890900  0.348264  1
  Si  Si12  1  0.000000  0.750000  0.750000  1
  Si  Si13  1  0.000000  0.250000  0.250000  1
  Pd  Pd14  1  0.243914  0.629760  0.614156  1
  Pd  Pd15  1  0.756086  0.370240  0.385844  1
  Pd  Pd16  1  0.015604  0.129760  0.885844  1
  Pd  Pd17  1  0.984396  0.870240  0.114156  1
  Pd  Pd18  1  0.500000  0.750000  0.250000  1
  Pd  Pd19  1  0.500000  0.250000  0.750000  1
