# generated using pymatgen
data_TbYSc2(B6Rh)2
_symmetry_space_group_name_H-M   'P 1'
_cell_length_a   3.56167400
_cell_length_b   9.01920011
_cell_length_c   11.38344800
_cell_angle_alpha   89.98970588
_cell_angle_beta   90.00000000
_cell_angle_gamma   90.00000000
_symmetry_Int_Tables_number   1
_chemical_formula_structural   TbYSc2(B6Rh)2
_chemical_formula_sum   'Tb2 Y2 Sc4 B24 Rh4'
_cell_volume   365.67562276
_cell_formula_units_Z   2
loop_
 _symmetry_equiv_pos_site_id
 _symmetry_equiv_pos_as_xyz
  1  'x, y, z'
loop_
 _atom_site_type_symbol
 _atom_site_label
 _atom_site_symmetry_multiplicity
 _atom_site_fract_x
 _atom_site_fract_y
 _atom_site_fract_z
 _atom_site_occupancy
  Tb  Tb0  1  0.500000  0.179228  0.914007  1
  Tb  Tb1  1  0.500000  0.820772  0.085993  1
  Y  Y2  1  0.500000  0.320699  0.413753  1
  Y  Y3  1  0.500000  0.679301  0.586247  1
  Sc  Sc4  1  0.500000  0.444897  0.125077  1
  Sc  Sc5  1  0.500000  0.555103  0.874923  1
  Sc  Sc6  1  0.500000  0.055001  0.625021  1
  Sc  Sc7  1  0.500000  0.944999  0.374979  1
  B  B8  1  0.000000  0.099965  0.473089  1
  B  B9  1  0.000000  0.900035  0.526911  1
  B  B10  1  0.000000  0.400240  0.973175  1
  B  B11  1  0.000000  0.599760  0.026825  1
  B  B12  1  0.000000  0.130212  0.318473  1
  B  B13  1  0.000000  0.869788  0.681527  1
  B  B14  1  0.000000  0.369950  0.818308  1
  B  B15  1  0.000000  0.630050  0.181692  1
  B  B16  1  0.000000  0.054900  0.066419  1
  B  B17  1  0.000000  0.945100  0.933581  1
  B  B18  1  0.000000  0.445105  0.566143  1
  B  B19  1  0.000000  0.554895  0.433857  1
  B  B20  1  0.000000  0.482142  0.285074  1
  B  B21  1  0.000000  0.517858  0.714926  1
  B  B22  1  0.000000  0.017787  0.784975  1
  B  B23  1  0.000000  0.982213  0.215025  1
  B  B24  1  0.000000  0.254152  0.080938  1
  B  B25  1  0.000000  0.745848  0.919062  1
  B  B26  1  0.000000  0.245936  0.580712  1
  B  B27  1  0.000000  0.754064  0.419288  1
  B  B28  1  0.000000  0.296107  0.235500  1
  B  B29  1  0.000000  0.703893  0.764500  1
  B  B30  1  0.000000  0.204023  0.735186  1
  B  B31  1  0.000000  0.795977  0.264814  1
  Rh  Rh32  1  0.500000  0.141849  0.181789  1
  Rh  Rh33  1  0.500000  0.858151  0.818211  1
  Rh  Rh34  1  0.500000  0.357905  0.681653  1
  Rh  Rh35  1  0.500000  0.642095  0.318347  1
