# generated using pymatgen
data_Nd3ThCd2(CuNi)2
_symmetry_space_group_name_H-M   'P 1'
_cell_length_a   7.68226862
_cell_length_b   7.74734690
_cell_length_c   3.77832700
_cell_angle_alpha   90.00000000
_cell_angle_beta   90.00000000
_cell_angle_gamma   91.63852378
_symmetry_Int_Tables_number   1
_chemical_formula_structural   Nd3ThCd2(CuNi)2
_chemical_formula_sum   'Nd3 Th1 Cd2 Cu2 Ni2'
_cell_volume   224.78349560
_cell_formula_units_Z   1
loop_
 _symmetry_equiv_pos_site_id
 _symmetry_equiv_pos_as_xyz
  1  'x, y, z'
loop_
 _atom_site_type_symbol
 _atom_site_label
 _atom_site_symmetry_multiplicity
 _atom_site_fract_x
 _atom_site_fract_y
 _atom_site_fract_z
 _atom_site_occupancy
  Nd  Nd0  1  0.825302  0.685728  0.500000  1
  Nd  Nd1  1  0.174871  0.335333  0.500000  1
  Nd  Nd2  1  0.676372  0.162149  0.500000  1
  Th  Th3  1  0.329357  0.810508  0.500000  1
  Cd  Cd4  1  0.003910  0.002712  0.000000  1
  Cd  Cd5  1  0.506397  0.492617  0.000000  1
  Cu  Cu6  1  0.376075  0.114667  0.000000  1
  Cu  Cu7  1  0.881861  0.389683  0.000000  1
  Ni  Ni8  1  0.127627  0.630023  0.000000  1
  Ni  Ni9  1  0.598229  0.876580  0.000000  1
