# generated using pymatgen
data_SmDy6CoI12
_symmetry_space_group_name_H-M   'P 1'
_cell_length_a   9.77531478
_cell_length_b   9.77402853
_cell_length_c   9.78560873
_cell_angle_alpha   106.85447324
_cell_angle_beta   106.90602830
_cell_angle_gamma   106.72847927
_symmetry_Int_Tables_number   1
_chemical_formula_structural   SmDy6CoI12
_chemical_formula_sum   'Sm1 Dy6 Co1 I12'
_cell_volume   782.23050207
_cell_formula_units_Z   1
loop_
 _symmetry_equiv_pos_site_id
 _symmetry_equiv_pos_as_xyz
  1  'x, y, z'
loop_
 _atom_site_type_symbol
 _atom_site_label
 _atom_site_symmetry_multiplicity
 _atom_site_fract_x
 _atom_site_fract_y
 _atom_site_fract_z
 _atom_site_occupancy
  Sm  Sm0  1  0.906100  0.978591  0.707423  1
  Dy  Dy1  1  0.500111  0.500011  0.500337  1
  Dy  Dy2  1  0.286847  0.091567  0.022274  1
  Dy  Dy3  1  0.021421  0.286902  0.093122  1
  Dy  Dy4  1  0.091885  0.021145  0.286501  1
  Dy  Dy5  1  0.713681  0.908424  0.979710  1
  Dy  Dy6  1  0.979324  0.713339  0.909543  1
  Co  Co7  1  0.000066  0.000125  0.000375  1
  I  I8  1  0.462214  0.161576  0.385395  1
  I  I9  1  0.385280  0.461995  0.161761  1
  I  I10  1  0.161764  0.385628  0.462281  1
  I  I11  1  0.533747  0.836885  0.614525  1
  I  I12  1  0.614700  0.538027  0.838540  1
  I  I13  1  0.838079  0.611019  0.537234  1
  I  I14  1  0.322895  0.776737  0.929957  1
  I  I15  1  0.930702  0.327292  0.778997  1
  I  I16  1  0.775603  0.929274  0.320503  1
  I  I17  1  0.677208  0.223263  0.070123  1
  I  I18  1  0.070064  0.676692  0.223500  1
  I  I19  1  0.228310  0.071511  0.677897  1
