# generated using pymatgen
data_Dy12Cu3Si8Rh
_symmetry_space_group_name_H-M   'P 1'
_cell_length_a   4.16618400
_cell_length_b   11.32563455
_cell_length_c   11.33803501
_cell_angle_alpha   90.11681219
_cell_angle_beta   90.00000000
_cell_angle_gamma   90.00000000
_symmetry_Int_Tables_number   1
_chemical_formula_structural   Dy12Cu3Si8Rh
_chemical_formula_sum   'Dy12 Cu3 Si8 Rh1'
_cell_volume   534.98041329
_cell_formula_units_Z   1
loop_
 _symmetry_equiv_pos_site_id
 _symmetry_equiv_pos_as_xyz
  1  'x, y, z'
loop_
 _atom_site_type_symbol
 _atom_site_label
 _atom_site_symmetry_multiplicity
 _atom_site_fract_x
 _atom_site_fract_y
 _atom_site_fract_z
 _atom_site_occupancy
  Dy  Dy0  1  0.250000  0.058252  0.876891  1
  Dy  Dy1  1  0.250000  0.436986  0.378082  1
  Dy  Dy2  1  0.750000  0.936160  0.120752  1
  Dy  Dy3  1  0.750000  0.560688  0.619729  1
  Dy  Dy4  1  0.250000  0.123299  0.555564  1
  Dy  Dy5  1  0.250000  0.380594  0.059565  1
  Dy  Dy6  1  0.750000  0.878026  0.440337  1
  Dy  Dy7  1  0.750000  0.624905  0.941589  1
  Dy  Dy8  1  0.250000  0.804110  0.711301  1
  Dy  Dy9  1  0.250000  0.696389  0.210692  1
  Dy  Dy10  1  0.750000  0.195749  0.290105  1
  Dy  Dy11  1  0.750000  0.303709  0.791350  1
  Cu  Cu12  1  0.250000  0.362909  0.631990  1
  Cu  Cu13  1  0.250000  0.136384  0.130691  1
  Cu  Cu14  1  0.750000  0.636400  0.369430  1
  Si  Si15  1  0.250000  0.811704  0.980668  1
  Si  Si16  1  0.250000  0.684438  0.476342  1
  Si  Si17  1  0.750000  0.187885  0.025824  1
  Si  Si18  1  0.750000  0.314207  0.523982  1
  Si  Si19  1  0.250000  0.495118  0.806019  1
  Si  Si20  1  0.250000  0.004598  0.305401  1
  Si  Si21  1  0.750000  0.503763  0.195866  1
  Si  Si22  1  0.750000  0.996330  0.689253  1
  Rh  Rh23  1  0.750000  0.867398  0.868580  1
