# generated using pymatgen
data_Cs2Hf2S9
_symmetry_space_group_name_H-M   'P 1'
_cell_length_a   10.76288304
_cell_length_b   10.76288170
_cell_length_c   10.76288163
_cell_angle_alpha   83.10017475
_cell_angle_beta   83.10017277
_cell_angle_gamma   83.10017131
_symmetry_Int_Tables_number   1
_chemical_formula_structural   Cs2Hf2S9
_chemical_formula_sum   'Cs6 Hf6 S27'
_cell_volume   1221.68735646
_cell_formula_units_Z   3
loop_
 _symmetry_equiv_pos_site_id
 _symmetry_equiv_pos_as_xyz
  1  'x, y, z'
loop_
 _atom_site_type_symbol
 _atom_site_label
 _atom_site_symmetry_multiplicity
 _atom_site_fract_x
 _atom_site_fract_y
 _atom_site_fract_z
 _atom_site_occupancy
  Cs  Cs0  1  0.657413  0.657413  0.657413  1
  Cs  Cs1  1  0.440531  0.783917  0.175269  1
  Cs  Cs2  1  0.783917  0.175269  0.440531  1
  Cs  Cs3  1  0.237381  0.237381  0.237381  1
  Cs  Cs4  1  0.175269  0.440531  0.783917  1
  Cs  Cs5  1  0.998147  0.998147  0.998147  1
  Hf  Hf6  1  0.868358  0.529971  0.170172  1
  Hf  Hf7  1  0.993126  0.731826  0.334603  1
  Hf  Hf8  1  0.529971  0.170172  0.868358  1
  Hf  Hf9  1  0.731826  0.334603  0.993126  1
  Hf  Hf10  1  0.334603  0.993126  0.731826  1
  Hf  Hf11  1  0.170172  0.868358  0.529971  1
  S  S12  1  0.915556  0.308462  0.118724  1
  S  S13  1  0.400935  0.893927  0.507479  1
  S  S14  1  0.818881  0.787977  0.195999  1
  S  S15  1  0.708163  0.509887  0.356442  1
  S  S16  1  0.787977  0.195999  0.818881  1
  S  S17  1  0.380997  0.774202  0.835734  1
  S  S18  1  0.172889  0.553721  0.327606  1
  S  S19  1  0.601970  0.155608  0.096167  1
  S  S20  1  0.327606  0.172889  0.553721  1
  S  S21  1  0.011063  0.707919  0.577906  1
  S  S22  1  0.707919  0.577906  0.011063  1
  S  S23  1  0.308462  0.118724  0.915556  1
  S  S24  1  0.509887  0.356442  0.708163  1
  S  S25  1  0.950227  0.883646  0.643939  1
  S  S26  1  0.118724  0.915556  0.308462  1
  S  S27  1  0.356442  0.708163  0.509887  1
  S  S28  1  0.643939  0.950227  0.883646  1
  S  S29  1  0.883646  0.643939  0.950227  1
  S  S30  1  0.155608  0.096167  0.601970  1
  S  S31  1  0.893927  0.507479  0.400935  1
  S  S32  1  0.774202  0.835734  0.380997  1
  S  S33  1  0.195999  0.818881  0.787977  1
  S  S34  1  0.507479  0.400935  0.893927  1
  S  S35  1  0.835734  0.380997  0.774202  1
  S  S36  1  0.577906  0.011063  0.707919  1
  S  S37  1  0.553721  0.327606  0.172889  1
  S  S38  1  0.096167  0.601970  0.155608  1
