# generated using pymatgen
data_TbHo5(B7W)2
_symmetry_space_group_name_H-M   'P 1'
_cell_length_a   8.15352109
_cell_length_b   8.15352172
_cell_length_c   9.49030200
_cell_angle_alpha   90.00000000
_cell_angle_beta   90.00000000
_cell_angle_gamma   155.55721140
_symmetry_Int_Tables_number   1
_chemical_formula_structural   TbHo5(B7W)2
_chemical_formula_sum   'Tb1 Ho5 B14 W2'
_cell_volume   261.06256040
_cell_formula_units_Z   1
loop_
 _symmetry_equiv_pos_site_id
 _symmetry_equiv_pos_as_xyz
  1  'x, y, z'
loop_
 _atom_site_type_symbol
 _atom_site_label
 _atom_site_symmetry_multiplicity
 _atom_site_fract_x
 _atom_site_fract_y
 _atom_site_fract_z
 _atom_site_occupancy
  Tb  Tb0  1  0.754176  0.245824  0.750000  1
  Ho  Ho1  1  0.892750  0.107250  0.439434  1
  Ho  Ho2  1  0.107113  0.892887  0.559812  1
  Ho  Ho3  1  0.892750  0.107250  0.060566  1
  Ho  Ho4  1  0.107113  0.892887  0.940188  1
  Ho  Ho5  1  0.244879  0.755121  0.250000  1
  B  B6  1  0.727763  0.272237  0.466388  1
  B  B7  1  0.272539  0.727461  0.531399  1
  B  B8  1  0.727763  0.272237  0.033612  1
  B  B9  1  0.272539  0.727461  0.968601  1
  B  B10  1  0.635239  0.364761  0.147107  1
  B  B11  1  0.364918  0.635082  0.853496  1
  B  B12  1  0.635239  0.364761  0.352893  1
  B  B13  1  0.364918  0.635082  0.646504  1
  B  B14  1  0.519644  0.480356  0.091458  1
  B  B15  1  0.480385  0.519615  0.908574  1
  B  B16  1  0.519644  0.480356  0.408542  1
  B  B17  1  0.480385  0.519615  0.591426  1
  B  B18  1  0.455029  0.544971  0.250000  1
  B  B19  1  0.545153  0.454847  0.750000  1
  W  W20  1  0.053219  0.946781  0.250000  1
  W  W21  1  0.946840  0.053160  0.750000  1
