# generated using pymatgen
data_La16SmEr3Pb16
_symmetry_space_group_name_H-M   'P 1'
_cell_length_a   8.56263000
_cell_length_b   8.66344117
_cell_length_c   16.60013900
_cell_angle_alpha   90.00000000
_cell_angle_beta   90.00000000
_cell_angle_gamma   89.98877687
_symmetry_Int_Tables_number   1
_chemical_formula_structural   La16SmEr3Pb16
_chemical_formula_sum   'La16 Sm1 Er3 Pb16'
_cell_volume   1231.42885212
_cell_formula_units_Z   1
loop_
 _symmetry_equiv_pos_site_id
 _symmetry_equiv_pos_as_xyz
  1  'x, y, z'
loop_
 _atom_site_type_symbol
 _atom_site_label
 _atom_site_symmetry_multiplicity
 _atom_site_fract_x
 _atom_site_fract_y
 _atom_site_fract_z
 _atom_site_occupancy
  La  La0  1  0.376366  0.845638  0.881633  1
  La  La1  1  0.875129  0.655238  0.618282  1
  La  La2  1  0.623953  0.154884  0.381277  1
  La  La3  1  0.124269  0.345293  0.118871  1
  La  La4  1  0.623953  0.154884  0.118723  1
  La  La5  1  0.124269  0.345293  0.381129  1
  La  La6  1  0.376366  0.845638  0.618367  1
  La  La7  1  0.875129  0.655238  0.881718  1
  La  La8  1  0.535136  0.321423  0.899984  1
  La  La9  1  0.034255  0.177597  0.600037  1
  La  La10  1  0.465325  0.678194  0.399575  1
  La  La11  1  0.965407  0.821553  0.100273  1
  La  La12  1  0.465325  0.678194  0.100425  1
  La  La13  1  0.965407  0.821553  0.399727  1
  La  La14  1  0.535136  0.321423  0.600016  1
  La  La15  1  0.034255  0.177597  0.899963  1
  Sm  Sm16  1  0.211823  0.502520  0.750000  1
  Er  Er17  1  0.713595  0.996338  0.750000  1
  Er  Er18  1  0.786698  0.497323  0.250000  1
  Er  Er19  1  0.286491  0.002982  0.250000  1
  Pb  Pb20  1  0.281153  0.028892  0.048909  1
  Pb  Pb21  1  0.780979  0.471114  0.451206  1
  Pb  Pb22  1  0.719121  0.971357  0.548949  1
  Pb  Pb23  1  0.219106  0.529211  0.951936  1
  Pb  Pb24  1  0.719121  0.971357  0.951051  1
  Pb  Pb25  1  0.219106  0.529211  0.548064  1
  Pb  Pb26  1  0.281153  0.028892  0.451091  1
  Pb  Pb27  1  0.780979  0.471114  0.048794  1
  Pb  Pb28  1  0.571952  0.624735  0.750000  1
  Pb  Pb29  1  0.070017  0.876956  0.750000  1
  Pb  Pb30  1  0.430032  0.375545  0.250000  1
  Pb  Pb31  1  0.929763  0.124628  0.250000  1
  Pb  Pb32  1  0.343551  0.152227  0.750000  1
  Pb  Pb33  1  0.842599  0.345868  0.750000  1
  Pb  Pb34  1  0.656685  0.845326  0.250000  1
  Pb  Pb35  1  0.156394  0.654762  0.250000  1
