# generated using pymatgen
data_Ho13Th3(CdIr)4
_symmetry_space_group_name_H-M   'P 1'
_cell_length_a   9.69701853
_cell_length_b   9.69186734
_cell_length_c   9.69186800
_cell_angle_alpha   60.00000459
_cell_angle_beta   60.01757541
_cell_angle_gamma   60.01757707
_symmetry_Int_Tables_number   1
_chemical_formula_structural   Ho13Th3(CdIr)4
_chemical_formula_sum   'Ho13 Th3 Cd4 Ir4'
_cell_volume   644.24865413
_cell_formula_units_Z   1
loop_
 _symmetry_equiv_pos_site_id
 _symmetry_equiv_pos_as_xyz
  1  'x, y, z'
loop_
 _atom_site_type_symbol
 _atom_site_label
 _atom_site_symmetry_multiplicity
 _atom_site_fract_x
 _atom_site_fract_y
 _atom_site_fract_z
 _atom_site_occupancy
  Ho  Ho0  1  0.198356  0.600548  0.600548  1
  Ho  Ho1  1  0.061909  0.439322  0.439322  1
  Ho  Ho2  1  0.438074  0.062106  0.062106  1
  Ho  Ho3  1  0.438074  0.062106  0.437713  1
  Ho  Ho4  1  0.061909  0.439322  0.059448  1
  Ho  Ho5  1  0.438074  0.437713  0.062106  1
  Ho  Ho6  1  0.061909  0.059448  0.439322  1
  Ho  Ho7  1  0.186027  0.813631  0.813631  1
  Ho  Ho8  1  0.814667  0.185251  0.185251  1
  Ho  Ho9  1  0.814667  0.185251  0.814832  1
  Ho  Ho10  1  0.186027  0.813631  0.186711  1
  Ho  Ho11  1  0.814667  0.814832  0.185251  1
  Ho  Ho12  1  0.186027  0.186711  0.813631  1
  Th  Th13  1  0.597956  0.600067  0.600067  1
  Th  Th14  1  0.597956  0.600067  0.201910  1
  Th  Th15  1  0.597956  0.201910  0.600067  1
  Cd  Cd16  1  0.833878  0.831292  0.831292  1
  Cd  Cd17  1  0.833878  0.831292  0.503538  1
  Cd  Cd18  1  0.833878  0.503538  0.831292  1
  Cd  Cd19  1  0.502315  0.832561  0.832561  1
  Ir  Ir20  1  0.393227  0.391881  0.391881  1
  Ir  Ir21  1  0.393227  0.391881  0.823011  1
  Ir  Ir22  1  0.393227  0.823011  0.391881  1
  Ir  Ir23  1  0.822117  0.392628  0.392628  1
