# generated using pymatgen
data_Dy13Tm3MgIn3Rh4
_symmetry_space_group_name_H-M   'P 1'
_cell_length_a   9.64596497
_cell_length_b   9.64969341
_cell_length_c   9.65714093
_cell_angle_alpha   60.06410394
_cell_angle_beta   60.04303800
_cell_angle_gamma   59.93487784
_symmetry_Int_Tables_number   1
_chemical_formula_structural   Dy13Tm3MgIn3Rh4
_chemical_formula_sum   'Dy13 Tm3 Mg1 In3 Rh4'
_cell_volume   635.81296444
_cell_formula_units_Z   1
loop_
 _symmetry_equiv_pos_site_id
 _symmetry_equiv_pos_as_xyz
  1  'x, y, z'
loop_
 _atom_site_type_symbol
 _atom_site_label
 _atom_site_symmetry_multiplicity
 _atom_site_fract_x
 _atom_site_fract_y
 _atom_site_fract_z
 _atom_site_occupancy
  Dy  Dy0  1  0.935243  0.935109  0.562649  1
  Dy  Dy1  1  0.149282  0.148757  0.549586  1
  Dy  Dy2  1  0.563421  0.937335  0.561216  1
  Dy  Dy3  1  0.152859  0.152557  0.152430  1
  Dy  Dy4  1  0.309999  0.310116  0.690803  1
  Dy  Dy5  1  0.937849  0.562842  0.560956  1
  Dy  Dy6  1  0.561895  0.561730  0.939026  1
  Dy  Dy7  1  0.563660  0.936527  0.935876  1
  Dy  Dy8  1  0.936537  0.563475  0.936139  1
  Dy  Dy9  1  0.149002  0.548013  0.149728  1
  Dy  Dy10  1  0.311686  0.690088  0.690458  1
  Dy  Dy11  1  0.690023  0.311812  0.690256  1
  Dy  Dy12  1  0.547512  0.148903  0.150094  1
  Tm  Tm13  1  0.688615  0.313118  0.312159  1
  Tm  Tm14  1  0.686528  0.686580  0.315512  1
  Tm  Tm15  1  0.313069  0.688712  0.312045  1
  Mg  Mg16  1  0.923526  0.924030  0.230716  1
  In  In17  1  0.247824  0.916793  0.919235  1
  In  In18  1  0.916673  0.247713  0.919326  1
  In  In19  1  0.916636  0.916961  0.918496  1
  Rh  Rh20  1  0.357791  0.358393  0.358686  1
  Rh  Rh21  1  0.924432  0.358605  0.358785  1
  Rh  Rh22  1  0.357561  0.357852  0.926785  1
  Rh  Rh23  1  0.358381  0.923981  0.359038  1
