# generated using pymatgen
data_Y6Ni11B4Ir3
_symmetry_space_group_name_H-M   'P 1'
_cell_length_a   5.11132701
_cell_length_b   5.15059964
_cell_length_c   14.65397825
_cell_angle_alpha   89.66942176
_cell_angle_beta   90.00059344
_cell_angle_gamma   119.74186648
_symmetry_Int_Tables_number   1
_chemical_formula_structural   Y6Ni11B4Ir3
_chemical_formula_sum   'Y6 Ni11 B4 Ir3'
_cell_volume   334.95915326
_cell_formula_units_Z   1
loop_
 _symmetry_equiv_pos_site_id
 _symmetry_equiv_pos_as_xyz
  1  'x, y, z'
loop_
 _atom_site_type_symbol
 _atom_site_label
 _atom_site_symmetry_multiplicity
 _atom_site_fract_x
 _atom_site_fract_y
 _atom_site_fract_z
 _atom_site_occupancy
  Y  Y0  1  0.668070  0.336130  0.032042  1
  Y  Y1  1  0.666812  0.333630  0.251524  1
  Y  Y2  1  0.666319  0.332636  0.470048  1
  Y  Y3  1  0.333850  0.667736  0.530766  1
  Y  Y4  1  0.333378  0.666752  0.749747  1
  Y  Y5  1  0.335418  0.670869  0.968138  1
  Ni  Ni6  1  0.164752  0.834139  0.151984  1
  Ni  Ni7  1  0.669417  0.834132  0.151993  1
  Ni  Ni8  1  0.165456  0.835424  0.349595  1
  Ni  Ni9  1  0.669971  0.835422  0.349605  1
  Ni  Ni10  1  0.164804  0.329614  0.349098  1
  Ni  Ni11  1  0.835744  0.671493  0.653292  1
  Ni  Ni12  1  0.330344  0.165834  0.652853  1
  Ni  Ni13  1  0.835477  0.165841  0.652852  1
  Ni  Ni14  1  0.328961  0.163218  0.845746  1
  Ni  Ni15  1  0.834261  0.163219  0.845751  1
  Ni  Ni16  1  0.834271  0.668547  0.844871  1
  B  B17  1  0.997130  0.994259  0.251977  1
  B  B18  1  0.337098  0.674161  0.252276  1
  B  B19  1  0.999666  0.999320  0.749371  1
  B  B20  1  0.666181  0.332391  0.749246  1
  Ir  Ir21  1  0.996928  0.993867  0.995781  1
  Ir  Ir22  1  0.165508  0.330990  0.150191  1
  Ir  Ir23  1  0.000181  0.000370  0.501251  1
