# generated using pymatgen
data_YbSc3Re4(B4Ru3)2
_symmetry_space_group_name_H-M   'P 1'
_cell_length_a   3.03429400
_cell_length_b   8.58630901
_cell_length_c   10.07789011
_cell_angle_alpha   89.99372257
_cell_angle_beta   90.00000000
_cell_angle_gamma   90.00000000
_symmetry_Int_Tables_number   1
_chemical_formula_structural   YbSc3Re4(B4Ru3)2
_chemical_formula_sum   'Yb1 Sc3 Re4 B8 Ru6'
_cell_volume   262.56315855
_cell_formula_units_Z   1
loop_
 _symmetry_equiv_pos_site_id
 _symmetry_equiv_pos_as_xyz
  1  'x, y, z'
loop_
 _atom_site_type_symbol
 _atom_site_label
 _atom_site_symmetry_multiplicity
 _atom_site_fract_x
 _atom_site_fract_y
 _atom_site_fract_z
 _atom_site_occupancy
  Yb  Yb0  1  0.500000  0.843684  0.181460  1
  Sc  Sc1  1  0.500000  0.156669  0.818114  1
  Sc  Sc2  1  0.500000  0.656384  0.681979  1
  Sc  Sc3  1  0.500000  0.344299  0.317268  1
  Re  Re4  1  0.000000  0.658024  0.949687  1
  Re  Re5  1  0.000000  0.340767  0.046083  1
  Re  Re6  1  0.000000  0.839443  0.456425  1
  Re  Re7  1  0.000000  0.159388  0.548170  1
  B  B8  1  0.500000  0.964819  0.589809  1
  B  B9  1  0.500000  0.035603  0.411848  1
  B  B10  1  0.500000  0.848134  0.901254  1
  B  B11  1  0.500000  0.152909  0.098474  1
  B  B12  1  0.500000  0.650963  0.402311  1
  B  B13  1  0.500000  0.347741  0.598574  1
  B  B14  1  0.500000  0.462979  0.910690  1
  B  B15  1  0.500000  0.535540  0.088149  1
  Ru  Ru16  1  0.000000  0.004716  0.995951  1
  Ru  Ru17  1  0.000000  0.402469  0.759789  1
  Ru  Ru18  1  0.000000  0.591875  0.241379  1
  Ru  Ru19  1  0.000000  0.499425  0.501589  1
  Ru  Ru20  1  0.000000  0.902296  0.739839  1
  Ru  Ru21  1  0.000000  0.101874  0.261159  1
