# generated using pymatgen
data_Cs6Si2AgO8
_symmetry_space_group_name_H-M   'P 1'
_cell_length_a   6.95598864
_cell_length_b   7.42739698
_cell_length_c   8.31660941
_cell_angle_alpha   83.60770994
_cell_angle_beta   87.01281274
_cell_angle_gamma   69.34676280
_symmetry_Int_Tables_number   1
_chemical_formula_structural   Cs6Si2AgO8
_chemical_formula_sum   'Cs6 Si2 Ag1 O8'
_cell_volume   399.52456263
_cell_formula_units_Z   1
loop_
 _symmetry_equiv_pos_site_id
 _symmetry_equiv_pos_as_xyz
  1  'x, y, z'
loop_
 _atom_site_type_symbol
 _atom_site_label
 _atom_site_symmetry_multiplicity
 _atom_site_fract_x
 _atom_site_fract_y
 _atom_site_fract_z
 _atom_site_occupancy
  Cs  Cs0  1  0.201873  0.696472  0.025273  1
  Cs  Cs1  1  0.653252  0.825300  0.172869  1
  Cs  Cs2  1  0.722170  0.192839  0.446412  1
  Cs  Cs3  1  0.277828  0.807161  0.553588  1
  Cs  Cs4  1  0.346749  0.174701  0.827130  1
  Cs  Cs5  1  0.798128  0.303528  0.974727  1
  Si  Si6  1  0.218753  0.241360  0.267437  1
  Si  Si7  1  0.781248  0.758640  0.732563  1
  Ag  Ag8  1  0.999999  0.500000  0.500000  1
  O  O9  1  0.415750  0.274365  0.166476  1
  O  O10  1  0.175803  0.050654  0.217279  1
  O  O11  1  0.003495  0.439939  0.243674  1
  O  O12  1  0.254343  0.225512  0.469183  1
  O  O13  1  0.745657  0.774489  0.530817  1
  O  O14  1  0.996505  0.560061  0.756325  1
  O  O15  1  0.824199  0.949346  0.782721  1
  O  O16  1  0.584250  0.725636  0.833524  1
