# generated using pymatgen
data_La2Eu(PPd)4
_symmetry_space_group_name_H-M   'P 1'
_cell_length_a   4.14083700
_cell_length_b   4.20004100
_cell_length_c   12.37186200
_cell_angle_alpha   90.00000000
_cell_angle_beta   90.00000000
_cell_angle_gamma   90.00000000
_symmetry_Int_Tables_number   1
_chemical_formula_structural   La2Eu(PPd)4
_chemical_formula_sum   'La2 Eu1 P4 Pd4'
_cell_volume   215.16752892
_cell_formula_units_Z   1
loop_
 _symmetry_equiv_pos_site_id
 _symmetry_equiv_pos_as_xyz
  1  'x, y, z'
loop_
 _atom_site_type_symbol
 _atom_site_label
 _atom_site_symmetry_multiplicity
 _atom_site_fract_x
 _atom_site_fract_y
 _atom_site_fract_z
 _atom_site_occupancy
  La  La0  1  0.500000  0.500000  0.295179  1
  La  La1  1  0.500000  0.500000  0.704821  1
  Eu  Eu2  1  0.500000  0.000000  0.000000  1
  P  P3  1  0.000000  0.000000  0.383613  1
  P  P4  1  0.000000  0.500000  0.093326  1
  P  P5  1  0.000000  0.000000  0.616387  1
  P  P6  1  0.000000  0.500000  0.906674  1
  Pd  Pd7  1  0.000000  0.000000  0.811584  1
  Pd  Pd8  1  0.000000  0.000000  0.188416  1
  Pd  Pd9  1  0.500000  0.000000  0.500000  1
  Pd  Pd10  1  0.000000  0.500000  0.500000  1
