# generated using pymatgen
data_ZrScGaFe3
_symmetry_space_group_name_H-M   'P 1'
_cell_length_a   5.02626500
_cell_length_b   5.02626460
_cell_length_c   8.13432300
_cell_angle_alpha   90.00000000
_cell_angle_beta   90.00000000
_cell_angle_gamma   119.99999607
_symmetry_Int_Tables_number   1
_chemical_formula_structural   ZrScGaFe3
_chemical_formula_sum   'Zr2 Sc2 Ga2 Fe6'
_cell_volume   177.96835738
_cell_formula_units_Z   2
loop_
 _symmetry_equiv_pos_site_id
 _symmetry_equiv_pos_as_xyz
  1  'x, y, z'
loop_
 _atom_site_type_symbol
 _atom_site_label
 _atom_site_symmetry_multiplicity
 _atom_site_fract_x
 _atom_site_fract_y
 _atom_site_fract_z
 _atom_site_occupancy
  Zr  Zr0  1  0.666667  0.333333  0.930087  1
  Zr  Zr1  1  0.333333  0.666667  0.069913  1
  Sc  Sc2  1  0.333333  0.666667  0.438168  1
  Sc  Sc3  1  0.666667  0.333333  0.561832  1
  Ga  Ga4  1  0.000000  0.000000  0.500000  1
  Ga  Ga5  1  0.000000  0.000000  0.000000  1
  Fe  Fe6  1  0.826198  0.173802  0.248850  1
  Fe  Fe7  1  0.826198  0.652397  0.248850  1
  Fe  Fe8  1  0.347603  0.173802  0.248850  1
  Fe  Fe9  1  0.173802  0.826198  0.751150  1
  Fe  Fe10  1  0.173802  0.347603  0.751150  1
  Fe  Fe11  1  0.652397  0.826198  0.751150  1
