# generated using pymatgen
data_KTcS2O9
_symmetry_space_group_name_H-M   'P 1'
_cell_length_a   5.15952500
_cell_length_b   8.41041744
_cell_length_c   9.09669221
_cell_angle_alpha   77.45688573
_cell_angle_beta   90.00000000
_cell_angle_gamma   90.00000000
_symmetry_Int_Tables_number   1
_chemical_formula_structural   KTcS2O9
_chemical_formula_sum   'K2 Tc2 S4 O18'
_cell_volume   385.31836410
_cell_formula_units_Z   2
loop_
 _symmetry_equiv_pos_site_id
 _symmetry_equiv_pos_as_xyz
  1  'x, y, z'
loop_
 _atom_site_type_symbol
 _atom_site_label
 _atom_site_symmetry_multiplicity
 _atom_site_fract_x
 _atom_site_fract_y
 _atom_site_fract_z
 _atom_site_occupancy
  K  K0  1  0.250000  0.424030  0.226427  1
  K  K1  1  0.750000  0.575970  0.773573  1
  Tc  Tc2  1  0.250000  0.913798  0.255357  1
  Tc  Tc3  1  0.750000  0.086202  0.744643  1
  S  S4  1  0.250000  0.327079  0.653956  1
  S  S5  1  0.750000  0.672921  0.346044  1
  S  S6  1  0.250000  0.843571  0.891042  1
  S  S7  1  0.750000  0.156429  0.108958  1
  O  O8  1  0.250000  0.258826  0.520833  1
  O  O9  1  0.750000  0.741174  0.479167  1
  O  O10  1  0.250000  0.503404  0.633411  1
  O  O11  1  0.750000  0.496596  0.366589  1
  O  O12  1  0.008922  0.268286  0.752441  1
  O  O13  1  0.508922  0.731714  0.247559  1
  O  O14  1  0.991078  0.731714  0.247559  1
  O  O15  1  0.491078  0.268286  0.752441  1
  O  O16  1  0.250000  0.933189  0.014755  1
  O  O17  1  0.750000  0.066811  0.985245  1
  O  O18  1  0.250000  0.667473  0.939468  1
  O  O19  1  0.750000  0.332527  0.060532  1
  O  O20  1  0.009258  0.891853  0.795928  1
  O  O21  1  0.509258  0.108147  0.204072  1
  O  O22  1  0.990742  0.108147  0.204072  1
  O  O23  1  0.490742  0.891853  0.795928  1
  O  O24  1  0.250000  0.885422  0.441078  1
  O  O25  1  0.750000  0.114578  0.558922  1
