# generated using pymatgen
data_Hf2ZrSi3MoRu2
_symmetry_space_group_name_H-M   'P 1'
_cell_length_a   7.70634843
_cell_length_b   7.70634696
_cell_length_c   7.70634819
_cell_angle_alpha   126.59939338
_cell_angle_beta   125.27775212
_cell_angle_gamma   79.99366558
_symmetry_Int_Tables_number   1
_chemical_formula_structural   Hf2ZrSi3MoRu2
_chemical_formula_sum   'Hf4 Zr2 Si6 Mo2 Ru4'
_cell_volume   289.61212039
_cell_formula_units_Z   2
loop_
 _symmetry_equiv_pos_site_id
 _symmetry_equiv_pos_as_xyz
  1  'x, y, z'
loop_
 _atom_site_type_symbol
 _atom_site_label
 _atom_site_symmetry_multiplicity
 _atom_site_fract_x
 _atom_site_fract_y
 _atom_site_fract_z
 _atom_site_occupancy
  Hf  Hf0  1  0.747177  0.839310  0.592134  1
  Hf  Hf1  1  0.252823  0.844956  0.092134  1
  Hf  Hf2  1  0.053878  0.259294  0.705415  1
  Hf  Hf3  1  0.946122  0.651538  0.205415  1
  Zr  Zr4  1  0.458952  0.678662  0.719710  1
  Zr  Zr5  1  0.541048  0.260759  0.219710  1
  Si  Si6  1  0.265506  0.257385  0.491879  1
  Si  Si7  1  0.734494  0.226370  0.991879  1
  Si  Si8  1  0.326119  0.588764  0.251284  1
  Si  Si9  1  0.673881  0.925166  0.262645  1
  Si  Si10  1  0.162521  0.925166  0.751284  1
  Si  Si11  1  0.837479  0.588764  0.762645  1
  Mo  Mo12  1  0.500000  0.502406  0.002406  1
  Mo  Mo13  1  0.000000  0.502406  0.502406  1
  Ru  Ru14  1  0.103514  0.252693  0.105150  1
  Ru  Ru15  1  0.896486  0.001636  0.149180  1
  Ru  Ru16  1  0.352456  0.001636  0.605150  1
  Ru  Ru17  1  0.647544  0.252693  0.649180  1
