# generated using pymatgen
data_YEr3Ga18(Co2Pd)2
_symmetry_space_group_name_H-M   'P 1'
_cell_length_a   7.45918671
_cell_length_b   7.45955084
_cell_length_c   9.39091500
_cell_angle_alpha   90.00000000
_cell_angle_beta   90.00000000
_cell_angle_gamma   119.57619105
_symmetry_Int_Tables_number   1
_chemical_formula_structural   YEr3Ga18(Co2Pd)2
_chemical_formula_sum   'Y1 Er3 Ga18 Co4 Pd2'
_cell_volume   454.44527310
_cell_formula_units_Z   1
loop_
 _symmetry_equiv_pos_site_id
 _symmetry_equiv_pos_as_xyz
  1  'x, y, z'
loop_
 _atom_site_type_symbol
 _atom_site_label
 _atom_site_symmetry_multiplicity
 _atom_site_fract_x
 _atom_site_fract_y
 _atom_site_fract_z
 _atom_site_occupancy
  Y  Y0  1  0.503468  0.823801  0.750000  1
  Er  Er1  1  0.496633  0.176533  0.250000  1
  Er  Er2  1  0.176285  0.496498  0.250000  1
  Er  Er3  1  0.823792  0.503410  0.750000  1
  Ga  Ga4  1  0.164957  0.943051  0.750000  1
  Ga  Ga5  1  0.834511  0.057239  0.250000  1
  Ga  Ga6  1  0.057169  0.834307  0.250000  1
  Ga  Ga7  1  0.943941  0.166447  0.750000  1
  Ga  Ga8  1  0.640825  0.640644  0.250000  1
  Ga  Ga9  1  0.359301  0.358542  0.750000  1
  Ga  Ga10  1  0.157385  0.157319  0.064412  1
  Ga  Ga11  1  0.843497  0.842651  0.563348  1
  Ga  Ga12  1  0.843497  0.842651  0.936652  1
  Ga  Ga13  1  0.157385  0.157319  0.435588  1
  Ga  Ga14  1  0.498045  0.845091  0.076578  1
  Ga  Ga15  1  0.501706  0.155724  0.574862  1
  Ga  Ga16  1  0.154076  0.500961  0.925072  1
  Ga  Ga17  1  0.845008  0.498157  0.424128  1
  Ga  Ga18  1  0.501706  0.155724  0.925138  1
  Ga  Ga19  1  0.498045  0.845091  0.423422  1
  Ga  Ga20  1  0.845008  0.498157  0.075872  1
  Ga  Ga21  1  0.154076  0.500961  0.574928  1
  Co  Co22  1  0.170766  0.829192  0.000265  1
  Co  Co23  1  0.829186  0.170752  0.499741  1
  Co  Co24  1  0.829186  0.170752  0.000259  1
  Co  Co25  1  0.170766  0.829192  0.499735  1
  Pd  Pd26  1  0.499890  0.499917  0.499760  1
  Pd  Pd27  1  0.499890  0.499917  0.000240  1
