# generated using pymatgen
data_Rb2Er7BBr18
_symmetry_space_group_name_H-M   'P 1'
_cell_length_a   10.58089094
_cell_length_b   10.58115788
_cell_length_c   11.47654410
_cell_angle_alpha   117.45122467
_cell_angle_beta   62.54803774
_cell_angle_gamma   120.00028642
_symmetry_Int_Tables_number   1
_chemical_formula_structural   Rb2Er7BBr18
_chemical_formula_sum   'Rb2 Er7 B1 Br18'
_cell_volume   941.99079497
_cell_formula_units_Z   1
loop_
 _symmetry_equiv_pos_site_id
 _symmetry_equiv_pos_as_xyz
  1  'x, y, z'
loop_
 _atom_site_type_symbol
 _atom_site_label
 _atom_site_symmetry_multiplicity
 _atom_site_fract_x
 _atom_site_fract_y
 _atom_site_fract_z
 _atom_site_occupancy
  Rb  Rb0  1  0.222078  0.777909  0.333749  1
  Rb  Rb1  1  0.777925  0.222091  0.666246  1
  Er  Er2  1  0.778076  0.107471  0.154610  1
  Er  Er3  1  0.892526  0.825217  0.154616  1
  Er  Er4  1  0.174783  0.221926  0.154616  1
  Er  Er5  1  0.500001  0.499999  0.499999  1
  Er  Er6  1  0.825218  0.778074  0.845383  1
  Er  Er7  1  0.107474  0.174786  0.845387  1
  Er  Er8  1  0.221922  0.892527  0.845390  1
  B  B9  1  0.999999  0.000000  0.000000  1
  Br  Br10  1  0.287748  0.426204  0.007466  1
  Br  Br11  1  0.573792  0.869016  0.007468  1
  Br  Br12  1  0.130985  0.712250  0.007457  1
  Br  Br13  1  0.946011  0.348678  0.334011  1
  Br  Br14  1  0.068677  0.054008  0.334012  1
  Br  Br15  1  0.651324  0.931332  0.333994  1
  Br  Br16  1  0.524409  0.214174  0.333801  1
  Br  Br17  1  0.785789  0.644011  0.333790  1
  Br  Br18  1  0.355977  0.475612  0.333791  1
  Br  Br19  1  0.644024  0.524389  0.666210  1
  Br  Br20  1  0.214211  0.355991  0.666211  1
  Br  Br21  1  0.475589  0.785824  0.666199  1
  Br  Br22  1  0.348676  0.068668  0.666004  1
  Br  Br23  1  0.931323  0.945987  0.665987  1
  Br  Br24  1  0.053987  0.651321  0.665987  1
  Br  Br25  1  0.869016  0.287752  0.992543  1
  Br  Br26  1  0.426206  0.130983  0.992534  1
  Br  Br27  1  0.712252  0.573798  0.992536  1
