# generated using pymatgen
data_La3Nd3(BePd5)2
_symmetry_space_group_name_H-M   'P 1'
_cell_length_a   8.35403806
_cell_length_b   8.33611048
_cell_length_c   8.33610966
_cell_angle_alpha   126.66230624
_cell_angle_beta   125.54763781
_cell_angle_gamma   79.66857824
_symmetry_Int_Tables_number   1
_chemical_formula_structural   La3Nd3(BePd5)2
_chemical_formula_sum   'La3 Nd3 Be2 Pd10'
_cell_volume   366.15746206
_cell_formula_units_Z   1
loop_
 _symmetry_equiv_pos_site_id
 _symmetry_equiv_pos_as_xyz
  1  'x, y, z'
loop_
 _atom_site_type_symbol
 _atom_site_label
 _atom_site_symmetry_multiplicity
 _atom_site_fract_x
 _atom_site_fract_y
 _atom_site_fract_z
 _atom_site_occupancy
  La  La0  1  0.393936  0.249442  0.144494  1
  La  La1  1  0.780039  0.552055  0.227983  1
  La  La2  1  0.606155  0.750183  0.855973  1
  Nd  Nd3  1  0.824003  0.052263  0.771739  1
  Nd  Nd4  1  0.217214  0.447284  0.769931  1
  Nd  Nd5  1  0.175729  0.947911  0.227818  1
  Be  Be6  1  0.209127  0.750791  0.458334  1
  Be  Be7  1  0.793354  0.249796  0.543557  1
  Pd  Pd8  1  0.829151  0.588224  0.642077  1
  Pd  Pd9  1  0.553162  0.311869  0.640069  1
  Pd  Pd10  1  0.445151  0.086447  0.757792  1
  Pd  Pd11  1  0.829151  0.187074  0.240927  1
  Pd  Pd12  1  0.171716  0.412402  0.358786  1
  Pd  Pd13  1  0.445151  0.687359  0.358703  1
  Pd  Pd14  1  0.553162  0.913092  0.241293  1
  Pd  Pd15  1  0.171716  0.812931  0.759316  1
  Pd  Pd16  1  0.001041  0.001281  0.501446  1
  Pd  Pd17  1  0.001041  0.499595  0.999760  1
