# generated using pymatgen
data_TbHo23Te12
_symmetry_space_group_name_H-M   'P 1'
_cell_length_a   4.08527600
_cell_length_b   11.48283237
_cell_length_c   21.81550300
_cell_angle_alpha   89.94457451
_cell_angle_beta   90.00000000
_cell_angle_gamma   90.00000000
_symmetry_Int_Tables_number   1
_chemical_formula_structural   TbHo23Te12
_chemical_formula_sum   'Tb1 Ho23 Te12'
_cell_volume   1023.37653646
_cell_formula_units_Z   1
loop_
 _symmetry_equiv_pos_site_id
 _symmetry_equiv_pos_as_xyz
  1  'x, y, z'
loop_
 _atom_site_type_symbol
 _atom_site_label
 _atom_site_symmetry_multiplicity
 _atom_site_fract_x
 _atom_site_fract_y
 _atom_site_fract_z
 _atom_site_occupancy
  Tb  Tb0  1  0.250000  0.754544  0.732855  1
  Ho  Ho1  1  0.250000  0.889053  0.487960  1
  Ho  Ho2  1  0.750000  0.110737  0.513466  1
  Ho  Ho3  1  0.750000  0.389483  0.012749  1
  Ho  Ho4  1  0.250000  0.610559  0.986837  1
  Ho  Ho5  1  0.250000  0.076915  0.643642  1
  Ho  Ho6  1  0.750000  0.923877  0.357431  1
  Ho  Ho7  1  0.750000  0.576323  0.856536  1
  Ho  Ho8  1  0.250000  0.423639  0.143309  1
  Ho  Ho9  1  0.250000  0.381089  0.533707  1
  Ho  Ho10  1  0.750000  0.618306  0.465821  1
  Ho  Ho11  1  0.750000  0.881862  0.965366  1
  Ho  Ho12  1  0.250000  0.118313  0.033807  1
  Ho  Ho13  1  0.750000  0.659461  0.108100  1
  Ho  Ho14  1  0.250000  0.340692  0.891521  1
  Ho  Ho15  1  0.250000  0.159158  0.392040  1
  Ho  Ho16  1  0.750000  0.840271  0.608526  1
  Ho  Ho17  1  0.750000  0.964236  0.160731  1
  Ho  Ho18  1  0.250000  0.035355  0.838991  1
  Ho  Ho19  1  0.250000  0.464466  0.338777  1
  Ho  Ho20  1  0.750000  0.535982  0.661194  1
  Ho  Ho21  1  0.250000  0.745358  0.232578  1
  Ho  Ho22  1  0.750000  0.254915  0.767632  1
  Ho  Ho23  1  0.750000  0.244911  0.267597  1
  Te  Te24  1  0.750000  0.969878  0.737875  1
  Te  Te25  1  0.250000  0.030359  0.262158  1
  Te  Te26  1  0.250000  0.469422  0.762161  1
  Te  Te27  1  0.750000  0.530676  0.237776  1
  Te  Te28  1  0.750000  0.281347  0.626377  1
  Te  Te29  1  0.250000  0.719640  0.373966  1
  Te  Te30  1  0.250000  0.780546  0.873843  1
  Te  Te31  1  0.750000  0.219372  0.126040  1
  Te  Te32  1  0.250000  0.643822  0.570637  1
  Te  Te33  1  0.750000  0.355241  0.429080  1
  Te  Te34  1  0.750000  0.145080  0.928927  1
  Te  Te35  1  0.250000  0.855111  0.069988  1
