# generated using pymatgen
data_TaNb3(SiRh)4
_symmetry_space_group_name_H-M   'P 1'
_cell_length_a   3.77585500
_cell_length_b   6.44567039
_cell_length_c   7.36361660
_cell_angle_alpha   89.92460743
_cell_angle_beta   90.00000000
_cell_angle_gamma   90.00000000
_symmetry_Int_Tables_number   1
_chemical_formula_structural   TaNb3(SiRh)4
_chemical_formula_sum   'Ta1 Nb3 Si4 Rh4'
_cell_volume   179.21493278
_cell_formula_units_Z   1
loop_
 _symmetry_equiv_pos_site_id
 _symmetry_equiv_pos_as_xyz
  1  'x, y, z'
loop_
 _atom_site_type_symbol
 _atom_site_label
 _atom_site_symmetry_multiplicity
 _atom_site_fract_x
 _atom_site_fract_y
 _atom_site_fract_z
 _atom_site_occupancy
  Ta  Ta0  1  0.750000  0.474355  0.326666  1
  Nb  Nb1  1  0.250000  0.025849  0.826772  1
  Nb  Nb2  1  0.750000  0.974051  0.172992  1
  Nb  Nb3  1  0.250000  0.525511  0.672409  1
  Si  Si4  1  0.250000  0.268249  0.124323  1
  Si  Si5  1  0.250000  0.768516  0.375554  1
  Si  Si6  1  0.750000  0.731508  0.874960  1
  Si  Si7  1  0.750000  0.231443  0.624936  1
  Rh  Rh8  1  0.250000  0.643886  0.064496  1
  Rh  Rh9  1  0.250000  0.146773  0.436652  1
  Rh  Rh10  1  0.750000  0.854501  0.561702  1
  Rh  Rh11  1  0.750000  0.355356  0.938539  1
