# generated using pymatgen
data_Zr8Mn7Si14Rh
_symmetry_space_group_name_H-M   'P 1'
_cell_length_a   9.72804393
_cell_length_b   9.72804366
_cell_length_c   9.72765200
_cell_angle_alpha   94.11256412
_cell_angle_beta   94.11256400
_cell_angle_gamma   148.78661355
_symmetry_Int_Tables_number   1
_chemical_formula_structural   Zr8Mn7Si14Rh
_chemical_formula_sum   'Zr8 Mn7 Si14 Rh1'
_cell_volume   459.80405372
_cell_formula_units_Z   1
loop_
 _symmetry_equiv_pos_site_id
 _symmetry_equiv_pos_as_xyz
  1  'x, y, z'
loop_
 _atom_site_type_symbol
 _atom_site_label
 _atom_site_symmetry_multiplicity
 _atom_site_fract_x
 _atom_site_fract_y
 _atom_site_fract_z
 _atom_site_occupancy
  Zr  Zr0  1  0.702885  0.507390  0.195294  1
  Zr  Zr1  1  0.495311  0.691619  0.196532  1
  Zr  Zr2  1  0.492610  0.297115  0.804706  1
  Zr  Zr3  1  0.308381  0.504689  0.803468  1
  Zr  Zr4  1  0.859383  0.859331  0.721594  1
  Zr  Zr5  1  0.138649  0.861351  0.000000  1
  Zr  Zr6  1  0.860322  0.139678  0.000000  1
  Zr  Zr7  1  0.140669  0.140617  0.278406  1
  Mn  Mn8  1  0.900412  0.399440  0.801784  1
  Mn  Mn9  1  0.600560  0.099588  0.198216  1
  Mn  Mn10  1  0.107002  0.606765  0.213730  1
  Mn  Mn11  1  0.594120  0.405880  0.500000  1
  Mn  Mn12  1  0.393235  0.892998  0.786270  1
  Mn  Mn13  1  0.900773  0.099227  0.500000  1
  Mn  Mn14  1  0.394398  0.605602  0.500000  1
  Si  Si15  1  0.748762  0.749445  0.999415  1
  Si  Si16  1  0.250555  0.251238  0.000585  1
  Si  Si17  1  0.047998  0.456128  0.592617  1
  Si  Si18  1  0.551023  0.143734  0.590544  1
  Si  Si19  1  0.543872  0.952002  0.407383  1
  Si  Si20  1  0.856266  0.448977  0.409456  1
  Si  Si21  1  0.722568  0.018552  0.704120  1
  Si  Si22  1  0.975062  0.679293  0.704570  1
  Si  Si23  1  0.718618  0.718427  0.417249  1
  Si  Si24  1  0.290442  0.709558  0.000000  1
  Si  Si25  1  0.320707  0.024938  0.295430  1
  Si  Si26  1  0.708779  0.291221  0.000000  1
  Si  Si27  1  0.281573  0.281382  0.582751  1
  Si  Si28  1  0.981448  0.277432  0.295880  1
  Rh  Rh29  1  0.113617  0.886383  0.500000  1
