# generated using pymatgen
data_Dy4Lu16BiSb11
_symmetry_space_group_name_H-M   'P 1'
_cell_length_a   8.00191554
_cell_length_b   9.19066816
_cell_length_c   11.67723274
_cell_angle_alpha   90.05355755
_cell_angle_beta   89.91135299
_cell_angle_gamma   90.02072944
_symmetry_Int_Tables_number   1
_chemical_formula_structural   Dy4Lu16BiSb11
_chemical_formula_sum   'Dy4 Lu16 Bi1 Sb11'
_cell_volume   858.77668897
_cell_formula_units_Z   1
loop_
 _symmetry_equiv_pos_site_id
 _symmetry_equiv_pos_as_xyz
  1  'x, y, z'
loop_
 _atom_site_type_symbol
 _atom_site_label
 _atom_site_symmetry_multiplicity
 _atom_site_fract_x
 _atom_site_fract_y
 _atom_site_fract_z
 _atom_site_occupancy
  Dy  Dy0  1  0.317691  0.253930  0.219104  1
  Dy  Dy1  1  0.812834  0.252520  0.282247  1
  Dy  Dy2  1  0.685380  0.750072  0.781362  1
  Dy  Dy3  1  0.185320  0.749928  0.718587  1
  Lu  Lu4  1  0.355599  0.747148  0.216769  1
  Lu  Lu5  1  0.848511  0.746562  0.284820  1
  Lu  Lu6  1  0.647761  0.250006  0.783725  1
  Lu  Lu7  1  0.147581  0.249889  0.716234  1
  Lu  Lu8  1  0.691013  0.563033  0.060320  1
  Lu  Lu9  1  0.193531  0.936330  0.441988  1
  Lu  Lu10  1  0.309577  0.063806  0.937271  1
  Lu  Lu11  1  0.807955  0.436896  0.560962  1
  Lu  Lu12  1  0.308768  0.437159  0.939021  1
  Lu  Lu13  1  0.808174  0.063351  0.560801  1
  Lu  Lu14  1  0.689449  0.935889  0.059824  1
  Lu  Lu15  1  0.191825  0.562948  0.439387  1
  Lu  Lu16  1  0.474389  0.250068  0.489855  1
  Lu  Lu17  1  0.973523  0.252503  0.008831  1
  Lu  Lu18  1  0.526185  0.749765  0.510662  1
  Lu  Lu19  1  0.024828  0.747544  0.987537  1
  Bi  Bi20  1  0.066012  0.994667  0.174149  1
  Sb  Sb21  1  0.405519  0.750208  0.960834  1
  Sb  Sb22  1  0.906562  0.750040  0.539347  1
  Sb  Sb23  1  0.593940  0.249811  0.038905  1
  Sb  Sb24  1  0.093592  0.249869  0.460696  1
  Sb  Sb25  1  0.564992  0.994149  0.327142  1
  Sb  Sb26  1  0.065162  0.506139  0.172553  1
  Sb  Sb27  1  0.434913  0.494116  0.672691  1
  Sb  Sb28  1  0.934768  0.005879  0.827553  1
  Sb  Sb29  1  0.435045  0.005909  0.672588  1
  Sb  Sb30  1  0.934485  0.494065  0.826427  1
  Sb  Sb31  1  0.565113  0.505800  0.327812  1
