# generated using pymatgen
data_Ac3N5
_symmetry_space_group_name_H-M   'P 1'
_cell_length_a   3.96884985
_cell_length_b   4.13396907
_cell_length_c   9.90014092
_cell_angle_alpha   90.09584537
_cell_angle_beta   94.10999855
_cell_angle_gamma   59.87662930
_symmetry_Int_Tables_number   1
_chemical_formula_structural   Ac3N5
_chemical_formula_sum   'Ac3 N5'
_cell_volume   140.02348909
_cell_formula_units_Z   1
loop_
 _symmetry_equiv_pos_site_id
 _symmetry_equiv_pos_as_xyz
  1  'x, y, z'
loop_
 _atom_site_type_symbol
 _atom_site_label
 _atom_site_symmetry_multiplicity
 _atom_site_fract_x
 _atom_site_fract_y
 _atom_site_fract_z
 _atom_site_occupancy
  Ac  Ac0  1  0.347725  0.087072  0.450547  1
  Ac  Ac1  1  0.992784  0.753152  0.137323  1
  Ac  Ac2  1  0.666745  0.529876  0.787495  1
  N  N3  1  0.254353  0.070691  0.998860  1
  N  N4  1  0.083506  0.659414  0.582704  1
  N  N5  1  0.395004  0.227851  0.925674  1
  N  N6  1  0.943391  0.957527  0.658166  1
  N  N7  1  0.666735  0.358069  0.288970  1
