# generated using pymatgen
data_Ce4Pd3RhPb2
_symmetry_space_group_name_H-M   'P 1'
_cell_length_a   7.92363425
_cell_length_b   7.92363425
_cell_length_c   3.74455700
_cell_angle_alpha   90.00000000
_cell_angle_beta   90.00000000
_cell_angle_gamma   89.75408805
_symmetry_Int_Tables_number   1
_chemical_formula_structural   Ce4Pd3RhPb2
_chemical_formula_sum   'Ce4 Pd3 Rh1 Pb2'
_cell_volume   235.09602512
_cell_formula_units_Z   1
loop_
 _symmetry_equiv_pos_site_id
 _symmetry_equiv_pos_as_xyz
  1  'x, y, z'
loop_
 _atom_site_type_symbol
 _atom_site_label
 _atom_site_symmetry_multiplicity
 _atom_site_fract_x
 _atom_site_fract_y
 _atom_site_fract_z
 _atom_site_occupancy
  Ce  Ce0  1  0.667663  0.175150  0.500000  1
  Ce  Ce1  1  0.182776  0.317224  0.500000  1
  Ce  Ce2  1  0.826525  0.673475  0.500000  1
  Ce  Ce3  1  0.324850  0.832337  0.500000  1
  Pd  Pd4  1  0.126334  0.625664  0.000000  1
  Pd  Pd5  1  0.627215  0.872785  0.000000  1
  Pd  Pd6  1  0.874336  0.373666  0.000000  1
  Rh  Rh7  1  0.370073  0.129927  0.000000  1
  Pb  Pb8  1  0.000667  0.000439  0.000000  1
  Pb  Pb9  1  0.499561  0.499333  0.000000  1
