# generated using pymatgen
data_Tm6Fe3Co13(P6W)2
_symmetry_space_group_name_H-M   'P 1'
_cell_length_a   3.70796500
_cell_length_b   10.55064208
_cell_length_c   12.08888326
_cell_angle_alpha   89.94788858
_cell_angle_beta   90.00000000
_cell_angle_gamma   90.00000000
_symmetry_Int_Tables_number   1
_chemical_formula_structural   Tm6Fe3Co13(P6W)2
_chemical_formula_sum   'Tm6 Fe3 Co13 P12 W2'
_cell_volume   472.93398181
_cell_formula_units_Z   1
loop_
 _symmetry_equiv_pos_site_id
 _symmetry_equiv_pos_as_xyz
  1  'x, y, z'
loop_
 _atom_site_type_symbol
 _atom_site_label
 _atom_site_symmetry_multiplicity
 _atom_site_fract_x
 _atom_site_fract_y
 _atom_site_fract_z
 _atom_site_occupancy
  Tm  Tm0  1  0.000000  0.500128  0.525695  1
  Tm  Tm1  1  0.500000  0.000048  0.474342  1
  Tm  Tm2  1  0.500000  0.819963  0.203312  1
  Tm  Tm3  1  0.500000  0.179907  0.203674  1
  Tm  Tm4  1  0.000000  0.679462  0.796992  1
  Tm  Tm5  1  0.000000  0.319809  0.797028  1
  Fe  Fe6  1  0.000000  0.502522  0.987119  1
  Fe  Fe7  1  0.500000  0.999115  0.012401  1
  Fe  Fe8  1  0.500000  0.330839  0.994226  1
  Co  Co9  1  0.500000  0.500073  0.699041  1
  Co  Co10  1  0.000000  0.000225  0.300926  1
  Co  Co11  1  0.500000  0.669816  0.991326  1
  Co  Co12  1  0.000000  0.166563  0.007897  1
  Co  Co13  1  0.000000  0.831427  0.008856  1
  Co  Co14  1  0.500000  0.295132  0.431554  1
  Co  Co15  1  0.500000  0.705125  0.431630  1
  Co  Co16  1  0.000000  0.204896  0.568599  1
  Co  Co17  1  0.000000  0.795326  0.568582  1
  Co  Co18  1  0.500000  0.877850  0.706566  1
  Co  Co19  1  0.500000  0.121413  0.706151  1
  Co  Co20  1  0.000000  0.622330  0.293357  1
  Co  Co21  1  0.000000  0.378050  0.292578  1
  P  P22  1  0.500000  0.498423  0.883130  1
  P  P23  1  0.000000  0.999759  0.118092  1
  P  P24  1  0.500000  0.499890  0.351676  1
  P  P25  1  0.000000  0.000167  0.647944  1
  P  P26  1  0.500000  0.310874  0.617115  1
  P  P27  1  0.500000  0.688916  0.617025  1
  P  P28  1  0.000000  0.189521  0.383130  1
  P  P29  1  0.000000  0.811029  0.383112  1
  P  P30  1  0.500000  0.844148  0.892749  1
  P  P31  1  0.500000  0.157009  0.893770  1
  P  P32  1  0.000000  0.656009  0.107177  1
  P  P33  1  0.000000  0.343683  0.103715  1
  W  W34  1  0.500000  0.500694  0.155357  1
  W  W35  1  0.000000  0.999858  0.844157  1
