# generated using pymatgen
data_Tm2Mn2Co10As7
_symmetry_space_group_name_H-M   'P 1'
_cell_length_a   3.71698500
_cell_length_b   9.36877980
_cell_length_c   9.40623105
_cell_angle_alpha   119.84244877
_cell_angle_beta   90.00000000
_cell_angle_gamma   90.00000000
_symmetry_Int_Tables_number   1
_chemical_formula_structural   Tm2Mn2Co10As7
_chemical_formula_sum   'Tm2 Mn2 Co10 As7'
_cell_volume   284.12366577
_cell_formula_units_Z   1
loop_
 _symmetry_equiv_pos_site_id
 _symmetry_equiv_pos_as_xyz
  1  'x, y, z'
loop_
 _atom_site_type_symbol
 _atom_site_label
 _atom_site_symmetry_multiplicity
 _atom_site_fract_x
 _atom_site_fract_y
 _atom_site_fract_z
 _atom_site_occupancy
  Tm  Tm0  1  0.000000  0.670288  0.335129  1
  Tm  Tm1  1  0.500000  0.331809  0.667165  1
  Mn  Mn2  1  0.500000  0.778933  0.895143  1
  Mn  Mn3  1  0.500000  0.120288  0.221328  1
  Co  Co4  1  0.000000  0.567708  0.940022  1
  Co  Co5  1  0.000000  0.370148  0.430905  1
  Co  Co6  1  0.000000  0.058476  0.629877  1
  Co  Co7  1  0.500000  0.095098  0.876948  1
  Co  Co8  1  0.000000  0.882965  0.157368  1
  Co  Co9  1  0.000000  0.280817  0.121450  1
  Co  Co10  1  0.000000  0.842213  0.722568  1
  Co  Co11  1  0.500000  0.947722  0.383994  1
  Co  Co12  1  0.500000  0.433375  0.050015  1
  Co  Co13  1  0.500000  0.616881  0.565175  1
  As  As14  1  0.000000  0.003182  0.997862  1
  As  As15  1  0.500000  0.708591  0.118113  1
  As  As16  1  0.500000  0.413586  0.292341  1
  As  As17  1  0.500000  0.883938  0.594030  1
  As  As18  1  0.000000  0.583653  0.700645  1
  As  As19  1  0.000000  0.115533  0.415765  1
  As  As20  1  0.000000  0.294794  0.884157  1
