# generated using pymatgen
data_Tm6NbP12Rh17
_symmetry_space_group_name_H-M   'P 1'
_cell_length_a   3.94679500
_cell_length_b   11.12927900
_cell_length_c   12.72812800
_cell_angle_alpha   90.00000000
_cell_angle_beta   90.00000000
_cell_angle_gamma   90.00000000
_symmetry_Int_Tables_number   1
_chemical_formula_structural   Tm6NbP12Rh17
_chemical_formula_sum   'Tm6 Nb1 P12 Rh17'
_cell_volume   559.08280234
_cell_formula_units_Z   1
loop_
 _symmetry_equiv_pos_site_id
 _symmetry_equiv_pos_as_xyz
  1  'x, y, z'
loop_
 _atom_site_type_symbol
 _atom_site_label
 _atom_site_symmetry_multiplicity
 _atom_site_fract_x
 _atom_site_fract_y
 _atom_site_fract_z
 _atom_site_occupancy
  Tm  Tm0  1  0.000000  0.500000  0.522185  1
  Tm  Tm1  1  0.500000  0.000000  0.477527  1
  Tm  Tm2  1  0.500000  0.815514  0.206498  1
  Tm  Tm3  1  0.500000  0.184486  0.206498  1
  Tm  Tm4  1  0.000000  0.682443  0.796853  1
  Tm  Tm5  1  0.000000  0.317557  0.796853  1
  Nb  Nb6  1  0.500000  0.500000  0.157209  1
  P  P7  1  0.500000  0.500000  0.874147  1
  P  P8  1  0.000000  0.000000  0.124377  1
  P  P9  1  0.500000  0.500000  0.351946  1
  P  P10  1  0.000000  0.000000  0.648261  1
  P  P11  1  0.500000  0.315524  0.619703  1
  P  P12  1  0.500000  0.684476  0.619703  1
  P  P13  1  0.000000  0.184767  0.382517  1
  P  P14  1  0.000000  0.815233  0.382517  1
  P  P15  1  0.500000  0.850051  0.889251  1
  P  P16  1  0.500000  0.149949  0.889251  1
  P  P17  1  0.000000  0.656212  0.108924  1
  P  P18  1  0.000000  0.343788  0.108924  1
  Rh  Rh19  1  0.000000  0.000000  0.832345  1
  Rh  Rh20  1  0.500000  0.500000  0.697858  1
  Rh  Rh21  1  0.000000  0.000000  0.301056  1
  Rh  Rh22  1  0.000000  0.500000  0.983968  1
  Rh  Rh23  1  0.500000  0.000000  0.023326  1
  Rh  Rh24  1  0.500000  0.330780  0.983794  1
  Rh  Rh25  1  0.500000  0.669220  0.983794  1
  Rh  Rh26  1  0.000000  0.165848  0.011637  1
  Rh  Rh27  1  0.000000  0.834152  0.011637  1
  Rh  Rh28  1  0.500000  0.294169  0.434090  1
  Rh  Rh29  1  0.500000  0.705831  0.434090  1
  Rh  Rh30  1  0.000000  0.200985  0.569112  1
  Rh  Rh31  1  0.000000  0.799015  0.569112  1
  Rh  Rh32  1  0.500000  0.873368  0.709122  1
  Rh  Rh33  1  0.500000  0.126632  0.709122  1
  Rh  Rh34  1  0.000000  0.627711  0.291395  1
  Rh  Rh35  1  0.000000  0.372289  0.291395  1
