# generated using pymatgen
data_ErNp3(B6Mo)2
_symmetry_space_group_name_H-M   'P 1'
_cell_length_a   3.64810100
_cell_length_b   9.29377147
_cell_length_c   11.34482358
_cell_angle_alpha   89.96335877
_cell_angle_beta   90.00000000
_cell_angle_gamma   90.00000000
_symmetry_Int_Tables_number   1
_chemical_formula_structural   ErNp3(B6Mo)2
_chemical_formula_sum   'Er2 Np6 B24 Mo4'
_cell_volume   384.64181990
_cell_formula_units_Z   2
loop_
 _symmetry_equiv_pos_site_id
 _symmetry_equiv_pos_as_xyz
  1  'x, y, z'
loop_
 _atom_site_type_symbol
 _atom_site_label
 _atom_site_symmetry_multiplicity
 _atom_site_fract_x
 _atom_site_fract_y
 _atom_site_fract_z
 _atom_site_occupancy
  Er  Er0  1  0.000000  0.338209  0.407860  1
  Er  Er1  1  0.000000  0.661791  0.592140  1
  Np  Np2  1  0.000000  0.838219  0.093017  1
  Np  Np3  1  0.000000  0.161781  0.906983  1
  Np  Np4  1  0.000000  0.958786  0.400066  1
  Np  Np5  1  0.000000  0.041214  0.599934  1
  Np  Np6  1  0.000000  0.458596  0.099936  1
  Np  Np7  1  0.000000  0.541404  0.900064  1
  B  B8  1  0.500000  0.551676  0.431991  1
  B  B9  1  0.500000  0.448324  0.568009  1
  B  B10  1  0.500000  0.051438  0.067641  1
  B  B11  1  0.500000  0.948562  0.932359  1
  B  B12  1  0.500000  0.744963  0.424131  1
  B  B13  1  0.500000  0.255037  0.575869  1
  B  B14  1  0.500000  0.245290  0.075928  1
  B  B15  1  0.500000  0.754710  0.924072  1
  B  B16  1  0.500000  0.806539  0.274147  1
  B  B17  1  0.500000  0.193461  0.725853  1
  B  B18  1  0.500000  0.305821  0.225087  1
  B  B19  1  0.500000  0.694179  0.774913  1
  B  B20  1  0.500000  0.645368  0.186930  1
  B  B21  1  0.500000  0.354632  0.813070  1
  B  B22  1  0.500000  0.145057  0.312835  1
  B  B23  1  0.500000  0.854943  0.687165  1
  B  B24  1  0.500000  0.987432  0.221220  1
  B  B25  1  0.500000  0.012568  0.778780  1
  B  B26  1  0.500000  0.488117  0.279288  1
  B  B27  1  0.500000  0.511883  0.720712  1
  B  B28  1  0.500000  0.641439  0.039205  1
  B  B29  1  0.500000  0.358561  0.960795  1
  B  B30  1  0.500000  0.139430  0.461235  1
  B  B31  1  0.500000  0.860570  0.538765  1
  Mo  Mo32  1  0.000000  0.649016  0.316352  1
  Mo  Mo33  1  0.000000  0.350984  0.683648  1
  Mo  Mo34  1  0.000000  0.145106  0.179072  1
  Mo  Mo35  1  0.000000  0.854894  0.820928  1
