# generated using pymatgen
data_Ho7Lu(ReBr4)2
_symmetry_space_group_name_H-M   'P 1'
_cell_length_a   8.90428054
_cell_length_b   8.92677073
_cell_length_c   6.53985300
_cell_angle_alpha   89.42485482
_cell_angle_beta   89.56507253
_cell_angle_gamma   89.25049407
_symmetry_Int_Tables_number   1
_chemical_formula_structural   Ho7Lu(ReBr4)2
_chemical_formula_sum   'Ho7 Lu1 Re2 Br8'
_cell_volume   519.74470576
_cell_formula_units_Z   1
loop_
 _symmetry_equiv_pos_site_id
 _symmetry_equiv_pos_as_xyz
  1  'x, y, z'
loop_
 _atom_site_type_symbol
 _atom_site_label
 _atom_site_symmetry_multiplicity
 _atom_site_fract_x
 _atom_site_fract_y
 _atom_site_fract_z
 _atom_site_occupancy
  Ho  Ho0  1  0.750670  0.098913  0.988143  1
  Ho  Ho1  1  0.099861  0.751048  0.489016  1
  Ho  Ho2  1  0.901582  0.248437  0.511712  1
  Ho  Ho3  1  0.751936  0.902694  0.508352  1
  Ho  Ho4  1  0.249011  0.096316  0.492686  1
  Ho  Ho5  1  0.097951  0.247174  0.992623  1
  Ho  Ho6  1  0.902956  0.752167  0.008319  1
  Lu  Lu7  1  0.244532  0.902466  0.013039  1
  Re  Re8  1  0.994674  0.005053  0.250235  1
  Re  Re9  1  0.005895  0.994368  0.750907  1
  Br  Br10  1  0.419998  0.816950  0.405925  1
  Br  Br11  1  0.580545  0.183872  0.589860  1
  Br  Br12  1  0.184618  0.581742  0.089818  1
  Br  Br13  1  0.816698  0.419382  0.910129  1
  Br  Br14  1  0.415005  0.188824  0.093058  1
  Br  Br15  1  0.582930  0.811292  0.905893  1
  Br  Br16  1  0.809900  0.585049  0.407430  1
  Br  Br17  1  0.191239  0.414254  0.592856  1
