# generated using pymatgen
data_MnBi3Pt3RhO14
_symmetry_space_group_name_H-M   'P 1'
_cell_length_a   7.36583368
_cell_length_b   7.28500233
_cell_length_c   7.36583300
_cell_angle_alpha   59.63227581
_cell_angle_beta   59.99999858
_cell_angle_gamma   59.63227629
_symmetry_Int_Tables_number   1
_chemical_formula_structural   MnBi3Pt3RhO14
_chemical_formula_sum   'Mn1 Bi3 Pt3 Rh1 O14'
_cell_volume   277.92147282
_cell_formula_units_Z   1
loop_
 _symmetry_equiv_pos_site_id
 _symmetry_equiv_pos_as_xyz
  1  'x, y, z'
loop_
 _atom_site_type_symbol
 _atom_site_label
 _atom_site_symmetry_multiplicity
 _atom_site_fract_x
 _atom_site_fract_y
 _atom_site_fract_z
 _atom_site_occupancy
  Mn  Mn0  1  0.125000  0.625000  0.125000  1
  Bi  Bi1  1  0.125000  0.125000  0.125000  1
  Bi  Bi2  1  0.625000  0.125000  0.125000  1
  Bi  Bi3  1  0.125000  0.125000  0.625000  1
  Pt  Pt4  1  0.625000  0.625000  0.625000  1
  Pt  Pt5  1  0.625000  0.625000  0.125000  1
  Pt  Pt6  1  0.125000  0.625000  0.625000  1
  Rh  Rh7  1  0.625000  0.125000  0.625000  1
  O  O8  1  0.241995  0.274013  0.241995  1
  O  O9  1  0.290421  0.705422  0.290421  1
  O  O10  1  0.958040  0.960467  0.540747  1
  O  O11  1  0.540747  0.960467  0.540747  1
  O  O12  1  0.713736  0.705422  0.290421  1
  O  O13  1  0.959579  0.544578  0.536264  1
  O  O14  1  0.709253  0.289533  0.709253  1
  O  O15  1  0.291960  0.289533  0.709253  1
  O  O16  1  0.709253  0.289533  0.291960  1
  O  O17  1  0.290421  0.705422  0.713736  1
  O  O18  1  0.959579  0.544578  0.959579  1
  O  O19  1  0.536264  0.544578  0.959579  1
  O  O20  1  0.008005  0.975987  0.008005  1
  O  O21  1  0.540747  0.960467  0.958040  1
