# generated using pymatgen
data_Ho3Er(Tm2Rh)4
_symmetry_space_group_name_H-M   'P 1'
_cell_length_a   6.25625418
_cell_length_b   7.13251401
_cell_length_c   9.28161000
_cell_angle_alpha   90.00000000
_cell_angle_beta   90.00000000
_cell_angle_gamma   89.98416485
_symmetry_Int_Tables_number   1
_chemical_formula_structural   Ho3Er(Tm2Rh)4
_chemical_formula_sum   'Ho3 Er1 Tm8 Rh4'
_cell_volume   414.17160159
_cell_formula_units_Z   1
loop_
 _symmetry_equiv_pos_site_id
 _symmetry_equiv_pos_as_xyz
  1  'x, y, z'
loop_
 _atom_site_type_symbol
 _atom_site_label
 _atom_site_symmetry_multiplicity
 _atom_site_fract_x
 _atom_site_fract_y
 _atom_site_fract_z
 _atom_site_occupancy
  Ho  Ho0  1  0.867625  0.965929  0.750000  1
  Ho  Ho1  1  0.367336  0.534226  0.250000  1
  Ho  Ho2  1  0.632176  0.465832  0.750000  1
  Er  Er3  1  0.132760  0.034367  0.250000  1
  Tm  Tm4  1  0.672298  0.178094  0.062943  1
  Tm  Tm5  1  0.171957  0.321679  0.937286  1
  Tm  Tm6  1  0.828050  0.678243  0.437142  1
  Tm  Tm7  1  0.327752  0.822031  0.562669  1
  Tm  Tm8  1  0.327752  0.822031  0.937331  1
  Tm  Tm9  1  0.828050  0.678243  0.062858  1
  Tm  Tm10  1  0.171957  0.321679  0.562714  1
  Tm  Tm11  1  0.672298  0.178094  0.437057  1
  Rh  Rh12  1  0.054431  0.616223  0.750000  1
  Rh  Rh13  1  0.553634  0.883960  0.250000  1
  Rh  Rh14  1  0.445725  0.116195  0.750000  1
  Rh  Rh15  1  0.946199  0.383178  0.250000  1
