# generated using pymatgen
data_MnNb4Fe5Ge2
_symmetry_space_group_name_H-M   'P 1'
_cell_length_a   4.88749674
_cell_length_b   4.87075034
_cell_length_c   8.01465200
_cell_angle_alpha   90.00000000
_cell_angle_beta   90.00000000
_cell_angle_gamma   119.87304070
_symmetry_Int_Tables_number   1
_chemical_formula_structural   MnNb4Fe5Ge2
_chemical_formula_sum   'Mn1 Nb4 Fe5 Ge2'
_cell_volume   165.44431030
_cell_formula_units_Z   1
loop_
 _symmetry_equiv_pos_site_id
 _symmetry_equiv_pos_as_xyz
  1  'x, y, z'
loop_
 _atom_site_type_symbol
 _atom_site_label
 _atom_site_symmetry_multiplicity
 _atom_site_fract_x
 _atom_site_fract_y
 _atom_site_fract_z
 _atom_site_occupancy
  Mn  Mn0  1  0.346854  0.173426  0.249999  1
  Nb  Nb1  1  0.333214  0.666609  0.066210  1
  Nb  Nb2  1  0.333214  0.666609  0.433790  1
  Nb  Nb3  1  0.665756  0.332877  0.565329  1
  Nb  Nb4  1  0.665756  0.332877  0.934671  1
  Fe  Fe5  1  0.827739  0.172769  0.249999  1
  Fe  Fe6  1  0.827746  0.654977  0.249999  1
  Fe  Fe7  1  0.173798  0.346911  0.750000  1
  Fe  Fe8  1  0.173805  0.826895  0.750000  1
  Fe  Fe9  1  0.653654  0.826835  0.750000  1
  Ge  Ge10  1  0.999232  0.999607  0.999712  1
  Ge  Ge11  1  0.999232  0.999607  0.500288  1
