# generated using pymatgen
data_Lu3TiGa2Ir3
_symmetry_space_group_name_H-M   'P 1'
_cell_length_a   6.93943231
_cell_length_b   6.93943193
_cell_length_c   4.12317000
_cell_angle_alpha   90.00000000
_cell_angle_beta   90.00000000
_cell_angle_gamma   121.25523765
_symmetry_Int_Tables_number   1
_chemical_formula_structural   Lu3TiGa2Ir3
_chemical_formula_sum   'Lu3 Ti1 Ga2 Ir3'
_cell_volume   169.73693614
_cell_formula_units_Z   1
loop_
 _symmetry_equiv_pos_site_id
 _symmetry_equiv_pos_as_xyz
  1  'x, y, z'
loop_
 _atom_site_type_symbol
 _atom_site_label
 _atom_site_symmetry_multiplicity
 _atom_site_fract_x
 _atom_site_fract_y
 _atom_site_fract_z
 _atom_site_occupancy
  Lu  Lu0  1  0.399477  0.399477  0.500000  1
  Lu  Lu1  1  0.583190  0.007926  0.500000  1
  Lu  Lu2  1  0.007926  0.583190  0.500000  1
  Ti  Ti3  1  0.765876  0.765876  0.000000  1
  Ga  Ga4  1  0.245589  0.998728  0.000000  1
  Ga  Ga5  1  0.998728  0.245589  0.000000  1
  Ir  Ir6  1  0.667929  0.346683  0.000000  1
  Ir  Ir7  1  0.346683  0.667929  0.000000  1
  Ir  Ir8  1  0.984602  0.984602  0.500000  1
