# generated using pymatgen
data_Sn6GeF16
_symmetry_space_group_name_H-M   'P 1'
_cell_length_a   9.95316521
_cell_length_b   9.95316566
_cell_length_c   10.82413000
_cell_angle_alpha   89.08859793
_cell_angle_beta   89.08859789
_cell_angle_gamma   45.00003961
_symmetry_Int_Tables_number   1
_chemical_formula_structural   Sn6GeF16
_chemical_formula_sum   'Sn12 Ge2 F32'
_cell_volume   758.11723658
_cell_formula_units_Z   2
loop_
 _symmetry_equiv_pos_site_id
 _symmetry_equiv_pos_as_xyz
  1  'x, y, z'
loop_
 _atom_site_type_symbol
 _atom_site_label
 _atom_site_symmetry_multiplicity
 _atom_site_fract_x
 _atom_site_fract_y
 _atom_site_fract_z
 _atom_site_occupancy
  Sn  Sn0  1  0.101892  0.758697  0.392584  1
  Sn  Sn1  1  0.529787  0.759961  0.468622  1
  Sn  Sn2  1  0.898108  0.241303  0.607416  1
  Sn  Sn3  1  0.470213  0.240039  0.531378  1
  Sn  Sn4  1  0.698928  0.886046  0.178035  1
  Sn  Sn5  1  0.758697  0.101892  0.892584  1
  Sn  Sn6  1  0.241303  0.898108  0.107416  1
  Sn  Sn7  1  0.113954  0.301072  0.321965  1
  Sn  Sn8  1  0.301072  0.113954  0.821965  1
  Sn  Sn9  1  0.886046  0.698928  0.678035  1
  Sn  Sn10  1  0.759961  0.529787  0.968622  1
  Sn  Sn11  1  0.240039  0.470213  0.031378  1
  Ge  Ge12  1  0.332743  0.667257  0.750000  1
  Ge  Ge13  1  0.667257  0.332743  0.250000  1
  F  F14  1  0.399715  0.129617  0.404487  1
  F  F15  1  0.184056  0.500208  0.457949  1
  F  F16  1  0.870383  0.600285  0.095513  1
  F  F17  1  0.989736  0.710278  0.249276  1
  F  F18  1  0.129617  0.399715  0.904487  1
  F  F19  1  0.499792  0.815944  0.042051  1
  F  F20  1  0.434307  0.431201  0.790248  1
  F  F21  1  0.289722  0.010264  0.250724  1
  F  F22  1  0.370198  0.695460  0.909418  1
  F  F23  1  0.629802  0.304540  0.090582  1
  F  F24  1  0.695460  0.370198  0.409418  1
  F  F25  1  0.285866  0.275369  0.661157  1
  F  F26  1  0.815944  0.499792  0.542051  1
  F  F27  1  0.710278  0.989736  0.749276  1
  F  F28  1  0.096478  0.770180  0.791471  1
  F  F29  1  0.010264  0.289722  0.750724  1
  F  F30  1  0.714134  0.724631  0.338843  1
  F  F31  1  0.770180  0.096478  0.291471  1
  F  F32  1  0.229820  0.903522  0.708529  1
  F  F33  1  0.500208  0.184056  0.957949  1
  F  F34  1  0.724631  0.714134  0.838843  1
  F  F35  1  0.126122  0.127901  0.986904  1
  F  F36  1  0.304540  0.629802  0.590582  1
  F  F37  1  0.127901  0.126122  0.486904  1
  F  F38  1  0.872099  0.873878  0.513096  1
  F  F39  1  0.568799  0.565693  0.709752  1
  F  F40  1  0.903522  0.229820  0.208529  1
  F  F41  1  0.431201  0.434307  0.290248  1
  F  F42  1  0.565693  0.568799  0.209752  1
  F  F43  1  0.275369  0.285866  0.161157  1
  F  F44  1  0.600285  0.870383  0.595513  1
  F  F45  1  0.873878  0.872099  0.013096  1
