# generated using pymatgen
data_LiCa4In2Hg
_symmetry_space_group_name_H-M   'P 1'
_cell_length_a   7.80904100
_cell_length_b   5.40588800
_cell_length_c   10.83038800
_cell_angle_alpha   90.00000000
_cell_angle_beta   90.00106942
_cell_angle_gamma   90.00000000
_symmetry_Int_Tables_number   1
_chemical_formula_structural   LiCa4In2Hg
_chemical_formula_sum   'Li2 Ca8 In4 Hg2'
_cell_volume   457.20267450
_cell_formula_units_Z   2
loop_
 _symmetry_equiv_pos_site_id
 _symmetry_equiv_pos_as_xyz
  1  'x, y, z'
loop_
 _atom_site_type_symbol
 _atom_site_label
 _atom_site_symmetry_multiplicity
 _atom_site_fract_x
 _atom_site_fract_y
 _atom_site_fract_z
 _atom_site_occupancy
  Li  Li0  1  0.250055  0.250001  0.620461  1
  Li  Li1  1  0.750054  0.750001  0.879537  1
  Ca  Ca2  1  0.006491  0.750001  0.130033  1
  Ca  Ca3  1  0.493524  0.750001  0.130101  1
  Ca  Ca4  1  0.993528  0.250001  0.369896  1
  Ca  Ca5  1  0.506485  0.250001  0.369964  1
  Ca  Ca6  1  0.508353  0.750001  0.621255  1
  Ca  Ca7  1  0.991677  0.750001  0.621335  1
  Ca  Ca8  1  0.491676  0.250001  0.878662  1
  Ca  Ca9  1  0.008348  0.250001  0.878739  1
  In  In10  1  0.749832  0.250001  0.115104  1
  In  In11  1  0.249829  0.750001  0.384925  1
  In  In12  1  0.749950  0.250001  0.637508  1
  In  In13  1  0.249950  0.750001  0.862487  1
  Hg  Hg14  1  0.250120  0.250001  0.126417  1
  Hg  Hg15  1  0.750124  0.750001  0.373577  1
