# generated using pymatgen
data_Ti2Nb2AlRe24
_symmetry_space_group_name_H-M   'P 1'
_cell_length_a   8.38306785
_cell_length_b   8.38306652
_cell_length_c   8.38365620
_cell_angle_alpha   109.48288536
_cell_angle_beta   109.48288249
_cell_angle_gamma   109.44506256
_symmetry_Int_Tables_number   1
_chemical_formula_structural   Ti2Nb2AlRe24
_chemical_formula_sum   'Ti2 Nb2 Al1 Re24'
_cell_volume   453.55774900
_cell_formula_units_Z   1
loop_
 _symmetry_equiv_pos_site_id
 _symmetry_equiv_pos_as_xyz
  1  'x, y, z'
loop_
 _atom_site_type_symbol
 _atom_site_label
 _atom_site_symmetry_multiplicity
 _atom_site_fract_x
 _atom_site_fract_y
 _atom_site_fract_z
 _atom_site_occupancy
  Ti  Ti0  1  0.999761  0.999761  0.633726  1
  Ti  Ti1  1  0.366036  0.366036  0.366274  1
  Nb  Nb2  1  0.635718  0.999923  0.000000  1
  Nb  Nb3  1  0.999923  0.635718  0.000000  1
  Al  Al4  1  0.003361  0.003361  0.000000  1
  Re  Re5  1  0.396707  0.680795  0.000000  1
  Re  Re6  1  0.718066  0.320401  0.319487  1
  Re  Re7  1  0.398579  0.000914  0.680513  1
  Re  Re8  1  0.680795  0.396707  0.000000  1
  Re  Re9  1  0.000914  0.398579  0.680513  1
  Re  Re10  1  0.320401  0.718066  0.319487  1
  Re  Re11  1  0.319324  0.319324  0.719216  1
  Re  Re12  1  0.000860  0.681602  0.399431  1
  Re  Re13  1  0.681602  0.000860  0.399431  1
  Re  Re14  1  0.600108  0.600108  0.280784  1
  Re  Re15  1  0.282169  0.601428  0.600569  1
  Re  Re16  1  0.601428  0.282169  0.600569  1
  Re  Re17  1  0.372793  0.191600  0.000000  1
  Re  Re18  1  0.180466  0.806536  0.804709  1
  Re  Re19  1  0.375758  0.001827  0.195291  1
  Re  Re20  1  0.191600  0.372793  0.000000  1
  Re  Re21  1  0.001827  0.375758  0.195291  1
  Re  Re22  1  0.806536  0.180466  0.804709  1
  Re  Re23  1  0.804572  0.804572  0.181856  1
  Re  Re24  1  0.001367  0.193072  0.375449  1
  Re  Re25  1  0.193072  0.001367  0.375449  1
  Re  Re26  1  0.622716  0.622716  0.818144  1
  Re  Re27  1  0.817623  0.625919  0.624551  1
  Re  Re28  1  0.625919  0.817623  0.624551  1
