# generated using pymatgen
data_KFePd7O16
_symmetry_space_group_name_H-M   'P 1'
_cell_length_a   6.15417911
_cell_length_b   7.49221246
_cell_length_c   7.61272700
_cell_angle_alpha   88.56716795
_cell_angle_beta   78.36137748
_cell_angle_gamma   78.06300423
_symmetry_Int_Tables_number   1
_chemical_formula_structural   KFePd7O16
_chemical_formula_sum   'K1 Fe1 Pd7 O16'
_cell_volume   336.30829179
_cell_formula_units_Z   1
loop_
 _symmetry_equiv_pos_site_id
 _symmetry_equiv_pos_as_xyz
  1  'x, y, z'
loop_
 _atom_site_type_symbol
 _atom_site_label
 _atom_site_symmetry_multiplicity
 _atom_site_fract_x
 _atom_site_fract_y
 _atom_site_fract_z
 _atom_site_occupancy
  K  K0  1  0.998374  0.991013  0.997475  1
  Fe  Fe1  1  0.578871  0.516962  0.184801  1
  Pd  Pd2  1  0.081358  0.508387  0.182422  1
  Pd  Pd3  1  0.172743  0.815895  0.516390  1
  Pd  Pd4  1  0.670137  0.816301  0.519086  1
  Pd  Pd5  1  0.338473  0.184617  0.476355  1
  Pd  Pd6  1  0.839782  0.183144  0.478816  1
  Pd  Pd7  1  0.429998  0.486467  0.815676  1
  Pd  Pd8  1  0.927821  0.488936  0.816113  1
  O  O9  1  0.836818  0.639375  0.049823  1
  O  O10  1  0.327111  0.638392  0.049810  1
  O  O11  1  0.982531  0.715633  0.369471  1
  O  O12  1  0.485359  0.696669  0.387981  1
  O  O13  1  0.857424  0.955967  0.640480  1
  O  O14  1  0.353325  0.957932  0.640426  1
  O  O15  1  0.344363  0.378668  0.290151  1
  O  O16  1  0.833073  0.372165  0.285555  1
  O  O17  1  0.163667  0.641950  0.725450  1
  O  O18  1  0.661596  0.641002  0.727424  1
  O  O19  1  0.154965  0.043415  0.353231  1
  O  O20  1  0.656010  0.042268  0.354946  1
  O  O21  1  0.027533  0.284675  0.624063  1
  O  O22  1  0.527408  0.282974  0.624538  1
  O  O23  1  0.177753  0.355906  0.946098  1
  O  O24  1  0.680604  0.361283  0.943417  1
