# generated using pymatgen
data_Ta9Os5Ru
_symmetry_space_group_name_H-M   'P 1'
_cell_length_a   9.92552635
_cell_length_b   9.92552632
_cell_length_c   5.07948600
_cell_angle_alpha   90.00000000
_cell_angle_beta   90.00000000
_cell_angle_gamma   89.66614880
_symmetry_Int_Tables_number   1
_chemical_formula_structural   Ta9Os5Ru
_chemical_formula_sum   'Ta18 Os10 Ru2'
_cell_volume   500.40251916
_cell_formula_units_Z   2
loop_
 _symmetry_equiv_pos_site_id
 _symmetry_equiv_pos_as_xyz
  1  'x, y, z'
loop_
 _atom_site_type_symbol
 _atom_site_label
 _atom_site_symmetry_multiplicity
 _atom_site_fract_x
 _atom_site_fract_y
 _atom_site_fract_z
 _atom_site_occupancy
  Ta  Ta0  1  0.102753  0.102753  0.504067  1
  Ta  Ta1  1  0.897247  0.897247  0.504067  1
  Ta  Ta2  1  0.601671  0.398329  0.995720  1
  Ta  Ta3  1  0.398329  0.601671  0.995720  1
  Ta  Ta4  1  0.038591  0.370907  0.499893  1
  Ta  Ta5  1  0.961409  0.629093  0.499893  1
  Ta  Ta6  1  0.534638  0.130042  0.002996  1
  Ta  Ta7  1  0.465362  0.869958  0.002996  1
  Ta  Ta8  1  0.629093  0.961409  0.499893  1
  Ta  Ta9  1  0.370907  0.038591  0.499893  1
  Ta  Ta10  1  0.869958  0.465362  0.002996  1
  Ta  Ta11  1  0.130042  0.534638  0.002996  1
  Ta  Ta12  1  0.818702  0.181298  0.751151  1
  Ta  Ta13  1  0.181298  0.818702  0.751151  1
  Ta  Ta14  1  0.680760  0.680760  0.749312  1
  Ta  Ta15  1  0.319240  0.319240  0.749312  1
  Ta  Ta16  1  0.182084  0.817916  0.251305  1
  Ta  Ta17  1  0.817916  0.182084  0.251305  1
  Os  Os18  1  0.500000  0.500000  0.480552  1
  Os  Os19  1  0.000000  0.000000  0.002030  1
  Os  Os20  1  0.757962  0.433976  0.500561  1
  Os  Os21  1  0.242038  0.566024  0.500561  1
  Os  Os22  1  0.259431  0.069455  0.001594  1
  Os  Os23  1  0.740569  0.930545  0.001594  1
  Os  Os24  1  0.566024  0.242038  0.500561  1
  Os  Os25  1  0.433976  0.757962  0.500561  1
  Os  Os26  1  0.930545  0.740569  0.001594  1
  Os  Os27  1  0.069455  0.259431  0.001594  1
  Ru  Ru28  1  0.318967  0.318967  0.247063  1
  Ru  Ru29  1  0.681033  0.681033  0.247063  1
