# generated using pymatgen
data_ErSiTc2C
_symmetry_space_group_name_H-M   'P 1'
_cell_length_a   5.82074737
_cell_length_b   5.82074901
_cell_length_c   7.25416800
_cell_angle_alpha   90.00000000
_cell_angle_beta   90.00000000
_cell_angle_gamma   141.11491959
_symmetry_Int_Tables_number   1
_chemical_formula_structural   ErSiTc2C
_chemical_formula_sum   'Er2 Si2 Tc4 C2'
_cell_volume   154.29048307
_cell_formula_units_Z   2
loop_
 _symmetry_equiv_pos_site_id
 _symmetry_equiv_pos_as_xyz
  1  'x, y, z'
loop_
 _atom_site_type_symbol
 _atom_site_label
 _atom_site_symmetry_multiplicity
 _atom_site_fract_x
 _atom_site_fract_y
 _atom_site_fract_z
 _atom_site_occupancy
  Er  Er0  1  0.543641  0.456359  0.250000  1
  Er  Er1  1  0.456359  0.543641  0.750000  1
  Si  Si2  1  0.266504  0.733496  0.250000  1
  Si  Si3  1  0.733496  0.266504  0.750000  1
  Tc  Tc4  1  0.829026  0.170974  0.059827  1
  Tc  Tc5  1  0.170974  0.829026  0.940173  1
  Tc  Tc6  1  0.170974  0.829026  0.559827  1
  Tc  Tc7  1  0.829026  0.170974  0.440173  1
  C  C8  1  0.000000  0.000000  0.000000  1
  C  C9  1  0.000000  0.000000  0.500000  1
