# generated using pymatgen
data_U4ReMo3C8
_symmetry_space_group_name_H-M   'P 1'
_cell_length_a   3.20360800
_cell_length_b   5.63081926
_cell_length_c   11.08883142
_cell_angle_alpha   90.12328978
_cell_angle_beta   90.00000000
_cell_angle_gamma   90.00000000
_symmetry_Int_Tables_number   1
_chemical_formula_structural   U4ReMo3C8
_chemical_formula_sum   'U4 Re1 Mo3 C8'
_cell_volume   200.03027518
_cell_formula_units_Z   1
loop_
 _symmetry_equiv_pos_site_id
 _symmetry_equiv_pos_as_xyz
  1  'x, y, z'
loop_
 _atom_site_type_symbol
 _atom_site_label
 _atom_site_symmetry_multiplicity
 _atom_site_fract_x
 _atom_site_fract_y
 _atom_site_fract_z
 _atom_site_occupancy
  U  U0  1  0.250000  0.080372  0.857788  1
  U  U1  1  0.250000  0.579640  0.642449  1
  U  U2  1  0.750000  0.920997  0.141845  1
  U  U3  1  0.750000  0.419175  0.358384  1
  Re  Re4  1  0.750000  0.077424  0.602025  1
  Mo  Mo5  1  0.250000  0.423165  0.100966  1
  Mo  Mo6  1  0.250000  0.920085  0.399320  1
  Mo  Mo7  1  0.750000  0.578046  0.897904  1
  C  C8  1  0.250000  0.163141  0.244238  1
  C  C9  1  0.250000  0.663557  0.256644  1
  C  C10  1  0.750000  0.840020  0.753594  1
  C  C11  1  0.750000  0.335127  0.742664  1
  C  C12  1  0.250000  0.750804  0.992601  1
  C  C13  1  0.250000  0.247198  0.508597  1
  C  C14  1  0.750000  0.250969  0.006680  1
  C  C15  1  0.750000  0.750280  0.494299  1
