# generated using pymatgen
data_Tm3Pa(B6Mo)2
_symmetry_space_group_name_H-M   'P 1'
_cell_length_a   3.67529800
_cell_length_b   9.18952240
_cell_length_c   11.56296371
_cell_angle_alpha   90.19859914
_cell_angle_beta   90.00000000
_cell_angle_gamma   90.00000000
_symmetry_Int_Tables_number   1
_chemical_formula_structural   Tm3Pa(B6Mo)2
_chemical_formula_sum   'Tm6 Pa2 B24 Mo4'
_cell_volume   390.52788776
_cell_formula_units_Z   2
loop_
 _symmetry_equiv_pos_site_id
 _symmetry_equiv_pos_as_xyz
  1  'x, y, z'
loop_
 _atom_site_type_symbol
 _atom_site_label
 _atom_site_symmetry_multiplicity
 _atom_site_fract_x
 _atom_site_fract_y
 _atom_site_fract_z
 _atom_site_occupancy
  Tm  Tm0  1  0.000000  0.822813  0.085578  1
  Tm  Tm1  1  0.000000  0.177187  0.914422  1
  Tm  Tm2  1  0.000000  0.944093  0.371192  1
  Tm  Tm3  1  0.000000  0.055907  0.628808  1
  Tm  Tm4  1  0.000000  0.443675  0.127275  1
  Tm  Tm5  1  0.000000  0.556325  0.872725  1
  Pa  Pa6  1  0.000000  0.320916  0.413631  1
  Pa  Pa7  1  0.000000  0.679084  0.586369  1
  B  B8  1  0.500000  0.552317  0.433748  1
  B  B9  1  0.500000  0.447683  0.566252  1
  B  B10  1  0.500000  0.052260  0.065375  1
  B  B11  1  0.500000  0.947740  0.934625  1
  B  B12  1  0.500000  0.750695  0.419719  1
  B  B13  1  0.500000  0.249305  0.580281  1
  B  B14  1  0.500000  0.250816  0.078512  1
  B  B15  1  0.500000  0.749184  0.921488  1
  B  B16  1  0.500000  0.793824  0.264081  1
  B  B17  1  0.500000  0.206176  0.735919  1
  B  B18  1  0.500000  0.294214  0.235212  1
  B  B19  1  0.500000  0.705786  0.764788  1
  B  B20  1  0.500000  0.631055  0.183125  1
  B  B21  1  0.500000  0.368945  0.816875  1
  B  B22  1  0.500000  0.131561  0.315782  1
  B  B23  1  0.500000  0.868439  0.684218  1
  B  B24  1  0.500000  0.979794  0.211969  1
  B  B25  1  0.500000  0.020206  0.788031  1
  B  B26  1  0.500000  0.480200  0.286783  1
  B  B27  1  0.500000  0.519800  0.713217  1
  B  B28  1  0.500000  0.601137  0.028533  1
  B  B29  1  0.500000  0.398863  0.971467  1
  B  B30  1  0.500000  0.105805  0.470805  1
  B  B31  1  0.500000  0.894195  0.529195  1
  Mo  Mo32  1  0.000000  0.636700  0.322823  1
  Mo  Mo33  1  0.000000  0.363300  0.677177  1
  Mo  Mo34  1  0.000000  0.141238  0.181262  1
  Mo  Mo35  1  0.000000  0.858762  0.818738  1
