# generated using pymatgen
data_Ho8SbPd23Pt
_symmetry_space_group_name_H-M   'P 1'
_cell_length_a   8.39043000
_cell_length_b   8.38534900
_cell_length_c   8.38534900
_cell_angle_alpha   90.00000000
_cell_angle_beta   90.00000000
_cell_angle_gamma   90.00000000
_symmetry_Int_Tables_number   1
_chemical_formula_structural   Ho8SbPd23Pt
_chemical_formula_sum   'Ho8 Sb1 Pd23 Pt1'
_cell_volume   589.96534823
_cell_formula_units_Z   1
loop_
 _symmetry_equiv_pos_site_id
 _symmetry_equiv_pos_as_xyz
  1  'x, y, z'
loop_
 _atom_site_type_symbol
 _atom_site_label
 _atom_site_symmetry_multiplicity
 _atom_site_fract_x
 _atom_site_fract_y
 _atom_site_fract_z
 _atom_site_occupancy
  Ho  Ho0  1  0.745737  0.745669  0.254331  1
  Ho  Ho1  1  0.745737  0.254331  0.745669  1
  Ho  Ho2  1  0.254283  0.745333  0.745333  1
  Ho  Ho3  1  0.745737  0.745669  0.745669  1
  Ho  Ho4  1  0.745737  0.254331  0.254331  1
  Ho  Ho5  1  0.254283  0.254667  0.745333  1
  Ho  Ho6  1  0.254283  0.745333  0.254667  1
  Ho  Ho7  1  0.254283  0.254667  0.254667  1
  Sb  Sb8  1  0.000062  0.000000  0.000000  1
  Pd  Pd9  1  0.999914  0.000000  0.305426  1
  Pd  Pd10  1  0.735508  0.000000  0.500000  1
  Pd  Pd11  1  0.735508  0.500000  0.000000  1
  Pd  Pd12  1  0.500082  0.000000  0.735549  1
  Pd  Pd13  1  0.999996  0.735575  0.500000  1
  Pd  Pd14  1  0.500082  0.000000  0.264451  1
  Pd  Pd15  1  0.999996  0.264425  0.500000  1
  Pd  Pd16  1  0.500082  0.735549  0.000000  1
  Pd  Pd17  1  0.500024  0.500000  0.745621  1
  Pd  Pd18  1  0.500024  0.500000  0.254379  1
  Pd  Pd19  1  0.500024  0.254379  0.500000  1
  Pd  Pd20  1  0.500024  0.745621  0.500000  1
  Pd  Pd21  1  0.745640  0.500000  0.500000  1
  Pd  Pd22  1  0.305646  0.000000  0.000000  1
  Pd  Pd23  1  0.999914  0.000000  0.694574  1
  Pd  Pd24  1  0.999996  0.500000  0.264425  1
  Pd  Pd25  1  0.999914  0.305426  0.000000  1
  Pd  Pd26  1  0.999914  0.694574  0.000000  1
  Pd  Pd27  1  0.694421  0.000000  0.000000  1
  Pd  Pd28  1  0.264463  0.500000  0.000000  1
  Pd  Pd29  1  0.264463  0.000000  0.500000  1
  Pd  Pd30  1  0.999996  0.500000  0.735575  1
  Pd  Pd31  1  0.500082  0.264451  0.000000  1
  Pt  Pt32  1  0.254141  0.500000  0.500000  1
