# generated using pymatgen
data_Sm4TcI4
_symmetry_space_group_name_H-M   'P 1'
_cell_length_a   11.03770745
_cell_length_b   11.03770852
_cell_length_c   6.36942844
_cell_angle_alpha   90.52363725
_cell_angle_beta   90.52364569
_cell_angle_gamma   89.67827889
_symmetry_Int_Tables_number   1
_chemical_formula_structural   Sm4TcI4
_chemical_formula_sum   'Sm8 Tc2 I8'
_cell_volume   775.91713416
_cell_formula_units_Z   2
loop_
 _symmetry_equiv_pos_site_id
 _symmetry_equiv_pos_as_xyz
  1  'x, y, z'
loop_
 _atom_site_type_symbol
 _atom_site_label
 _atom_site_symmetry_multiplicity
 _atom_site_fract_x
 _atom_site_fract_y
 _atom_site_fract_z
 _atom_site_occupancy
  Sm  Sm0  1  0.791135  0.084226  0.997778  1
  Sm  Sm1  1  0.084226  0.791135  0.497778  1
  Sm  Sm2  1  0.083340  0.209037  0.005325  1
  Sm  Sm3  1  0.209037  0.083340  0.505325  1
  Sm  Sm4  1  0.916660  0.790963  0.994675  1
  Sm  Sm5  1  0.915774  0.208865  0.502222  1
  Sm  Sm6  1  0.208865  0.915774  0.002222  1
  Sm  Sm7  1  0.790963  0.916660  0.494675  1
  Tc  Tc8  1  0.999982  0.000018  0.250000  1
  Tc  Tc9  1  0.000018  0.999982  0.750000  1
  I  I10  1  0.631136  0.160160  0.500382  1
  I  I11  1  0.842236  0.631948  0.501577  1
  I  I12  1  0.368052  0.157764  0.998423  1
  I  I13  1  0.157764  0.368052  0.498423  1
  I  I14  1  0.631948  0.842236  0.001577  1
  I  I15  1  0.368864  0.839840  0.499618  1
  I  I16  1  0.160160  0.631136  0.000382  1
  I  I17  1  0.839840  0.368864  0.999618  1
