# generated using pymatgen
data_Dy2Er2Ga17SiIr6
_symmetry_space_group_name_H-M   'P 1'
_cell_length_a   7.57565238
_cell_length_b   7.55562926
_cell_length_c   9.47015502
_cell_angle_alpha   90.06279992
_cell_angle_beta   89.81178898
_cell_angle_gamma   119.91825969
_symmetry_Int_Tables_number   1
_chemical_formula_structural   Dy2Er2Ga17SiIr6
_chemical_formula_sum   'Dy2 Er2 Ga17 Si1 Ir6'
_cell_volume   469.82172535
_cell_formula_units_Z   1
loop_
 _symmetry_equiv_pos_site_id
 _symmetry_equiv_pos_as_xyz
  1  'x, y, z'
loop_
 _atom_site_type_symbol
 _atom_site_label
 _atom_site_symmetry_multiplicity
 _atom_site_fract_x
 _atom_site_fract_y
 _atom_site_fract_z
 _atom_site_occupancy
  Dy  Dy0  1  0.672866  0.001425  0.248439  1
  Dy  Dy1  1  0.330961  0.002694  0.750046  1
  Er  Er2  1  0.997014  0.665170  0.248393  1
  Er  Er3  1  0.002867  0.331333  0.751228  1
  Ga  Ga4  1  0.128995  0.128308  0.250778  1
  Ga  Ga5  1  0.873369  0.874349  0.750641  1
  Ga  Ga6  1  0.999605  0.670053  0.917701  1
  Ga  Ga7  1  0.000824  0.665958  0.580333  1
  Ga  Ga8  1  0.333687  0.998159  0.419440  1
  Ga  Ga9  1  0.999286  0.334547  0.420557  1
  Ga  Ga10  1  0.665534  0.000495  0.580486  1
  Ga  Ga11  1  0.660124  0.995736  0.917717  1
  Ga  Ga12  1  0.333615  0.997963  0.081513  1
  Ga  Ga13  1  0.332092  0.331634  0.564938  1
  Ga  Ga14  1  0.668596  0.668838  0.434667  1
  Ga  Ga15  1  0.668286  0.668922  0.067038  1
  Ga  Ga16  1  0.336991  0.332387  0.933616  1
  Ga  Ga17  1  0.340668  0.546146  0.251346  1
  Ga  Ga18  1  0.661220  0.452478  0.750882  1
  Ga  Ga19  1  0.547236  0.339616  0.250412  1
  Ga  Ga20  1  0.451989  0.659641  0.750278  1
  Si  Si21  1  0.999387  0.334409  0.073517  1
  Ir  Ir22  1  0.683957  0.329598  0.003240  1
  Ir  Ir23  1  0.313921  0.656937  0.001667  1
  Ir  Ir24  1  0.327819  0.671029  0.500137  1
  Ir  Ir25  1  0.671604  0.328494  0.499927  1
  Ir  Ir26  1  0.998162  0.013525  0.001433  1
  Ir  Ir27  1  0.999324  0.000151  0.499632  1
