# generated using pymatgen
data_Zr10AlSnPb4
_symmetry_space_group_name_H-M   'P 1'
_cell_length_a   5.65276760
_cell_length_b   8.54763244
_cell_length_c   8.54762101
_cell_angle_alpha   96.28604527
_cell_angle_beta   109.30892294
_cell_angle_gamma   70.69086346
_symmetry_Int_Tables_number   1
_chemical_formula_structural   Zr10AlSnPb4
_chemical_formula_sum   'Zr10 Al1 Sn1 Pb4'
_cell_volume   367.84520009
_cell_formula_units_Z   1
loop_
 _symmetry_equiv_pos_site_id
 _symmetry_equiv_pos_as_xyz
  1  'x, y, z'
loop_
 _atom_site_type_symbol
 _atom_site_label
 _atom_site_symmetry_multiplicity
 _atom_site_fract_x
 _atom_site_fract_y
 _atom_site_fract_z
 _atom_site_occupancy
  Zr  Zr0  1  0.430333  0.860538  0.708006  1
  Zr  Zr1  1  0.582864  0.139462  0.291995  1
  Zr  Zr2  1  0.917135  0.291994  0.139462  1
  Zr  Zr3  1  0.069669  0.708005  0.860538  1
  Zr  Zr4  1  0.722298  0.708013  0.139436  1
  Zr  Zr5  1  0.290877  0.291987  0.860564  1
  Zr  Zr6  1  0.777701  0.139436  0.708013  1
  Zr  Zr7  1  0.209124  0.860564  0.291987  1
  Zr  Zr8  1  0.250000  0.500000  0.500000  1
  Zr  Zr9  1  0.750000  0.500000  0.500000  1
  Al  Al10  1  0.750000  0.000000  0.000000  1
  Sn  Sn11  1  0.250000  0.000000  0.000000  1
  Pb  Pb12  1  0.334969  0.500037  0.169974  1
  Pb  Pb13  1  0.665032  0.499963  0.830026  1
  Pb  Pb14  1  0.834967  0.830026  0.499963  1
  Pb  Pb15  1  0.165032  0.169974  0.500037  1
