# generated using pymatgen
data_Yb8Si13Ge
_symmetry_space_group_name_H-M   'P 1'
_cell_length_a   7.89769500
_cell_length_b   7.86298128
_cell_length_c   8.66875300
_cell_angle_alpha   90.00000000
_cell_angle_beta   90.00000000
_cell_angle_gamma   120.58891813
_symmetry_Int_Tables_number   1
_chemical_formula_structural   Yb8Si13Ge
_chemical_formula_sum   'Yb8 Si13 Ge1'
_cell_volume   463.41160208
_cell_formula_units_Z   1
loop_
 _symmetry_equiv_pos_site_id
 _symmetry_equiv_pos_as_xyz
  1  'x, y, z'
loop_
 _atom_site_type_symbol
 _atom_site_label
 _atom_site_symmetry_multiplicity
 _atom_site_fract_x
 _atom_site_fract_y
 _atom_site_fract_z
 _atom_site_occupancy
  Yb  Yb0  1  0.252152  0.251614  0.998936  1
  Yb  Yb1  1  0.749893  0.750536  0.999672  1
  Yb  Yb2  1  0.749893  0.750536  0.500328  1
  Yb  Yb3  1  0.252152  0.251614  0.501064  1
  Yb  Yb4  1  0.252325  0.748053  0.492896  1
  Yb  Yb5  1  0.747317  0.252761  0.507990  1
  Yb  Yb6  1  0.747317  0.252761  0.992010  1
  Yb  Yb7  1  0.252325  0.748053  0.007104  1
  Si  Si8  1  0.940945  0.626800  0.750000  1
  Si  Si9  1  0.585150  0.416948  0.250000  1
  Si  Si10  1  0.415283  0.584223  0.750000  1
  Si  Si11  1  0.414602  0.590716  0.250000  1
  Si  Si12  1  0.589116  0.411665  0.750000  1
  Si  Si13  1  0.068356  0.935325  0.250000  1
  Si  Si14  1  0.933003  0.067166  0.750000  1
  Si  Si15  1  0.627509  0.943301  0.250000  1
  Si  Si16  1  0.373571  0.058308  0.750000  1
  Si  Si17  1  0.928289  0.588269  0.250000  1
  Si  Si18  1  0.070369  0.413920  0.750000  1
  Si  Si19  1  0.413360  0.070808  0.250000  1
  Si  Si20  1  0.587414  0.930454  0.750000  1
  Ge  Ge21  1  0.049658  0.356170  0.250000  1
