# generated using pymatgen
data_Nd8Ho12Si15Rh
_symmetry_space_group_name_H-M   'P 1'
_cell_length_a   7.52757611
_cell_length_b   7.77322318
_cell_length_c   14.76825900
_cell_angle_alpha   89.89873830
_cell_angle_beta   89.77294220
_cell_angle_gamma   90.27383992
_symmetry_Int_Tables_number   1
_chemical_formula_structural   Nd8Ho12Si15Rh
_chemical_formula_sum   'Nd8 Ho12 Si15 Rh1'
_cell_volume   864.12491920
_cell_formula_units_Z   1
loop_
 _symmetry_equiv_pos_site_id
 _symmetry_equiv_pos_as_xyz
  1  'x, y, z'
loop_
 _atom_site_type_symbol
 _atom_site_label
 _atom_site_symmetry_multiplicity
 _atom_site_fract_x
 _atom_site_fract_y
 _atom_site_fract_z
 _atom_site_occupancy
  Nd  Nd0  1  0.976293  0.818426  0.097546  1
  Nd  Nd1  1  0.474742  0.678280  0.401669  1
  Nd  Nd2  1  0.526814  0.324419  0.900571  1
  Nd  Nd3  1  0.025963  0.180620  0.598854  1
  Nd  Nd4  1  0.024640  0.180750  0.901964  1
  Nd  Nd5  1  0.526729  0.321347  0.599009  1
  Nd  Nd6  1  0.475800  0.679224  0.100054  1
  Nd  Nd7  1  0.974084  0.820108  0.400818  1
  Ho  Ho8  1  0.650819  0.994141  0.249466  1
  Ho  Ho9  1  0.149811  0.508878  0.247480  1
  Ho  Ho10  1  0.846799  0.491738  0.757446  1
  Ho  Ho11  1  0.348574  0.009397  0.751703  1
  Ho  Ho12  1  0.680971  0.813859  0.881458  1
  Ho  Ho13  1  0.178075  0.680971  0.622367  1
  Ho  Ho14  1  0.821123  0.333588  0.118912  1
  Ho  Ho15  1  0.316876  0.176938  0.376013  1
  Ho  Ho16  1  0.321688  0.178095  0.123802  1
  Ho  Ho17  1  0.820061  0.320203  0.376974  1
  Ho  Ho18  1  0.175105  0.673986  0.878801  1
  Ho  Ho19  1  0.681794  0.820137  0.622812  1
  Si  Si20  1  0.767501  0.623558  0.251223  1
  Si  Si21  1  0.269366  0.877097  0.250889  1
  Si  Si22  1  0.730412  0.118638  0.749431  1
  Si  Si23  1  0.232487  0.379035  0.747217  1
  Si  Si24  1  0.022040  0.114568  0.248475  1
  Si  Si25  1  0.525835  0.388280  0.251513  1
  Si  Si26  1  0.469894  0.613520  0.746860  1
  Si  Si27  1  0.974029  0.888816  0.749071  1
  Si  Si28  1  0.355670  0.969977  0.539447  1
  Si  Si29  1  0.643979  0.031323  0.040827  1
  Si  Si30  1  0.145240  0.468349  0.460185  1
  Si  Si31  1  0.153315  0.467470  0.041346  1
  Si  Si32  1  0.643522  0.030828  0.460133  1
  Si  Si33  1  0.354393  0.967694  0.961261  1
  Si  Si34  1  0.856313  0.530991  0.538701  1
  Rh  Rh35  1  0.859244  0.524755  0.955701  1
