# generated using pymatgen
data_TbNdMnCo16
_symmetry_space_group_name_H-M   'P 1'
_cell_length_a   6.32013489
_cell_length_b   6.32013417
_cell_length_c   6.32013414
_cell_angle_alpha   83.10903126
_cell_angle_beta   83.10903489
_cell_angle_gamma   83.10903894
_symmetry_Int_Tables_number   1
_chemical_formula_structural   TbNdMnCo16
_chemical_formula_sum   'Tb1 Nd1 Mn1 Co16'
_cell_volume   247.38609200
_cell_formula_units_Z   1
loop_
 _symmetry_equiv_pos_site_id
 _symmetry_equiv_pos_as_xyz
  1  'x, y, z'
loop_
 _atom_site_type_symbol
 _atom_site_label
 _atom_site_symmetry_multiplicity
 _atom_site_fract_x
 _atom_site_fract_y
 _atom_site_fract_z
 _atom_site_occupancy
  Tb  Tb0  1  0.656607  0.656607  0.656607  1
  Nd  Nd1  1  0.346736  0.346736  0.346736  1
  Mn  Mn2  1  0.096169  0.096169  0.096169  1
  Co  Co3  1  0.713207  0.287044  0.997704  1
  Co  Co4  1  0.997704  0.713207  0.287044  1
  Co  Co5  1  0.287044  0.997704  0.713207  1
  Co  Co6  1  0.997704  0.287044  0.713207  1
  Co  Co7  1  0.713207  0.997704  0.287044  1
  Co  Co8  1  0.287044  0.713207  0.997704  1
  Co  Co9  1  0.347323  0.347323  0.847910  1
  Co  Co10  1  0.847910  0.347323  0.347323  1
  Co  Co11  1  0.347323  0.847910  0.347323  1
  Co  Co12  1  0.656963  0.656963  0.151823  1
  Co  Co13  1  0.151823  0.656963  0.656963  1
  Co  Co14  1  0.656963  0.151823  0.656963  1
  Co  Co15  1  0.996424  0.996424  0.504969  1
  Co  Co16  1  0.504969  0.996424  0.996424  1
  Co  Co17  1  0.996424  0.504969  0.996424  1
  Co  Co18  1  0.898459  0.898459  0.898459  1
