# generated using pymatgen
data_Rb7Nb(SeO4)6
_symmetry_space_group_name_H-M   'P 1'
_cell_length_a   10.12876067
_cell_length_b   10.12876023
_cell_length_c   10.12876149
_cell_angle_alpha   109.48704459
_cell_angle_beta   109.48703571
_cell_angle_gamma   109.48704373
_symmetry_Int_Tables_number   1
_chemical_formula_structural   Rb7Nb(SeO4)6
_chemical_formula_sum   'Rb7 Nb1 Se6 O24'
_cell_volume   799.45202412
_cell_formula_units_Z   1
loop_
 _symmetry_equiv_pos_site_id
 _symmetry_equiv_pos_as_xyz
  1  'x, y, z'
loop_
 _atom_site_type_symbol
 _atom_site_label
 _atom_site_symmetry_multiplicity
 _atom_site_fract_x
 _atom_site_fract_y
 _atom_site_fract_z
 _atom_site_occupancy
  Rb  Rb0  1  0.500000  0.500000  0.500000  1
  Rb  Rb1  1  0.835108  0.333776  0.674879  1
  Rb  Rb2  1  0.333776  0.674879  0.835108  1
  Rb  Rb3  1  0.674879  0.835108  0.333776  1
  Rb  Rb4  1  0.164892  0.666224  0.325121  1
  Rb  Rb5  1  0.666224  0.325121  0.164892  1
  Rb  Rb6  1  0.325121  0.164892  0.666224  1
  Nb  Nb7  1  0.000000  0.000000  0.000000  1
  Se  Se8  1  0.969569  0.749088  0.625228  1
  Se  Se9  1  0.749088  0.625228  0.969569  1
  Se  Se10  1  0.625228  0.969569  0.749088  1
  Se  Se11  1  0.030431  0.250912  0.374772  1
  Se  Se12  1  0.250912  0.374772  0.030431  1
  Se  Se13  1  0.374772  0.030431  0.250912  1
  O  O14  1  0.420885  0.901137  0.155670  1
  O  O15  1  0.901137  0.155670  0.420885  1
  O  O16  1  0.155670  0.420885  0.901137  1
  O  O17  1  0.579115  0.098863  0.844330  1
  O  O18  1  0.098863  0.844330  0.579115  1
  O  O19  1  0.844330  0.579115  0.098863  1
  O  O20  1  0.306286  0.982731  0.364934  1
  O  O21  1  0.982731  0.364934  0.306286  1
  O  O22  1  0.364934  0.306286  0.982731  1
  O  O23  1  0.693714  0.017269  0.635066  1
  O  O24  1  0.017269  0.635066  0.693714  1
  O  O25  1  0.635066  0.693714  0.017269  1
  O  O26  1  0.780583  0.978057  0.902516  1
  O  O27  1  0.978057  0.902516  0.780583  1
  O  O28  1  0.647781  0.474700  0.779615  1
  O  O29  1  0.779615  0.647781  0.474700  1
  O  O30  1  0.474700  0.779615  0.647781  1
  O  O31  1  0.352219  0.525300  0.220385  1
  O  O32  1  0.220385  0.352219  0.525300  1
  O  O33  1  0.525300  0.220385  0.352219  1
  O  O34  1  0.097484  0.219417  0.021943  1
  O  O35  1  0.021943  0.097484  0.219417  1
  O  O36  1  0.219417  0.021943  0.097484  1
  O  O37  1  0.902516  0.780583  0.978057  1
