# generated using pymatgen
data_Tb10GaTcSb4
_symmetry_space_group_name_H-M   'P 1'
_cell_length_a   7.98346100
_cell_length_b   9.10094700
_cell_length_c   12.12522700
_cell_angle_alpha   90.00000000
_cell_angle_beta   90.00000000
_cell_angle_gamma   90.00000000
_symmetry_Int_Tables_number   1
_chemical_formula_structural   Tb10GaTcSb4
_chemical_formula_sum   'Tb20 Ga2 Tc2 Sb8'
_cell_volume   880.98329033
_cell_formula_units_Z   2
loop_
 _symmetry_equiv_pos_site_id
 _symmetry_equiv_pos_as_xyz
  1  'x, y, z'
loop_
 _atom_site_type_symbol
 _atom_site_label
 _atom_site_symmetry_multiplicity
 _atom_site_fract_x
 _atom_site_fract_y
 _atom_site_fract_z
 _atom_site_occupancy
  Tb  Tb0  1  0.172110  0.750000  0.222110  1
  Tb  Tb1  1  0.672110  0.250000  0.277890  1
  Tb  Tb2  1  0.844478  0.250000  0.789374  1
  Tb  Tb3  1  0.344478  0.750000  0.710626  1
  Tb  Tb4  1  0.466313  0.750000  0.000029  1
  Tb  Tb5  1  0.966313  0.250000  0.499971  1
  Tb  Tb6  1  0.539987  0.250000  0.999490  1
  Tb  Tb7  1  0.039987  0.750000  0.500510  1
  Tb  Tb8  1  0.631102  0.750000  0.298258  1
  Tb  Tb9  1  0.131102  0.250000  0.201742  1
  Tb  Tb10  1  0.361627  0.250000  0.707009  1
  Tb  Tb11  1  0.861627  0.750000  0.792991  1
  Tb  Tb12  1  0.815977  0.970404  0.065712  1
  Tb  Tb13  1  0.315977  0.029596  0.434288  1
  Tb  Tb14  1  0.179538  0.448482  0.936702  1
  Tb  Tb15  1  0.679538  0.551518  0.563298  1
  Tb  Tb16  1  0.179538  0.051518  0.936702  1
  Tb  Tb17  1  0.679538  0.948482  0.563298  1
  Tb  Tb18  1  0.815977  0.529596  0.065712  1
  Tb  Tb19  1  0.315977  0.470404  0.434288  1
  Ga  Ga20  1  0.576530  0.250000  0.515162  1
  Ga  Ga21  1  0.076530  0.750000  0.984838  1
  Tc  Tc22  1  0.415417  0.750000  0.481720  1
  Tc  Tc23  1  0.915417  0.250000  0.018280  1
  Sb  Sb24  1  0.928170  0.991873  0.329013  1
  Sb  Sb25  1  0.428170  0.008127  0.170987  1
  Sb  Sb26  1  0.072533  0.492521  0.672743  1
  Sb  Sb27  1  0.572533  0.507479  0.827257  1
  Sb  Sb28  1  0.072533  0.007479  0.672743  1
  Sb  Sb29  1  0.572533  0.992521  0.827257  1
  Sb  Sb30  1  0.928170  0.508127  0.329013  1
  Sb  Sb31  1  0.428170  0.491873  0.170987  1
