# generated using pymatgen
data_SrNd11(GaIr)8
_symmetry_space_group_name_H-M   'P 1'
_cell_length_a   5.79060891
_cell_length_b   8.14939087
_cell_length_c   13.65842104
_cell_angle_alpha   90.12155976
_cell_angle_beta   89.73666603
_cell_angle_gamma   89.61058276
_symmetry_Int_Tables_number   1
_chemical_formula_structural   SrNd11(GaIr)8
_chemical_formula_sum   'Sr1 Nd11 Ga8 Ir8'
_cell_volume   644.51681792
_cell_formula_units_Z   1
loop_
 _symmetry_equiv_pos_site_id
 _symmetry_equiv_pos_as_xyz
  1  'x, y, z'
loop_
 _atom_site_type_symbol
 _atom_site_label
 _atom_site_symmetry_multiplicity
 _atom_site_fract_x
 _atom_site_fract_y
 _atom_site_fract_z
 _atom_site_occupancy
  Sr  Sr0  1  0.860741  0.895277  0.099650  1
  Nd  Nd1  1  0.628443  0.253323  0.250368  1
  Nd  Nd2  1  0.375034  0.747642  0.750335  1
  Nd  Nd3  1  0.377531  0.752666  0.250568  1
  Nd  Nd4  1  0.623876  0.243819  0.748105  1
  Nd  Nd5  1  0.148710  0.394767  0.099074  1
  Nd  Nd6  1  0.852790  0.603609  0.902161  1
  Nd  Nd7  1  0.854813  0.604568  0.599331  1
  Nd  Nd8  1  0.860234  0.894254  0.403307  1
  Nd  Nd9  1  0.144631  0.395199  0.402814  1
  Nd  Nd10  1  0.145773  0.104160  0.599093  1
  Nd  Nd11  1  0.138408  0.106239  0.901273  1
  Ga  Ga12  1  0.138170  0.103112  0.251523  1
  Ga  Ga13  1  0.869688  0.896475  0.749698  1
  Ga  Ga14  1  0.870316  0.598143  0.250942  1
  Ga  Ga15  1  0.128366  0.397375  0.749854  1
  Ga  Ga16  1  0.619082  0.251275  0.995817  1
  Ga  Ga17  1  0.381193  0.751681  0.000619  1
  Ga  Ga18  1  0.376352  0.749994  0.500701  1
  Ga  Ga19  1  0.623455  0.250636  0.500025  1
  Ir  Ir20  1  0.357135  0.038873  0.090629  1
  Ir  Ir21  1  0.631959  0.970117  0.903653  1
  Ir  Ir22  1  0.647444  0.968579  0.591172  1
  Ir  Ir23  1  0.645472  0.530872  0.408012  1
  Ir  Ir24  1  0.358403  0.030801  0.408117  1
  Ir  Ir25  1  0.350772  0.469098  0.592060  1
  Ir  Ir26  1  0.347790  0.471540  0.906927  1
  Ir  Ir27  1  0.643417  0.525905  0.094172  1
