# generated using pymatgen
data_CePr7(MgIr)8
_symmetry_space_group_name_H-M   'P 1'
_cell_length_a   4.16977700
_cell_length_b   7.51514925
_cell_length_c   17.00124000
_cell_angle_alpha   89.64133244
_cell_angle_beta   90.00000000
_cell_angle_gamma   90.00000000
_symmetry_Int_Tables_number   1
_chemical_formula_structural   CePr7(MgIr)8
_chemical_formula_sum   'Ce1 Pr7 Mg8 Ir8'
_cell_volume   532.74885890
_cell_formula_units_Z   1
loop_
 _symmetry_equiv_pos_site_id
 _symmetry_equiv_pos_as_xyz
  1  'x, y, z'
loop_
 _atom_site_type_symbol
 _atom_site_label
 _atom_site_symmetry_multiplicity
 _atom_site_fract_x
 _atom_site_fract_y
 _atom_site_fract_z
 _atom_site_occupancy
  Ce  Ce0  1  0.750000  0.449456  0.217478  1
  Pr  Pr1  1  0.750000  0.950386  0.281673  1
  Pr  Pr2  1  0.750000  0.835390  0.062111  1
  Pr  Pr3  1  0.250000  0.047840  0.716878  1
  Pr  Pr4  1  0.250000  0.159067  0.939775  1
  Pr  Pr5  1  0.250000  0.547168  0.783329  1
  Pr  Pr6  1  0.750000  0.342846  0.438089  1
  Pr  Pr7  1  0.250000  0.662818  0.560941  1
  Mg  Mg8  1  0.250000  0.001196  0.434906  1
  Mg  Mg9  1  0.750000  0.502923  0.936817  1
  Mg  Mg10  1  0.750000  0.005930  0.563433  1
  Mg  Mg11  1  0.250000  0.629029  0.350265  1
  Mg  Mg12  1  0.750000  0.373336  0.649929  1
  Mg  Mg13  1  0.750000  0.872552  0.850179  1
  Mg  Mg14  1  0.250000  0.493464  0.064233  1
  Mg  Mg15  1  0.250000  0.126478  0.150574  1
  Ir  Ir16  1  0.250000  0.248808  0.560655  1
  Ir  Ir17  1  0.750000  0.254696  0.065348  1
  Ir  Ir18  1  0.250000  0.262058  0.304197  1
  Ir  Ir19  1  0.750000  0.250567  0.812175  1
  Ir  Ir20  1  0.250000  0.747338  0.939584  1
  Ir  Ir21  1  0.750000  0.751244  0.688902  1
  Ir  Ir22  1  0.750000  0.759289  0.437704  1
  Ir  Ir23  1  0.250000  0.726123  0.190825  1
