# generated using pymatgen
data_Sm8Tm12Si15Br
_symmetry_space_group_name_H-M   'P 1'
_cell_length_a   7.48830042
_cell_length_b   7.65721563
_cell_length_c   14.57839300
_cell_angle_alpha   89.76957312
_cell_angle_beta   86.88763556
_cell_angle_gamma   89.93938732
_symmetry_Int_Tables_number   1
_chemical_formula_structural   Sm8Tm12Si15Br
_chemical_formula_sum   'Sm8 Tm12 Si15 Br1'
_cell_volume   834.67817342
_cell_formula_units_Z   1
loop_
 _symmetry_equiv_pos_site_id
 _symmetry_equiv_pos_as_xyz
  1  'x, y, z'
loop_
 _atom_site_type_symbol
 _atom_site_label
 _atom_site_symmetry_multiplicity
 _atom_site_fract_x
 _atom_site_fract_y
 _atom_site_fract_z
 _atom_site_occupancy
  Sm  Sm0  1  0.017550  0.179932  0.099346  1
  Sm  Sm1  1  0.982926  0.823372  0.900205  1
  Sm  Sm2  1  0.483276  0.680324  0.901304  1
  Sm  Sm3  1  0.003310  0.830577  0.600504  1
  Sm  Sm4  1  0.517461  0.321175  0.099712  1
  Sm  Sm5  1  0.987560  0.168866  0.396303  1
  Sm  Sm6  1  0.502720  0.311550  0.397149  1
  Sm  Sm7  1  0.515750  0.689188  0.602004  1
  Tm  Tm8  1  0.170520  0.507063  0.756650  1
  Tm  Tm9  1  0.827388  0.493781  0.253829  1
  Tm  Tm10  1  0.326932  0.004251  0.252226  1
  Tm  Tm11  1  0.674533  0.994699  0.748831  1
  Tm  Tm12  1  0.362444  0.155616  0.623475  1
  Tm  Tm13  1  0.642257  0.830617  0.378744  1
  Tm  Tm14  1  0.140729  0.671067  0.375403  1
  Tm  Tm15  1  0.669188  0.822007  0.123051  1
  Tm  Tm16  1  0.844686  0.332511  0.620414  1
  Tm  Tm17  1  0.329575  0.178696  0.875827  1
  Tm  Tm18  1  0.829771  0.324225  0.875329  1
  Tm  Tm19  1  0.170074  0.676886  0.123714  1
  Si  Si20  1  0.047045  0.119988  0.748025  1
  Si  Si21  1  0.952403  0.884029  0.247887  1
  Si  Si22  1  0.453133  0.613813  0.249942  1
  Si  Si23  1  0.543101  0.387592  0.748020  1
  Si  Si24  1  0.292814  0.871609  0.751178  1
  Si  Si25  1  0.707699  0.124096  0.247174  1
  Si  Si26  1  0.208953  0.373592  0.249226  1
  Si  Si27  1  0.795048  0.628064  0.749963  1
  Si  Si28  1  0.798878  0.533481  0.456368  1
  Si  Si29  1  0.296689  0.962025  0.458652  1
  Si  Si30  1  0.849529  0.531679  0.039618  1
  Si  Si31  1  0.698469  0.036652  0.542767  1
  Si  Si32  1  0.148414  0.470743  0.959714  1
  Si  Si33  1  0.648690  0.032906  0.959422  1
  Si  Si34  1  0.349014  0.969365  0.040092  1
  Br  Br35  1  0.211473  0.463968  0.547935  1
