# generated using pymatgen
data_Hf16Nb4Si15Sb
_symmetry_space_group_name_H-M   'P 1'
_cell_length_a   6.80518851
_cell_length_b   6.96975513
_cell_length_c   13.46461409
_cell_angle_alpha   90.08320198
_cell_angle_beta   89.47669022
_cell_angle_gamma   90.04929561
_symmetry_Int_Tables_number   1
_chemical_formula_structural   Hf16Nb4Si15Sb
_chemical_formula_sum   'Hf16 Nb4 Si15 Sb1'
_cell_volume   638.60580553
_cell_formula_units_Z   1
loop_
 _symmetry_equiv_pos_site_id
 _symmetry_equiv_pos_as_xyz
  1  'x, y, z'
loop_
 _atom_site_type_symbol
 _atom_site_label
 _atom_site_symmetry_multiplicity
 _atom_site_fract_x
 _atom_site_fract_y
 _atom_site_fract_z
 _atom_site_occupancy
  Hf  Hf0  1  0.337381  0.676175  0.876968  1
  Hf  Hf1  1  0.835769  0.825366  0.876290  1
  Hf  Hf2  1  0.652730  0.342316  0.370404  1
  Hf  Hf3  1  0.001076  0.675247  0.093226  1
  Hf  Hf4  1  0.478031  0.812932  0.399764  1
  Hf  Hf5  1  0.500226  0.176075  0.905292  1
  Hf  Hf6  1  0.498003  0.183591  0.600465  1
  Hf  Hf7  1  0.000301  0.323906  0.906456  1
  Hf  Hf8  1  0.165600  0.174986  0.123259  1
  Hf  Hf9  1  0.168187  0.174841  0.374567  1
  Hf  Hf10  1  0.999761  0.666074  0.404150  1
  Hf  Hf11  1  0.664645  0.326095  0.122875  1
  Hf  Hf12  1  0.499419  0.824845  0.093523  1
  Hf  Hf13  1  0.009529  0.328866  0.598388  1
  Hf  Hf14  1  0.338176  0.671931  0.626567  1
  Hf  Hf15  1  0.846182  0.817023  0.629970  1
  Nb  Nb16  1  0.665488  0.500875  0.750613  1
  Nb  Nb17  1  0.165600  0.998566  0.750773  1
  Nb  Nb18  1  0.334243  0.499669  0.248837  1
  Nb  Nb19  1  0.835271  0.003744  0.244734  1
  Si  Si20  1  0.676120  0.531772  0.538282  1
  Si  Si21  1  0.170485  0.970443  0.960908  1
  Si  Si22  1  0.297998  0.359956  0.753320  1
  Si  Si23  1  0.830499  0.030248  0.038190  1
  Si  Si24  1  0.329275  0.469418  0.038120  1
  Si  Si25  1  0.462272  0.103812  0.248150  1
  Si  Si26  1  0.703699  0.644610  0.246425  1
  Si  Si27  1  0.961360  0.393437  0.248852  1
  Si  Si28  1  0.798962  0.140778  0.751321  1
  Si  Si29  1  0.671565  0.530460  0.961100  1
  Si  Si30  1  0.190018  0.967834  0.539348  1
  Si  Si31  1  0.040942  0.602295  0.753847  1
  Si  Si32  1  0.321929  0.465495  0.465155  1
  Si  Si33  1  0.539799  0.895028  0.750388  1
  Si  Si34  1  0.198863  0.859228  0.247484  1
  Sb  Sb35  1  0.810595  0.032065  0.461984  1
