# generated using pymatgen
data_Hf2Zr3Sc(SiRu)6
_symmetry_space_group_name_H-M   'P 1'
_cell_length_a   7.65007244
_cell_length_b   7.64369497
_cell_length_c   7.65007331
_cell_angle_alpha   127.70144949
_cell_angle_beta   122.66127912
_cell_angle_gamma   81.32471422
_symmetry_Int_Tables_number   1
_chemical_formula_structural   Hf2Zr3Sc(SiRu)6
_chemical_formula_sum   'Hf2 Zr3 Sc1 Si6 Ru6'
_cell_volume   286.98485297
_cell_formula_units_Z   1
loop_
 _symmetry_equiv_pos_site_id
 _symmetry_equiv_pos_as_xyz
  1  'x, y, z'
loop_
 _atom_site_type_symbol
 _atom_site_label
 _atom_site_symmetry_multiplicity
 _atom_site_fract_x
 _atom_site_fract_y
 _atom_site_fract_z
 _atom_site_occupancy
  Hf  Hf0  1  0.052685  0.256546  0.703861  1
  Hf  Hf1  1  0.947073  0.650014  0.202942  1
  Zr  Zr2  1  0.532627  0.257542  0.224915  1
  Zr  Zr3  1  0.747440  0.834427  0.586987  1
  Zr  Zr4  1  0.252767  0.838529  0.085762  1
  Sc  Sc5  1  0.467280  0.692076  0.724795  1
  Si  Si6  1  0.272563  0.270689  0.498126  1
  Si  Si7  1  0.727800  0.224779  0.996979  1
  Si  Si8  1  0.326727  0.587553  0.251252  1
  Si  Si9  1  0.673793  0.921887  0.258427  1
  Si  Si10  1  0.163459  0.921887  0.748094  1
  Si  Si11  1  0.836301  0.587553  0.760826  1
  Ru  Ru12  1  0.499863  0.498059  0.998758  1
  Ru  Ru13  1  0.999302  0.498059  0.498195  1
  Ru  Ru14  1  0.097293  0.253114  0.103370  1
  Ru  Ru15  1  0.902675  0.006887  0.156282  1
  Ru  Ru16  1  0.350605  0.006887  0.604212  1
  Ru  Ru17  1  0.649744  0.253114  0.655822  1
