# generated using pymatgen
data_Er3Sc2SnBi2
_symmetry_space_group_name_H-M   'P 1'
_cell_length_a   8.88700616
_cell_length_b   8.88410335
_cell_length_c   6.18158200
_cell_angle_alpha   90.00000000
_cell_angle_beta   90.00000000
_cell_angle_gamma   119.98919702
_symmetry_Int_Tables_number   1
_chemical_formula_structural   Er3Sc2SnBi2
_chemical_formula_sum   'Er6 Sc4 Sn2 Bi4'
_cell_volume   422.71398434
_cell_formula_units_Z   2
loop_
 _symmetry_equiv_pos_site_id
 _symmetry_equiv_pos_as_xyz
  1  'x, y, z'
loop_
 _atom_site_type_symbol
 _atom_site_label
 _atom_site_symmetry_multiplicity
 _atom_site_fract_x
 _atom_site_fract_y
 _atom_site_fract_z
 _atom_site_occupancy
  Er  Er0  1  0.995489  0.759968  0.750000  1
  Er  Er1  1  0.995489  0.235520  0.250000  1
  Er  Er2  1  0.758700  0.763780  0.250000  1
  Er  Er3  1  0.758700  0.994921  0.750000  1
  Er  Er4  1  0.242522  0.241848  0.750000  1
  Er  Er5  1  0.242522  0.000673  0.250000  1
  Sc  Sc6  1  0.338149  0.669075  0.500000  1
  Sc  Sc7  1  0.665084  0.332541  0.000000  1
  Sc  Sc8  1  0.665084  0.332541  0.500000  1
  Sc  Sc9  1  0.338149  0.669075  0.000000  1
  Sn  Sn10  1  0.602338  0.601077  0.750000  1
  Sn  Sn11  1  0.602338  0.001262  0.250000  1
  Bi  Bi12  1  0.397285  0.999483  0.750000  1
  Bi  Bi13  1  0.397285  0.397802  0.250000  1
  Bi  Bi14  1  0.000433  0.603685  0.250000  1
  Bi  Bi15  1  0.000433  0.396748  0.750000  1
