# generated using pymatgen
data_Ac3RhI3
_symmetry_space_group_name_H-M   'P 1'
_cell_length_a   4.45991800
_cell_length_b   10.10579896
_cell_length_c   12.97678700
_cell_angle_alpha   87.39123587
_cell_angle_beta   90.00000000
_cell_angle_gamma   90.00000000
_symmetry_Int_Tables_number   1
_chemical_formula_structural   Ac3RhI3
_chemical_formula_sum   'Ac6 Rh2 I6'
_cell_volume   584.27106171
_cell_formula_units_Z   2
loop_
 _symmetry_equiv_pos_site_id
 _symmetry_equiv_pos_as_xyz
  1  'x, y, z'
loop_
 _atom_site_type_symbol
 _atom_site_label
 _atom_site_symmetry_multiplicity
 _atom_site_fract_x
 _atom_site_fract_y
 _atom_site_fract_z
 _atom_site_occupancy
  Ac  Ac0  1  0.750000  0.688325  0.119771  1
  Ac  Ac1  1  0.250000  0.883770  0.338601  1
  Ac  Ac2  1  0.250000  0.311675  0.880229  1
  Ac  Ac3  1  0.250000  0.907844  0.892145  1
  Ac  Ac4  1  0.750000  0.116230  0.661399  1
  Ac  Ac5  1  0.750000  0.092156  0.107855  1
  Rh  Rh6  1  0.250000  0.886459  0.119046  1
  Rh  Rh7  1  0.750000  0.113541  0.880954  1
  I  I8  1  0.250000  0.394913  0.135061  1
  I  I9  1  0.750000  0.138831  0.384403  1
  I  I10  1  0.750000  0.605087  0.864939  1
  I  I11  1  0.250000  0.369176  0.618740  1
  I  I12  1  0.750000  0.630824  0.381260  1
  I  I13  1  0.250000  0.861169  0.615597  1
