# generated using pymatgen
data_La13Y7Si15Au
_symmetry_space_group_name_H-M   'P 1'
_cell_length_a   7.95208754
_cell_length_b   7.96587617
_cell_length_c   14.76675900
_cell_angle_alpha   89.92325437
_cell_angle_beta   89.35649682
_cell_angle_gamma   90.00348216
_symmetry_Int_Tables_number   1
_chemical_formula_structural   La13Y7Si15Au
_chemical_formula_sum   'La13 Y7 Si15 Au1'
_cell_volume   935.34559989
_cell_formula_units_Z   1
loop_
 _symmetry_equiv_pos_site_id
 _symmetry_equiv_pos_as_xyz
  1  'x, y, z'
loop_
 _atom_site_type_symbol
 _atom_site_label
 _atom_site_symmetry_multiplicity
 _atom_site_fract_x
 _atom_site_fract_y
 _atom_site_fract_z
 _atom_site_occupancy
  La  La0  1  0.135093  0.991518  0.875992  1
  La  La1  1  0.994354  0.631612  0.047843  1
  La  La2  1  0.014200  0.356236  0.539815  1
  La  La3  1  0.637560  0.985583  0.958079  1
  La  La4  1  0.139568  0.506904  0.793057  1
  La  La5  1  0.851721  0.485963  0.286575  1
  La  La6  1  0.500864  0.132436  0.205129  1
  La  La7  1  0.500179  0.867633  0.703326  1
  La  La8  1  0.370768  0.017778  0.458221  1
  La  La9  1  0.687990  0.692955  0.497890  1
  La  La10  1  0.824089  0.180055  0.752114  1
  La  La11  1  0.171069  0.814520  0.254861  1
  La  La12  1  0.304468  0.308884  0.995514  1
  Y  Y13  1  0.367105  0.489632  0.376141  1
  Y  Y14  1  0.849626  0.017849  0.366476  1
  Y  Y15  1  0.987829  0.138720  0.128971  1
  Y  Y16  1  0.017019  0.867095  0.626829  1
  Y  Y17  1  0.637561  0.509572  0.876920  1
  Y  Y18  1  0.500743  0.365856  0.623063  1
  Y  Y19  1  0.502954  0.631277  0.125644  1
  Si  Si20  1  0.917806  0.291688  0.946069  1
  Si  Si21  1  0.714453  0.077148  0.557146  1
  Si  Si22  1  0.212500  0.425842  0.194061  1
  Si  Si23  1  0.792359  0.571409  0.690889  1
  Si  Si24  1  0.436855  0.215499  0.803550  1
  Si  Si25  1  0.565655  0.788749  0.306397  1
  Si  Si26  1  0.293729  0.923514  0.062661  1
  Si  Si27  1  0.844152  0.787698  0.807175  1
  Si  Si28  1  0.150961  0.211038  0.314075  1
  Si  Si29  1  0.785999  0.844879  0.186259  1
  Si  Si30  1  0.300058  0.652278  0.564831  1
  Si  Si31  1  0.702063  0.344903  0.062824  1
  Si  Si32  1  0.656079  0.298658  0.439332  1
  Si  Si33  1  0.349494  0.698629  0.945404  1
  Si  Si34  1  0.216044  0.158559  0.684765  1
  Au  Au35  1  0.067035  0.717435  0.442101  1
