# generated using pymatgen
data_Zr6Zn15Ag4Au4Se
_symmetry_space_group_name_H-M   'P 1'
_cell_length_a   8.94111895
_cell_length_b   8.92679339
_cell_length_c   8.92679398
_cell_angle_alpha   60.10792953
_cell_angle_beta   60.17754216
_cell_angle_gamma   60.17754391
_symmetry_Int_Tables_number   1
_chemical_formula_structural   Zr6Zn15Ag4Au4Se
_chemical_formula_sum   'Zr6 Zn15 Ag4 Au4 Se1'
_cell_volume   505.57199877
_cell_formula_units_Z   1
loop_
 _symmetry_equiv_pos_site_id
 _symmetry_equiv_pos_as_xyz
  1  'x, y, z'
loop_
 _atom_site_type_symbol
 _atom_site_label
 _atom_site_symmetry_multiplicity
 _atom_site_fract_x
 _atom_site_fract_y
 _atom_site_fract_z
 _atom_site_occupancy
  Zr  Zr0  1  0.710473  0.286239  0.286239  1
  Zr  Zr1  1  0.296919  0.706658  0.706658  1
  Zr  Zr2  1  0.289882  0.710105  0.289435  1
  Zr  Zr3  1  0.707164  0.292983  0.713301  1
  Zr  Zr4  1  0.289882  0.289435  0.710105  1
  Zr  Zr5  1  0.707164  0.713301  0.292983  1
  Zn  Zn6  1  0.499818  0.999353  0.999353  1
  Zn  Zn7  1  0.000886  0.498938  0.498938  1
  Zn  Zn8  1  0.999010  0.500930  0.001574  1
  Zn  Zn9  1  0.499018  0.001396  0.500662  1
  Zn  Zn10  1  0.999010  0.001574  0.500930  1
  Zn  Zn11  1  0.499018  0.500662  0.001396  1
  Zn  Zn12  1  0.334074  0.334949  0.334949  1
  Zn  Zn13  1  0.665877  0.666248  0.666248  1
  Zn  Zn14  1  0.333780  0.335400  0.995905  1
  Zn  Zn15  1  0.333780  0.995905  0.335400  1
  Zn  Zn16  1  0.664953  0.665071  0.006050  1
  Zn  Zn17  1  0.664953  0.006050  0.665071  1
  Zn  Zn18  1  0.991915  0.336119  0.336119  1
  Zn  Zn19  1  0.006595  0.665138  0.665138  1
  Zn  Zn20  1  0.998509  0.001249  0.001249  1
  Ag  Ag21  1  0.122159  0.122103  0.122103  1
  Ag  Ag22  1  0.881072  0.877526  0.877526  1
  Ag  Ag23  1  0.120028  0.119618  0.636659  1
  Ag  Ag24  1  0.120028  0.636659  0.119618  1
  Au  Au25  1  0.882096  0.876600  0.364267  1
  Au  Au26  1  0.882096  0.364267  0.876600  1
  Au  Au27  1  0.635786  0.119454  0.119454  1
  Au  Au28  1  0.360450  0.879626  0.879626  1
  Se  Se29  1  0.503603  0.496445  0.496445  1
