# generated using pymatgen
data_TbDy4Ho2Co6Sn23
_symmetry_space_group_name_H-M   'P 1'
_cell_length_a   9.70653805
_cell_length_b   9.70749314
_cell_length_c   9.97379405
_cell_angle_alpha   89.99999756
_cell_angle_beta   90.01010217
_cell_angle_gamma   120.00325432
_symmetry_Int_Tables_number   1
_chemical_formula_structural   TbDy4Ho2Co6Sn23
_chemical_formula_sum   'Tb1 Dy4 Ho2 Co6 Sn23'
_cell_volume   813.85723818
_cell_formula_units_Z   1
loop_
 _symmetry_equiv_pos_site_id
 _symmetry_equiv_pos_as_xyz
  1  'x, y, z'
loop_
 _atom_site_type_symbol
 _atom_site_label
 _atom_site_symmetry_multiplicity
 _atom_site_fract_x
 _atom_site_fract_y
 _atom_site_fract_z
 _atom_site_occupancy
  Tb  Tb0  1  0.999949  0.999975  0.000158  1
  Dy  Dy1  1  0.521687  0.478318  0.693643  1
  Dy  Dy2  1  0.521687  0.043368  0.693643  1
  Dy  Dy3  1  0.956619  0.478309  0.693681  1
  Dy  Dy4  1  0.043306  0.521654  0.306264  1
  Ho  Ho5  1  0.478481  0.956998  0.306161  1
  Ho  Ho6  1  0.478481  0.521485  0.306161  1
  Co  Co7  1  0.167512  0.832388  0.803221  1
  Co  Co8  1  0.167512  0.335124  0.803221  1
  Co  Co9  1  0.664871  0.832435  0.803297  1
  Co  Co10  1  0.335320  0.167660  0.196793  1
  Co  Co11  1  0.832284  0.664856  0.196873  1
  Co  Co12  1  0.832284  0.167428  0.196873  1
  Sn  Sn13  1  0.666561  0.333280  0.182043  1
  Sn  Sn14  1  0.666611  0.333305  0.882896  1
  Sn  Sn15  1  0.333899  0.666950  0.117578  1
  Sn  Sn16  1  0.346135  0.346089  0.000133  1
  Sn  Sn17  1  0.999929  0.653938  0.000111  1
  Sn  Sn18  1  0.653935  0.999992  0.999964  1
  Sn  Sn19  1  0.653935  0.653943  0.999964  1
  Sn  Sn20  1  0.333430  0.666716  0.818071  1
  Sn  Sn21  1  0.437443  0.218722  0.450840  1
  Sn  Sn22  1  0.218865  0.781429  0.548683  1
  Sn  Sn23  1  0.218865  0.437434  0.548683  1
  Sn  Sn24  1  0.562551  0.781275  0.548616  1
  Sn  Sn25  1  0.118463  0.882078  0.274682  1
  Sn  Sn26  1  0.780967  0.562550  0.450957  1
  Sn  Sn27  1  0.780967  0.218419  0.450957  1
  Sn  Sn28  1  0.346135  0.000046  0.000133  1
  Sn  Sn29  1  0.118463  0.236386  0.274682  1
  Sn  Sn30  1  0.763298  0.881649  0.274828  1
  Sn  Sn31  1  0.236207  0.118103  0.725320  1
  Sn  Sn32  1  0.881768  0.763840  0.725375  1
  Sn  Sn33  1  0.881768  0.117927  0.725375  1
  Sn  Sn34  1  0.999882  0.999941  0.500009  1
  Sn  Sn35  1  0.999929  0.345992  0.000111  1
