# generated using pymatgen
data_La3MgAg3Sn4
_symmetry_space_group_name_H-M   'P 1'
_cell_length_a   9.03305704
_cell_length_b   9.12146839
_cell_length_c   9.12146919
_cell_angle_alpha   149.33306218
_cell_angle_beta   130.99347530
_cell_angle_gamma   59.01918542
_symmetry_Int_Tables_number   1
_chemical_formula_structural   La3MgAg3Sn4
_chemical_formula_sum   'La3 Mg1 Ag3 Sn4'
_cell_volume   286.93244551
_cell_formula_units_Z   1
loop_
 _symmetry_equiv_pos_site_id
 _symmetry_equiv_pos_as_xyz
  1  'x, y, z'
loop_
 _atom_site_type_symbol
 _atom_site_label
 _atom_site_symmetry_multiplicity
 _atom_site_fract_x
 _atom_site_fract_y
 _atom_site_fract_z
 _atom_site_occupancy
  La  La0  1  0.360247  0.871134  0.489113  1
  La  La1  1  0.628926  0.126115  0.502811  1
  La  La2  1  0.002931  0.001870  0.001060  1
  Mg  Mg3  1  0.644195  0.330978  0.313217  1
  Ag  Ag4  1  0.364395  0.670508  0.693887  1
  Ag  Ag5  1  0.019537  0.330335  0.689203  1
  Ag  Ag6  1  0.978538  0.668863  0.309674  1
  Sn  Sn7  1  0.214740  0.217245  0.997495  1
  Sn  Sn8  1  0.787856  0.781896  0.005960  1
  Sn  Sn9  1  0.692927  0.500662  0.192265  1
  Sn  Sn10  1  0.305709  0.500394  0.805315  1
