# generated using pymatgen
data_Ba2SrIn2F12
_symmetry_space_group_name_H-M   'P 1'
_cell_length_a   9.52869200
_cell_length_b   9.52869200
_cell_length_c   5.70457800
_cell_angle_alpha   90.00000000
_cell_angle_beta   90.00000000
_cell_angle_gamma   90.00000000
_symmetry_Int_Tables_number   1
_chemical_formula_structural   Ba2SrIn2F12
_chemical_formula_sum   'Ba4 Sr2 In4 F24'
_cell_volume   517.95269997
_cell_formula_units_Z   2
loop_
 _symmetry_equiv_pos_site_id
 _symmetry_equiv_pos_as_xyz
  1  'x, y, z'
loop_
 _atom_site_type_symbol
 _atom_site_label
 _atom_site_symmetry_multiplicity
 _atom_site_fract_x
 _atom_site_fract_y
 _atom_site_fract_z
 _atom_site_occupancy
  Ba  Ba0  1  0.318811  0.818811  0.500000  1
  Ba  Ba1  1  0.818811  0.681189  0.500000  1
  Ba  Ba2  1  0.181189  0.318811  0.500000  1
  Ba  Ba3  1  0.681189  0.181189  0.500000  1
  Sr  Sr4  1  0.500000  0.500000  0.000000  1
  Sr  Sr5  1  0.000000  0.000000  0.000000  1
  In  In6  1  0.134934  0.634934  0.000000  1
  In  In7  1  0.634934  0.865066  0.000000  1
  In  In8  1  0.365066  0.134934  0.000000  1
  In  In9  1  0.865066  0.365066  0.000000  1
  F  F10  1  0.295671  0.795671  0.000000  1
  F  F11  1  0.795671  0.704329  0.000000  1
  F  F12  1  0.204329  0.295671  0.000000  1
  F  F13  1  0.704329  0.204329  0.000000  1
  F  F14  1  0.553949  0.718175  0.251862  1
  F  F15  1  0.446051  0.281825  0.251862  1
  F  F16  1  0.281825  0.553949  0.251862  1
  F  F17  1  0.718175  0.446051  0.251862  1
  F  F18  1  0.218175  0.053949  0.748138  1
  F  F19  1  0.053949  0.781825  0.748138  1
  F  F20  1  0.500000  0.000000  0.774523  1
  F  F21  1  0.000000  0.500000  0.774523  1
  F  F22  1  0.000000  0.500000  0.225477  1
  F  F23  1  0.500000  0.000000  0.225477  1
  F  F24  1  0.218175  0.053949  0.251862  1
  F  F25  1  0.053949  0.781825  0.251862  1
  F  F26  1  0.946051  0.218175  0.251862  1
  F  F27  1  0.781825  0.946051  0.251862  1
  F  F28  1  0.281825  0.553949  0.748138  1
  F  F29  1  0.718175  0.446051  0.748138  1
  F  F30  1  0.553949  0.718175  0.748138  1
  F  F31  1  0.446051  0.281825  0.748138  1
  F  F32  1  0.781825  0.946051  0.748138  1
  F  F33  1  0.946051  0.218175  0.748138  1
