# generated using pymatgen
data_Rb2TiOF4
_symmetry_space_group_name_H-M   'P 1'
_cell_length_a   6.08030200
_cell_length_b   7.83793600
_cell_length_c   12.13744200
_cell_angle_alpha   90.00000000
_cell_angle_beta   90.00000000
_cell_angle_gamma   90.00000000
_symmetry_Int_Tables_number   1
_chemical_formula_structural   Rb2TiOF4
_chemical_formula_sum   'Rb8 Ti4 O4 F16'
_cell_volume   578.43429110
_cell_formula_units_Z   4
loop_
 _symmetry_equiv_pos_site_id
 _symmetry_equiv_pos_as_xyz
  1  'x, y, z'
loop_
 _atom_site_type_symbol
 _atom_site_label
 _atom_site_symmetry_multiplicity
 _atom_site_fract_x
 _atom_site_fract_y
 _atom_site_fract_z
 _atom_site_occupancy
  Rb  Rb0  1  0.005676  0.233858  0.223595  1
  Rb  Rb1  1  0.994324  0.733858  0.276405  1
  Rb  Rb2  1  0.505676  0.266142  0.776405  1
  Rb  Rb3  1  0.494324  0.766142  0.723595  1
  Rb  Rb4  1  0.006248  0.919535  0.913383  1
  Rb  Rb5  1  0.993752  0.419535  0.586617  1
  Rb  Rb6  1  0.506248  0.580465  0.086617  1
  Rb  Rb7  1  0.493752  0.080465  0.413383  1
  Ti  Ti8  1  0.031002  0.434814  0.932428  1
  Ti  Ti9  1  0.968998  0.934814  0.567572  1
  Ti  Ti10  1  0.531002  0.065186  0.067572  1
  Ti  Ti11  1  0.468998  0.565186  0.432428  1
  O  O12  1  0.229874  0.566141  0.885566  1
  O  O13  1  0.770126  0.066141  0.614434  1
  O  O14  1  0.729874  0.933859  0.114434  1
  O  O15  1  0.270126  0.433859  0.385566  1
  F  F16  1  0.993824  0.521190  0.083056  1
  F  F17  1  0.006176  0.021190  0.416944  1
  F  F18  1  0.493824  0.978810  0.916944  1
  F  F19  1  0.506176  0.478810  0.583056  1
  F  F20  1  0.220878  0.257520  0.998070  1
  F  F21  1  0.779122  0.757520  0.501930  1
  F  F22  1  0.720878  0.242480  0.001930  1
  F  F23  1  0.279122  0.742480  0.498070  1
  F  F24  1  0.994317  0.281293  0.810286  1
  F  F25  1  0.005683  0.781293  0.689714  1
  F  F26  1  0.494317  0.218707  0.189714  1
  F  F27  1  0.505683  0.718707  0.310286  1
  F  F28  1  0.271243  0.941047  0.111210  1
  F  F29  1  0.728757  0.441047  0.388790  1
  F  F30  1  0.771243  0.558953  0.888790  1
  F  F31  1  0.228757  0.058953  0.611210  1
