# generated using pymatgen
data_DyLuU2(B4Ru)4
_symmetry_space_group_name_H-M   'P 1'
_cell_length_a   3.53634000
_cell_length_b   5.95281382
_cell_length_c   11.52573638
_cell_angle_alpha   89.89480902
_cell_angle_beta   90.00000000
_cell_angle_gamma   90.00000000
_symmetry_Int_Tables_number   1
_chemical_formula_structural   DyLuU2(B4Ru)4
_chemical_formula_sum   'Dy1 Lu1 U2 B16 Ru4'
_cell_volume   242.62986879
_cell_formula_units_Z   1
loop_
 _symmetry_equiv_pos_site_id
 _symmetry_equiv_pos_as_xyz
  1  'x, y, z'
loop_
 _atom_site_type_symbol
 _atom_site_label
 _atom_site_symmetry_multiplicity
 _atom_site_fract_x
 _atom_site_fract_y
 _atom_site_fract_z
 _atom_site_occupancy
  Dy  Dy0  1  0.000000  0.129136  0.148264  1
  Lu  Lu1  1  0.000000  0.870872  0.851716  1
  U  U2  1  0.000000  0.628461  0.349345  1
  U  U3  1  0.000000  0.371405  0.651030  1
  B  B4  1  0.500000  0.788652  0.187201  1
  B  B5  1  0.500000  0.208995  0.812974  1
  B  B6  1  0.500000  0.291591  0.313235  1
  B  B7  1  0.500000  0.709185  0.687582  1
  B  B8  1  0.500000  0.864027  0.029935  1
  B  B9  1  0.500000  0.135681  0.968367  1
  B  B10  1  0.500000  0.368144  0.467466  1
  B  B11  1  0.500000  0.632207  0.532805  1
  B  B12  1  0.500000  0.885409  0.453010  1
  B  B13  1  0.500000  0.114098  0.547584  1
  B  B14  1  0.500000  0.387339  0.045326  1
  B  B15  1  0.500000  0.614679  0.953119  1
  B  B16  1  0.500000  0.974515  0.307856  1
  B  B17  1  0.500000  0.024327  0.693197  1
  B  B18  1  0.500000  0.474652  0.191827  1
  B  B19  1  0.500000  0.526793  0.808077  1
  Ru  Ru20  1  0.000000  0.639163  0.094249  1
  Ru  Ru21  1  0.000000  0.360744  0.904549  1
  Ru  Ru22  1  0.000000  0.140945  0.407134  1
  Ru  Ru23  1  0.000000  0.858980  0.594153  1
