# generated using pymatgen
data_Hf8Tc4Ir3Ru
_symmetry_space_group_name_H-M   'P 1'
_cell_length_a   6.49854400
_cell_length_b   4.62252600
_cell_length_c   9.23122500
_cell_angle_alpha   90.00000000
_cell_angle_beta   90.00003625
_cell_angle_gamma   90.00000000
_symmetry_Int_Tables_number   1
_chemical_formula_structural   Hf8Tc4Ir3Ru
_chemical_formula_sum   'Hf8 Tc4 Ir3 Ru1'
_cell_volume   277.30312442
_cell_formula_units_Z   1
loop_
 _symmetry_equiv_pos_site_id
 _symmetry_equiv_pos_as_xyz
  1  'x, y, z'
loop_
 _atom_site_type_symbol
 _atom_site_label
 _atom_site_symmetry_multiplicity
 _atom_site_fract_x
 _atom_site_fract_y
 _atom_site_fract_z
 _atom_site_occupancy
  Hf  Hf0  1  0.998727  0.750001  0.123386  1
  Hf  Hf1  1  0.501286  0.750001  0.123386  1
  Hf  Hf2  1  0.999541  0.250000  0.374986  1
  Hf  Hf3  1  0.500464  0.250000  0.374987  1
  Hf  Hf4  1  0.501273  0.750001  0.626626  1
  Hf  Hf5  1  0.998723  0.750001  0.626627  1
  Hf  Hf6  1  0.502526  0.250000  0.874989  1
  Hf  Hf7  1  0.997460  0.250000  0.874989  1
  Tc  Tc8  1  0.750003  0.250000  0.126025  1
  Tc  Tc9  1  0.250002  0.750001  0.375006  1
  Tc  Tc10  1  0.749998  0.250000  0.623979  1
  Tc  Tc11  1  0.249998  0.750001  0.875008  1
  Ir  Ir12  1  0.250004  0.250000  0.125357  1
  Ir  Ir13  1  0.750004  0.750001  0.375010  1
  Ir  Ir14  1  0.249996  0.250000  0.624618  1
  Ru  Ru15  1  0.749996  0.750001  0.875017  1
