# generated using pymatgen
data_Mg3Nb7B20
_symmetry_space_group_name_H-M   'P 1'
_cell_length_a   6.16472410
_cell_length_b   7.03145922
_cell_length_c   7.47026086
_cell_angle_alpha   94.49239221
_cell_angle_beta   101.94479378
_cell_angle_gamma   115.98453266
_symmetry_Int_Tables_number   1
_chemical_formula_structural   Mg3Nb7B20
_chemical_formula_sum   'Mg3 Nb7 B20'
_cell_volume   279.46937534
_cell_formula_units_Z   1
loop_
 _symmetry_equiv_pos_site_id
 _symmetry_equiv_pos_as_xyz
  1  'x, y, z'
loop_
 _atom_site_type_symbol
 _atom_site_label
 _atom_site_symmetry_multiplicity
 _atom_site_fract_x
 _atom_site_fract_y
 _atom_site_fract_z
 _atom_site_occupancy
  Mg  Mg0  1  0.497096  0.998349  0.997073  1
  Mg  Mg1  1  0.999911  0.203138  0.603060  1
  Mg  Mg2  1  0.003569  0.601075  0.800444  1
  Nb  Nb3  1  0.997549  0.996045  0.003105  1
  Nb  Nb4  1  0.500466  0.796608  0.401211  1
  Nb  Nb5  1  0.000084  0.400179  0.200971  1
  Nb  Nb6  1  0.501232  0.204097  0.597152  1
  Nb  Nb7  1  0.999414  0.804460  0.397762  1
  Nb  Nb8  1  0.499465  0.600712  0.798571  1
  Nb  Nb9  1  0.500545  0.396030  0.200459  1
  B  B10  1  0.332940  0.233409  0.867230  1
  B  B11  1  0.331780  0.632561  0.066014  1
  B  B12  1  0.164106  0.366174  0.930426  1
  B  B13  1  0.334356  0.033170  0.263696  1
  B  B14  1  0.167310  0.764679  0.131607  1
  B  B15  1  0.835790  0.234776  0.866919  1
  B  B16  1  0.164542  0.166110  0.335340  1
  B  B17  1  0.832759  0.630549  0.064986  1
  B  B18  1  0.332276  0.432801  0.468000  1
  B  B19  1  0.665857  0.364554  0.933984  1
  B  B20  1  0.830917  0.031742  0.267240  1
  B  B21  1  0.664336  0.765985  0.131908  1
  B  B22  1  0.332902  0.835314  0.668769  1
  B  B23  1  0.165853  0.566830  0.535418  1
  B  B24  1  0.666546  0.166128  0.333783  1
  B  B25  1  0.836397  0.434165  0.468724  1
  B  B26  1  0.167738  0.967089  0.731423  1
  B  B27  1  0.835584  0.836266  0.666348  1
  B  B28  1  0.671204  0.569001  0.534923  1
  B  B29  1  0.667479  0.968005  0.733453  1
