# generated using pymatgen
data_Ho8CdHgIrRu
_symmetry_space_group_name_H-M   'P 1'
_cell_length_a   9.57228397
_cell_length_b   9.57228374
_cell_length_c   9.62835000
_cell_angle_alpha   59.80605729
_cell_angle_beta   59.80605810
_cell_angle_gamma   59.66606434
_symmetry_Int_Tables_number   1
_chemical_formula_structural   Ho8CdHgIrRu
_chemical_formula_sum   'Ho16 Cd2 Hg2 Ir2 Ru2'
_cell_volume   620.42181383
_cell_formula_units_Z   2
loop_
 _symmetry_equiv_pos_site_id
 _symmetry_equiv_pos_as_xyz
  1  'x, y, z'
loop_
 _atom_site_type_symbol
 _atom_site_label
 _atom_site_symmetry_multiplicity
 _atom_site_fract_x
 _atom_site_fract_y
 _atom_site_fract_z
 _atom_site_occupancy
  Ho  Ho0  1  0.598700  0.598700  0.597969  1
  Ho  Ho1  1  0.598700  0.598700  0.204632  1
  Ho  Ho2  1  0.598946  0.205231  0.597911  1
  Ho  Ho3  1  0.205231  0.598946  0.597911  1
  Ho  Ho4  1  0.061131  0.437924  0.441139  1
  Ho  Ho5  1  0.437924  0.061131  0.059805  1
  Ho  Ho6  1  0.437924  0.061131  0.441139  1
  Ho  Ho7  1  0.061131  0.437924  0.059805  1
  Ho  Ho8  1  0.437799  0.437799  0.062201  1
  Ho  Ho9  1  0.058126  0.058126  0.441874  1
  Ho  Ho10  1  0.187490  0.809714  0.813367  1
  Ho  Ho11  1  0.809714  0.187490  0.189428  1
  Ho  Ho12  1  0.809714  0.187490  0.813367  1
  Ho  Ho13  1  0.187490  0.809714  0.189428  1
  Ho  Ho14  1  0.811400  0.811400  0.188600  1
  Ho  Ho15  1  0.188961  0.188961  0.811039  1
  Cd  Cd16  1  0.829694  0.508788  0.830758  1
  Cd  Cd17  1  0.508788  0.829694  0.830758  1
  Hg  Hg18  1  0.833617  0.833617  0.836113  1
  Hg  Hg19  1  0.833617  0.833617  0.496652  1
  Ir  Ir20  1  0.393661  0.827132  0.389604  1
  Ir  Ir21  1  0.827132  0.393661  0.389604  1
  Ru  Ru22  1  0.391553  0.391553  0.388175  1
  Ru  Ru23  1  0.391553  0.391553  0.828719  1
