# generated using pymatgen
data_Ho4ErCo2Au
_symmetry_space_group_name_H-M   'P 1'
_cell_length_a   8.44434344
_cell_length_b   8.44434321
_cell_length_c   8.46105398
_cell_angle_alpha   128.23708731
_cell_angle_beta   128.23708697
_cell_angle_gamma   76.10114766
_symmetry_Int_Tables_number   1
_chemical_formula_structural   Ho4ErCo2Au
_chemical_formula_sum   'Ho8 Er2 Co4 Au2'
_cell_volume   362.10526189
_cell_formula_units_Z   2
loop_
 _symmetry_equiv_pos_site_id
 _symmetry_equiv_pos_as_xyz
  1  'x, y, z'
loop_
 _atom_site_type_symbol
 _atom_site_label
 _atom_site_symmetry_multiplicity
 _atom_site_fract_x
 _atom_site_fract_y
 _atom_site_fract_z
 _atom_site_occupancy
  Ho  Ho0  1  0.696834  0.530417  0.500195  1
  Ho  Ho1  1  0.470141  0.970141  0.167226  1
  Ho  Ho2  1  0.803098  0.303098  0.832937  1
  Ho  Ho3  1  0.529859  0.029859  0.832774  1
  Ho  Ho4  1  0.030417  0.196834  0.500195  1
  Ho  Ho5  1  0.303166  0.469583  0.499805  1
  Ho  Ho6  1  0.196902  0.696902  0.167063  1
  Ho  Ho7  1  0.969583  0.803166  0.499805  1
  Er  Er8  1  0.000000  0.000000  0.000000  1
  Er  Er9  1  0.500000  0.500000  0.000000  1
  Co  Co10  1  0.125130  0.625130  0.750449  1
  Co  Co11  1  0.874870  0.374870  0.249551  1
  Co  Co12  1  0.625444  0.874556  0.500000  1
  Co  Co13  1  0.374556  0.125444  0.500000  1
  Au  Au14  1  0.250733  0.249267  0.000000  1
  Au  Au15  1  0.749267  0.750733  0.000000  1
