# generated using pymatgen
data_Yb4Sc2TaWO12
_symmetry_space_group_name_H-M   'P 1'
_cell_length_a   5.65843650
_cell_length_b   5.47874512
_cell_length_c   9.55523718
_cell_angle_alpha   55.07473989
_cell_angle_beta   90.40902560
_cell_angle_gamma   89.92144639
_symmetry_Int_Tables_number   1
_chemical_formula_structural   Yb4Sc2TaWO12
_chemical_formula_sum   'Yb4 Sc2 Ta1 W1 O12'
_cell_volume   242.86166851
_cell_formula_units_Z   1
loop_
 _symmetry_equiv_pos_site_id
 _symmetry_equiv_pos_as_xyz
  1  'x, y, z'
loop_
 _atom_site_type_symbol
 _atom_site_label
 _atom_site_symmetry_multiplicity
 _atom_site_fract_x
 _atom_site_fract_y
 _atom_site_fract_z
 _atom_site_occupancy
  Yb  Yb0  1  0.441923  0.234416  0.749857  1
  Yb  Yb1  1  0.558077  0.765584  0.250143  1
  Yb  Yb2  1  0.942333  0.768984  0.747678  1
  Yb  Yb3  1  0.057667  0.231016  0.252322  1
  Sc  Sc4  1  0.000000  0.000000  0.000000  1
  Sc  Sc5  1  0.500000  0.000000  0.500000  1
  Ta  Ta6  1  0.500000  0.500000  0.000000  1
  W  W7  1  0.000000  0.500000  0.500000  1
  O  O8  1  0.033290  0.363156  0.742885  1
  O  O9  1  0.966710  0.636844  0.257115  1
  O  O10  1  0.536308  0.636834  0.757304  1
  O  O11  1  0.463692  0.363166  0.242696  1
  O  O12  1  0.694184  0.846407  0.947385  1
  O  O13  1  0.305816  0.153593  0.052615  1
  O  O14  1  0.193482  0.149927  0.551733  1
  O  O15  1  0.806518  0.850073  0.448267  1
  O  O16  1  0.207855  0.751145  0.941196  1
  O  O17  1  0.792145  0.248855  0.058804  1
  O  O18  1  0.708411  0.245683  0.560524  1
  O  O19  1  0.291589  0.754317  0.439476  1
