# generated using pymatgen
data_TbY2Zn3(GaCo)6
_symmetry_space_group_name_H-M   'P 1'
_cell_length_a   4.09808800
_cell_length_b   8.91073167
_cell_length_c   8.91073310
_cell_angle_alpha   59.91857981
_cell_angle_beta   90.00000000
_cell_angle_gamma   90.00000000
_symmetry_Int_Tables_number   1
_chemical_formula_structural   TbY2Zn3(GaCo)6
_chemical_formula_sum   'Tb1 Y2 Zn3 Ga6 Co6'
_cell_volume   281.56703914
_cell_formula_units_Z   1
loop_
 _symmetry_equiv_pos_site_id
 _symmetry_equiv_pos_as_xyz
  1  'x, y, z'
loop_
 _atom_site_type_symbol
 _atom_site_label
 _atom_site_symmetry_multiplicity
 _atom_site_fract_x
 _atom_site_fract_y
 _atom_site_fract_z
 _atom_site_occupancy
  Tb  Tb0  1  0.000000  0.999933  0.000067  1
  Y  Y1  1  0.500000  0.333369  0.333372  1
  Y  Y2  1  0.500000  0.666628  0.666631  1
  Zn  Zn3  1  0.500000  0.292507  0.707493  1
  Zn  Zn4  1  0.500000  0.707524  0.999975  1
  Zn  Zn5  1  0.500000  0.000025  0.292476  1
  Ga  Ga6  1  0.000000  0.493634  0.506366  1
  Ga  Ga7  1  0.000000  0.506442  0.999986  1
  Ga  Ga8  1  0.000000  0.000014  0.493558  1
  Ga  Ga9  1  0.500000  0.715642  0.284358  1
  Ga  Ga10  1  0.500000  0.284328  0.000025  1
  Ga  Ga11  1  0.500000  0.999975  0.715672  1
  Co  Co12  1  0.000000  0.189101  0.178857  1
  Co  Co13  1  0.000000  0.178828  0.632281  1
  Co  Co14  1  0.000000  0.632203  0.189113  1
  Co  Co15  1  0.000000  0.821143  0.810899  1
  Co  Co16  1  0.000000  0.367719  0.821172  1
  Co  Co17  1  0.000000  0.810887  0.367797  1
