# generated using pymatgen
data_Ho10In8PdPt3
_symmetry_space_group_name_H-M   'P 1'
_cell_length_a   3.60336900
_cell_length_b   8.15398545
_cell_length_c   18.22183762
_cell_angle_alpha   90.08942483
_cell_angle_beta   90.00000000
_cell_angle_gamma   90.00000000
_symmetry_Int_Tables_number   1
_chemical_formula_structural   Ho10In8PdPt3
_chemical_formula_sum   'Ho10 In8 Pd1 Pt3'
_cell_volume   535.39007178
_cell_formula_units_Z   1
loop_
 _symmetry_equiv_pos_site_id
 _symmetry_equiv_pos_as_xyz
  1  'x, y, z'
loop_
 _atom_site_type_symbol
 _atom_site_label
 _atom_site_symmetry_multiplicity
 _atom_site_fract_x
 _atom_site_fract_y
 _atom_site_fract_z
 _atom_site_occupancy
  Ho  Ho0  1  0.000000  0.116918  0.416212  1
  Ho  Ho1  1  0.000000  0.883124  0.584911  1
  Ho  Ho2  1  0.000000  0.383706  0.915018  1
  Ho  Ho3  1  0.000000  0.617613  0.084490  1
  Ho  Ho4  1  0.000000  0.246018  0.219410  1
  Ho  Ho5  1  0.000000  0.757687  0.779480  1
  Ho  Ho6  1  0.000000  0.257774  0.720589  1
  Ho  Ho7  1  0.000000  0.737131  0.279791  1
  Ho  Ho8  1  0.000000  0.999470  0.000124  1
  Ho  Ho9  1  0.000000  0.500373  0.500220  1
  In  In10  1  0.500000  0.420200  0.351444  1
  In  In11  1  0.500000  0.577315  0.648567  1
  In  In12  1  0.500000  0.077116  0.851308  1
  In  In13  1  0.500000  0.924015  0.150106  1
  In  In14  1  0.500000  0.292012  0.066431  1
  In  In15  1  0.500000  0.708339  0.932842  1
  In  In16  1  0.500000  0.208330  0.566835  1
  In  In17  1  0.500000  0.792239  0.432468  1
  Pd  Pd18  1  0.500000  0.024285  0.303871  1
  Pt  Pt19  1  0.500000  0.975838  0.696132  1
  Pt  Pt20  1  0.500000  0.475586  0.803618  1
  Pt  Pt21  1  0.500000  0.524908  0.196135  1
