# generated using pymatgen
data_HfTh2(TaSi2)2
_symmetry_space_group_name_H-M   'P 1'
_cell_length_a   7.24069827
_cell_length_b   7.23554968
_cell_length_c   13.46005488
_cell_angle_alpha   90.03992044
_cell_angle_beta   90.01078660
_cell_angle_gamma   89.97035332
_symmetry_Int_Tables_number   1
_chemical_formula_structural   HfTh2(TaSi2)2
_chemical_formula_sum   'Hf4 Th8 Ta8 Si16'
_cell_volume   705.17781291
_cell_formula_units_Z   4
loop_
 _symmetry_equiv_pos_site_id
 _symmetry_equiv_pos_as_xyz
  1  'x, y, z'
loop_
 _atom_site_type_symbol
 _atom_site_label
 _atom_site_symmetry_multiplicity
 _atom_site_fract_x
 _atom_site_fract_y
 _atom_site_fract_z
 _atom_site_occupancy
  Hf  Hf0  1  0.157908  0.996514  0.373548  1
  Hf  Hf1  1  0.840630  0.004629  0.875114  1
  Hf  Hf2  1  0.504701  0.656413  0.623551  1
  Hf  Hf3  1  0.341062  0.495384  0.876027  1
  Th  Th4  1  0.999826  0.338690  0.218047  1
  Th  Th5  1  0.999395  0.661135  0.716716  1
  Th  Th6  1  0.162155  0.500652  0.466049  1
  Th  Th7  1  0.501376  0.837490  0.034804  1
  Th  Th8  1  0.838548  0.499223  0.969245  1
  Th  Th9  1  0.499042  0.162121  0.531309  1
  Th  Th10  1  0.337671  0.999348  0.783132  1
  Th  Th11  1  0.662785  0.001856  0.281817  1
  Ta  Ta12  1  0.170291  0.167752  0.002335  1
  Ta  Ta13  1  0.830949  0.831102  0.498951  1
  Ta  Ta14  1  0.333473  0.667147  0.248226  1
  Ta  Ta15  1  0.670772  0.328823  0.748269  1
  Ta  Ta16  1  0.493760  0.342881  0.124141  1
  Ta  Ta17  1  0.660491  0.506193  0.375954  1
  Ta  Ta18  1  0.991012  0.159400  0.625346  1
  Ta  Ta19  1  0.005829  0.842287  0.127626  1
  Si  Si20  1  0.289930  0.042282  0.184230  1
  Si  Si21  1  0.710104  0.963165  0.683801  1
  Si  Si22  1  0.462850  0.788565  0.432756  1
  Si  Si23  1  0.209786  0.540314  0.066329  1
  Si  Si24  1  0.540166  0.207921  0.937352  1
  Si  Si25  1  0.792943  0.456950  0.562543  1
  Si  Si26  1  0.038620  0.291585  0.813335  1
  Si  Si27  1  0.955846  0.708765  0.313753  1
  Si  Si28  1  0.376934  0.303590  0.313498  1
  Si  Si29  1  0.630260  0.697447  0.815031  1
  Si  Si30  1  0.196779  0.876074  0.566363  1
  Si  Si31  1  0.128649  0.800361  0.938413  1
  Si  Si32  1  0.798069  0.125737  0.067817  1
  Si  Si33  1  0.870823  0.204828  0.435925  1
  Si  Si34  1  0.293864  0.369242  0.683122  1
  Si  Si35  1  0.702703  0.624134  0.185524  1
