# generated using pymatgen
data_La4Al24PdPt8
_symmetry_space_group_name_H-M   'P 1'
_cell_length_a   7.64284922
_cell_length_b   7.66103678
_cell_length_c   13.37179500
_cell_angle_alpha   84.69862149
_cell_angle_beta   79.15522935
_cell_angle_gamma   59.92859119
_symmetry_Int_Tables_number   1
_chemical_formula_structural   La4Al24PdPt8
_chemical_formula_sum   'La4 Al24 Pd1 Pt8'
_cell_volume   665.46128954
_cell_formula_units_Z   1
loop_
 _symmetry_equiv_pos_site_id
 _symmetry_equiv_pos_as_xyz
  1  'x, y, z'
loop_
 _atom_site_type_symbol
 _atom_site_label
 _atom_site_symmetry_multiplicity
 _atom_site_fract_x
 _atom_site_fract_y
 _atom_site_fract_z
 _atom_site_occupancy
  La  La0  1  0.394354  0.167967  0.807653  1
  La  La1  1  0.605646  0.832033  0.192347  1
  La  La2  1  0.733360  0.498321  0.807947  1
  La  La3  1  0.266640  0.501679  0.192053  1
  Al  Al4  1  0.687505  0.833641  0.946571  1
  Al  Al5  1  0.312495  0.166359  0.053429  1
  Al  Al6  1  0.146262  0.832490  0.559992  1
  Al  Al7  1  0.853738  0.167510  0.440008  1
  Al  Al8  1  0.479827  0.166488  0.557581  1
  Al  Al9  1  0.520173  0.833512  0.442419  1
  Al  Al10  1  0.213577  0.165263  0.334960  1
  Al  Al11  1  0.786423  0.834737  0.665040  1
  Al  Al12  1  0.436891  0.507672  0.664704  1
  Al  Al13  1  0.563109  0.492328  0.335296  1
  Al  Al14  1  0.110515  0.158380  0.663560  1
  Al  Al15  1  0.889485  0.841620  0.336440  1
  Al  Al16  1  0.348953  0.502689  0.946766  1
  Al  Al17  1  0.651047  0.497311  0.053234  1
  Al  Al18  1  0.014646  0.164864  0.957401  1
  Al  Al19  1  0.985354  0.835136  0.042599  1
  Al  Al20  1  0.186433  0.499627  0.441859  1
  Al  Al21  1  0.813567  0.500373  0.558141  1
  Al  Al22  1  0.738154  0.163917  0.183932  1
  Al  Al23  1  0.261846  0.836083  0.816068  1
  Al  Al24  1  0.062099  0.634335  0.814863  1
  Al  Al25  1  0.937901  0.365665  0.185137  1
  Al  Al26  1  0.860617  0.036589  0.815690  1
  Al  Al27  1  0.139383  0.963411  0.184311  1
  Pd  Pd28  1  0.000000  0.500000  0.000000  1
  Pt  Pt29  1  0.119847  0.495337  0.635686  1
  Pt  Pt30  1  0.880153  0.504663  0.364314  1
  Pt  Pt31  1  0.658074  0.170848  0.000004  1
  Pt  Pt32  1  0.341926  0.829152  0.999996  1
  Pt  Pt33  1  0.540245  0.167042  0.363529  1
  Pt  Pt34  1  0.459755  0.832958  0.636471  1
  Pt  Pt35  1  0.781183  0.171969  0.635450  1
  Pt  Pt36  1  0.218817  0.828031  0.364550  1
