# generated using pymatgen
data_Nd8Co3Si12Hg
_symmetry_space_group_name_H-M   'P 1'
_cell_length_a   8.15616100
_cell_length_b   8.15616331
_cell_length_c   8.52356500
_cell_angle_alpha   90.00000000
_cell_angle_beta   90.00000000
_cell_angle_gamma   119.99999469
_symmetry_Int_Tables_number   1
_chemical_formula_structural   Nd8Co3Si12Hg
_chemical_formula_sum   'Nd8 Co3 Si12 Hg1'
_cell_volume   491.04764806
_cell_formula_units_Z   1
loop_
 _symmetry_equiv_pos_site_id
 _symmetry_equiv_pos_as_xyz
  1  'x, y, z'
loop_
 _atom_site_type_symbol
 _atom_site_label
 _atom_site_symmetry_multiplicity
 _atom_site_fract_x
 _atom_site_fract_y
 _atom_site_fract_z
 _atom_site_occupancy
  Nd  Nd0  1  0.495350  0.504650  0.757518  1
  Nd  Nd1  1  0.496375  0.503625  0.243026  1
  Nd  Nd2  1  0.009299  0.504650  0.757518  1
  Nd  Nd3  1  0.007251  0.503625  0.243026  1
  Nd  Nd4  1  0.495350  0.990701  0.757518  1
  Nd  Nd5  1  0.496375  0.992749  0.243026  1
  Nd  Nd6  1  0.000000  0.000000  0.754212  1
  Nd  Nd7  1  0.000000  0.000000  0.244669  1
  Co  Co8  1  0.666667  0.333333  0.996943  1
  Co  Co9  1  0.333333  0.666667  0.002985  1
  Co  Co10  1  0.333333  0.666667  0.498098  1
  Si  Si11  1  0.827487  0.172513  0.999585  1
  Si  Si12  1  0.171100  0.828900  0.000518  1
  Si  Si13  1  0.345027  0.172513  0.999585  1
  Si  Si14  1  0.175175  0.824825  0.500440  1
  Si  Si15  1  0.657800  0.828900  0.000518  1
  Si  Si16  1  0.844177  0.155823  0.498689  1
  Si  Si17  1  0.827487  0.654973  0.999585  1
  Si  Si18  1  0.649650  0.824825  0.500440  1
  Si  Si19  1  0.171100  0.342200  0.000518  1
  Si  Si20  1  0.311646  0.155823  0.498689  1
  Si  Si21  1  0.175175  0.350350  0.500440  1
  Si  Si22  1  0.844177  0.688354  0.498689  1
  Hg  Hg23  1  0.666667  0.333333  0.503758  1
