# generated using pymatgen
data_Ta2Ti6Co7Si14Ru
_symmetry_space_group_name_H-M   'P 1'
_cell_length_a   9.24634215
_cell_length_b   9.24165441
_cell_length_c   9.22929840
_cell_angle_alpha   94.21053610
_cell_angle_beta   94.23591304
_cell_angle_gamma   148.53634716
_symmetry_Int_Tables_number   1
_chemical_formula_structural   Ta2Ti6Co7Si14Ru
_chemical_formula_sum   'Ta2 Ti6 Co7 Si14 Ru1'
_cell_volume   396.17108896
_cell_formula_units_Z   1
loop_
 _symmetry_equiv_pos_site_id
 _symmetry_equiv_pos_as_xyz
  1  'x, y, z'
loop_
 _atom_site_type_symbol
 _atom_site_label
 _atom_site_symmetry_multiplicity
 _atom_site_fract_x
 _atom_site_fract_y
 _atom_site_fract_z
 _atom_site_occupancy
  Ta  Ta0  1  0.133794  0.133793  0.267638  1
  Ta  Ta1  1  0.866288  0.866296  0.732539  1
  Ti  Ti2  1  0.863901  0.133540  0.000354  1
  Ti  Ti3  1  0.136457  0.866822  0.000366  1
  Ti  Ti4  1  0.501937  0.691879  0.193715  1
  Ti  Ti5  1  0.499020  0.307882  0.807638  1
  Ti  Ti6  1  0.308556  0.499685  0.807612  1
  Ti  Ti7  1  0.691780  0.501831  0.193673  1
  Co  Co8  1  0.102357  0.602351  0.204687  1
  Co  Co9  1  0.099972  0.898823  0.499571  1
  Co  Co10  1  0.399612  0.600745  0.499561  1
  Co  Co11  1  0.598339  0.398403  0.498267  1
  Co  Co12  1  0.899937  0.099896  0.498279  1
  Co  Co13  1  0.899625  0.399647  0.799255  1
  Co  Co14  1  0.599170  0.099184  0.198379  1
  Si  Si15  1  0.293616  0.293673  0.587239  1
  Si  Si16  1  0.706319  0.706376  0.412726  1
  Si  Si17  1  0.721180  0.312916  0.004994  1
  Si  Si18  1  0.283815  0.692101  0.005000  1
  Si  Si19  1  0.998553  0.294251  0.293732  1
  Si  Si20  1  0.990048  0.699308  0.705171  1
  Si  Si21  1  0.715089  0.005818  0.705114  1
  Si  Si22  1  0.295174  0.999440  0.293673  1
  Si  Si23  1  0.502976  0.907551  0.405076  1
  Si  Si24  1  0.507263  0.102940  0.589746  1
  Si  Si25  1  0.082492  0.486775  0.589730  1
  Si  Si26  1  0.902117  0.497492  0.405060  1
  Si  Si27  1  0.749223  0.749801  0.000096  1
  Si  Si28  1  0.250901  0.250294  0.000120  1
  Ru  Ru29  1  0.400487  0.900483  0.800988  1
