# generated using pymatgen
data_La4PrY(RuI3)2
_symmetry_space_group_name_H-M   'P 1'
_cell_length_a   4.37701300
_cell_length_b   9.54246181
_cell_length_c   12.51890486
_cell_angle_alpha   87.00153104
_cell_angle_beta   90.00000000
_cell_angle_gamma   90.00000000
_symmetry_Int_Tables_number   1
_chemical_formula_structural   La4PrY(RuI3)2
_chemical_formula_sum   'La4 Pr1 Y1 Ru2 I6'
_cell_volume   522.16723883
_cell_formula_units_Z   1
loop_
 _symmetry_equiv_pos_site_id
 _symmetry_equiv_pos_as_xyz
  1  'x, y, z'
loop_
 _atom_site_type_symbol
 _atom_site_label
 _atom_site_symmetry_multiplicity
 _atom_site_fract_x
 _atom_site_fract_y
 _atom_site_fract_z
 _atom_site_occupancy
  La  La0  1  0.750000  0.686876  0.116381  1
  La  La1  1  0.250000  0.311913  0.881988  1
  La  La2  1  0.250000  0.884772  0.328266  1
  La  La3  1  0.750000  0.112456  0.671160  1
  Pr  Pr4  1  0.750000  0.095728  0.102787  1
  Y  Y5  1  0.250000  0.910541  0.897768  1
  Ru  Ru6  1  0.250000  0.885261  0.127042  1
  Ru  Ru7  1  0.750000  0.111848  0.871055  1
  I  I8  1  0.250000  0.862740  0.623389  1
  I  I9  1  0.750000  0.135171  0.379922  1
  I  I10  1  0.750000  0.633587  0.377761  1
  I  I11  1  0.250000  0.365893  0.622614  1
  I  I12  1  0.250000  0.392662  0.137628  1
  I  I13  1  0.750000  0.610552  0.862238  1
