# generated using pymatgen
data_Tb2Nd2TmSi4
_symmetry_space_group_name_H-M   'P 1'
_cell_length_a   7.78417600
_cell_length_b   7.78417600
_cell_length_c   14.36667600
_cell_angle_alpha   90.00000000
_cell_angle_beta   90.00000000
_cell_angle_gamma   90.00000000
_symmetry_Int_Tables_number   1
_chemical_formula_structural   Tb2Nd2TmSi4
_chemical_formula_sum   'Tb8 Nd8 Tm4 Si16'
_cell_volume   870.52568806
_cell_formula_units_Z   4
loop_
 _symmetry_equiv_pos_site_id
 _symmetry_equiv_pos_as_xyz
  1  'x, y, z'
loop_
 _atom_site_type_symbol
 _atom_site_label
 _atom_site_symmetry_multiplicity
 _atom_site_fract_x
 _atom_site_fract_y
 _atom_site_fract_z
 _atom_site_occupancy
  Tb  Tb0  1  0.492149  0.361441  0.124468  1
  Tb  Tb1  1  0.992149  0.138559  0.625532  1
  Tb  Tb2  1  0.861441  0.007851  0.874468  1
  Tb  Tb3  1  0.138559  0.992149  0.374468  1
  Tb  Tb4  1  0.507851  0.638559  0.624468  1
  Tb  Tb5  1  0.361441  0.492149  0.875532  1
  Tb  Tb6  1  0.638559  0.507851  0.375532  1
  Tb  Tb7  1  0.007851  0.861441  0.125532  1
  Nd  Nd8  1  0.641682  0.993325  0.458388  1
  Nd  Nd9  1  0.358318  0.006675  0.958388  1
  Nd  Nd10  1  0.993325  0.641682  0.541612  1
  Nd  Nd11  1  0.493325  0.858318  0.208388  1
  Nd  Nd12  1  0.506675  0.141682  0.708388  1
  Nd  Nd13  1  0.858318  0.493325  0.791612  1
  Nd  Nd14  1  0.141682  0.506675  0.291612  1
  Nd  Nd15  1  0.006675  0.358318  0.041612  1
  Tm  Tm16  1  0.316798  0.316798  0.500000  1
  Tm  Tm17  1  0.183202  0.816798  0.750000  1
  Tm  Tm18  1  0.816798  0.183202  0.250000  1
  Tm  Tm19  1  0.683202  0.683202  0.000000  1
  Si  Si20  1  0.291451  0.936589  0.562052  1
  Si  Si21  1  0.708549  0.063411  0.062052  1
  Si  Si22  1  0.936589  0.291451  0.437948  1
  Si  Si23  1  0.436589  0.208549  0.312052  1
  Si  Si24  1  0.563411  0.791451  0.812052  1
  Si  Si25  1  0.208549  0.436589  0.687948  1
  Si  Si26  1  0.791451  0.563411  0.187948  1
  Si  Si27  1  0.063411  0.708549  0.937948  1
  Si  Si28  1  0.796168  0.846553  0.689077  1
  Si  Si29  1  0.203832  0.153447  0.189077  1
  Si  Si30  1  0.846553  0.796168  0.310923  1
  Si  Si31  1  0.346553  0.703832  0.439077  1
  Si  Si32  1  0.653447  0.296168  0.939077  1
  Si  Si33  1  0.703832  0.346553  0.560923  1
  Si  Si34  1  0.296168  0.653447  0.060923  1
  Si  Si35  1  0.153447  0.203832  0.810923  1
