# generated using pymatgen
data_HfPa3(GaRh5)2
_symmetry_space_group_name_H-M   'P 1'
_cell_length_a   4.12941500
_cell_length_b   5.72884084
_cell_length_c   11.26100357
_cell_angle_alpha   89.66815354
_cell_angle_beta   90.00000000
_cell_angle_gamma   90.00000000
_symmetry_Int_Tables_number   1
_chemical_formula_structural   HfPa3(GaRh5)2
_chemical_formula_sum   'Hf1 Pa3 Ga2 Rh10'
_cell_volume   266.39440543
_cell_formula_units_Z   1
loop_
 _symmetry_equiv_pos_site_id
 _symmetry_equiv_pos_as_xyz
  1  'x, y, z'
loop_
 _atom_site_type_symbol
 _atom_site_label
 _atom_site_symmetry_multiplicity
 _atom_site_fract_x
 _atom_site_fract_y
 _atom_site_fract_z
 _atom_site_occupancy
  Hf  Hf0  1  0.500000  0.313392  0.139379  1
  Pa  Pa1  1  0.500000  0.186988  0.638845  1
  Pa  Pa2  1  0.500000  0.812849  0.354533  1
  Pa  Pa3  1  0.500000  0.684679  0.867024  1
  Ga  Ga4  1  0.000000  0.501353  0.497426  1
  Ga  Ga5  1  0.000000  0.012386  0.005826  1
  Rh  Rh6  1  0.500000  0.193063  0.892460  1
  Rh  Rh7  1  0.500000  0.802775  0.107690  1
  Rh  Rh8  1  0.500000  0.696724  0.610043  1
  Rh  Rh9  1  0.500000  0.300604  0.388065  1
  Rh  Rh10  1  0.000000  0.437365  0.744911  1
  Rh  Rh11  1  0.000000  0.561244  0.254618  1
  Rh  Rh12  1  0.000000  0.000822  0.498253  1
  Rh  Rh13  1  0.000000  0.494611  0.002657  1
  Rh  Rh14  1  0.000000  0.064363  0.240872  1
  Rh  Rh15  1  0.000000  0.936783  0.757398  1
