# generated using pymatgen
data_Tb6Ho10Cd4OsPt3
_symmetry_space_group_name_H-M   'P 1'
_cell_length_a   9.68337844
_cell_length_b   9.68337857
_cell_length_c   9.68337846
_cell_angle_alpha   59.56499920
_cell_angle_beta   59.56499805
_cell_angle_gamma   59.56500119
_symmetry_Int_Tables_number   1
_chemical_formula_structural   Tb6Ho10Cd4OsPt3
_chemical_formula_sum   'Tb6 Ho10 Cd4 Os1 Pt3'
_cell_volume   635.69608334
_cell_formula_units_Z   1
loop_
 _symmetry_equiv_pos_site_id
 _symmetry_equiv_pos_as_xyz
  1  'x, y, z'
loop_
 _atom_site_type_symbol
 _atom_site_label
 _atom_site_symmetry_multiplicity
 _atom_site_fract_x
 _atom_site_fract_y
 _atom_site_fract_z
 _atom_site_occupancy
  Tb  Tb0  1  0.936143  0.564862  0.564862  1
  Tb  Tb1  1  0.557652  0.938318  0.938318  1
  Tb  Tb2  1  0.564862  0.936143  0.564862  1
  Tb  Tb3  1  0.938318  0.557652  0.938318  1
  Tb  Tb4  1  0.564862  0.564862  0.936143  1
  Tb  Tb5  1  0.938318  0.938318  0.557652  1
  Ho  Ho6  1  0.351565  0.351565  0.351565  1
  Ho  Ho7  1  0.349697  0.349697  0.949115  1
  Ho  Ho8  1  0.349697  0.949115  0.349697  1
  Ho  Ho9  1  0.949115  0.349697  0.349697  1
  Ho  Ho10  1  0.814888  0.188563  0.188563  1
  Ho  Ho11  1  0.187433  0.810145  0.810145  1
  Ho  Ho12  1  0.188563  0.814888  0.188563  1
  Ho  Ho13  1  0.810145  0.187433  0.810145  1
  Ho  Ho14  1  0.188563  0.188563  0.814888  1
  Ho  Ho15  1  0.810145  0.810145  0.187433  1
  Cd  Cd16  1  0.580325  0.580325  0.580325  1
  Cd  Cd17  1  0.580882  0.580882  0.254972  1
  Cd  Cd18  1  0.580882  0.254972  0.580882  1
  Cd  Cd19  1  0.254972  0.580882  0.580882  1
  Os  Os20  1  0.143058  0.143058  0.143058  1
  Pt  Pt21  1  0.143468  0.143468  0.572981  1
  Pt  Pt22  1  0.143468  0.572981  0.143468  1
  Pt  Pt23  1  0.572981  0.143468  0.143468  1
