# generated using pymatgen
data_DyHo5RuO12
_symmetry_space_group_name_H-M   'P 1'
_cell_length_a   6.44271688
_cell_length_b   6.45345889
_cell_length_c   6.44048591
_cell_angle_alpha   98.64811253
_cell_angle_beta   98.48692288
_cell_angle_gamma   98.51861689
_symmetry_Int_Tables_number   1
_chemical_formula_structural   DyHo5RuO12
_chemical_formula_sum   'Dy1 Ho5 Ru1 O12'
_cell_volume   257.83487248
_cell_formula_units_Z   1
loop_
 _symmetry_equiv_pos_site_id
 _symmetry_equiv_pos_as_xyz
  1  'x, y, z'
loop_
 _atom_site_type_symbol
 _atom_site_label
 _atom_site_symmetry_multiplicity
 _atom_site_fract_x
 _atom_site_fract_y
 _atom_site_fract_z
 _atom_site_occupancy
  Dy  Dy0  1  0.611970  0.143049  0.313015  1
  Ho  Ho1  1  0.855876  0.685260  0.387938  1
  Ho  Ho2  1  0.686593  0.389204  0.856504  1
  Ho  Ho3  1  0.388125  0.856405  0.686507  1
  Ho  Ho4  1  0.144266  0.315174  0.612279  1
  Ho  Ho5  1  0.312970  0.611077  0.143486  1
  Ru  Ru6  1  0.999949  0.999791  0.999470  1
  O  O7  1  0.590406  0.434325  0.177159  1
  O  O8  1  0.433305  0.177236  0.591686  1
  O  O9  1  0.177440  0.591168  0.434166  1
  O  O10  1  0.409644  0.566933  0.822432  1
  O  O11  1  0.566145  0.821657  0.410400  1
  O  O12  1  0.822758  0.409766  0.566447  1
  O  O13  1  0.701658  0.036305  0.926419  1
  O  O14  1  0.073443  0.299376  0.963624  1
  O  O15  1  0.966026  0.073617  0.298503  1
  O  O16  1  0.298117  0.962701  0.072321  1
  O  O17  1  0.926591  0.700878  0.036371  1
  O  O18  1  0.034719  0.926077  0.701274  1
