# generated using pymatgen
data_Pa3ZnPt12
_symmetry_space_group_name_H-M   'P 1'
_cell_length_a   5.78995800
_cell_length_b   5.78995875
_cell_length_c   9.68919100
_cell_angle_alpha   90.00000000
_cell_angle_beta   90.00000000
_cell_angle_gamma   120.00000716
_symmetry_Int_Tables_number   1
_chemical_formula_structural   Pa3ZnPt12
_chemical_formula_sum   'Pa3 Zn1 Pt12'
_cell_volume   281.29952595
_cell_formula_units_Z   1
loop_
 _symmetry_equiv_pos_site_id
 _symmetry_equiv_pos_as_xyz
  1  'x, y, z'
loop_
 _atom_site_type_symbol
 _atom_site_label
 _atom_site_symmetry_multiplicity
 _atom_site_fract_x
 _atom_site_fract_y
 _atom_site_fract_z
 _atom_site_occupancy
  Pa  Pa0  1  0.000000  0.000000  0.492614  1
  Pa  Pa1  1  0.000000  0.000000  0.007386  1
  Pa  Pa2  1  0.666667  0.333333  0.750000  1
  Zn  Zn3  1  0.333333  0.666667  0.250000  1
  Pt  Pt4  1  0.499191  0.500809  0.494560  1
  Pt  Pt5  1  0.499191  0.998381  0.494560  1
  Pt  Pt6  1  0.001619  0.500809  0.494560  1
  Pt  Pt7  1  0.499191  0.500809  0.005440  1
  Pt  Pt8  1  0.499191  0.998381  0.005440  1
  Pt  Pt9  1  0.001619  0.500809  0.005440  1
  Pt  Pt10  1  0.829337  0.658674  0.250000  1
  Pt  Pt11  1  0.341326  0.170663  0.250000  1
  Pt  Pt12  1  0.829337  0.170663  0.250000  1
  Pt  Pt13  1  0.168344  0.336685  0.750000  1
  Pt  Pt14  1  0.663315  0.831656  0.750000  1
  Pt  Pt15  1  0.168344  0.831656  0.750000  1
