# generated using pymatgen
data_Lu3Bi5O14
_symmetry_space_group_name_H-M   'P 1'
_cell_length_a   6.56878974
_cell_length_b   6.67728421
_cell_length_c   7.72285335
_cell_angle_alpha   106.75586546
_cell_angle_beta   89.43787509
_cell_angle_gamma   99.12036100
_symmetry_Int_Tables_number   1
_chemical_formula_structural   Lu3Bi5O14
_chemical_formula_sum   'Lu3 Bi5 O14'
_cell_volume   320.02369607
_cell_formula_units_Z   1
loop_
 _symmetry_equiv_pos_site_id
 _symmetry_equiv_pos_as_xyz
  1  'x, y, z'
loop_
 _atom_site_type_symbol
 _atom_site_label
 _atom_site_symmetry_multiplicity
 _atom_site_fract_x
 _atom_site_fract_y
 _atom_site_fract_z
 _atom_site_occupancy
  Lu  Lu0  1  0.463371  0.002707  0.252323  1
  Lu  Lu1  1  0.536590  0.993182  0.751474  1
  Lu  Lu2  1  0.265003  0.536993  0.885504  1
  Bi  Bi3  1  0.003667  0.008834  0.503549  1
  Bi  Bi4  1  0.005176  0.001224  0.998493  1
  Bi  Bi5  1  0.735379  0.474189  0.113531  1
  Bi  Bi6  1  0.721462  0.464488  0.615719  1
  Bi  Bi7  1  0.266024  0.528300  0.390583  1
  O  O8  1  0.447224  0.656763  0.162281  1
  O  O9  1  0.531586  0.337849  0.823614  1
  O  O10  1  0.307381  0.919579  0.949855  1
  O  O11  1  0.695713  0.052722  0.051033  1
  O  O12  1  0.304513  0.924524  0.515338  1
  O  O13  1  0.697941  0.079539  0.487167  1
  O  O14  1  0.529968  0.350826  0.348191  1
  O  O15  1  0.455386  0.646469  0.664263  1
  O  O16  1  0.941642  0.665034  0.953975  1
  O  O17  1  0.087332  0.328170  0.029934  1
  O  O18  1  0.097273  0.339156  0.629318  1
  O  O19  1  0.905928  0.680330  0.372713  1
  O  O20  1  0.868416  0.928104  0.731910  1
  O  O21  1  0.133025  0.081021  0.269231  1
