# generated using pymatgen
data_CeSc7(CdCo)2
_symmetry_space_group_name_H-M   'P 1'
_cell_length_a   8.83485087
_cell_length_b   9.05318884
_cell_length_c   9.05318800
_cell_angle_alpha   58.41073172
_cell_angle_beta   60.79463837
_cell_angle_gamma   60.79463413
_symmetry_Int_Tables_number   1
_chemical_formula_structural   CeSc7(CdCo)2
_chemical_formula_sum   'Ce2 Sc14 Cd4 Co4'
_cell_volume   511.43883425
_cell_formula_units_Z   2
loop_
 _symmetry_equiv_pos_site_id
 _symmetry_equiv_pos_as_xyz
  1  'x, y, z'
loop_
 _atom_site_type_symbol
 _atom_site_label
 _atom_site_symmetry_multiplicity
 _atom_site_fract_x
 _atom_site_fract_y
 _atom_site_fract_z
 _atom_site_occupancy
  Ce  Ce0  1  0.816181  0.183819  0.183819  1
  Ce  Ce1  1  0.183819  0.816181  0.816181  1
  Sc  Sc2  1  0.192464  0.807536  0.192464  1
  Sc  Sc3  1  0.807536  0.192464  0.807536  1
  Sc  Sc4  1  0.192464  0.192464  0.807536  1
  Sc  Sc5  1  0.807536  0.807536  0.192464  1
  Sc  Sc6  1  0.924685  0.575315  0.575315  1
  Sc  Sc7  1  0.575315  0.924685  0.924685  1
  Sc  Sc8  1  0.557579  0.942421  0.557579  1
  Sc  Sc9  1  0.942421  0.557579  0.942421  1
  Sc  Sc10  1  0.557579  0.557579  0.942421  1
  Sc  Sc11  1  0.942421  0.942421  0.557579  1
  Sc  Sc12  1  0.331041  0.350963  0.350963  1
  Sc  Sc13  1  0.350963  0.331041  0.967035  1
  Sc  Sc14  1  0.350963  0.967035  0.331041  1
  Sc  Sc15  1  0.967035  0.350963  0.350963  1
  Cd  Cd16  1  0.587887  0.580307  0.580307  1
  Cd  Cd17  1  0.580307  0.587887  0.251498  1
  Cd  Cd18  1  0.580307  0.251498  0.587887  1
  Cd  Cd19  1  0.251498  0.580307  0.580307  1
  Co  Co20  1  0.106880  0.153152  0.153152  1
  Co  Co21  1  0.153152  0.106880  0.586815  1
  Co  Co22  1  0.153152  0.586815  0.106880  1
  Co  Co23  1  0.586815  0.153152  0.153152  1
