# generated using pymatgen
data_NdHfSn2IrRh
_symmetry_space_group_name_H-M   'P 1'
_cell_length_a   7.50742600
_cell_length_b   7.50742632
_cell_length_c   7.73428400
_cell_angle_alpha   90.00000000
_cell_angle_beta   90.00000000
_cell_angle_gamma   119.99999860
_symmetry_Int_Tables_number   1
_chemical_formula_structural   NdHfSn2IrRh
_chemical_formula_sum   'Nd3 Hf3 Sn6 Ir3 Rh3'
_cell_volume   377.51385188
_cell_formula_units_Z   3
loop_
 _symmetry_equiv_pos_site_id
 _symmetry_equiv_pos_as_xyz
  1  'x, y, z'
loop_
 _atom_site_type_symbol
 _atom_site_label
 _atom_site_symmetry_multiplicity
 _atom_site_fract_x
 _atom_site_fract_y
 _atom_site_fract_z
 _atom_site_occupancy
  Nd  Nd0  1  0.001004  0.409839  0.749560  1
  Nd  Nd1  1  0.590161  0.591165  0.749560  1
  Nd  Nd2  1  0.408835  0.998996  0.749560  1
  Hf  Hf3  1  0.000267  0.394823  0.250514  1
  Hf  Hf4  1  0.605177  0.605445  0.250514  1
  Hf  Hf5  1  0.394555  0.999733  0.250514  1
  Sn  Sn6  1  0.263712  0.264065  0.487746  1
  Sn  Sn7  1  0.000353  0.736288  0.487746  1
  Sn  Sn8  1  0.999298  0.735533  0.012181  1
  Sn  Sn9  1  0.735935  0.999647  0.487746  1
  Sn  Sn10  1  0.736235  0.000702  0.012181  1
  Sn  Sn11  1  0.264467  0.263765  0.012181  1
  Ir  Ir12  1  0.333333  0.666667  0.451446  1
  Ir  Ir13  1  0.666667  0.333333  0.453258  1
  Ir  Ir14  1  0.333333  0.666667  0.047751  1
  Rh  Rh15  1  0.000000  0.000000  0.749681  1
  Rh  Rh16  1  0.000000  0.000000  0.250400  1
  Rh  Rh17  1  0.666667  0.333333  0.047462  1
