# generated using pymatgen
data_Pr3Cd13Hg2
_symmetry_space_group_name_H-M   'P 1'
_cell_length_a   16.59552520
_cell_length_b   16.59552497
_cell_length_c   7.23220485
_cell_angle_alpha   96.02931597
_cell_angle_beta   96.02931531
_cell_angle_gamma   13.07400536
_symmetry_Int_Tables_number   1
_chemical_formula_structural   Pr3Cd13Hg2
_chemical_formula_sum   'Pr3 Cd13 Hg2'
_cell_volume   448.04587761
_cell_formula_units_Z   1
loop_
 _symmetry_equiv_pos_site_id
 _symmetry_equiv_pos_as_xyz
  1  'x, y, z'
loop_
 _atom_site_type_symbol
 _atom_site_label
 _atom_site_symmetry_multiplicity
 _atom_site_fract_x
 _atom_site_fract_y
 _atom_site_fract_z
 _atom_site_occupancy
  Pr  Pr0  1  0.003840  0.003840  0.999109  1
  Pr  Pr1  1  0.665830  0.665830  0.344551  1
  Pr  Pr2  1  0.882211  0.882211  0.430033  1
  Cd  Cd3  1  0.106012  0.106012  0.033709  1
  Cd  Cd4  1  0.229804  0.229804  0.110777  1
  Cd  Cd5  1  0.330532  0.330532  0.115658  1
  Cd  Cd6  1  0.443238  0.443238  0.214733  1
  Cd  Cd7  1  0.560714  0.560714  0.309123  1
  Cd  Cd8  1  0.773437  0.773437  0.400557  1
  Cd  Cd9  1  0.995083  0.995083  0.482423  1
  Cd  Cd10  1  0.222993  0.222993  0.648551  1
  Cd  Cd11  1  0.444232  0.444232  0.714684  1
  Cd  Cd12  1  0.555282  0.555282  0.732163  1
  Cd  Cd13  1  0.669531  0.669531  0.874884  1
  Cd  Cd14  1  0.777955  0.777955  0.876996  1
  Cd  Cd15  1  0.893439  0.893439  0.940478  1
  Hg  Hg16  1  0.115590  0.115590  0.596432  1
  Hg  Hg17  1  0.330275  0.330275  0.675139  1
