# generated using pymatgen
data_TmZr5(SiRu)6
_symmetry_space_group_name_H-M   'P 1'
_cell_length_a   7.72304990
_cell_length_b   7.69420677
_cell_length_c   7.72304915
_cell_angle_alpha   127.77361137
_cell_angle_beta   122.70658580
_cell_angle_gamma   81.30601559
_symmetry_Int_Tables_number   1
_chemical_formula_structural   TmZr5(SiRu)6
_chemical_formula_sum   'Tm1 Zr5 Si6 Ru6'
_cell_volume   293.86893203
_cell_formula_units_Z   1
loop_
 _symmetry_equiv_pos_site_id
 _symmetry_equiv_pos_as_xyz
  1  'x, y, z'
loop_
 _atom_site_type_symbol
 _atom_site_label
 _atom_site_symmetry_multiplicity
 _atom_site_fract_x
 _atom_site_fract_y
 _atom_site_fract_z
 _atom_site_occupancy
  Tm  Tm0  1  0.962379  0.679060  0.216681  1
  Zr  Zr1  1  0.451266  0.656297  0.705031  1
  Zr  Zr2  1  0.548255  0.254907  0.206652  1
  Zr  Zr3  1  0.752744  0.841762  0.589018  1
  Zr  Zr4  1  0.248608  0.837631  0.089024  1
  Zr  Zr5  1  0.038658  0.256824  0.718165  1
  Si  Si6  1  0.236825  0.236160  0.499335  1
  Si  Si7  1  0.759342  0.260039  0.000698  1
  Si  Si8  1  0.340128  0.586866  0.257913  1
  Si  Si9  1  0.661593  0.923045  0.250716  1
  Si  Si10  1  0.172329  0.923045  0.761452  1
  Si  Si11  1  0.828953  0.586866  0.746738  1
  Ru  Ru12  1  0.498093  0.496433  0.995976  1
  Ru  Ru13  1  0.000457  0.496433  0.498340  1
  Ru  Ru14  1  0.134993  0.252309  0.143611  1
  Ru  Ru15  1  0.862200  0.009808  0.115330  1
  Ru  Ru16  1  0.394478  0.009808  0.647608  1
  Ru  Ru17  1  0.608700  0.252309  0.617318  1
