# generated using pymatgen
data_DyUInIr2
_symmetry_space_group_name_H-M   'P 1'
_cell_length_a   7.70234150
_cell_length_b   7.70234150
_cell_length_c   3.57804200
_cell_angle_alpha   90.00000000
_cell_angle_beta   90.00000000
_cell_angle_gamma   85.29754015
_symmetry_Int_Tables_number   1
_chemical_formula_structural   DyUInIr2
_chemical_formula_sum   'Dy2 U2 In2 Ir4'
_cell_volume   211.55661829
_cell_formula_units_Z   2
loop_
 _symmetry_equiv_pos_site_id
 _symmetry_equiv_pos_as_xyz
  1  'x, y, z'
loop_
 _atom_site_type_symbol
 _atom_site_label
 _atom_site_symmetry_multiplicity
 _atom_site_fract_x
 _atom_site_fract_y
 _atom_site_fract_z
 _atom_site_occupancy
  Dy  Dy0  1  0.669602  0.169602  0.500000  1
  Dy  Dy1  1  0.330398  0.830398  0.500000  1
  U  U2  1  0.167275  0.332725  0.500000  1
  U  U3  1  0.832725  0.667275  0.500000  1
  In  In4  1  0.500000  0.500000  0.000000  1
  In  In5  1  0.000000  0.000000  0.000000  1
  Ir  Ir6  1  0.123978  0.623978  0.000000  1
  Ir  Ir7  1  0.876022  0.376022  0.000000  1
  Ir  Ir8  1  0.646901  0.853099  0.000000  1
  Ir  Ir9  1  0.353099  0.146901  0.000000  1
