# generated using pymatgen
data_Dy2Er5Sn23Ru6
_symmetry_space_group_name_H-M   'P 1'
_cell_length_a   9.83630701
_cell_length_b   9.83630732
_cell_length_c   10.06994200
_cell_angle_alpha   89.92340761
_cell_angle_beta   90.07658969
_cell_angle_gamma   119.87547883
_symmetry_Int_Tables_number   1
_chemical_formula_structural   Dy2Er5Sn23Ru6
_chemical_formula_sum   'Dy2 Er5 Sn23 Ru6'
_cell_volume   844.82122330
_cell_formula_units_Z   1
loop_
 _symmetry_equiv_pos_site_id
 _symmetry_equiv_pos_as_xyz
  1  'x, y, z'
loop_
 _atom_site_type_symbol
 _atom_site_label
 _atom_site_symmetry_multiplicity
 _atom_site_fract_x
 _atom_site_fract_y
 _atom_site_fract_z
 _atom_site_occupancy
  Dy  Dy0  1  0.484618  0.515382  0.303126  1
  Dy  Dy1  1  0.000026  0.999974  0.999986  1
  Er  Er2  1  0.514956  0.485044  0.697238  1
  Er  Er3  1  0.485007  0.970241  0.302621  1
  Er  Er4  1  0.514948  0.029715  0.697380  1
  Er  Er5  1  0.029759  0.514993  0.302621  1
  Er  Er6  1  0.970285  0.485052  0.697380  1
  Sn  Sn7  1  0.118886  0.881114  0.274056  1
  Sn  Sn8  1  0.881142  0.118858  0.725988  1
  Sn  Sn9  1  0.118599  0.237333  0.274181  1
  Sn  Sn10  1  0.881048  0.762324  0.725737  1
  Sn  Sn11  1  0.762667  0.881401  0.274181  1
  Sn  Sn12  1  0.237676  0.118952  0.725737  1
  Sn  Sn13  1  0.779716  0.220284  0.462832  1
  Sn  Sn14  1  0.220332  0.779668  0.537171  1
  Sn  Sn15  1  0.779892  0.559710  0.463124  1
  Sn  Sn16  1  0.220270  0.440302  0.537290  1
  Sn  Sn17  1  0.440290  0.220108  0.463124  1
  Sn  Sn18  1  0.559698  0.779730  0.537290  1
  Sn  Sn19  1  0.349179  0.999936  0.999855  1
  Sn  Sn20  1  0.650844  0.999968  0.000074  1
  Sn  Sn21  1  0.000032  0.349156  0.000074  1
  Sn  Sn22  1  0.000064  0.650821  0.999855  1
  Sn  Sn23  1  0.651111  0.651073  0.999921  1
  Sn  Sn24  1  0.348927  0.348889  0.999921  1
  Sn  Sn25  1  0.333042  0.666958  0.129098  1
  Sn  Sn26  1  0.666619  0.333381  0.870531  1
  Sn  Sn27  1  0.333380  0.666620  0.822528  1
  Sn  Sn28  1  0.666723  0.333277  0.177388  1
  Sn  Sn29  1  0.000048  0.999952  0.500015  1
  Ru  Ru30  1  0.829763  0.170237  0.202689  1
  Ru  Ru31  1  0.170200  0.829800  0.797258  1
  Ru  Ru32  1  0.830326  0.659605  0.202452  1
  Ru  Ru33  1  0.170164  0.340634  0.797411  1
  Ru  Ru34  1  0.340395  0.169674  0.202452  1
  Ru  Ru35  1  0.659366  0.829836  0.797411  1
