# generated using pymatgen
data_LiSi5Bi2AsPd20
_symmetry_space_group_name_H-M   'P 1'
_cell_length_a   8.67927075
_cell_length_b   8.73652405
_cell_length_c   8.73652392
_cell_angle_alpha   59.56690160
_cell_angle_beta   60.21654862
_cell_angle_gamma   60.21655314
_symmetry_Int_Tables_number   1
_chemical_formula_structural   LiSi5Bi2AsPd20
_chemical_formula_sum   'Li1 Si5 Bi2 As1 Pd20'
_cell_volume   468.39099153
_cell_formula_units_Z   1
loop_
 _symmetry_equiv_pos_site_id
 _symmetry_equiv_pos_as_xyz
  1  'x, y, z'
loop_
 _atom_site_type_symbol
 _atom_site_label
 _atom_site_symmetry_multiplicity
 _atom_site_fract_x
 _atom_site_fract_y
 _atom_site_fract_z
 _atom_site_occupancy
  Li  Li0  1  0.000697  0.999303  0.999303  1
  Si  Si1  1  0.267404  0.732596  0.732596  1
  Si  Si2  1  0.267570  0.732430  0.267017  1
  Si  Si3  1  0.732983  0.267017  0.732430  1
  Si  Si4  1  0.267570  0.267017  0.732430  1
  Si  Si5  1  0.732983  0.732430  0.267017  1
  Bi  Bi6  1  0.250039  0.249961  0.249961  1
  Bi  Bi7  1  0.750039  0.749961  0.749961  1
  As  As8  1  0.735917  0.264083  0.264083  1
  Pd  Pd9  1  0.376915  0.385774  0.385774  1
  Pd  Pd10  1  0.616344  0.617158  0.617158  1
  Pd  Pd11  1  0.382842  0.383656  0.850657  1
  Pd  Pd12  1  0.382842  0.850657  0.383656  1
  Pd  Pd13  1  0.614226  0.623085  0.148467  1
  Pd  Pd14  1  0.614226  0.148467  0.623085  1
  Pd  Pd15  1  0.851533  0.385774  0.385774  1
  Pd  Pd16  1  0.149343  0.617158  0.617158  1
  Pd  Pd17  1  0.342588  0.999135  0.999135  1
  Pd  Pd18  1  0.659142  0.999135  0.999135  1
  Pd  Pd19  1  0.000865  0.340858  0.657412  1
  Pd  Pd20  1  0.000865  0.657412  0.340858  1
  Pd  Pd21  1  0.007502  0.344574  0.992498  1
  Pd  Pd22  1  0.655426  0.992498  0.344574  1
  Pd  Pd23  1  0.999058  0.660453  0.000942  1
  Pd  Pd24  1  0.339547  0.000942  0.660453  1
  Pd  Pd25  1  0.007502  0.992498  0.344574  1
  Pd  Pd26  1  0.999058  0.000942  0.660453  1
  Pd  Pd27  1  0.655426  0.344574  0.992498  1
  Pd  Pd28  1  0.339547  0.660453  0.000942  1
