# generated using pymatgen
data_LiTb3ZnIn3Pt
_symmetry_space_group_name_H-M   'P 1'
_cell_length_a   7.82929300
_cell_length_b   7.82929357
_cell_length_c   3.81928000
_cell_angle_alpha   90.00000000
_cell_angle_beta   90.00000000
_cell_angle_gamma   120.00000182
_symmetry_Int_Tables_number   1
_chemical_formula_structural   LiTb3ZnIn3Pt
_chemical_formula_sum   'Li1 Tb3 Zn1 In3 Pt1'
_cell_volume   202.74831164
_cell_formula_units_Z   1
loop_
 _symmetry_equiv_pos_site_id
 _symmetry_equiv_pos_as_xyz
  1  'x, y, z'
loop_
 _atom_site_type_symbol
 _atom_site_label
 _atom_site_symmetry_multiplicity
 _atom_site_fract_x
 _atom_site_fract_y
 _atom_site_fract_z
 _atom_site_occupancy
  Li  Li0  1  0.000000  0.000000  0.000000  1
  Tb  Tb1  1  0.400146  0.983158  0.000000  1
  Tb  Tb2  1  0.016842  0.416989  0.000000  1
  Tb  Tb3  1  0.583011  0.599854  0.000000  1
  Zn  Zn4  1  0.666667  0.333333  0.500000  1
  In  In5  1  0.260461  0.253771  0.500000  1
  In  In6  1  0.993310  0.739539  0.500000  1
  In  In7  1  0.746229  0.006690  0.500000  1
  Pt  Pt8  1  0.333333  0.666667  0.500000  1
