# generated using pymatgen
data_Yb3TmRu8
_symmetry_space_group_name_H-M   'P 1'
_cell_length_a   5.24291344
_cell_length_b   5.24257654
_cell_length_c   8.82690000
_cell_angle_alpha   89.99952331
_cell_angle_beta   90.00167455
_cell_angle_gamma   120.03097803
_symmetry_Int_Tables_number   1
_chemical_formula_structural   Yb3TmRu8
_chemical_formula_sum   'Yb3 Tm1 Ru8'
_cell_volume   210.04901678
_cell_formula_units_Z   1
loop_
 _symmetry_equiv_pos_site_id
 _symmetry_equiv_pos_as_xyz
  1  'x, y, z'
loop_
 _atom_site_type_symbol
 _atom_site_label
 _atom_site_symmetry_multiplicity
 _atom_site_fract_x
 _atom_site_fract_y
 _atom_site_fract_z
 _atom_site_occupancy
  Yb  Yb0  1  0.333355  0.666629  0.430098  1
  Yb  Yb1  1  0.333357  0.666624  0.065455  1
  Yb  Yb2  1  0.666662  0.333340  0.938658  1
  Tm  Tm3  1  0.666658  0.333343  0.568136  1
  Ru  Ru4  1  0.000042  0.999922  0.500090  1
  Ru  Ru5  1  0.000036  0.999927  0.998174  1
  Ru  Ru6  1  0.172270  0.344562  0.748802  1
  Ru  Ru7  1  0.172204  0.827835  0.748819  1
  Ru  Ru8  1  0.655451  0.827755  0.748804  1
  Ru  Ru9  1  0.828354  0.656755  0.250985  1
  Ru  Ru10  1  0.828352  0.171652  0.250990  1
  Ru  Ru11  1  0.343259  0.171654  0.250988  1
