# generated using pymatgen
data_Ce2Y2MnRuC8
_symmetry_space_group_name_H-M   'P 1'
_cell_length_a   6.62420953
_cell_length_b   6.80479137
_cell_length_c   6.80479309
_cell_angle_alpha   135.02991466
_cell_angle_beta   110.89062542
_cell_angle_gamma   86.78479964
_symmetry_Int_Tables_number   1
_chemical_formula_structural   Ce2Y2MnRuC8
_chemical_formula_sum   'Ce2 Y2 Mn1 Ru1 C8'
_cell_volume   193.38383553
_cell_formula_units_Z   1
loop_
 _symmetry_equiv_pos_site_id
 _symmetry_equiv_pos_as_xyz
  1  'x, y, z'
loop_
 _atom_site_type_symbol
 _atom_site_label
 _atom_site_symmetry_multiplicity
 _atom_site_fract_x
 _atom_site_fract_y
 _atom_site_fract_z
 _atom_site_occupancy
  Ce  Ce0  1  0.502678  0.353404  0.154312  1
  Ce  Ce1  1  0.497322  0.651634  0.850726  1
  Y  Y2  1  0.195139  0.853550  0.336166  1
  Y  Y3  1  0.804861  0.141027  0.658411  1
  Mn  Mn4  1  0.000000  0.749352  0.749352  1
  Ru  Ru5  1  0.000000  0.251373  0.251373  1
  C  C6  1  0.251912  0.051809  0.150670  1
  C  C7  1  0.748088  0.898757  0.799896  1
  C  C8  1  0.917392  0.605949  0.359329  1
  C  C9  1  0.082608  0.441938  0.688557  1
  C  C10  1  0.471697  0.126346  0.346338  1
  C  C11  1  0.528303  0.874642  0.654650  1
  C  C12  1  0.791667  0.626447  0.165439  1
  C  C13  1  0.208333  0.373773  0.834780  1
