# generated using pymatgen
data_TbEr2Fe8Os
_symmetry_space_group_name_H-M   'P 1'
_cell_length_a   8.74877305
_cell_length_b   8.74877337
_cell_length_c   8.74877254
_cell_angle_alpha   33.84665107
_cell_angle_beta   33.84664816
_cell_angle_gamma   33.84664547
_symmetry_Int_Tables_number   1
_chemical_formula_structural   TbEr2Fe8Os
_chemical_formula_sum   'Tb1 Er2 Fe8 Os1'
_cell_volume   185.12221628
_cell_formula_units_Z   1
loop_
 _symmetry_equiv_pos_site_id
 _symmetry_equiv_pos_as_xyz
  1  'x, y, z'
loop_
 _atom_site_type_symbol
 _atom_site_label
 _atom_site_symmetry_multiplicity
 _atom_site_fract_x
 _atom_site_fract_y
 _atom_site_fract_z
 _atom_site_occupancy
  Tb  Tb0  1  0.000000  0.000000  0.000000  1
  Er  Er1  1  0.141917  0.141917  0.141917  1
  Er  Er2  1  0.858083  0.858083  0.858083  1
  Fe  Fe3  1  0.417923  0.417923  0.922211  1
  Fe  Fe4  1  0.922211  0.417923  0.417923  1
  Fe  Fe5  1  0.582077  0.077789  0.582077  1
  Fe  Fe6  1  0.582077  0.582077  0.077789  1
  Fe  Fe7  1  0.417923  0.922211  0.417923  1
  Fe  Fe8  1  0.077789  0.582077  0.582077  1
  Fe  Fe9  1  0.332734  0.332734  0.332734  1
  Fe  Fe10  1  0.667266  0.667266  0.667266  1
  Os  Os11  1  0.500000  0.500000  0.500000  1
