# generated using pymatgen
data_NdMg2Al2Ni
_symmetry_space_group_name_H-M   'P 1'
_cell_length_a   4.12284103
_cell_length_b   6.86271500
_cell_length_c   8.77983811
_cell_angle_alpha   90.00000000
_cell_angle_beta   103.57926504
_cell_angle_gamma   90.00000000
_symmetry_Int_Tables_number   1
_chemical_formula_structural   NdMg2Al2Ni
_chemical_formula_sum   'Nd2 Mg4 Al4 Ni2'
_cell_volume   241.47150765
_cell_formula_units_Z   2
loop_
 _symmetry_equiv_pos_site_id
 _symmetry_equiv_pos_as_xyz
  1  'x, y, z'
loop_
 _atom_site_type_symbol
 _atom_site_label
 _atom_site_symmetry_multiplicity
 _atom_site_fract_x
 _atom_site_fract_y
 _atom_site_fract_z
 _atom_site_occupancy
  Nd  Nd0  1  0.872839  0.750000  0.745677  1
  Nd  Nd1  1  0.127161  0.250000  0.254323  1
  Mg  Mg2  1  0.500000  0.500000  0.000000  1
  Mg  Mg3  1  0.500000  0.000000  0.000000  1
  Mg  Mg4  1  0.083975  0.750000  0.167951  1
  Mg  Mg5  1  0.916025  0.250000  0.832049  1
  Al  Al6  1  0.696995  0.555534  0.393991  1
  Al  Al7  1  0.303005  0.444466  0.606009  1
  Al  Al8  1  0.696995  0.944466  0.393991  1
  Al  Al9  1  0.303005  0.055534  0.606009  1
  Ni  Ni10  1  0.230635  0.750000  0.461271  1
  Ni  Ni11  1  0.769365  0.250000  0.538729  1
