# generated using pymatgen
data_TbY3(RuC4)2
_symmetry_space_group_name_H-M   'P 1'
_cell_length_a   5.30456593
_cell_length_b   6.65927590
_cell_length_c   6.67046707
_cell_angle_alpha   71.36568127
_cell_angle_beta   66.57079597
_cell_angle_gamma   66.52905975
_symmetry_Int_Tables_number   1
_chemical_formula_structural   TbY3(RuC4)2
_chemical_formula_sum   'Tb1 Y3 Ru2 C8'
_cell_volume   194.64596552
_cell_formula_units_Z   1
loop_
 _symmetry_equiv_pos_site_id
 _symmetry_equiv_pos_as_xyz
  1  'x, y, z'
loop_
 _atom_site_type_symbol
 _atom_site_label
 _atom_site_symmetry_multiplicity
 _atom_site_fract_x
 _atom_site_fract_y
 _atom_site_fract_z
 _atom_site_occupancy
  Tb  Tb0  1  0.849026  0.505253  0.796693  1
  Y  Y1  1  0.650426  0.203809  0.495340  1
  Y  Y2  1  0.349374  0.796330  0.504921  1
  Y  Y3  1  0.150581  0.494475  0.204365  1
  Ru  Ru4  1  0.250295  0.999741  0.999623  1
  Ru  Ru5  1  0.750340  0.999741  0.999623  1
  C  C6  1  0.871911  0.788541  0.467637  1
  C  C7  1  0.128390  0.211609  0.531610  1
  C  C8  1  0.371821  0.468751  0.787609  1
  C  C9  1  0.627820  0.531494  0.212865  1
  C  C10  1  0.924928  0.898621  0.251523  1
  C  C11  1  0.075559  0.101316  0.747566  1
  C  C12  1  0.424766  0.252554  0.897915  1
  C  C13  1  0.574763  0.747764  0.102709  1
