# generated using pymatgen
data_Eu2Cu(SiPd2)3
_symmetry_space_group_name_H-M   'P 1'
_cell_length_a   6.82275653
_cell_length_b   6.80937937
_cell_length_c   6.82275640
_cell_angle_alpha   130.22981215
_cell_angle_beta   114.40219265
_cell_angle_gamma   86.68408420
_symmetry_Int_Tables_number   1
_chemical_formula_structural   Eu2Cu(SiPd2)3
_chemical_formula_sum   'Eu2 Cu1 Si3 Pd6'
_cell_volume   210.18898200
_cell_formula_units_Z   1
loop_
 _symmetry_equiv_pos_site_id
 _symmetry_equiv_pos_as_xyz
  1  'x, y, z'
loop_
 _atom_site_type_symbol
 _atom_site_label
 _atom_site_symmetry_multiplicity
 _atom_site_fract_x
 _atom_site_fract_y
 _atom_site_fract_z
 _atom_site_occupancy
  Eu  Eu0  1  0.008767  0.978239  0.969472  1
  Eu  Eu1  1  0.495921  0.047571  0.551650  1
  Cu  Cu2  1  0.350702  0.423222  0.072520  1
  Si  Si3  1  0.812035  0.249015  0.436981  1
  Si  Si4  1  0.642041  0.698941  0.056901  1
  Si  Si5  1  0.196595  0.623938  0.427344  1
  Pd  Pd6  1  0.944733  0.503668  0.952691  1
  Pd  Pd7  1  0.550976  0.503668  0.558935  1
  Pd  Pd8  1  0.028123  0.994076  0.528139  1
  Pd  Pd9  1  0.795764  0.484293  0.275888  1
  Pd  Pd10  1  0.208406  0.484293  0.688528  1
  Pd  Pd11  1  0.465937  0.994076  0.965953  1
