# generated using pymatgen
data_Na3AlBiSb
_symmetry_space_group_name_H-M   'P 1'
_cell_length_a   10.27835850
_cell_length_b   10.27835833
_cell_length_c   6.66441700
_cell_angle_alpha   90.00000000
_cell_angle_beta   90.00000000
_cell_angle_gamma   97.78836841
_symmetry_Int_Tables_number   1
_chemical_formula_structural   Na3AlBiSb
_chemical_formula_sum   'Na12 Al4 Bi4 Sb4'
_cell_volume   697.56532089
_cell_formula_units_Z   4
loop_
 _symmetry_equiv_pos_site_id
 _symmetry_equiv_pos_as_xyz
  1  'x, y, z'
loop_
 _atom_site_type_symbol
 _atom_site_label
 _atom_site_symmetry_multiplicity
 _atom_site_fract_x
 _atom_site_fract_y
 _atom_site_fract_z
 _atom_site_occupancy
  Na  Na0  1  0.074893  0.425107  0.250000  1
  Na  Na1  1  0.425107  0.074893  0.750000  1
  Na  Na2  1  0.925107  0.574893  0.750000  1
  Na  Na3  1  0.574893  0.925107  0.250000  1
  Na  Na4  1  0.677526  0.322474  0.220415  1
  Na  Na5  1  0.822474  0.177526  0.720415  1
  Na  Na6  1  0.322474  0.677526  0.779585  1
  Na  Na7  1  0.177526  0.822474  0.279585  1
  Na  Na8  1  0.384587  0.384587  0.000000  1
  Na  Na9  1  0.115413  0.115413  0.500000  1
  Na  Na10  1  0.615413  0.615413  0.000000  1
  Na  Na11  1  0.884587  0.884587  0.500000  1
  Al  Al12  1  0.127758  0.127758  0.000000  1
  Al  Al13  1  0.372242  0.372242  0.500000  1
  Al  Al14  1  0.872242  0.872242  0.000000  1
  Al  Al15  1  0.627758  0.627758  0.500000  1
  Bi  Bi16  1  0.863609  0.636390  0.250000  1
  Bi  Bi17  1  0.636390  0.863609  0.750000  1
  Bi  Bi18  1  0.136390  0.363609  0.750000  1
  Bi  Bi19  1  0.363609  0.136390  0.250000  1
  Sb  Sb20  1  0.886760  0.113240  0.188279  1
  Sb  Sb21  1  0.613240  0.386760  0.688279  1
  Sb  Sb22  1  0.113240  0.886760  0.811721  1
  Sb  Sb23  1  0.386760  0.613240  0.311721  1
