# generated using pymatgen
data_YbSmAl3Os
_symmetry_space_group_name_H-M   'P 1'
_cell_length_a   5.55916900
_cell_length_b   5.55916962
_cell_length_c   8.83047900
_cell_angle_alpha   90.00000000
_cell_angle_beta   90.00000000
_cell_angle_gamma   120.00000229
_symmetry_Int_Tables_number   1
_chemical_formula_structural   YbSmAl3Os
_chemical_formula_sum   'Yb2 Sm2 Al6 Os2'
_cell_volume   236.33861472
_cell_formula_units_Z   2
loop_
 _symmetry_equiv_pos_site_id
 _symmetry_equiv_pos_as_xyz
  1  'x, y, z'
loop_
 _atom_site_type_symbol
 _atom_site_label
 _atom_site_symmetry_multiplicity
 _atom_site_fract_x
 _atom_site_fract_y
 _atom_site_fract_z
 _atom_site_occupancy
  Yb  Yb0  1  0.333334  0.666667  0.553459  1
  Yb  Yb1  1  0.333334  0.666667  0.946541  1
  Sm  Sm2  1  0.666666  0.333333  0.049471  1
  Sm  Sm3  1  0.666666  0.333333  0.450529  1
  Al  Al4  1  0.160064  0.320126  0.250000  1
  Al  Al5  1  0.160064  0.839936  0.250000  1
  Al  Al6  1  0.679873  0.839936  0.250000  1
  Al  Al7  1  0.318097  0.159048  0.750000  1
  Al  Al8  1  0.840952  0.159048  0.750000  1
  Al  Al9  1  0.840952  0.681903  0.750000  1
  Os  Os10  1  0.000000  0.000000  0.997978  1
  Os  Os11  1  0.000000  0.000000  0.502022  1
