# generated using pymatgen
data_Nd8AlSi11Pt4
_symmetry_space_group_name_H-M   'P 1'
_cell_length_a   8.28449422
_cell_length_b   8.28449511
_cell_length_c   8.55350600
_cell_angle_alpha   90.00215972
_cell_angle_beta   89.99784300
_cell_angle_gamma   119.97342217
_symmetry_Int_Tables_number   1
_chemical_formula_structural   Nd8AlSi11Pt4
_chemical_formula_sum   'Nd8 Al1 Si11 Pt4'
_cell_volume   508.53762455
_cell_formula_units_Z   1
loop_
 _symmetry_equiv_pos_site_id
 _symmetry_equiv_pos_as_xyz
  1  'x, y, z'
loop_
 _atom_site_type_symbol
 _atom_site_label
 _atom_site_symmetry_multiplicity
 _atom_site_fract_x
 _atom_site_fract_y
 _atom_site_fract_z
 _atom_site_occupancy
  Nd  Nd0  1  0.499533  0.500467  0.750412  1
  Nd  Nd1  1  0.499988  0.500012  0.249572  1
  Nd  Nd2  1  0.001146  0.502236  0.749809  1
  Nd  Nd3  1  0.000143  0.501693  0.250182  1
  Nd  Nd4  1  0.497764  0.998854  0.749809  1
  Nd  Nd5  1  0.498307  0.999857  0.250182  1
  Nd  Nd6  1  0.001747  0.998253  0.748736  1
  Nd  Nd7  1  0.001702  0.998298  0.251248  1
  Al  Al8  1  0.833420  0.166580  0.999172  1
  Si  Si9  1  0.166047  0.833953  0.000823  1
  Si  Si10  1  0.332364  0.166154  0.999189  1
  Si  Si11  1  0.165689  0.834311  0.499175  1
  Si  Si12  1  0.667012  0.829958  0.000782  1
  Si  Si13  1  0.834262  0.165738  0.500930  1
  Si  Si14  1  0.833846  0.667636  0.999189  1
  Si  Si15  1  0.668496  0.834225  0.499146  1
  Si  Si16  1  0.170042  0.332988  0.000782  1
  Si  Si17  1  0.331970  0.166565  0.500833  1
  Si  Si18  1  0.165775  0.331504  0.499146  1
  Si  Si19  1  0.833435  0.668030  0.500833  1
  Pt  Pt20  1  0.664271  0.335729  0.999963  1
  Pt  Pt21  1  0.333027  0.666973  0.000161  1
  Pt  Pt22  1  0.333455  0.666545  0.499880  1
  Pt  Pt23  1  0.666557  0.333443  0.500047  1
