# generated using pymatgen
data_Y7Ho(Si3Pt)4
_symmetry_space_group_name_H-M   'P 1'
_cell_length_a   8.14417655
_cell_length_b   8.14933960
_cell_length_c   8.19466700
_cell_angle_alpha   90.00000000
_cell_angle_beta   90.00000000
_cell_angle_gamma   120.02097351
_symmetry_Int_Tables_number   1
_chemical_formula_structural   Y7Ho(Si3Pt)4
_chemical_formula_sum   'Y7 Ho1 Si12 Pt4'
_cell_volume   470.91195235
_cell_formula_units_Z   1
loop_
 _symmetry_equiv_pos_site_id
 _symmetry_equiv_pos_as_xyz
  1  'x, y, z'
loop_
 _atom_site_type_symbol
 _atom_site_label
 _atom_site_symmetry_multiplicity
 _atom_site_fract_x
 _atom_site_fract_y
 _atom_site_fract_z
 _atom_site_occupancy
  Y  Y0  1  0.000001  0.000000  0.250000  1
  Y  Y1  1  0.000000  0.000000  0.750000  1
  Y  Y2  1  0.499086  0.500906  0.250000  1
  Y  Y3  1  0.500905  0.001811  0.750000  1
  Y  Y4  1  0.499086  0.998178  0.250000  1
  Y  Y5  1  0.500905  0.499096  0.750000  1
  Y  Y6  1  0.998188  0.499095  0.750000  1
  Ho  Ho7  1  0.001831  0.500914  0.250000  1
  Si  Si8  1  0.165480  0.331123  0.999266  1
  Si  Si9  1  0.668919  0.834459  0.999085  1
  Si  Si10  1  0.165480  0.331123  0.500734  1
  Si  Si11  1  0.331083  0.165542  0.000898  1
  Si  Si12  1  0.165480  0.834355  0.999266  1
  Si  Si13  1  0.668919  0.834459  0.500915  1
  Si  Si14  1  0.834523  0.668875  0.001079  1
  Si  Si15  1  0.331083  0.165542  0.499102  1
  Si  Si16  1  0.165480  0.834355  0.500734  1
  Si  Si17  1  0.834523  0.668875  0.498921  1
  Si  Si18  1  0.834523  0.165649  0.001079  1
  Si  Si19  1  0.834523  0.165649  0.498921  1
  Pt  Pt20  1  0.332934  0.666467  0.998986  1
  Pt  Pt21  1  0.332934  0.666467  0.501014  1
  Pt  Pt22  1  0.667057  0.333528  0.001764  1
  Pt  Pt23  1  0.667057  0.333528  0.498236  1
