# generated using pymatgen
data_ErHf7Ti5Nb6Si16Tc
_symmetry_space_group_name_H-M   'P 1'
_cell_length_a   6.85994122
_cell_length_b   6.86615269
_cell_length_c   12.64401600
_cell_angle_alpha   89.98407002
_cell_angle_beta   89.96583939
_cell_angle_gamma   89.96314044
_symmetry_Int_Tables_number   1
_chemical_formula_structural   ErHf7Ti5Nb6Si16Tc
_chemical_formula_sum   'Er1 Hf7 Ti5 Nb6 Si16 Tc1'
_cell_volume   595.55065154
_cell_formula_units_Z   1
loop_
 _symmetry_equiv_pos_site_id
 _symmetry_equiv_pos_as_xyz
  1  'x, y, z'
loop_
 _atom_site_type_symbol
 _atom_site_label
 _atom_site_symmetry_multiplicity
 _atom_site_fract_x
 _atom_site_fract_y
 _atom_site_fract_z
 _atom_site_occupancy
  Er  Er0  1  0.998290  0.660917  0.030650  1
  Hf  Hf1  1  0.341548  0.999186  0.469769  1
  Hf  Hf2  1  0.499341  0.843869  0.718285  1
  Hf  Hf3  1  0.496185  0.158264  0.220892  1
  Hf  Hf4  1  0.842887  0.502406  0.281173  1
  Hf  Hf5  1  0.159442  0.496063  0.779857  1
  Hf  Hf6  1  0.655482  0.001011  0.969738  1
  Hf  Hf7  1  0.998917  0.341747  0.529735  1
  Ti  Ti8  1  0.654799  0.492550  0.876424  1
  Ti  Ti9  1  0.348169  0.501888  0.376878  1
  Ti  Ti10  1  0.849164  0.997140  0.374649  1
  Ti  Ti11  1  0.004311  0.151240  0.127308  1
  Ti  Ti12  1  0.994839  0.848289  0.625208  1
  Nb  Nb13  1  0.171109  0.832714  0.249984  1
  Nb  Nb14  1  0.828988  0.171211  0.750131  1
  Nb  Nb15  1  0.669448  0.669147  0.499726  1
  Nb  Nb16  1  0.152825  0.999858  0.871146  1
  Nb  Nb17  1  0.497590  0.656035  0.124374  1
  Nb  Nb18  1  0.500662  0.346831  0.623718  1
  Si  Si19  1  0.205226  0.132266  0.674858  1
  Si  Si20  1  0.371146  0.702871  0.925438  1
  Si  Si21  1  0.634699  0.290849  0.424260  1
  Si  Si22  1  0.703295  0.359417  0.072905  1
  Si  Si23  1  0.289486  0.637677  0.572904  1
  Si  Si24  1  0.791255  0.872581  0.180738  1
  Si  Si25  1  0.133520  0.208707  0.324839  1
  Si  Si26  1  0.859761  0.792269  0.819468  1
  Si  Si27  1  0.296931  0.963559  0.062470  1
  Si  Si28  1  0.544665  0.798021  0.316172  1
  Si  Si29  1  0.451702  0.206255  0.817127  1
  Si  Si30  1  0.799269  0.545942  0.685790  1
  Si  Si31  1  0.206487  0.448737  0.186093  1
  Si  Si32  1  0.705252  0.043934  0.562199  1
  Si  Si33  1  0.959816  0.292739  0.938230  1
  Si  Si34  1  0.046291  0.704519  0.435924  1
  Tc  Tc35  1  0.337204  0.329292  0.000938  1
