# generated using pymatgen
data_YbCe2Th5(Si3Pd)4
_symmetry_space_group_name_H-M   'P 1'
_cell_length_a   8.28367000
_cell_length_b   8.23924126
_cell_length_c   8.42004400
_cell_angle_alpha   90.00000000
_cell_angle_beta   90.00000000
_cell_angle_gamma   120.17854589
_symmetry_Int_Tables_number   1
_chemical_formula_structural   YbCe2Th5(Si3Pd)4
_chemical_formula_sum   'Yb1 Ce2 Th5 Si12 Pd4'
_cell_volume   496.78769222
_cell_formula_units_Z   1
loop_
 _symmetry_equiv_pos_site_id
 _symmetry_equiv_pos_as_xyz
  1  'x, y, z'
loop_
 _atom_site_type_symbol
 _atom_site_label
 _atom_site_symmetry_multiplicity
 _atom_site_fract_x
 _atom_site_fract_y
 _atom_site_fract_z
 _atom_site_occupancy
  Yb  Yb0  1  0.499888  0.999777  0.250000  1
  Ce  Ce1  1  0.999948  0.999896  0.750000  1
  Ce  Ce2  1  0.000023  0.000046  0.250000  1
  Th  Th3  1  0.500148  0.499858  0.750000  1
  Th  Th4  1  0.499651  0.500070  0.250000  1
  Th  Th5  1  0.999710  0.499858  0.750000  1
  Th  Th6  1  0.000419  0.500070  0.250000  1
  Th  Th7  1  0.500195  0.000390  0.750000  1
  Si  Si8  1  0.836431  0.165174  0.002013  1
  Si  Si9  1  0.163549  0.834797  0.002277  1
  Si  Si10  1  0.328742  0.165174  0.002013  1
  Si  Si11  1  0.163549  0.834797  0.497723  1
  Si  Si12  1  0.671247  0.834797  0.002277  1
  Si  Si13  1  0.836431  0.165174  0.497987  1
  Si  Si14  1  0.834806  0.669613  0.998123  1
  Si  Si15  1  0.671247  0.834797  0.497723  1
  Si  Si16  1  0.165190  0.330381  0.998245  1
  Si  Si17  1  0.328742  0.165174  0.497987  1
  Si  Si18  1  0.165190  0.330381  0.501755  1
  Si  Si19  1  0.834806  0.669613  0.501877  1
  Pd  Pd20  1  0.664947  0.329893  0.003587  1
  Pd  Pd21  1  0.335095  0.670192  0.001885  1
  Pd  Pd22  1  0.335095  0.670192  0.498115  1
  Pd  Pd23  1  0.664947  0.329893  0.496413  1
