# generated using pymatgen
data_Ho6VMoO12
_symmetry_space_group_name_H-M   'P 1'
_cell_length_a   6.55240519
_cell_length_b   6.55240573
_cell_length_c   6.55240576
_cell_angle_alpha   92.69431071
_cell_angle_beta   92.69431514
_cell_angle_gamma   92.69431840
_symmetry_Int_Tables_number   1
_chemical_formula_structural   Ho6VMoO12
_chemical_formula_sum   'Ho6 V1 Mo1 O12'
_cell_volume   280.35778353
_cell_formula_units_Z   1
loop_
 _symmetry_equiv_pos_site_id
 _symmetry_equiv_pos_as_xyz
  1  'x, y, z'
loop_
 _atom_site_type_symbol
 _atom_site_label
 _atom_site_symmetry_multiplicity
 _atom_site_fract_x
 _atom_site_fract_y
 _atom_site_fract_z
 _atom_site_occupancy
  Ho  Ho0  1  0.742437  0.926946  0.436984  1
  Ho  Ho1  1  0.926946  0.436984  0.742437  1
  Ho  Ho2  1  0.436984  0.742437  0.926946  1
  Ho  Ho3  1  0.257563  0.073054  0.563016  1
  Ho  Ho4  1  0.073054  0.563016  0.257563  1
  Ho  Ho5  1  0.563016  0.257563  0.073054  1
  V  V6  1  0.500000  0.500000  0.500000  1
  Mo  Mo7  1  0.000000  0.000000  0.000000  1
  O  O8  1  0.590010  0.462016  0.801754  1
  O  O9  1  0.462016  0.801754  0.590010  1
  O  O10  1  0.801754  0.590010  0.462016  1
  O  O11  1  0.409990  0.537984  0.198246  1
  O  O12  1  0.537984  0.198246  0.409990  1
  O  O13  1  0.198246  0.409990  0.537984  1
  O  O14  1  0.068953  0.910295  0.312085  1
  O  O15  1  0.910295  0.312085  0.068953  1
  O  O16  1  0.687915  0.931047  0.089705  1
  O  O17  1  0.089705  0.687915  0.931047  1
  O  O18  1  0.931047  0.089705  0.687915  1
  O  O19  1  0.312085  0.068953  0.910295  1
