# generated using pymatgen
data_Ta2NbIn2Br9
_symmetry_space_group_name_H-M   'P 1'
_cell_length_a   10.39162185
_cell_length_b   10.39162314
_cell_length_c   10.23666869
_cell_angle_alpha   77.53626702
_cell_angle_beta   77.53626412
_cell_angle_gamma   117.46736486
_symmetry_Int_Tables_number   1
_chemical_formula_structural   Ta2NbIn2Br9
_chemical_formula_sum   'Ta4 Nb2 In4 Br18'
_cell_volume   891.98719540
_cell_formula_units_Z   2
loop_
 _symmetry_equiv_pos_site_id
 _symmetry_equiv_pos_as_xyz
  1  'x, y, z'
loop_
 _atom_site_type_symbol
 _atom_site_label
 _atom_site_symmetry_multiplicity
 _atom_site_fract_x
 _atom_site_fract_y
 _atom_site_fract_z
 _atom_site_occupancy
  Ta  Ta0  1  0.456785  0.292057  0.632060  1
  Ta  Ta1  1  0.707943  0.543215  0.367940  1
  Ta  Ta2  1  0.385177  0.385073  0.377881  1
  Ta  Ta3  1  0.614927  0.614823  0.622119  1
  Nb  Nb4  1  0.543803  0.710236  0.366386  1
  Nb  Nb5  1  0.289764  0.456197  0.633614  1
  In  In6  1  0.272894  0.951965  0.164217  1
  In  In7  1  0.048035  0.727106  0.835783  1
  In  In8  1  0.726800  0.047953  0.835816  1
  In  In9  1  0.952047  0.273200  0.164184  1
  Br  Br10  1  0.999224  0.394208  0.823278  1
  Br  Br11  1  0.605792  0.000776  0.176722  1
  Br  Br12  1  0.184975  0.183004  0.827585  1
  Br  Br13  1  0.816996  0.815025  0.172415  1
  Br  Br14  1  0.384220  0.587643  0.813904  1
  Br  Br15  1  0.412357  0.615780  0.186096  1
  Br  Br16  1  0.617805  0.413430  0.186175  1
  Br  Br17  1  0.586570  0.382195  0.813825  1
  Br  Br18  1  0.693932  0.899830  0.487939  1
  Br  Br19  1  0.100170  0.306068  0.512061  1
  Br  Br20  1  0.306494  0.099869  0.513697  1
  Br  Br21  1  0.900131  0.693506  0.486303  1
  Br  Br22  1  0.705498  0.294502  0.500000  1
  Br  Br23  1  0.294084  0.705916  0.500000  1
  Br  Br24  1  0.228097  0.228553  0.212374  1
  Br  Br25  1  0.771447  0.771903  0.787626  1
  Br  Br26  1  0.393879  0.999845  0.823113  1
  Br  Br27  1  0.000155  0.606121  0.176887  1
