# generated using pymatgen
data_Y24ReTc7
_symmetry_space_group_name_H-M   'P 1'
_cell_length_a   6.31003554
_cell_length_b   9.22889700
_cell_length_c   14.94364530
_cell_angle_alpha   90.00000000
_cell_angle_beta   89.92243426
_cell_angle_gamma   90.00000000
_symmetry_Int_Tables_number   1
_chemical_formula_structural   Y24ReTc7
_chemical_formula_sum   'Y24 Re1 Tc7'
_cell_volume   870.23742568
_cell_formula_units_Z   1
loop_
 _symmetry_equiv_pos_site_id
 _symmetry_equiv_pos_as_xyz
  1  'x, y, z'
loop_
 _atom_site_type_symbol
 _atom_site_label
 _atom_site_symmetry_multiplicity
 _atom_site_fract_x
 _atom_site_fract_y
 _atom_site_fract_z
 _atom_site_occupancy
  Y  Y0  1  0.534066  0.750000  0.354075  1
  Y  Y1  1  0.033262  0.250000  0.145198  1
  Y  Y2  1  0.466816  0.250000  0.645497  1
  Y  Y3  1  0.965716  0.750000  0.855246  1
  Y  Y4  1  0.773446  0.750000  0.106619  1
  Y  Y5  1  0.274516  0.250000  0.393605  1
  Y  Y6  1  0.226609  0.250000  0.893810  1
  Y  Y7  1  0.725733  0.750000  0.606080  1
  Y  Y8  1  0.437058  0.934330  0.788258  1
  Y  Y9  1  0.939991  0.064274  0.711993  1
  Y  Y10  1  0.563163  0.434638  0.212620  1
  Y  Y11  1  0.062343  0.564607  0.287330  1
  Y  Y12  1  0.563163  0.065362  0.212620  1
  Y  Y13  1  0.062343  0.935393  0.287330  1
  Y  Y14  1  0.437058  0.565670  0.788258  1
  Y  Y15  1  0.939991  0.435726  0.711993  1
  Y  Y16  1  0.240413  0.936118  0.535575  1
  Y  Y17  1  0.740724  0.064158  0.963644  1
  Y  Y18  1  0.758316  0.435862  0.463439  1
  Y  Y19  1  0.258781  0.563568  0.037133  1
  Y  Y20  1  0.758316  0.064138  0.463439  1
  Y  Y21  1  0.258781  0.936432  0.037133  1
  Y  Y22  1  0.240413  0.563882  0.535575  1
  Y  Y23  1  0.740724  0.435842  0.963644  1
  Re  Re24  1  0.147597  0.750000  0.683820  1
  Tc  Tc25  1  0.930987  0.750000  0.437307  1
  Tc  Tc26  1  0.432613  0.250000  0.061982  1
  Tc  Tc27  1  0.068101  0.250000  0.560872  1
  Tc  Tc28  1  0.566117  0.750000  0.939699  1
  Tc  Tc29  1  0.352778  0.750000  0.184172  1
  Tc  Tc30  1  0.854917  0.250000  0.315967  1
  Tc  Tc31  1  0.645149  0.250000  0.816063  1
