# generated using pymatgen
data_La3Nd13MgHg3Rh4
_symmetry_space_group_name_H-M   'P 1'
_cell_length_a   9.96594535
_cell_length_b   10.01945423
_cell_length_c   10.01945400
_cell_angle_alpha   60.00000074
_cell_angle_beta   59.82223046
_cell_angle_gamma   59.82223605
_symmetry_Int_Tables_number   1
_chemical_formula_structural   La3Nd13MgHg3Rh4
_chemical_formula_sum   'La3 Nd13 Mg1 Hg3 Rh4'
_cell_volume   705.53645998
_cell_formula_units_Z   1
loop_
 _symmetry_equiv_pos_site_id
 _symmetry_equiv_pos_as_xyz
  1  'x, y, z'
loop_
 _atom_site_type_symbol
 _atom_site_label
 _atom_site_symmetry_multiplicity
 _atom_site_fract_x
 _atom_site_fract_y
 _atom_site_fract_z
 _atom_site_occupancy
  La  La0  1  0.597830  0.597931  0.597931  1
  La  La1  1  0.597830  0.597931  0.206309  1
  La  La2  1  0.597830  0.206309  0.597931  1
  Nd  Nd3  1  0.194645  0.601785  0.601785  1
  Nd  Nd4  1  0.059394  0.440545  0.440545  1
  Nd  Nd5  1  0.436540  0.062568  0.062568  1
  Nd  Nd6  1  0.436540  0.062568  0.438323  1
  Nd  Nd7  1  0.059394  0.440545  0.059515  1
  Nd  Nd8  1  0.436540  0.438323  0.062568  1
  Nd  Nd9  1  0.059394  0.059515  0.440545  1
  Nd  Nd10  1  0.186356  0.813380  0.813380  1
  Nd  Nd11  1  0.812627  0.186423  0.186423  1
  Nd  Nd12  1  0.812627  0.186423  0.814527  1
  Nd  Nd13  1  0.186356  0.813380  0.186884  1
  Nd  Nd14  1  0.812627  0.814527  0.186423  1
  Nd  Nd15  1  0.186356  0.186884  0.813380  1
  Mg  Mg16  1  0.537723  0.820759  0.820759  1
  Hg  Hg17  1  0.831480  0.835520  0.835520  1
  Hg  Hg18  1  0.831480  0.835520  0.497482  1
  Hg  Hg19  1  0.831480  0.497482  0.835520  1
  Rh  Rh20  1  0.391445  0.392786  0.392786  1
  Rh  Rh21  1  0.391445  0.392786  0.822982  1
  Rh  Rh22  1  0.391445  0.822982  0.392786  1
  Rh  Rh23  1  0.820617  0.393127  0.393127  1
