# generated using pymatgen
data_TbDy4(In2Pt)2
_symmetry_space_group_name_H-M   'P 1'
_cell_length_a   3.62728700
_cell_length_b   8.18330800
_cell_length_c   18.32092600
_cell_angle_alpha   90.00000000
_cell_angle_beta   90.00000000
_cell_angle_gamma   90.00000000
_symmetry_Int_Tables_number   1
_chemical_formula_structural   TbDy4(In2Pt)2
_chemical_formula_sum   'Tb2 Dy8 In8 Pt4'
_cell_volume   543.82383386
_cell_formula_units_Z   2
loop_
 _symmetry_equiv_pos_site_id
 _symmetry_equiv_pos_as_xyz
  1  'x, y, z'
loop_
 _atom_site_type_symbol
 _atom_site_label
 _atom_site_symmetry_multiplicity
 _atom_site_fract_x
 _atom_site_fract_y
 _atom_site_fract_z
 _atom_site_occupancy
  Tb  Tb0  1  0.000000  0.000000  0.000000  1
  Tb  Tb1  1  0.000000  0.500000  0.500000  1
  Dy  Dy2  1  0.000000  0.116688  0.414321  1
  Dy  Dy3  1  0.000000  0.883312  0.585679  1
  Dy  Dy4  1  0.000000  0.383312  0.914321  1
  Dy  Dy5  1  0.000000  0.616688  0.085679  1
  Dy  Dy6  1  0.000000  0.244089  0.220441  1
  Dy  Dy7  1  0.000000  0.755911  0.779559  1
  Dy  Dy8  1  0.000000  0.255911  0.720441  1
  Dy  Dy9  1  0.000000  0.744089  0.279559  1
  In  In10  1  0.500000  0.425184  0.351174  1
  In  In11  1  0.500000  0.574816  0.648826  1
  In  In12  1  0.500000  0.074816  0.851174  1
  In  In13  1  0.500000  0.925184  0.148826  1
  In  In14  1  0.500000  0.292401  0.067293  1
  In  In15  1  0.500000  0.707599  0.932707  1
  In  In16  1  0.500000  0.207599  0.567293  1
  In  In17  1  0.500000  0.792401  0.432707  1
  Pt  Pt18  1  0.500000  0.025129  0.303023  1
  Pt  Pt19  1  0.500000  0.974871  0.696977  1
  Pt  Pt20  1  0.500000  0.474871  0.803023  1
  Pt  Pt21  1  0.500000  0.525129  0.196977  1
