# generated using pymatgen
data_Y4Er8Co4CuBi
_symmetry_space_group_name_H-M   'P 1'
_cell_length_a   8.34126053
_cell_length_b   8.34125893
_cell_length_c   8.34125957
_cell_angle_alpha   109.85928188
_cell_angle_beta   111.00360860
_cell_angle_gamma   107.56947285
_symmetry_Int_Tables_number   1
_chemical_formula_structural   Y4Er8Co4CuBi
_chemical_formula_sum   'Y4 Er8 Co4 Cu1 Bi1'
_cell_volume   446.34496903
_cell_formula_units_Z   1
loop_
 _symmetry_equiv_pos_site_id
 _symmetry_equiv_pos_as_xyz
  1  'x, y, z'
loop_
 _atom_site_type_symbol
 _atom_site_label
 _atom_site_symmetry_multiplicity
 _atom_site_fract_x
 _atom_site_fract_y
 _atom_site_fract_z
 _atom_site_occupancy
  Y  Y0  1  0.288264  0.183738  0.472002  1
  Y  Y1  1  0.711736  0.816262  0.527998  1
  Y  Y2  1  0.288264  0.816262  0.104524  1
  Y  Y3  1  0.711736  0.183738  0.895476  1
  Er  Er4  1  0.623259  0.313307  0.309951  1
  Er  Er5  1  0.376741  0.686693  0.690049  1
  Er  Er6  1  0.003358  0.313307  0.690049  1
  Er  Er7  1  0.996642  0.686693  0.309951  1
  Er  Er8  1  0.211184  0.412757  0.201574  1
  Er  Er9  1  0.788816  0.587243  0.798426  1
  Er  Er10  1  0.211184  0.009610  0.798426  1
  Er  Er11  1  0.788816  0.990390  0.201574  1
  Co  Co12  1  0.000000  0.377551  0.377551  1
  Co  Co13  1  0.000000  0.622449  0.622449  1
  Co  Co14  1  0.387005  0.887005  0.500000  1
  Co  Co15  1  0.612995  0.112995  0.500000  1
  Cu  Cu16  1  0.000000  0.000000  0.000000  1
  Bi  Bi17  1  0.500000  0.500000  0.000000  1
