# generated using pymatgen
data_Yb2TmAg(Pt2O7)2
_symmetry_space_group_name_H-M   'P 1'
_cell_length_a   7.28169016
_cell_length_b   7.28169020
_cell_length_c   7.14512835
_cell_angle_alpha   59.64411756
_cell_angle_beta   59.64411783
_cell_angle_gamma   60.00893519
_symmetry_Int_Tables_number   1
_chemical_formula_structural   Yb2TmAg(Pt2O7)2
_chemical_formula_sum   'Yb2 Tm1 Ag1 Pt4 O14'
_cell_volume   266.45950937
_cell_formula_units_Z   1
loop_
 _symmetry_equiv_pos_site_id
 _symmetry_equiv_pos_as_xyz
  1  'x, y, z'
loop_
 _atom_site_type_symbol
 _atom_site_label
 _atom_site_symmetry_multiplicity
 _atom_site_fract_x
 _atom_site_fract_y
 _atom_site_fract_z
 _atom_site_occupancy
  Yb  Yb0  1  0.625000  0.125000  0.625000  1
  Yb  Yb1  1  0.125000  0.625000  0.625000  1
  Tm  Tm2  1  0.625000  0.625000  0.625000  1
  Ag  Ag3  1  0.625000  0.625000  0.125000  1
  Pt  Pt4  1  0.125000  0.125000  0.125000  1
  Pt  Pt5  1  0.625000  0.125000  0.125000  1
  Pt  Pt6  1  0.125000  0.625000  0.125000  1
  Pt  Pt7  1  0.125000  0.125000  0.625000  1
  O  O8  1  0.028258  0.462095  0.465546  1
  O  O9  1  0.792824  0.792824  0.219030  1
  O  O10  1  0.792850  0.205770  0.206992  1
  O  O11  1  0.462095  0.028258  0.465546  1
  O  O12  1  0.038785  0.038785  0.463375  1
  O  O13  1  0.044230  0.457150  0.043008  1
  O  O14  1  0.737836  0.737836  0.771061  1
  O  O15  1  0.512164  0.512164  0.478939  1
  O  O16  1  0.787905  0.221742  0.784454  1
  O  O17  1  0.205770  0.792850  0.206992  1
  O  O18  1  0.211215  0.211215  0.786625  1
  O  O19  1  0.457150  0.044230  0.043008  1
  O  O20  1  0.457176  0.457176  0.030970  1
  O  O21  1  0.221742  0.787905  0.784454  1
