# generated using pymatgen
data_Ac6Sn7Hg3
_symmetry_space_group_name_H-M   'P 1'
_cell_length_a   6.89919687
_cell_length_b   6.89919632
_cell_length_c   10.95782854
_cell_angle_alpha   90.29129457
_cell_angle_beta   90.29129768
_cell_angle_gamma   102.71888091
_symmetry_Int_Tables_number   1
_chemical_formula_structural   Ac6Sn7Hg3
_chemical_formula_sum   'Ac6 Sn7 Hg3'
_cell_volume   508.76534537
_cell_formula_units_Z   1
loop_
 _symmetry_equiv_pos_site_id
 _symmetry_equiv_pos_as_xyz
  1  'x, y, z'
loop_
 _atom_site_type_symbol
 _atom_site_label
 _atom_site_symmetry_multiplicity
 _atom_site_fract_x
 _atom_site_fract_y
 _atom_site_fract_z
 _atom_site_occupancy
  Ac  Ac0  1  0.794650  0.204508  0.999733  1
  Ac  Ac1  1  0.204508  0.794650  0.999733  1
  Ac  Ac2  1  0.201725  0.794541  0.500178  1
  Ac  Ac3  1  0.794541  0.201725  0.500178  1
  Ac  Ac4  1  0.633280  0.633280  0.253764  1
  Ac  Ac5  1  0.368222  0.368222  0.750014  1
  Sn  Sn6  1  0.077263  0.486464  0.248785  1
  Sn  Sn7  1  0.922910  0.513947  0.750931  1
  Sn  Sn8  1  0.486464  0.077262  0.248785  1
  Sn  Sn9  1  0.513947  0.922910  0.750931  1
  Sn  Sn10  1  0.030168  0.030168  0.249367  1
  Sn  Sn11  1  0.969703  0.969703  0.751744  1
  Sn  Sn12  1  0.307848  0.307848  0.448969  1
  Hg  Hg13  1  0.309304  0.309304  0.045456  1
  Hg  Hg14  1  0.692227  0.692227  0.953798  1
  Hg  Hg15  1  0.693243  0.693243  0.547634  1
