# generated using pymatgen
data_Sc12Co2NiBr16
_symmetry_space_group_name_H-M   'P 1'
_cell_length_a   8.76017022
_cell_length_b   10.99326278
_cell_length_c   11.60900039
_cell_angle_alpha   117.11417845
_cell_angle_beta   101.58933703
_cell_angle_gamma   101.18202515
_symmetry_Int_Tables_number   1
_chemical_formula_structural   Sc12Co2NiBr16
_chemical_formula_sum   'Sc12 Co2 Ni1 Br16'
_cell_volume   921.09546497
_cell_formula_units_Z   1
loop_
 _symmetry_equiv_pos_site_id
 _symmetry_equiv_pos_as_xyz
  1  'x, y, z'
loop_
 _atom_site_type_symbol
 _atom_site_label
 _atom_site_symmetry_multiplicity
 _atom_site_fract_x
 _atom_site_fract_y
 _atom_site_fract_z
 _atom_site_occupancy
  Sc  Sc0  1  0.086114  0.258309  0.351791  1
  Sc  Sc1  1  0.913886  0.741691  0.648209  1
  Sc  Sc2  1  0.775212  0.537289  0.320950  1
  Sc  Sc3  1  0.224788  0.462711  0.679050  1
  Sc  Sc4  1  0.284603  0.742943  0.648853  1
  Sc  Sc5  1  0.715397  0.257057  0.351147  1
  Sc  Sc6  1  0.145724  0.537653  0.321971  1
  Sc  Sc7  1  0.854276  0.462347  0.678029  1
  Sc  Sc8  1  0.402866  0.354640  0.267812  1
  Sc  Sc9  1  0.597134  0.645360  0.732188  1
  Sc  Sc10  1  0.457204  0.302873  0.521217  1
  Sc  Sc11  1  0.542796  0.697127  0.478783  1
  Co  Co12  1  0.339737  0.500265  0.499592  1
  Co  Co13  1  0.660264  0.499735  0.500408  1
  Ni  Ni14  1  0.000000  0.500000  0.500000  1
  Br  Br15  1  0.395645  0.744080  0.889027  1
  Br  Br16  1  0.604355  0.255920  0.110973  1
  Br  Br17  1  0.191322  0.973279  0.787092  1
  Br  Br18  1  0.808678  0.026721  0.212908  1
  Br  Br19  1  0.335697  0.089124  0.247626  1
  Br  Br20  1  0.664303  0.910876  0.752374  1
  Br  Br21  1  0.557424  0.436986  0.803163  1
  Br  Br22  1  0.442576  0.563014  0.196837  1
  Br  Br23  1  0.308163  0.831859  0.462317  1
  Br  Br24  1  0.691837  0.168141  0.537683  1
  Br  Br25  1  0.163924  0.167629  0.534416  1
  Br  Br26  1  0.836076  0.832371  0.465584  1
  Br  Br27  1  0.926428  0.579331  0.156568  1
  Br  Br28  1  0.073572  0.420669  0.843432  1
  Br  Br29  1  0.928472  0.742418  0.888691  1
  Br  Br30  1  0.071528  0.257582  0.111309  1
