# generated using pymatgen
data_Yb3YIr2PtRhO14
_symmetry_space_group_name_H-M   'P 1'
_cell_length_a   7.23731491
_cell_length_b   7.22559435
_cell_length_c   7.22559500
_cell_angle_alpha   59.76602058
_cell_angle_beta   59.84480725
_cell_angle_gamma   59.84481513
_symmetry_Int_Tables_number   1
_chemical_formula_structural   Yb3YIr2PtRhO14
_chemical_formula_sum   'Yb3 Y1 Ir2 Pt1 Rh1 O14'
_cell_volume   266.08274556
_cell_formula_units_Z   1
loop_
 _symmetry_equiv_pos_site_id
 _symmetry_equiv_pos_as_xyz
  1  'x, y, z'
loop_
 _atom_site_type_symbol
 _atom_site_label
 _atom_site_symmetry_multiplicity
 _atom_site_fract_x
 _atom_site_fract_y
 _atom_site_fract_z
 _atom_site_occupancy
  Yb  Yb0  1  0.125000  0.625000  0.125000  1
  Yb  Yb1  1  0.125000  0.125000  0.625000  1
  Yb  Yb2  1  0.125000  0.125000  0.125000  1
  Y  Y3  1  0.625000  0.125000  0.125000  1
  Ir  Ir4  1  0.125000  0.625000  0.625000  1
  Ir  Ir5  1  0.625000  0.625000  0.625000  1
  Pt  Pt6  1  0.625000  0.625000  0.125000  1
  Rh  Rh7  1  0.625000  0.125000  0.625000  1
  O  O8  1  0.708401  0.706455  0.295220  1
  O  O9  1  0.295004  0.300742  0.696590  1
  O  O10  1  0.705121  0.299154  0.701670  1
  O  O11  1  0.290092  0.702413  0.296477  1
  O  O12  1  0.300763  0.700712  0.698607  1
  O  O13  1  0.708081  0.288267  0.289510  1
  O  O14  1  0.541599  0.543545  0.954780  1
  O  O15  1  0.954996  0.949258  0.553410  1
  O  O16  1  0.544879  0.950846  0.548330  1
  O  O17  1  0.959908  0.547587  0.953523  1
  O  O18  1  0.949237  0.549288  0.551393  1
  O  O19  1  0.541919  0.961733  0.960490  1
  O  O20  1  0.256680  0.247360  0.249047  1
  O  O21  1  0.993320  0.002640  0.000953  1
