# generated using pymatgen
data_DyY3CdPd
_symmetry_space_group_name_H-M   'P 1'
_cell_length_a   9.71542905
_cell_length_b   9.71547300
_cell_length_c   9.71542700
_cell_angle_alpha   59.99991488
_cell_angle_beta   59.99972438
_cell_angle_gamma   59.99986837
_symmetry_Int_Tables_number   1
_chemical_formula_structural   DyY3CdPd
_chemical_formula_sum   'Dy4 Y12 Cd4 Pd4'
_cell_volume   648.44211382
_cell_formula_units_Z   4
loop_
 _symmetry_equiv_pos_site_id
 _symmetry_equiv_pos_as_xyz
  1  'x, y, z'
loop_
 _atom_site_type_symbol
 _atom_site_label
 _atom_site_symmetry_multiplicity
 _atom_site_fract_x
 _atom_site_fract_y
 _atom_site_fract_z
 _atom_site_occupancy
  Dy  Dy0  1  0.353881  0.353954  0.353937  1
  Dy  Dy1  1  0.353882  0.353990  0.938217  1
  Dy  Dy2  1  0.353894  0.938200  0.353983  1
  Dy  Dy3  1  0.938226  0.353952  0.353924  1
  Y  Y4  1  0.810459  0.189556  0.189546  1
  Y  Y5  1  0.189561  0.810431  0.810445  1
  Y  Y6  1  0.189569  0.810417  0.189568  1
  Y  Y7  1  0.810442  0.189572  0.810415  1
  Y  Y8  1  0.189557  0.189575  0.810425  1
  Y  Y9  1  0.810460  0.810415  0.189559  1
  Y  Y10  1  0.934752  0.565251  0.565259  1
  Y  Y11  1  0.565257  0.934747  0.934733  1
  Y  Y12  1  0.565244  0.934751  0.565248  1
  Y  Y13  1  0.934771  0.565235  0.934747  1
  Y  Y14  1  0.565251  0.565252  0.934740  1
  Y  Y15  1  0.934759  0.934746  0.565248  1
  Cd  Cd16  1  0.582194  0.582188  0.582183  1
  Cd  Cd17  1  0.582180  0.582187  0.253446  1
  Cd  Cd18  1  0.582189  0.253440  0.582184  1
  Cd  Cd19  1  0.253439  0.582189  0.582178  1
  Pd  Pd20  1  0.145592  0.145575  0.145581  1
  Pd  Pd21  1  0.145576  0.145580  0.563262  1
  Pd  Pd22  1  0.145590  0.563227  0.145596  1
  Pd  Pd23  1  0.563276  0.145568  0.145576  1
