# generated using pymatgen
data_Ce6Al24Tc3Ir3Ru2
_symmetry_space_group_name_H-M   'P 1'
_cell_length_a   8.94698500
_cell_length_b   8.95699958
_cell_length_c   9.58423503
_cell_angle_alpha   90.82056024
_cell_angle_beta   90.00000000
_cell_angle_gamma   119.96301024
_symmetry_Int_Tables_number   1
_chemical_formula_structural   Ce6Al24Tc3Ir3Ru2
_chemical_formula_sum   'Ce6 Al24 Tc3 Ir3 Ru2'
_cell_volume   665.31874833
_cell_formula_units_Z   1
loop_
 _symmetry_equiv_pos_site_id
 _symmetry_equiv_pos_as_xyz
  1  'x, y, z'
loop_
 _atom_site_type_symbol
 _atom_site_label
 _atom_site_symmetry_multiplicity
 _atom_site_fract_x
 _atom_site_fract_y
 _atom_site_fract_z
 _atom_site_occupancy
  Ce  Ce0  1  0.805133  0.610266  0.757525  1
  Ce  Ce1  1  0.194644  0.806545  0.251447  1
  Ce  Ce2  1  0.611901  0.806545  0.251447  1
  Ce  Ce3  1  0.388099  0.193455  0.748553  1
  Ce  Ce4  1  0.805356  0.193455  0.748553  1
  Ce  Ce5  1  0.194867  0.389734  0.242475  1
  Al  Al6  1  0.332950  0.665900  0.489949  1
  Al  Al7  1  0.665915  0.331831  0.993741  1
  Al  Al8  1  0.667050  0.334100  0.510051  1
  Al  Al9  1  0.334085  0.668169  0.006259  1
  Al  Al10  1  0.161695  0.323391  0.575040  1
  Al  Al11  1  0.677463  0.838636  0.579419  1
  Al  Al12  1  0.161173  0.838636  0.579419  1
  Al  Al13  1  0.838258  0.161468  0.077892  1
  Al  Al14  1  0.838827  0.161364  0.420581  1
  Al  Al15  1  0.839051  0.678101  0.083124  1
  Al  Al16  1  0.323209  0.161468  0.077892  1
  Al  Al17  1  0.676791  0.838532  0.922108  1
  Al  Al18  1  0.160949  0.321899  0.916876  1
  Al  Al19  1  0.838305  0.676609  0.424960  1
  Al  Al20  1  0.000470  0.000940  0.250078  1
  Al  Al21  1  0.999530  0.999060  0.749922  1
  Al  Al22  1  0.562239  0.124479  0.251473  1
  Al  Al23  1  0.437655  0.561726  0.749377  1
  Al  Al24  1  0.124071  0.561726  0.749377  1
  Al  Al25  1  0.875929  0.438274  0.250623  1
  Al  Al26  1  0.562345  0.438274  0.250623  1
  Al  Al27  1  0.437761  0.875521  0.748527  1
  Al  Al28  1  0.161742  0.838532  0.922108  1
  Al  Al29  1  0.322537  0.161364  0.420581  1
  Tc  Tc30  1  0.500000  0.000000  0.500000  1
  Tc  Tc31  1  0.500000  0.500000  0.000000  1
  Tc  Tc32  1  0.000000  0.500000  0.000000  1
  Ir  Ir33  1  0.000000  0.500000  0.500000  1
  Ir  Ir34  1  0.500000  0.500000  0.500000  1
  Ir  Ir35  1  0.500000  0.000000  0.000000  1
  Ru  Ru36  1  0.000000  0.000000  0.500000  1
  Ru  Ru37  1  0.000000  0.000000  0.000000  1
