# generated using pymatgen
data_Er7Lu5Th4(MgRh)4
_symmetry_space_group_name_H-M   'P 1'
_cell_length_a   9.68750490
_cell_length_b   9.68750535
_cell_length_c   9.69784600
_cell_angle_alpha   59.96468371
_cell_angle_beta   59.96468216
_cell_angle_gamma   59.97565307
_symmetry_Int_Tables_number   1
_chemical_formula_structural   Er7Lu5Th4(MgRh)4
_chemical_formula_sum   'Er7 Lu5 Th4 Mg4 Rh4'
_cell_volume   643.09072592
_cell_formula_units_Z   1
loop_
 _symmetry_equiv_pos_site_id
 _symmetry_equiv_pos_as_xyz
  1  'x, y, z'
loop_
 _atom_site_type_symbol
 _atom_site_label
 _atom_site_symmetry_multiplicity
 _atom_site_fract_x
 _atom_site_fract_y
 _atom_site_fract_z
 _atom_site_occupancy
  Er  Er0  1  0.814850  0.814850  0.185150  1
  Er  Er1  1  0.934255  0.566241  0.566482  1
  Er  Er2  1  0.566241  0.934255  0.933022  1
  Er  Er3  1  0.566241  0.934255  0.566482  1
  Er  Er4  1  0.934255  0.566241  0.933022  1
  Er  Er5  1  0.566523  0.566523  0.933477  1
  Er  Er6  1  0.933800  0.933800  0.566200  1
  Lu  Lu7  1  0.813878  0.186157  0.186009  1
  Lu  Lu8  1  0.186157  0.813878  0.813956  1
  Lu  Lu9  1  0.186157  0.813878  0.186009  1
  Lu  Lu10  1  0.813878  0.186157  0.813956  1
  Lu  Lu11  1  0.186001  0.186001  0.813999  1
  Th  Th12  1  0.349523  0.349523  0.348517  1
  Th  Th13  1  0.349523  0.349523  0.952435  1
  Th  Th14  1  0.349572  0.951501  0.349463  1
  Th  Th15  1  0.951501  0.349572  0.349463  1
  Mg  Mg16  1  0.580563  0.580563  0.581500  1
  Mg  Mg17  1  0.580563  0.580563  0.257373  1
  Mg  Mg18  1  0.580458  0.257169  0.581185  1
  Mg  Mg19  1  0.257169  0.580458  0.581185  1
  Rh  Rh20  1  0.142677  0.142677  0.143684  1
  Rh  Rh21  1  0.142677  0.142677  0.570960  1
  Rh  Rh22  1  0.143488  0.570045  0.143232  1
  Rh  Rh23  1  0.570045  0.143488  0.143232  1
