# generated using pymatgen
data_Ho2Pa(InRh)3
_symmetry_space_group_name_H-M   'P 1'
_cell_length_a   7.56492696
_cell_length_b   7.86030988
_cell_length_c   3.79246600
_cell_angle_alpha   90.00000000
_cell_angle_beta   90.00000000
_cell_angle_gamma   121.30027308
_symmetry_Int_Tables_number   1
_chemical_formula_structural   Ho2Pa(InRh)3
_chemical_formula_sum   'Ho2 Pa1 In3 Rh3'
_cell_volume   192.68858448
_cell_formula_units_Z   1
loop_
 _symmetry_equiv_pos_site_id
 _symmetry_equiv_pos_as_xyz
  1  'x, y, z'
loop_
 _atom_site_type_symbol
 _atom_site_label
 _atom_site_symmetry_multiplicity
 _atom_site_fract_x
 _atom_site_fract_y
 _atom_site_fract_z
 _atom_site_occupancy
  Ho  Ho0  1  0.596703  0.595600  0.500000  1
  Ho  Ho1  1  0.403297  0.998898  0.500000  1
  Pa  Pa2  1  0.000000  0.417908  0.500000  1
  In  In3  1  0.270890  0.259502  0.000000  1
  In  In4  1  0.000000  0.756277  0.000000  1
  In  In5  1  0.729110  0.988612  0.000000  1
  Rh  Rh6  1  0.297170  0.634811  0.000000  1
  Rh  Rh7  1  0.000000  0.010752  0.500000  1
  Rh  Rh8  1  0.702830  0.337640  0.000000  1
