# generated using pymatgen
data_Ho8Ti8Re3Si16Au
_symmetry_space_group_name_H-M   'P 1'
_cell_length_a   6.96758603
_cell_length_b   6.96758726
_cell_length_c   12.74711302
_cell_angle_alpha   90.04729989
_cell_angle_beta   89.95270113
_cell_angle_gamma   89.69211452
_symmetry_Int_Tables_number   1
_chemical_formula_structural   Ho8Ti8Re3Si16Au
_chemical_formula_sum   'Ho8 Ti8 Re3 Si16 Au1'
_cell_volume   618.82809819
_cell_formula_units_Z   1
loop_
 _symmetry_equiv_pos_site_id
 _symmetry_equiv_pos_as_xyz
  1  'x, y, z'
loop_
 _atom_site_type_symbol
 _atom_site_label
 _atom_site_symmetry_multiplicity
 _atom_site_fract_x
 _atom_site_fract_y
 _atom_site_fract_z
 _atom_site_occupancy
  Ho  Ho0  1  0.341503  0.999757  0.468636  1
  Ho  Ho1  1  0.499348  0.841206  0.718237  1
  Ho  Ho2  1  0.501692  0.158579  0.218217  1
  Ho  Ho3  1  0.841206  0.499348  0.281763  1
  Ho  Ho4  1  0.158579  0.501692  0.781783  1
  Ho  Ho5  1  0.656651  0.001618  0.969776  1
  Ho  Ho6  1  0.999757  0.341503  0.531364  1
  Ho  Ho7  1  0.001618  0.656651  0.030224  1
  Ti  Ti8  1  0.149682  0.007661  0.878781  1
  Ti  Ti9  1  0.500977  0.648646  0.125149  1
  Ti  Ti10  1  0.504437  0.350062  0.623792  1
  Ti  Ti11  1  0.648646  0.500977  0.874851  1
  Ti  Ti12  1  0.350062  0.504437  0.376208  1
  Ti  Ti13  1  0.849372  0.993857  0.375195  1
  Ti  Ti14  1  0.007661  0.149682  0.121219  1
  Ti  Ti15  1  0.993857  0.849372  0.624805  1
  Re  Re16  1  0.167871  0.825669  0.252706  1
  Re  Re17  1  0.825669  0.167871  0.747294  1
  Re  Re18  1  0.669375  0.669375  0.500000  1
  Si  Si19  1  0.199923  0.131003  0.683974  1
  Si  Si20  1  0.373491  0.719697  0.929863  1
  Si  Si21  1  0.631097  0.296070  0.431415  1
  Si  Si22  1  0.719697  0.373491  0.070137  1
  Si  Si23  1  0.296070  0.631097  0.568585  1
  Si  Si24  1  0.801639  0.869162  0.182110  1
  Si  Si25  1  0.131003  0.199923  0.316026  1
  Si  Si26  1  0.869162  0.801639  0.817890  1
  Si  Si27  1  0.287995  0.934231  0.071047  1
  Si  Si28  1  0.546577  0.789459  0.315991  1
  Si  Si29  1  0.458359  0.208405  0.809941  1
  Si  Si30  1  0.789459  0.546577  0.684009  1
  Si  Si31  1  0.208405  0.458359  0.190059  1
  Si  Si32  1  0.708732  0.046149  0.565372  1
  Si  Si33  1  0.934231  0.287995  0.928953  1
  Si  Si34  1  0.046149  0.708732  0.434628  1
  Au  Au35  1  0.330046  0.330046  0.000000  1
