# generated using pymatgen
data_La3Tb2Pr5Ir6
_symmetry_space_group_name_H-M   'P 1'
_cell_length_a   11.29822007
_cell_length_b   11.31526300
_cell_length_c   6.58044404
_cell_angle_alpha   90.00000000
_cell_angle_beta   89.98736726
_cell_angle_gamma   90.00000000
_symmetry_Int_Tables_number   1
_chemical_formula_structural   La3Tb2Pr5Ir6
_chemical_formula_sum   'La6 Tb4 Pr10 Ir12'
_cell_volume   841.25928799
_cell_formula_units_Z   2
loop_
 _symmetry_equiv_pos_site_id
 _symmetry_equiv_pos_as_xyz
  1  'x, y, z'
loop_
 _atom_site_type_symbol
 _atom_site_label
 _atom_site_symmetry_multiplicity
 _atom_site_fract_x
 _atom_site_fract_y
 _atom_site_fract_z
 _atom_site_occupancy
  La  La0  1  0.289090  0.088975  0.384291  1
  La  La1  1  0.289090  0.911025  0.884291  1
  La  La2  1  0.711050  0.089739  0.884433  1
  La  La3  1  0.711050  0.910261  0.384433  1
  La  La4  1  0.588652  0.788302  0.883998  1
  La  La5  1  0.588652  0.211698  0.383998  1
  Tb  Tb6  1  0.999895  0.999783  0.500029  1
  Tb  Tb7  1  0.999895  0.000217  0.000029  1
  Tb  Tb8  1  0.499709  0.499444  0.000632  1
  Tb  Tb9  1  0.499709  0.500556  0.500632  1
  Pr  Pr10  1  0.410779  0.787677  0.382332  1
  Pr  Pr11  1  0.410779  0.212323  0.882332  1
  Pr  Pr12  1  0.210361  0.412616  0.617754  1
  Pr  Pr13  1  0.210361  0.587384  0.117754  1
  Pr  Pr14  1  0.789966  0.412738  0.116166  1
  Pr  Pr15  1  0.789966  0.587262  0.616166  1
  Pr  Pr16  1  0.912594  0.709939  0.116612  1
  Pr  Pr17  1  0.912594  0.290061  0.616612  1
  Pr  Pr18  1  0.087923  0.710078  0.616179  1
  Pr  Pr19  1  0.087923  0.289922  0.116179  1
  Ir  Ir20  1  0.850412  0.148203  0.248583  1
  Ir  Ir21  1  0.850412  0.851797  0.748583  1
  Ir  Ir22  1  0.149798  0.147854  0.748009  1
  Ir  Ir23  1  0.149798  0.852146  0.248009  1
  Ir  Ir24  1  0.648005  0.350320  0.748453  1
  Ir  Ir25  1  0.648005  0.649680  0.248453  1
  Ir  Ir26  1  0.351596  0.351352  0.250416  1
  Ir  Ir27  1  0.351596  0.648648  0.750416  1
  Ir  Ir28  1  0.500181  0.000755  0.118990  1
  Ir  Ir29  1  0.500181  0.999245  0.618990  1
  Ir  Ir30  1  0.999989  0.499785  0.883123  1
  Ir  Ir31  1  0.999989  0.500215  0.383123  1
