# generated using pymatgen
data_Ta4CrSi(PRh)3
_symmetry_space_group_name_H-M   'P 1'
_cell_length_a   3.71273600
_cell_length_b   6.33057753
_cell_length_c   7.26589847
_cell_angle_alpha   89.44974527
_cell_angle_beta   90.00000000
_cell_angle_gamma   90.00000000
_symmetry_Int_Tables_number   1
_chemical_formula_structural   Ta4CrSi(PRh)3
_chemical_formula_sum   'Ta4 Cr1 Si1 P3 Rh3'
_cell_volume   170.76808093
_cell_formula_units_Z   1
loop_
 _symmetry_equiv_pos_site_id
 _symmetry_equiv_pos_as_xyz
  1  'x, y, z'
loop_
 _atom_site_type_symbol
 _atom_site_label
 _atom_site_symmetry_multiplicity
 _atom_site_fract_x
 _atom_site_fract_y
 _atom_site_fract_z
 _atom_site_occupancy
  Ta  Ta0  1  0.250000  0.035033  0.835107  1
  Ta  Ta1  1  0.250000  0.516378  0.677180  1
  Ta  Ta2  1  0.750000  0.976759  0.162080  1
  Ta  Ta3  1  0.750000  0.469130  0.325914  1
  Cr  Cr4  1  0.750000  0.356997  0.940542  1
  Si  Si5  1  0.250000  0.765023  0.374925  1
  P  P6  1  0.250000  0.268202  0.117461  1
  P  P7  1  0.750000  0.235830  0.636256  1
  P  P8  1  0.750000  0.727270  0.871677  1
  Rh  Rh9  1  0.250000  0.148799  0.431421  1
  Rh  Rh10  1  0.250000  0.643481  0.060069  1
  Rh  Rh11  1  0.750000  0.857099  0.567367  1
