# generated using pymatgen
data_PrHoCo2P7Ru10
_symmetry_space_group_name_H-M   'P 1'
_cell_length_a   9.39590194
_cell_length_b   9.34924820
_cell_length_c   3.88475700
_cell_angle_alpha   90.00000000
_cell_angle_beta   90.00000000
_cell_angle_gamma   119.63648701
_symmetry_Int_Tables_number   1
_chemical_formula_structural   PrHoCo2P7Ru10
_chemical_formula_sum   'Pr1 Ho1 Co2 P7 Ru10'
_cell_volume   296.61208953
_cell_formula_units_Z   1
loop_
 _symmetry_equiv_pos_site_id
 _symmetry_equiv_pos_as_xyz
  1  'x, y, z'
loop_
 _atom_site_type_symbol
 _atom_site_label
 _atom_site_symmetry_multiplicity
 _atom_site_fract_x
 _atom_site_fract_y
 _atom_site_fract_z
 _atom_site_occupancy
  Pr  Pr0  1  0.333025  0.665469  0.000000  1
  Ho  Ho1  1  0.670067  0.334326  0.500000  1
  Co  Co2  1  0.730527  0.892146  0.000000  1
  Co  Co3  1  0.109360  0.839317  0.000000  1
  P  P4  1  0.111543  0.396393  0.500000  1
  P  P5  1  0.605411  0.717180  0.500000  1
  P  P6  1  0.283097  0.886495  0.500000  1
  P  P7  1  0.993463  0.991511  0.000000  1
  P  P8  1  0.425510  0.311551  0.000000  1
  P  P9  1  0.692168  0.109581  0.000000  1
  P  P10  1  0.891479  0.586666  0.000000  1
  Ru  Ru11  1  0.422256  0.063840  0.000000  1
  Ru  Ru12  1  0.931021  0.360152  0.000000  1
  Ru  Ru13  1  0.645059  0.581129  0.000000  1
  Ru  Ru14  1  0.393107  0.435930  0.500000  1
  Ru  Ru15  1  0.564346  0.950660  0.500000  1
  Ru  Ru16  1  0.049417  0.614962  0.500000  1
  Ru  Ru17  1  0.158815  0.267103  0.000000  1
  Ru  Ru18  1  0.199092  0.079568  0.500000  1
  Ru  Ru19  1  0.908737  0.119110  0.500000  1
  Ru  Ru20  1  0.882497  0.796913  0.500000  1
