# generated using pymatgen
data_Pr8Ho9Mg3Pb16
_symmetry_space_group_name_H-M   'P 1'
_cell_length_a   8.21231200
_cell_length_b   8.44454818
_cell_length_c   15.98228200
_cell_angle_alpha   90.00000000
_cell_angle_beta   90.00000000
_cell_angle_gamma   90.07470225
_symmetry_Int_Tables_number   1
_chemical_formula_structural   Pr8Ho9Mg3Pb16
_chemical_formula_sum   'Pr8 Ho9 Mg3 Pb16'
_cell_volume   1108.35855700
_cell_formula_units_Z   1
loop_
 _symmetry_equiv_pos_site_id
 _symmetry_equiv_pos_as_xyz
  1  'x, y, z'
loop_
 _atom_site_type_symbol
 _atom_site_label
 _atom_site_symmetry_multiplicity
 _atom_site_fract_x
 _atom_site_fract_y
 _atom_site_fract_z
 _atom_site_occupancy
  Pr  Pr0  1  0.494583  0.681310  0.594922  1
  Pr  Pr1  1  0.989681  0.823133  0.902954  1
  Pr  Pr2  1  0.503977  0.325027  0.094789  1
  Pr  Pr3  1  0.013305  0.179868  0.402753  1
  Pr  Pr4  1  0.503977  0.325027  0.405211  1
  Pr  Pr5  1  0.013305  0.179868  0.097247  1
  Pr  Pr6  1  0.494583  0.681310  0.905078  1
  Pr  Pr7  1  0.989681  0.823133  0.597046  1
  Ho  Ho8  1  0.649149  0.160397  0.623379  1
  Ho  Ho9  1  0.150701  0.332748  0.873267  1
  Ho  Ho10  1  0.344929  0.834424  0.122705  1
  Ho  Ho11  1  0.851850  0.662545  0.374552  1
  Ho  Ho12  1  0.344929  0.834424  0.377295  1
  Ho  Ho13  1  0.851850  0.662545  0.125448  1
  Ho  Ho14  1  0.649149  0.160397  0.876621  1
  Ho  Ho15  1  0.150701  0.332748  0.626733  1
  Ho  Ho16  1  0.679222  0.995487  0.250000  1
  Mg  Mg17  1  0.825773  0.495335  0.750000  1
  Mg  Mg18  1  0.321478  0.004960  0.750000  1
  Mg  Mg19  1  0.177520  0.500702  0.250000  1
  Pb  Pb20  1  0.693542  0.961782  0.455692  1
  Pb  Pb21  1  0.184903  0.543205  0.038045  1
  Pb  Pb22  1  0.306105  0.041702  0.958937  1
  Pb  Pb23  1  0.813178  0.455951  0.540499  1
  Pb  Pb24  1  0.306105  0.041702  0.541063  1
  Pb  Pb25  1  0.813178  0.455951  0.959501  1
  Pb  Pb26  1  0.693542  0.961782  0.044308  1
  Pb  Pb27  1  0.184903  0.543205  0.461955  1
  Pb  Pb28  1  0.463393  0.383594  0.750000  1
  Pb  Pb29  1  0.955318  0.117039  0.750000  1
  Pb  Pb30  1  0.538772  0.624101  0.250000  1
  Pb  Pb31  1  0.045610  0.879629  0.250000  1
  Pb  Pb32  1  0.680547  0.849906  0.750000  1
  Pb  Pb33  1  0.185826  0.647946  0.750000  1
  Pb  Pb34  1  0.323975  0.146632  0.250000  1
  Pb  Pb35  1  0.810765  0.350480  0.250000  1
