# generated using pymatgen
data_Er5Ta3(Co4As3)4
_symmetry_space_group_name_H-M   'P 1'
_cell_length_a   12.58512900
_cell_length_b   12.58512938
_cell_length_c   3.81449900
_cell_angle_alpha   90.00000000
_cell_angle_beta   90.00000000
_cell_angle_gamma   120.00000688
_symmetry_Int_Tables_number   1
_chemical_formula_structural   Er5Ta3(Co4As3)4
_chemical_formula_sum   'Er5 Ta3 Co16 As12'
_cell_volume   523.21894792
_cell_formula_units_Z   1
loop_
 _symmetry_equiv_pos_site_id
 _symmetry_equiv_pos_as_xyz
  1  'x, y, z'
loop_
 _atom_site_type_symbol
 _atom_site_label
 _atom_site_symmetry_multiplicity
 _atom_site_fract_x
 _atom_site_fract_y
 _atom_site_fract_z
 _atom_site_occupancy
  Er  Er0  1  0.182654  0.182654  0.500000  1
  Er  Er1  1  0.817346  0.000000  0.500000  1
  Er  Er2  1  0.000000  0.817346  0.500000  1
  Er  Er3  1  0.333333  0.666667  0.000000  1
  Er  Er4  1  0.666667  0.333333  0.000000  1
  Ta  Ta5  1  0.560074  0.560074  0.000000  1
  Ta  Ta6  1  0.439926  0.000000  0.000000  1
  Ta  Ta7  1  0.000000  0.439926  0.000000  1
  Co  Co8  1  0.716227  0.716227  0.500000  1
  Co  Co9  1  0.283773  0.000000  0.500000  1
  Co  Co10  1  0.000000  0.283773  0.500000  1
  Co  Co11  1  0.176035  0.375192  0.000000  1
  Co  Co12  1  0.624808  0.800843  0.000000  1
  Co  Co13  1  0.199157  0.823965  0.000000  1
  Co  Co14  1  0.800843  0.624808  0.000000  1
  Co  Co15  1  0.823965  0.199157  0.000000  1
  Co  Co16  1  0.375192  0.176035  0.000000  1
  Co  Co17  1  0.357080  0.480812  0.500000  1
  Co  Co18  1  0.519188  0.876269  0.500000  1
  Co  Co19  1  0.123731  0.642920  0.500000  1
  Co  Co20  1  0.876269  0.519188  0.500000  1
  Co  Co21  1  0.642920  0.123731  0.500000  1
  Co  Co22  1  0.480812  0.357080  0.500000  1
  Co  Co23  1  0.000000  0.000000  0.000000  1
  As  As24  1  0.823153  0.823153  0.000000  1
  As  As25  1  0.176847  0.000000  0.000000  1
  As  As26  1  0.000000  0.176847  0.000000  1
  As  As27  1  0.171111  0.483504  0.500000  1
  As  As28  1  0.516496  0.687607  0.500000  1
  As  As29  1  0.312393  0.828889  0.500000  1
  As  As30  1  0.687607  0.516496  0.500000  1
  As  As31  1  0.828889  0.312393  0.500000  1
  As  As32  1  0.483504  0.171111  0.500000  1
  As  As33  1  0.354144  0.354144  0.000000  1
  As  As34  1  0.645856  0.000000  0.000000  1
  As  As35  1  0.000000  0.645856  0.000000  1
