# generated using pymatgen
data_Ca5Ir2
_symmetry_space_group_name_H-M   'P 1'
_cell_length_a   8.56498789
_cell_length_b   8.56498754
_cell_length_c   7.67788351
_cell_angle_alpha   97.36947535
_cell_angle_beta   97.36947491
_cell_angle_gamma   44.27400408
_symmetry_Int_Tables_number   1
_chemical_formula_structural   Ca5Ir2
_chemical_formula_sum   'Ca10 Ir4'
_cell_volume   389.40581374
_cell_formula_units_Z   2
loop_
 _symmetry_equiv_pos_site_id
 _symmetry_equiv_pos_as_xyz
  1  'x, y, z'
loop_
 _atom_site_type_symbol
 _atom_site_label
 _atom_site_symmetry_multiplicity
 _atom_site_fract_x
 _atom_site_fract_y
 _atom_site_fract_z
 _atom_site_occupancy
  Ca  Ca0  1  0.796112  0.028565  0.081688  1
  Ca  Ca1  1  0.199338  0.365280  0.177705  1
  Ca  Ca2  1  0.423481  0.576519  0.250001  1
  Ca  Ca3  1  0.634720  0.800662  0.322294  1
  Ca  Ca4  1  0.971436  0.203888  0.418312  1
  Ca  Ca5  1  0.028564  0.796112  0.581688  1
  Ca  Ca6  1  0.365281  0.199339  0.677705  1
  Ca  Ca7  1  0.576519  0.423481  0.750000  1
  Ca  Ca8  1  0.800662  0.634720  0.822296  1
  Ca  Ca9  1  0.203888  0.971436  0.918311  1
  Ir  Ir10  1  0.822218  0.399373  0.082830  1
  Ir  Ir11  1  0.600626  0.177782  0.417169  1
  Ir  Ir12  1  0.399374  0.822218  0.582830  1
  Ir  Ir13  1  0.177782  0.600627  0.917170  1
