# generated using pymatgen
data_LuTh3(ZnRh)4
_symmetry_space_group_name_H-M   'P 1'
_cell_length_a   3.98458300
_cell_length_b   7.17530022
_cell_length_c   8.40245238
_cell_angle_alpha   90.15138281
_cell_angle_beta   90.00000000
_cell_angle_gamma   90.00000000
_symmetry_Int_Tables_number   1
_chemical_formula_structural   LuTh3(ZnRh)4
_chemical_formula_sum   'Lu1 Th3 Zn4 Rh4'
_cell_volume   240.23014239
_cell_formula_units_Z   1
loop_
 _symmetry_equiv_pos_site_id
 _symmetry_equiv_pos_as_xyz
  1  'x, y, z'
loop_
 _atom_site_type_symbol
 _atom_site_label
 _atom_site_symmetry_multiplicity
 _atom_site_fract_x
 _atom_site_fract_y
 _atom_site_fract_z
 _atom_site_occupancy
  Lu  Lu0  1  0.250000  0.052820  0.308723  1
  Th  Th1  1  0.250000  0.550998  0.193988  1
  Th  Th2  1  0.750000  0.452306  0.812879  1
  Th  Th3  1  0.750000  0.953127  0.680103  1
  Zn  Zn4  1  0.250000  0.625745  0.558127  1
  Zn  Zn5  1  0.750000  0.358253  0.437794  1
  Zn  Zn6  1  0.750000  0.883299  0.065147  1
  Zn  Zn7  1  0.250000  0.122933  0.944607  1
  Rh  Rh8  1  0.250000  0.740874  0.871196  1
  Rh  Rh9  1  0.750000  0.263707  0.125186  1
  Rh  Rh10  1  0.750000  0.756504  0.372532  1
  Rh  Rh11  1  0.250000  0.239433  0.629717  1
