# generated using pymatgen
data_Y6PtBr10
_symmetry_space_group_name_H-M   'P 1'
_cell_length_a   7.36586068
_cell_length_b   9.23551149
_cell_length_c   9.27961201
_cell_angle_alpha   108.16189393
_cell_angle_beta   97.00443461
_cell_angle_gamma   105.39261793
_symmetry_Int_Tables_number   1
_chemical_formula_structural   Y6PtBr10
_chemical_formula_sum   'Y6 Pt1 Br10'
_cell_volume   563.68358911
_cell_formula_units_Z   1
loop_
 _symmetry_equiv_pos_site_id
 _symmetry_equiv_pos_as_xyz
  1  'x, y, z'
loop_
 _atom_site_type_symbol
 _atom_site_label
 _atom_site_symmetry_multiplicity
 _atom_site_fract_x
 _atom_site_fract_y
 _atom_site_fract_z
 _atom_site_occupancy
  Y  Y0  1  0.364891  0.138322  0.180562  1
  Y  Y1  1  0.635109  0.861678  0.819438  1
  Y  Y2  1  0.874916  0.955420  0.250005  1
  Y  Y3  1  0.125084  0.044580  0.749995  1
  Y  Y4  1  0.026693  0.697184  0.904073  1
  Y  Y5  1  0.973307  0.302816  0.095927  1
  Pt  Pt6  1  0.000000  0.000000  0.000000  1
  Br  Br7  1  0.914148  0.629113  0.173392  1
  Br  Br8  1  0.085852  0.370887  0.826608  1
  Br  Br9  1  0.254071  0.084953  0.460969  1
  Br  Br10  1  0.745929  0.915047  0.539031  1
  Br  Br11  1  0.452275  0.823282  0.086028  1
  Br  Br12  1  0.547725  0.176718  0.913972  1
  Br  Br13  1  0.357412  0.457526  0.274029  1
  Br  Br14  1  0.642588  0.542474  0.725971  1
  Br  Br15  1  0.786739  0.259807  0.349488  1
  Br  Br16  1  0.213261  0.740193  0.650512  1
