# generated using pymatgen
data_NaSr9(Dy5Pb8)2
_symmetry_space_group_name_H-M   'P 1'
_cell_length_a   8.20384400
_cell_length_b   8.75990527
_cell_length_c   16.54388300
_cell_angle_alpha   90.00000000
_cell_angle_beta   90.00000000
_cell_angle_gamma   89.91226976
_symmetry_Int_Tables_number   1
_chemical_formula_structural   NaSr9(Dy5Pb8)2
_chemical_formula_sum   'Na1 Sr9 Dy10 Pb16'
_cell_volume   1188.92304215
_cell_formula_units_Z   1
loop_
 _symmetry_equiv_pos_site_id
 _symmetry_equiv_pos_as_xyz
  1  'x, y, z'
loop_
 _atom_site_type_symbol
 _atom_site_label
 _atom_site_symmetry_multiplicity
 _atom_site_fract_x
 _atom_site_fract_y
 _atom_site_fract_z
 _atom_site_occupancy
  Na  Na0  1  0.830609  0.504645  0.750000  1
  Sr  Sr1  1  0.501393  0.678741  0.593865  1
  Sr  Sr2  1  0.997465  0.813190  0.904813  1
  Sr  Sr3  1  0.500010  0.318380  0.090726  1
  Sr  Sr4  1  0.001104  0.181024  0.411292  1
  Sr  Sr5  1  0.500010  0.318380  0.409274  1
  Sr  Sr6  1  0.001104  0.181024  0.088708  1
  Sr  Sr7  1  0.501393  0.678741  0.906135  1
  Sr  Sr8  1  0.997465  0.813190  0.595187  1
  Sr  Sr9  1  0.673223  0.012658  0.250000  1
  Dy  Dy10  1  0.672103  0.168079  0.624163  1
  Dy  Dy11  1  0.167643  0.342503  0.875802  1
  Dy  Dy12  1  0.329101  0.839318  0.120577  1
  Dy  Dy13  1  0.827919  0.663809  0.378646  1
  Dy  Dy14  1  0.329101  0.839318  0.379423  1
  Dy  Dy15  1  0.827919  0.663809  0.121354  1
  Dy  Dy16  1  0.672103  0.168079  0.875837  1
  Dy  Dy17  1  0.167643  0.342503  0.624198  1
  Dy  Dy18  1  0.334341  0.995859  0.750000  1
  Dy  Dy19  1  0.171156  0.491804  0.250000  1
  Pb  Pb20  1  0.669593  0.955965  0.462339  1
  Pb  Pb21  1  0.171825  0.540822  0.044020  1
  Pb  Pb22  1  0.326142  0.040056  0.953503  1
  Pb  Pb23  1  0.829541  0.455921  0.541023  1
  Pb  Pb24  1  0.326142  0.040056  0.546497  1
  Pb  Pb25  1  0.829541  0.455921  0.958977  1
  Pb  Pb26  1  0.669593  0.955965  0.037661  1
  Pb  Pb27  1  0.171825  0.540822  0.455980  1
  Pb  Pb28  1  0.469823  0.366547  0.750000  1
  Pb  Pb29  1  0.975462  0.125345  0.750000  1
  Pb  Pb30  1  0.525310  0.630233  0.250000  1
  Pb  Pb31  1  0.038327  0.852007  0.250000  1
  Pb  Pb32  1  0.699870  0.878078  0.750000  1
  Pb  Pb33  1  0.212407  0.632058  0.750000  1
  Pb  Pb34  1  0.279907  0.134018  0.250000  1
  Pb  Pb35  1  0.801885  0.381133  0.250000  1
