# generated using pymatgen
data_Al11CuRe3
_symmetry_space_group_name_H-M   'P 1'
_cell_length_a   5.16495680
_cell_length_b   5.15256816
_cell_length_c   9.08250492
_cell_angle_alpha   105.28823798
_cell_angle_beta   86.93458359
_cell_angle_gamma   100.22252399
_symmetry_Int_Tables_number   1
_chemical_formula_structural   Al11CuRe3
_chemical_formula_sum   'Al11 Cu1 Re3'
_cell_volume   229.45020978
_cell_formula_units_Z   1
loop_
 _symmetry_equiv_pos_site_id
 _symmetry_equiv_pos_as_xyz
  1  'x, y, z'
loop_
 _atom_site_type_symbol
 _atom_site_label
 _atom_site_symmetry_multiplicity
 _atom_site_fract_x
 _atom_site_fract_y
 _atom_site_fract_z
 _atom_site_occupancy
  Al  Al0  1  0.874210  0.301712  0.612150  1
  Al  Al1  1  0.152462  0.715509  0.382023  1
  Al  Al2  1  0.150323  0.457197  0.877413  1
  Al  Al3  1  0.843469  0.542962  0.133922  1
  Al  Al4  1  0.024585  0.984409  0.978644  1
  Al  Al5  1  0.551845  0.105893  0.884452  1
  Al  Al6  1  0.485869  0.901074  0.131183  1
  Al  Al7  1  0.538578  0.320976  0.377027  1
  Al  Al8  1  0.409046  0.669957  0.633212  1
  Al  Al9  1  0.929124  0.836935  0.659844  1
  Al  Al10  1  0.016451  0.146009  0.294644  1
  Cu  Cu11  1  0.358079  0.167501  0.634534  1
  Re  Re12  1  0.669754  0.854574  0.401508  1
  Re  Re13  1  0.671040  0.610911  0.866647  1
  Re  Re14  1  0.325167  0.384383  0.132797  1
