# generated using pymatgen
data_Ce5U9Pt20
_symmetry_space_group_name_H-M   'P 1'
_cell_length_a   8.54575910
_cell_length_b   8.54575645
_cell_length_c   10.11940217
_cell_angle_alpha   89.76937403
_cell_angle_beta   90.23062841
_cell_angle_gamma   107.40312189
_symmetry_Int_Tables_number   1
_chemical_formula_structural   Ce5U9Pt20
_chemical_formula_sum   'Ce5 U9 Pt20'
_cell_volume   705.18156052
_cell_formula_units_Z   1
loop_
 _symmetry_equiv_pos_site_id
 _symmetry_equiv_pos_as_xyz
  1  'x, y, z'
loop_
 _atom_site_type_symbol
 _atom_site_label
 _atom_site_symmetry_multiplicity
 _atom_site_fract_x
 _atom_site_fract_y
 _atom_site_fract_z
 _atom_site_occupancy
  Ce  Ce0  1  0.691083  0.309523  0.000239  1
  Ce  Ce1  1  0.309287  0.690116  0.001022  1
  Ce  Ce2  1  0.809523  0.191083  0.499761  1
  Ce  Ce3  1  0.190116  0.809287  0.498978  1
  Ce  Ce4  1  0.997121  0.497121  0.250000  1
  U  U5  1  0.999520  0.999362  0.998910  1
  U  U6  1  0.499362  0.499520  0.501090  1
  U  U7  1  0.001590  0.501590  0.750000  1
  U  U8  1  0.500691  0.000691  0.750000  1
  U  U9  1  0.497567  0.997567  0.250000  1
  U  U10  1  0.311624  0.311743  0.188165  1
  U  U11  1  0.688131  0.689208  0.808496  1
  U  U12  1  0.189208  0.188131  0.691504  1
  U  U13  1  0.811743  0.811624  0.311835  1
  Pt  Pt14  1  0.848835  0.131858  0.207919  1
  Pt  Pt15  1  0.148698  0.861986  0.790122  1
  Pt  Pt16  1  0.646490  0.360093  0.710463  1
  Pt  Pt17  1  0.631858  0.348836  0.292080  1
  Pt  Pt18  1  0.358146  0.639557  0.291366  1
  Pt  Pt19  1  0.361986  0.648697  0.709879  1
  Pt  Pt20  1  0.860093  0.146489  0.789536  1
  Pt  Pt21  1  0.139557  0.858147  0.208635  1
  Pt  Pt22  1  0.933046  0.649899  0.991218  1
  Pt  Pt23  1  0.068183  0.348674  0.999744  1
  Pt  Pt24  1  0.567669  0.853004  0.496842  1
  Pt  Pt25  1  0.149899  0.433046  0.508782  1
  Pt  Pt26  1  0.432413  0.146324  0.505549  1
  Pt  Pt27  1  0.848674  0.568183  0.500256  1
  Pt  Pt28  1  0.353004  0.067669  0.003158  1
  Pt  Pt29  1  0.646324  0.932413  0.994451  1
  Pt  Pt30  1  0.109267  0.112100  0.390935  1
  Pt  Pt31  1  0.893212  0.893980  0.608121  1
  Pt  Pt32  1  0.393980  0.393212  0.891879  1
  Pt  Pt33  1  0.612100  0.609267  0.109065  1
