# generated using pymatgen
data_Ho5Tm11(AlNi)4
_symmetry_space_group_name_H-M   'P 1'
_cell_length_a   9.34322817
_cell_length_b   9.34802246
_cell_length_c   9.34802178
_cell_angle_alpha   60.17977820
_cell_angle_beta   60.01696352
_cell_angle_gamma   60.01695923
_symmetry_Int_Tables_number   1
_chemical_formula_structural   Ho5Tm11(AlNi)4
_chemical_formula_sum   'Ho5 Tm11 Al4 Ni4'
_cell_volume   578.25528188
_cell_formula_units_Z   1
loop_
 _symmetry_equiv_pos_site_id
 _symmetry_equiv_pos_as_xyz
  1  'x, y, z'
loop_
 _atom_site_type_symbol
 _atom_site_label
 _atom_site_symmetry_multiplicity
 _atom_site_fract_x
 _atom_site_fract_y
 _atom_site_fract_z
 _atom_site_occupancy
  Ho  Ho0  1  0.562439  0.937561  0.937560  1
  Ho  Ho1  1  0.564040  0.935916  0.564060  1
  Ho  Ho2  1  0.935985  0.564061  0.935915  1
  Ho  Ho3  1  0.564039  0.564061  0.935915  1
  Ho  Ho4  1  0.935985  0.935916  0.564060  1
  Tm  Tm5  1  0.350975  0.349479  0.349479  1
  Tm  Tm6  1  0.350520  0.351390  0.947569  1
  Tm  Tm7  1  0.350520  0.947569  0.351390  1
  Tm  Tm8  1  0.950067  0.349479  0.349479  1
  Tm  Tm9  1  0.809998  0.190002  0.190002  1
  Tm  Tm10  1  0.189584  0.810416  0.810416  1
  Tm  Tm11  1  0.189329  0.809689  0.191194  1
  Tm  Tm12  1  0.809788  0.191194  0.809689  1
  Tm  Tm13  1  0.189329  0.191194  0.809689  1
  Tm  Tm14  1  0.809788  0.809689  0.191194  1
  Tm  Tm15  1  0.937559  0.562442  0.562441  1
  Al  Al16  1  0.577398  0.577542  0.577542  1
  Al  Al17  1  0.577236  0.576949  0.268579  1
  Al  Al18  1  0.577236  0.268579  0.576949  1
  Al  Al19  1  0.267517  0.577542  0.577542  1
  Ni  Ni20  1  0.146610  0.141266  0.141266  1
  Ni  Ni21  1  0.141600  0.144422  0.572377  1
  Ni  Ni22  1  0.141600  0.572377  0.144422  1
  Ni  Ni23  1  0.570857  0.141266  0.141266  1
