# generated using pymatgen
data_NpI11
_symmetry_space_group_name_H-M   'P 1'
_cell_length_a   9.26819333
_cell_length_b   9.44090709
_cell_length_c   9.60664051
_cell_angle_alpha   86.95823256
_cell_angle_beta   86.68900830
_cell_angle_gamma   114.66679451
_symmetry_Int_Tables_number   1
_chemical_formula_structural   NpI11
_chemical_formula_sum   'Np1 I11'
_cell_volume   759.84072462
_cell_formula_units_Z   1
loop_
 _symmetry_equiv_pos_site_id
 _symmetry_equiv_pos_as_xyz
  1  'x, y, z'
loop_
 _atom_site_type_symbol
 _atom_site_label
 _atom_site_symmetry_multiplicity
 _atom_site_fract_x
 _atom_site_fract_y
 _atom_site_fract_z
 _atom_site_occupancy
  Np  Np0  1  0.000000  0.500000  0.500000  1
  I  I1  1  0.305319  0.203229  0.099436  1
  I  I2  1  0.000000  0.000000  0.000000  1
  I  I3  1  0.694681  0.796771  0.900564  1
  I  I4  1  0.495010  0.248999  0.835766  1
  I  I5  1  0.504990  0.751001  0.164234  1
  I  I6  1  0.908058  0.755615  0.513451  1
  I  I7  1  0.945687  0.488299  0.209678  1
  I  I8  1  0.091942  0.244385  0.486549  1
  I  I9  1  0.347863  0.728550  0.448619  1
  I  I10  1  0.652137  0.271450  0.551381  1
  I  I11  1  0.054313  0.511701  0.790322  1
