# generated using pymatgen
data_Nd4Ni8P7
_symmetry_space_group_name_H-M   'P 1'
_cell_length_a   3.86973300
_cell_length_b   12.38521567
_cell_length_c   12.61962500
_cell_angle_alpha   81.02614683
_cell_angle_beta   90.00000000
_cell_angle_gamma   90.00000000
_symmetry_Int_Tables_number   1
_chemical_formula_structural   Nd4Ni8P7
_chemical_formula_sum   'Nd8 Ni16 P14'
_cell_volume   597.42349080
_cell_formula_units_Z   2
loop_
 _symmetry_equiv_pos_site_id
 _symmetry_equiv_pos_as_xyz
  1  'x, y, z'
loop_
 _atom_site_type_symbol
 _atom_site_label
 _atom_site_symmetry_multiplicity
 _atom_site_fract_x
 _atom_site_fract_y
 _atom_site_fract_z
 _atom_site_occupancy
  Nd  Nd0  1  0.750000  0.792617  0.554604  1
  Nd  Nd1  1  0.250000  0.207383  0.445396  1
  Nd  Nd2  1  0.750000  0.479974  0.707404  1
  Nd  Nd3  1  0.250000  0.520026  0.292596  1
  Nd  Nd4  1  0.750000  0.720597  0.897401  1
  Nd  Nd5  1  0.250000  0.103887  0.796434  1
  Nd  Nd6  1  0.750000  0.896113  0.203566  1
  Nd  Nd7  1  0.250000  0.279403  0.102599  1
  Ni  Ni8  1  0.250000  0.982525  0.582148  1
  Ni  Ni9  1  0.750000  0.017475  0.417852  1
  Ni  Ni10  1  0.250000  0.662234  0.722148  1
  Ni  Ni11  1  0.750000  0.337766  0.277852  1
  Ni  Ni12  1  0.250000  0.551580  0.047818  1
  Ni  Ni13  1  0.750000  0.448420  0.952182  1
  Ni  Ni14  1  0.250000  0.063260  0.269544  1
  Ni  Ni15  1  0.750000  0.936740  0.730456  1
  Ni  Ni16  1  0.250000  0.428308  0.528026  1
  Ni  Ni17  1  0.750000  0.571692  0.471974  1
  Ni  Ni18  1  0.250000  0.902621  0.999378  1
  Ni  Ni19  1  0.750000  0.097379  0.000622  1
  Ni  Ni20  1  0.250000  0.737619  0.389509  1
  Ni  Ni21  1  0.750000  0.262381  0.610491  1
  Ni  Ni22  1  0.250000  0.347391  0.857450  1
  Ni  Ni23  1  0.750000  0.652609  0.142550  1
  P  P24  1  0.250000  0.919236  0.407423  1
  P  P25  1  0.750000  0.466833  0.128700  1
  P  P26  1  0.250000  0.533167  0.871300  1
  P  P27  1  0.750000  0.080764  0.592577  1
  P  P28  1  0.250000  0.731251  0.078845  1
  P  P29  1  0.750000  0.268749  0.921155  1
  P  P30  1  0.750000  0.160284  0.280176  1
  P  P31  1  0.250000  0.839716  0.719824  1
  P  P32  1  0.250000  0.049012  0.089965  1
  P  P33  1  0.750000  0.950988  0.910035  1
  P  P34  1  0.250000  0.314093  0.681999  1
  P  P35  1  0.750000  0.685907  0.318001  1
  P  P36  1  0.250000  0.608214  0.556483  1
  P  P37  1  0.750000  0.391786  0.443517  1
