# generated using pymatgen
data_Pr6Zn4Pt13
_symmetry_space_group_name_H-M   'P 1'
_cell_length_a   8.42147638
_cell_length_b   8.42147588
_cell_length_c   8.42147700
_cell_angle_alpha   109.47122332
_cell_angle_beta   109.47122213
_cell_angle_gamma   109.47122033
_symmetry_Int_Tables_number   1
_chemical_formula_structural   Pr6Zn4Pt13
_chemical_formula_sum   'Pr6 Zn4 Pt13'
_cell_volume   459.77229663
_cell_formula_units_Z   1
loop_
 _symmetry_equiv_pos_site_id
 _symmetry_equiv_pos_as_xyz
  1  'x, y, z'
loop_
 _atom_site_type_symbol
 _atom_site_label
 _atom_site_symmetry_multiplicity
 _atom_site_fract_x
 _atom_site_fract_y
 _atom_site_fract_z
 _atom_site_occupancy
  Pr  Pr0  1  0.699521  0.699521  0.000000  1
  Pr  Pr1  1  0.300479  0.000000  0.300479  1
  Pr  Pr2  1  0.000000  0.300479  0.300479  1
  Pr  Pr3  1  0.300479  0.300479  0.000000  1
  Pr  Pr4  1  0.699521  0.000000  0.699521  1
  Pr  Pr5  1  0.000000  0.699521  0.699521  1
  Zn  Zn6  1  0.000000  0.000000  0.500000  1
  Zn  Zn7  1  0.000000  0.500000  0.000000  1
  Zn  Zn8  1  0.500000  0.000000  0.000000  1
  Zn  Zn9  1  0.500000  0.500000  0.500000  1
  Pt  Pt10  1  0.329752  0.329752  0.659504  1
  Pt  Pt11  1  0.670248  0.000000  0.329752  1
  Pt  Pt12  1  0.000000  0.670248  0.329752  1
  Pt  Pt13  1  0.670248  0.329752  0.000000  1
  Pt  Pt14  1  0.329752  0.659504  0.329752  1
  Pt  Pt15  1  0.000000  0.329752  0.670248  1
  Pt  Pt16  1  0.329752  0.670248  0.000000  1
  Pt  Pt17  1  0.329752  0.000000  0.670248  1
  Pt  Pt18  1  0.659504  0.329752  0.329752  1
  Pt  Pt19  1  0.670248  0.670248  0.340496  1
  Pt  Pt20  1  0.670248  0.340496  0.670248  1
  Pt  Pt21  1  0.340496  0.670248  0.670248  1
  Pt  Pt22  1  0.000000  0.000000  0.000000  1
