# generated using pymatgen
data_Dy5Y3Pt4
_symmetry_space_group_name_H-M   'P 1'
_cell_length_a   4.76181700
_cell_length_b   7.17783448
_cell_length_c   8.82935625
_cell_angle_alpha   89.88731828
_cell_angle_beta   90.00000000
_cell_angle_gamma   90.00000000
_symmetry_Int_Tables_number   1
_chemical_formula_structural   Dy5Y3Pt4
_chemical_formula_sum   'Dy5 Y3 Pt4'
_cell_volume   301.78270097
_cell_formula_units_Z   1
loop_
 _symmetry_equiv_pos_site_id
 _symmetry_equiv_pos_as_xyz
  1  'x, y, z'
loop_
 _atom_site_type_symbol
 _atom_site_label
 _atom_site_symmetry_multiplicity
 _atom_site_fract_x
 _atom_site_fract_y
 _atom_site_fract_z
 _atom_site_occupancy
  Dy  Dy0  1  0.250000  0.855328  0.920008  1
  Dy  Dy1  1  0.250000  0.354838  0.579793  1
  Dy  Dy2  1  0.750000  0.144265  0.080164  1
  Dy  Dy3  1  0.750000  0.645255  0.419797  1
  Dy  Dy4  1  0.250000  0.990673  0.332546  1
  Y  Y5  1  0.250000  0.490079  0.168751  1
  Y  Y6  1  0.750000  0.009603  0.668996  1
  Y  Y7  1  0.750000  0.509668  0.831404  1
  Pt  Pt8  1  0.250000  0.256659  0.906447  1
  Pt  Pt9  1  0.250000  0.758097  0.592460  1
  Pt  Pt10  1  0.750000  0.743427  0.093623  1
  Pt  Pt11  1  0.750000  0.242107  0.406012  1
