# generated using pymatgen
data_NaTbSnBr6
_symmetry_space_group_name_H-M   'P 1'
_cell_length_a   7.98953083
_cell_length_b   7.98953814
_cell_length_c   7.98949739
_cell_angle_alpha   55.90254552
_cell_angle_beta   55.90258155
_cell_angle_gamma   55.90201320
_symmetry_Int_Tables_number   1
_chemical_formula_structural   NaTbSnBr6
_chemical_formula_sum   'Na1 Tb1 Sn1 Br6'
_cell_volume   326.36957867
_cell_formula_units_Z   1
loop_
 _symmetry_equiv_pos_site_id
 _symmetry_equiv_pos_as_xyz
  1  'x, y, z'
loop_
 _atom_site_type_symbol
 _atom_site_label
 _atom_site_symmetry_multiplicity
 _atom_site_fract_x
 _atom_site_fract_y
 _atom_site_fract_z
 _atom_site_occupancy
  Na  Na0  1  0.669763  0.669765  0.669767  1
  Tb  Tb1  1  0.999720  0.999692  0.999703  1
  Sn  Sn2  1  0.331038  0.331048  0.331043  1
  Br  Br3  1  0.234993  0.610046  0.917201  1
  Br  Br4  1  0.610037  0.917202  0.234993  1
  Br  Br5  1  0.917201  0.234999  0.610030  1
  Br  Br6  1  0.760832  0.387351  0.089077  1
  Br  Br7  1  0.387346  0.089068  0.760837  1
  Br  Br8  1  0.089072  0.760829  0.387350  1
