# generated using pymatgen
data_Er2Tm4ScCo17P12
_symmetry_space_group_name_H-M   'P 1'
_cell_length_a   3.67631700
_cell_length_b   10.51068100
_cell_length_c   12.17541600
_cell_angle_alpha   90.00000000
_cell_angle_beta   90.00000000
_cell_angle_gamma   90.00000000
_symmetry_Int_Tables_number   1
_chemical_formula_structural   Er2Tm4ScCo17P12
_chemical_formula_sum   'Er2 Tm4 Sc1 Co17 P12'
_cell_volume   470.46532156
_cell_formula_units_Z   1
loop_
 _symmetry_equiv_pos_site_id
 _symmetry_equiv_pos_as_xyz
  1  'x, y, z'
loop_
 _atom_site_type_symbol
 _atom_site_label
 _atom_site_symmetry_multiplicity
 _atom_site_fract_x
 _atom_site_fract_y
 _atom_site_fract_z
 _atom_site_occupancy
  Er  Er0  1  0.750000  0.250000  0.471750  1
  Er  Er1  1  0.250000  0.750000  0.523138  1
  Tm  Tm2  1  0.250000  0.927977  0.792307  1
  Tm  Tm3  1  0.250000  0.572023  0.792307  1
  Tm  Tm4  1  0.750000  0.068039  0.204430  1
  Tm  Tm5  1  0.750000  0.431961  0.204430  1
  Sc  Sc6  1  0.250000  0.250000  0.846445  1
  Co  Co7  1  0.750000  0.750000  0.163549  1
  Co  Co8  1  0.250000  0.250000  0.296063  1
  Co  Co9  1  0.750000  0.750000  0.704338  1
  Co  Co10  1  0.750000  0.250000  0.015369  1
  Co  Co11  1  0.250000  0.750000  0.986590  1
  Co  Co12  1  0.250000  0.423639  0.010271  1
  Co  Co13  1  0.250000  0.076361  0.010271  1
  Co  Co14  1  0.750000  0.587467  0.998543  1
  Co  Co15  1  0.750000  0.912533  0.998543  1
  Co  Co16  1  0.250000  0.455057  0.565613  1
  Co  Co17  1  0.250000  0.044943  0.565613  1
  Co  Co18  1  0.750000  0.548247  0.429471  1
  Co  Co19  1  0.750000  0.951753  0.429471  1
  Co  Co20  1  0.250000  0.870291  0.292626  1
  Co  Co21  1  0.250000  0.629709  0.292626  1
  Co  Co22  1  0.750000  0.126662  0.704025  1
  Co  Co23  1  0.750000  0.373338  0.704025  1
  P  P24  1  0.250000  0.250000  0.117445  1
  P  P25  1  0.750000  0.750000  0.883200  1
  P  P26  1  0.250000  0.250000  0.640869  1
  P  P27  1  0.750000  0.750000  0.346910  1
  P  P28  1  0.250000  0.439580  0.381344  1
  P  P29  1  0.250000  0.060420  0.381344  1
  P  P30  1  0.750000  0.562143  0.614495  1
  P  P31  1  0.750000  0.937857  0.614495  1
  P  P32  1  0.250000  0.898861  0.112093  1
  P  P33  1  0.250000  0.601139  0.112093  1
  P  P34  1  0.750000  0.085778  0.896950  1
  P  P35  1  0.750000  0.414222  0.896950  1
