# generated using pymatgen
data_Ba5GeBi2
_symmetry_space_group_name_H-M   'P 1'
_cell_length_a   14.40005900
_cell_length_b   10.61042600
_cell_length_c   9.15843200
_cell_angle_alpha   90.00000000
_cell_angle_beta   90.00000000
_cell_angle_gamma   90.00000000
_symmetry_Int_Tables_number   1
_chemical_formula_structural   Ba5GeBi2
_chemical_formula_sum   'Ba20 Ge4 Bi8'
_cell_volume   1399.32378949
_cell_formula_units_Z   4
loop_
 _symmetry_equiv_pos_site_id
 _symmetry_equiv_pos_as_xyz
  1  'x, y, z'
loop_
 _atom_site_type_symbol
 _atom_site_label
 _atom_site_symmetry_multiplicity
 _atom_site_fract_x
 _atom_site_fract_y
 _atom_site_fract_z
 _atom_site_occupancy
  Ba  Ba0  1  0.075436  0.526645  0.819233  1
  Ba  Ba1  1  0.575436  0.973355  0.680767  1
  Ba  Ba2  1  0.924564  0.026645  0.180767  1
  Ba  Ba3  1  0.424564  0.473355  0.319233  1
  Ba  Ba4  1  0.924564  0.473355  0.180767  1
  Ba  Ba5  1  0.424564  0.026645  0.319233  1
  Ba  Ba6  1  0.075436  0.973355  0.819233  1
  Ba  Ba7  1  0.575436  0.526645  0.680767  1
  Ba  Ba8  1  0.000797  0.750000  0.442816  1
  Ba  Ba9  1  0.500797  0.750000  0.057184  1
  Ba  Ba10  1  0.999203  0.250000  0.557184  1
  Ba  Ba11  1  0.499203  0.250000  0.942816  1
  Ba  Ba12  1  0.214599  0.750000  0.167887  1
  Ba  Ba13  1  0.714599  0.750000  0.332113  1
  Ba  Ba14  1  0.785401  0.250000  0.832113  1
  Ba  Ba15  1  0.285401  0.250000  0.667887  1
  Ba  Ba16  1  0.300692  0.750000  0.645836  1
  Ba  Ba17  1  0.800692  0.750000  0.854164  1
  Ba  Ba18  1  0.699308  0.250000  0.354164  1
  Ba  Ba19  1  0.199308  0.250000  0.145836  1
  Ge  Ge20  1  0.488355  0.750000  0.439123  1
  Ge  Ge21  1  0.988355  0.750000  0.060877  1
  Ge  Ge22  1  0.511645  0.250000  0.560877  1
  Ge  Ge23  1  0.011645  0.250000  0.939123  1
  Bi  Bi24  1  0.331108  0.505476  0.937863  1
  Bi  Bi25  1  0.831108  0.994524  0.562137  1
  Bi  Bi26  1  0.668892  0.005476  0.062137  1
  Bi  Bi27  1  0.168892  0.494524  0.437863  1
  Bi  Bi28  1  0.668892  0.494524  0.062137  1
  Bi  Bi29  1  0.168892  0.005476  0.437863  1
  Bi  Bi30  1  0.331108  0.994524  0.937863  1
  Bi  Bi31  1  0.831108  0.505476  0.562137  1
