# generated using pymatgen
data_Sc2Al9Tc5
_symmetry_space_group_name_H-M   'P 1'
_cell_length_a   7.61355732
_cell_length_b   7.61355799
_cell_length_c   7.61355812
_cell_angle_alpha   130.62970926
_cell_angle_beta   130.62971367
_cell_angle_gamma   72.40204882
_symmetry_Int_Tables_number   1
_chemical_formula_structural   Sc2Al9Tc5
_chemical_formula_sum   'Sc2 Al9 Tc5'
_cell_volume   248.45968503
_cell_formula_units_Z   1
loop_
 _symmetry_equiv_pos_site_id
 _symmetry_equiv_pos_as_xyz
  1  'x, y, z'
loop_
 _atom_site_type_symbol
 _atom_site_label
 _atom_site_symmetry_multiplicity
 _atom_site_fract_x
 _atom_site_fract_y
 _atom_site_fract_z
 _atom_site_occupancy
  Sc  Sc0  1  0.000000  0.500000  0.500000  1
  Sc  Sc1  1  0.500000  0.000000  0.500000  1
  Al  Al2  1  0.426039  0.861873  0.000000  1
  Al  Al3  1  0.138127  0.138127  0.564166  1
  Al  Al4  1  0.861873  0.426039  0.000000  1
  Al  Al5  1  0.861873  0.861873  0.435834  1
  Al  Al6  1  0.573961  0.138127  0.000000  1
  Al  Al7  1  0.138127  0.573961  0.000000  1
  Al  Al8  1  0.573961  0.573961  0.435834  1
  Al  Al9  1  0.000000  0.000000  0.000000  1
  Al  Al10  1  0.426039  0.426039  0.564166  1
  Tc  Tc11  1  0.201845  0.201845  0.000000  1
  Tc  Tc12  1  0.798155  0.798155  0.000000  1
  Tc  Tc13  1  0.250000  0.750000  0.500000  1
  Tc  Tc14  1  0.750000  0.250000  0.500000  1
  Tc  Tc15  1  0.500000  0.500000  0.000000  1
