# generated using pymatgen
data_Li2Eu3Pd7
_symmetry_space_group_name_H-M   'P 1'
_cell_length_a   9.05786350
_cell_length_b   9.05786288
_cell_length_c   9.05786300
_cell_angle_alpha   36.32401115
_cell_angle_beta   36.32401646
_cell_angle_gamma   36.32401692
_symmetry_Int_Tables_number   1
_chemical_formula_structural   Li2Eu3Pd7
_chemical_formula_sum   'Li2 Eu3 Pd7'
_cell_volume   233.36083982
_cell_formula_units_Z   1
loop_
 _symmetry_equiv_pos_site_id
 _symmetry_equiv_pos_as_xyz
  1  'x, y, z'
loop_
 _atom_site_type_symbol
 _atom_site_label
 _atom_site_symmetry_multiplicity
 _atom_site_fract_x
 _atom_site_fract_y
 _atom_site_fract_z
 _atom_site_occupancy
  Li  Li0  1  0.165191  0.165191  0.165191  1
  Li  Li1  1  0.834809  0.834809  0.834809  1
  Eu  Eu2  1  0.358990  0.358990  0.358990  1
  Eu  Eu3  1  0.500000  0.500000  0.500000  1
  Eu  Eu4  1  0.641010  0.641010  0.641010  1
  Pd  Pd5  1  0.000000  0.000000  0.000000  1
  Pd  Pd6  1  0.575955  0.082122  0.082122  1
  Pd  Pd7  1  0.082122  0.575955  0.082122  1
  Pd  Pd8  1  0.917878  0.917878  0.424045  1
  Pd  Pd9  1  0.082122  0.082122  0.575955  1
  Pd  Pd10  1  0.917878  0.424045  0.917878  1
  Pd  Pd11  1  0.424045  0.917878  0.917878  1
