# generated using pymatgen
data_Ca14MgBi11
_symmetry_space_group_name_H-M   'P 1'
_cell_length_a   16.66989575
_cell_length_b   16.66999420
_cell_length_c   16.66999400
_cell_angle_alpha   93.78490046
_cell_angle_beta   117.83965662
_cell_angle_gamma   117.83965515
_symmetry_Int_Tables_number   1
_chemical_formula_structural   Ca14MgBi11
_chemical_formula_sum   'Ca56 Mg4 Bi44'
_cell_volume   3374.56563721
_cell_formula_units_Z   4
loop_
 _symmetry_equiv_pos_site_id
 _symmetry_equiv_pos_as_xyz
  1  'x, y, z'
loop_
 _atom_site_type_symbol
 _atom_site_label
 _atom_site_symmetry_multiplicity
 _atom_site_fract_x
 _atom_site_fract_y
 _atom_site_fract_z
 _atom_site_occupancy
  Ca  Ca0  1  0.968896  0.254268  0.371167  1
  Ca  Ca1  1  0.353086  0.879829  0.479993  1
  Ca  Ca2  1  0.588328  0.836734  0.566503  1
  Ca  Ca3  1  0.100165  0.473262  0.120176  1
  Ca  Ca4  1  0.229768  0.978177  0.066502  1
  Ca  Ca5  1  0.088325  0.521823  0.751593  1
  Ca  Ca6  1  0.031104  0.745732  0.628833  1
  Ca  Ca7  1  0.883096  0.754259  0.785368  1
  Ca  Ca8  1  0.146915  0.626907  0.526746  1
  Ca  Ca9  1  0.411672  0.163266  0.433497  1
  Ca  Ca10  1  0.600165  0.620176  0.973262  1
  Ca  Ca11  1  0.899834  0.873091  0.020007  1
  Ca  Ca12  1  0.355187  0.249998  0.605188  1
  Ca  Ca13  1  0.646914  0.120171  0.520007  1
  Ca  Ca14  1  0.646915  0.026746  0.126907  1
  Ca  Ca15  1  0.968897  0.214631  0.597732  1
  Ca  Ca16  1  0.855187  0.105188  0.749998  1
  Ca  Ca17  1  0.588325  0.251593  0.021823  1
  Ca  Ca18  1  0.399835  0.379824  0.026738  1
  Ca  Ca19  1  0.531104  0.128833  0.245732  1
  Ca  Ca20  1  0.270232  0.433498  0.521823  1
  Ca  Ca21  1  0.853086  0.979993  0.379829  1
  Ca  Ca22  1  0.270231  0.336731  0.748407  1
  Ca  Ca23  1  0.770231  0.248407  0.836731  1
  Ca  Ca24  1  0.399834  0.520007  0.373091  1
  Ca  Ca25  1  0.383096  0.285368  0.254259  1
  Ca  Ca26  1  0.911672  0.933497  0.663266  1
  Ca  Ca27  1  0.353085  0.973254  0.873093  1
  Ca  Ca28  1  0.100166  0.126909  0.979993  1
  Ca  Ca29  1  0.144813  0.750000  0.894813  1
  Ca  Ca30  1  0.899835  0.526738  0.879824  1
  Ca  Ca31  1  0.729768  0.566502  0.478177  1
  Ca  Ca32  1  0.411675  0.748407  0.978177  1
  Ca  Ca33  1  0.355187  0.605187  0.750000  1
  Ca  Ca34  1  0.883104  0.628840  0.097736  1
  Ca  Ca35  1  0.468897  0.097732  0.714631  1
  Ca  Ca36  1  0.855187  0.250000  0.105187  1
  Ca  Ca37  1  0.853085  0.373093  0.473254  1
  Ca  Ca38  1  0.468896  0.871167  0.754268  1
  Ca  Ca39  1  0.770232  0.021823  0.933498  1
  Ca  Ca40  1  0.616896  0.402264  0.871160  1
  Ca  Ca41  1  0.911675  0.478177  0.248407  1
  Ca  Ca42  1  0.144813  0.894812  0.250002  1
  Ca  Ca43  1  0.644813  0.394813  0.250000  1
  Ca  Ca44  1  0.146914  0.020007  0.620171  1
  Ca  Ca45  1  0.729769  0.663269  0.251593  1
  Ca  Ca46  1  0.531103  0.902268  0.285369  1
  Ca  Ca47  1  0.383104  0.597736  0.128840  1
  Ca  Ca48  1  0.116904  0.245741  0.214632  1
  Ca  Ca49  1  0.031103  0.785369  0.402268  1
  Ca  Ca50  1  0.088328  0.066503  0.336734  1
  Ca  Ca51  1  0.229769  0.751593  0.163269  1
  Ca  Ca52  1  0.116896  0.371160  0.902264  1
  Ca  Ca53  1  0.600166  0.479993  0.626909  1
  Ca  Ca54  1  0.616904  0.714632  0.745741  1
  Ca  Ca55  1  0.644813  0.750002  0.394812  1
  Mg  Mg56  1  0.250045  0.625030  0.375071  1
  Mg  Mg57  1  0.249955  0.124929  0.874970  1
  Mg  Mg58  1  0.750045  0.875071  0.125030  1
  Mg  Mg59  1  0.749955  0.374970  0.624929  1
  Bi  Bi60  1  0.103269  0.415861  0.304636  1
  Bi  Bi61  1  0.156672  0.073199  0.178246  1
  Bi  Bi62  1  0.611228  0.798636  0.195368  1
  Bi  Bi63  1  0.750000  0.125000  0.375000  1
  Bi  Bi64  1  0.611216  0.312585  0.415843  1
  Bi  Bi65  1  0.111216  0.915843  0.812585  1
  Bi  Bi66  1  0.250000  0.737983  0.762017  1
  Bi  Bi67  1  0.888784  0.084157  0.187415  1
  Bi  Bi68  1  0.894952  0.821753  0.478427  1
  Bi  Bi69  1  0.605048  0.083474  0.926802  1
  Bi  Bi70  1  0.250000  0.012015  0.487985  1
  Bi  Bi71  1  0.156673  0.583473  0.978427  1
  Bi  Bi72  1  0.103270  0.187411  0.798636  1
  Bi  Bi73  1  0.896731  0.584139  0.695364  1
  Bi  Bi74  1  0.603270  0.298636  0.687411  1
  Bi  Bi75  1  0.605048  0.021573  0.678247  1
  Bi  Bi76  1  0.111228  0.695368  0.298636  1
  Bi  Bi77  1  0.343328  0.321754  0.426801  1
  Bi  Bi78  1  0.603269  0.804636  0.915861  1
  Bi  Bi79  1  0.250000  0.875000  0.625000  1
  Bi  Bi80  1  0.396731  0.195364  0.084139  1
  Bi  Bi81  1  0.105048  0.178247  0.521573  1
  Bi  Bi82  1  0.750000  0.987985  0.512015  1
  Bi  Bi83  1  0.750000  0.262017  0.237983  1
  Bi  Bi84  1  0.388784  0.687415  0.584157  1
  Bi  Bi85  1  0.843328  0.926801  0.821754  1
  Bi  Bi86  1  0.396730  0.701364  0.312589  1
  Bi  Bi87  1  0.475968  0.487985  0.737985  1
  Bi  Bi88  1  0.388772  0.201364  0.804632  1
  Bi  Bi89  1  0.975968  0.237985  0.987985  1
  Bi  Bi90  1  0.843327  0.416527  0.021573  1
  Bi  Bi91  1  0.750000  0.624999  0.875001  1
  Bi  Bi92  1  0.343327  0.521573  0.916527  1
  Bi  Bi93  1  0.105048  0.426802  0.583474  1
  Bi  Bi94  1  0.896730  0.812589  0.201364  1
  Bi  Bi95  1  0.394952  0.978427  0.321753  1
  Bi  Bi96  1  0.894952  0.573198  0.416526  1
  Bi  Bi97  1  0.656672  0.678246  0.573199  1
  Bi  Bi98  1  0.250000  0.375001  0.124999  1
  Bi  Bi99  1  0.888772  0.304632  0.701364  1
  Bi  Bi100  1  0.524032  0.512015  0.262015  1
  Bi  Bi101  1  0.394952  0.916526  0.073198  1
  Bi  Bi102  1  0.024032  0.762015  0.012015  1
  Bi  Bi103  1  0.656673  0.478427  0.083473  1
