# generated using pymatgen
data_Hf2Zr(AlCu)3
_symmetry_space_group_name_H-M   'P 1'
_cell_length_a   6.53396900
_cell_length_b   6.57614751
_cell_length_c   3.98305300
_cell_angle_alpha   90.00000000
_cell_angle_beta   89.99999123
_cell_angle_gamma   119.78848199
_symmetry_Int_Tables_number   1
_chemical_formula_structural   Hf2Zr(AlCu)3
_chemical_formula_sum   'Hf2 Zr1 Al3 Cu3'
_cell_volume   148.53097982
_cell_formula_units_Z   1
loop_
 _symmetry_equiv_pos_site_id
 _symmetry_equiv_pos_as_xyz
  1  'x, y, z'
loop_
 _atom_site_type_symbol
 _atom_site_label
 _atom_site_symmetry_multiplicity
 _atom_site_fract_x
 _atom_site_fract_y
 _atom_site_fract_z
 _atom_site_occupancy
  Hf  Hf0  1  0.000312  0.418553  0.500001  1
  Hf  Hf1  1  0.581759  0.581445  0.500000  1
  Zr  Zr2  1  0.418816  0.000000  0.500001  1
  Al  Al3  1  0.753261  0.999999  0.000000  1
  Al  Al4  1  0.246999  0.246308  0.000000  1
  Al  Al5  1  0.000692  0.753692  0.000000  1
  Cu  Cu6  1  0.669198  0.336840  0.000000  1
  Cu  Cu7  1  0.332358  0.663161  0.000000  1
  Cu  Cu8  1  0.996605  0.000001  0.500000  1
