# generated using pymatgen
data_Dy3Er(SiAu2)8
_symmetry_space_group_name_H-M   'P 1'
_cell_length_a   4.41601300
_cell_length_b   4.41601300
_cell_length_c   26.96108500
_cell_angle_alpha   90.00000000
_cell_angle_beta   90.00000000
_cell_angle_gamma   90.00000000
_symmetry_Int_Tables_number   1
_chemical_formula_structural   Dy3Er(SiAu2)8
_chemical_formula_sum   'Dy3 Er1 Si8 Au16'
_cell_volume   525.77272397
_cell_formula_units_Z   1
loop_
 _symmetry_equiv_pos_site_id
 _symmetry_equiv_pos_as_xyz
  1  'x, y, z'
loop_
 _atom_site_type_symbol
 _atom_site_label
 _atom_site_symmetry_multiplicity
 _atom_site_fract_x
 _atom_site_fract_y
 _atom_site_fract_z
 _atom_site_occupancy
  Dy  Dy0  1  0.000000  0.500000  0.749552  1
  Dy  Dy1  1  0.500000  0.000000  0.250448  1
  Dy  Dy2  1  0.500000  0.500000  0.500000  1
  Er  Er3  1  0.500000  0.500000  0.000000  1
  Si  Si4  1  0.000000  0.000000  0.957004  1
  Si  Si5  1  0.000000  0.000000  0.456815  1
  Si  Si6  1  0.500000  0.000000  0.792975  1
  Si  Si7  1  0.500000  0.000000  0.706364  1
  Si  Si8  1  0.000000  0.500000  0.207025  1
  Si  Si9  1  0.000000  0.500000  0.293636  1
  Si  Si10  1  0.000000  0.000000  0.042996  1
  Si  Si11  1  0.000000  0.000000  0.543185  1
  Au  Au12  1  0.500000  0.000000  0.085151  1
  Au  Au13  1  0.500000  0.500000  0.663461  1
  Au  Au14  1  0.500000  0.500000  0.835865  1
  Au  Au15  1  0.000000  0.500000  0.084600  1
  Au  Au16  1  0.500000  0.000000  0.915400  1
  Au  Au17  1  0.000000  0.000000  0.664519  1
  Au  Au18  1  0.000000  0.500000  0.414974  1
  Au  Au19  1  0.500000  0.500000  0.336539  1
  Au  Au20  1  0.500000  0.000000  0.414380  1
  Au  Au21  1  0.000000  0.000000  0.335481  1
  Au  Au22  1  0.000000  0.000000  0.165056  1
  Au  Au23  1  0.500000  0.000000  0.585026  1
  Au  Au24  1  0.000000  0.000000  0.834944  1
  Au  Au25  1  0.500000  0.500000  0.164135  1
  Au  Au26  1  0.000000  0.500000  0.585620  1
  Au  Au27  1  0.000000  0.500000  0.914849  1
