# generated using pymatgen
data_Ho3HfAl17SiIr6
_symmetry_space_group_name_H-M   'P 1'
_cell_length_a   7.52931553
_cell_length_b   7.52149408
_cell_length_c   9.33682400
_cell_angle_alpha   90.00000000
_cell_angle_beta   90.00000000
_cell_angle_gamma   119.70218122
_symmetry_Int_Tables_number   1
_chemical_formula_structural   Ho3HfAl17SiIr6
_chemical_formula_sum   'Ho3 Hf1 Al17 Si1 Ir6'
_cell_volume   459.28783095
_cell_formula_units_Z   1
loop_
 _symmetry_equiv_pos_site_id
 _symmetry_equiv_pos_as_xyz
  1  'x, y, z'
loop_
 _atom_site_type_symbol
 _atom_site_label
 _atom_site_symmetry_multiplicity
 _atom_site_fract_x
 _atom_site_fract_y
 _atom_site_fract_z
 _atom_site_occupancy
  Ho  Ho0  1  0.005931  0.324263  0.750000  1
  Ho  Ho1  1  0.670871  0.995190  0.250000  1
  Ho  Ho2  1  0.325343  0.006461  0.750000  1
  Hf  Hf3  1  0.995663  0.671635  0.250000  1
  Al  Al4  1  0.124578  0.122201  0.250000  1
  Al  Al5  1  0.000515  0.337637  0.078918  1
  Al  Al6  1  0.999875  0.663528  0.927375  1
  Al  Al7  1  0.999875  0.663528  0.572625  1
  Al  Al8  1  0.331953  0.998244  0.421050  1
  Al  Al9  1  0.000515  0.337637  0.421082  1
  Al  Al10  1  0.663076  0.998885  0.576497  1
  Al  Al11  1  0.663076  0.998885  0.923503  1
  Al  Al12  1  0.331953  0.998244  0.078950  1
  Al  Al13  1  0.335861  0.335966  0.551814  1
  Al  Al14  1  0.669745  0.667358  0.438704  1
  Al  Al15  1  0.669745  0.667358  0.061296  1
  Al  Al16  1  0.335861  0.335966  0.948186  1
  Al  Al17  1  0.335066  0.548616  0.250000  1
  Al  Al18  1  0.664731  0.452256  0.750000  1
  Al  Al19  1  0.553634  0.342688  0.250000  1
  Al  Al20  1  0.450172  0.662513  0.750000  1
  Si  Si21  1  0.868714  0.867708  0.750000  1
  Ir  Ir22  1  0.673661  0.329493  0.000574  1
  Ir  Ir23  1  0.329361  0.673755  0.001064  1
  Ir  Ir24  1  0.329361  0.673755  0.498936  1
  Ir  Ir25  1  0.673661  0.329493  0.499426  1
  Ir  Ir26  1  0.998600  0.998368  0.994909  1
  Ir  Ir27  1  0.998600  0.998368  0.505091  1
