# generated using pymatgen
data_TbEr2Al12Os3Pd
_symmetry_space_group_name_H-M   'P 1'
_cell_length_a   8.80311900
_cell_length_b   8.84488884
_cell_length_c   9.56706456
_cell_angle_alpha   89.80116140
_cell_angle_beta   90.00000000
_cell_angle_gamma   119.84390035
_symmetry_Int_Tables_number   1
_chemical_formula_structural   TbEr2Al12Os3Pd
_chemical_formula_sum   'Tb2 Er4 Al24 Os6 Pd2'
_cell_volume   646.12388320
_cell_formula_units_Z   2
loop_
 _symmetry_equiv_pos_site_id
 _symmetry_equiv_pos_as_xyz
  1  'x, y, z'
loop_
 _atom_site_type_symbol
 _atom_site_label
 _atom_site_symmetry_multiplicity
 _atom_site_fract_x
 _atom_site_fract_y
 _atom_site_fract_z
 _atom_site_occupancy
  Tb  Tb0  1  0.192316  0.384634  0.253158  1
  Tb  Tb1  1  0.807684  0.615366  0.746842  1
  Er  Er2  1  0.611755  0.809647  0.254070  1
  Er  Er3  1  0.388245  0.190353  0.745930  1
  Er  Er4  1  0.197891  0.809647  0.254070  1
  Er  Er5  1  0.802109  0.190353  0.745930  1
  Al  Al6  1  0.335792  0.671585  0.026632  1
  Al  Al7  1  0.664208  0.328415  0.973368  1
  Al  Al8  1  0.666653  0.333304  0.521701  1
  Al  Al9  1  0.333347  0.666696  0.478299  1
  Al  Al10  1  0.163350  0.326701  0.575615  1
  Al  Al11  1  0.836650  0.673299  0.424385  1
  Al  Al12  1  0.672230  0.835362  0.576072  1
  Al  Al13  1  0.838715  0.677430  0.080995  1
  Al  Al14  1  0.327770  0.164638  0.423928  1
  Al  Al15  1  0.161285  0.322570  0.919005  1
  Al  Al16  1  0.163132  0.835362  0.576072  1
  Al  Al17  1  0.325555  0.157568  0.078809  1
  Al  Al18  1  0.836868  0.164638  0.423928  1
  Al  Al19  1  0.674445  0.842432  0.921191  1
  Al  Al20  1  0.832013  0.157568  0.078809  1
  Al  Al21  1  0.167987  0.842432  0.921191  1
  Al  Al22  1  0.561921  0.123844  0.248946  1
  Al  Al23  1  0.438079  0.876156  0.751054  1
  Al  Al24  1  0.875776  0.438616  0.251591  1
  Al  Al25  1  0.124224  0.561384  0.748409  1
  Al  Al26  1  0.562842  0.438616  0.251591  1
  Al  Al27  1  0.437158  0.561384  0.748409  1
  Al  Al28  1  0.000774  0.001549  0.250465  1
  Al  Al29  1  0.999226  0.998451  0.749535  1
  Os  Os30  1  0.500000  0.000000  0.000000  1
  Os  Os31  1  0.500000  0.000000  0.500000  1
  Os  Os32  1  0.000000  0.500000  0.500000  1
  Os  Os33  1  0.500000  0.500000  0.500000  1
  Os  Os34  1  0.000000  0.000000  0.000000  1
  Os  Os35  1  0.000000  0.000000  0.500000  1
  Pd  Pd36  1  0.000000  0.500000  0.000000  1
  Pd  Pd37  1  0.500000  0.500000  0.000000  1
