# generated using pymatgen
data_CeEr3(TcB6)2
_symmetry_space_group_name_H-M   'P 1'
_cell_length_a   3.69041100
_cell_length_b   9.14339915
_cell_length_c   11.52505407
_cell_angle_alpha   90.11416793
_cell_angle_beta   90.00000000
_cell_angle_gamma   90.00000000
_symmetry_Int_Tables_number   1
_chemical_formula_structural   CeEr3(TcB6)2
_chemical_formula_sum   'Ce2 Er6 Tc4 B24'
_cell_volume   388.88798395
_cell_formula_units_Z   2
loop_
 _symmetry_equiv_pos_site_id
 _symmetry_equiv_pos_as_xyz
  1  'x, y, z'
loop_
 _atom_site_type_symbol
 _atom_site_label
 _atom_site_symmetry_multiplicity
 _atom_site_fract_x
 _atom_site_fract_y
 _atom_site_fract_z
 _atom_site_occupancy
  Ce  Ce0  1  0.000000  0.322208  0.413754  1
  Ce  Ce1  1  0.000000  0.677792  0.586246  1
  Er  Er2  1  0.000000  0.824180  0.084906  1
  Er  Er3  1  0.000000  0.175820  0.915094  1
  Er  Er4  1  0.000000  0.943132  0.369243  1
  Er  Er5  1  0.000000  0.056868  0.630757  1
  Er  Er6  1  0.000000  0.442595  0.128824  1
  Er  Er7  1  0.000000  0.557405  0.871176  1
  Tc  Tc8  1  0.000000  0.638198  0.320825  1
  Tc  Tc9  1  0.000000  0.361802  0.679175  1
  Tc  Tc10  1  0.000000  0.139038  0.179775  1
  Tc  Tc11  1  0.000000  0.860962  0.820225  1
  B  B12  1  0.500000  0.554457  0.431190  1
  B  B13  1  0.500000  0.445543  0.568810  1
  B  B14  1  0.500000  0.053422  0.066434  1
  B  B15  1  0.500000  0.946578  0.933566  1
  B  B16  1  0.500000  0.749741  0.416817  1
  B  B17  1  0.500000  0.250259  0.583183  1
  B  B18  1  0.500000  0.248757  0.080372  1
  B  B19  1  0.500000  0.751243  0.919628  1
  B  B20  1  0.500000  0.792099  0.263838  1
  B  B21  1  0.500000  0.207901  0.736162  1
  B  B22  1  0.500000  0.291024  0.233430  1
  B  B23  1  0.500000  0.708976  0.766570  1
  B  B24  1  0.500000  0.631025  0.184162  1
  B  B25  1  0.500000  0.368975  0.815838  1
  B  B26  1  0.500000  0.130287  0.313501  1
  B  B27  1  0.500000  0.869713  0.686499  1
  B  B28  1  0.500000  0.981965  0.210923  1
  B  B29  1  0.500000  0.018035  0.789077  1
  B  B30  1  0.500000  0.483437  0.286342  1
  B  B31  1  0.500000  0.516563  0.713658  1
  B  B32  1  0.500000  0.601793  0.028245  1
  B  B33  1  0.500000  0.398207  0.971755  1
  B  B34  1  0.500000  0.100962  0.471957  1
  B  B35  1  0.500000  0.899038  0.528043  1
