# generated using pymatgen
data_YHo5(GaIr2)6
_symmetry_space_group_name_H-M   'P 1'
_cell_length_a   5.56569400
_cell_length_b   5.56569503
_cell_length_c   15.80915600
_cell_angle_alpha   90.00000000
_cell_angle_beta   90.00000000
_cell_angle_gamma   120.00000579
_symmetry_Int_Tables_number   1
_chemical_formula_structural   YHo5(GaIr2)6
_chemical_formula_sum   'Y1 Ho5 Ga6 Ir12'
_cell_volume   424.10952066
_cell_formula_units_Z   1
loop_
 _symmetry_equiv_pos_site_id
 _symmetry_equiv_pos_as_xyz
  1  'x, y, z'
loop_
 _atom_site_type_symbol
 _atom_site_label
 _atom_site_symmetry_multiplicity
 _atom_site_fract_x
 _atom_site_fract_y
 _atom_site_fract_z
 _atom_site_occupancy
  Y  Y0  1  0.666667  0.333333  0.250000  1
  Ho  Ho1  1  0.333333  0.666667  0.539660  1
  Ho  Ho2  1  0.666667  0.333333  0.460206  1
  Ho  Ho3  1  0.666667  0.333333  0.039794  1
  Ho  Ho4  1  0.333333  0.666667  0.960340  1
  Ho  Ho5  1  0.333333  0.666667  0.750000  1
  Ga  Ga6  1  0.000000  0.000000  0.250000  1
  Ga  Ga7  1  0.000000  0.000000  0.750000  1
  Ga  Ga8  1  0.333333  0.666667  0.250000  1
  Ga  Ga9  1  0.666667  0.333333  0.750000  1
  Ga  Ga10  1  0.000000  0.000000  0.999973  1
  Ga  Ga11  1  0.000000  0.000000  0.500027  1
  Ir  Ir12  1  0.169650  0.339300  0.125151  1
  Ir  Ir13  1  0.830326  0.660652  0.874754  1
  Ir  Ir14  1  0.660700  0.830350  0.125151  1
  Ir  Ir15  1  0.830326  0.660652  0.625246  1
  Ir  Ir16  1  0.339348  0.169674  0.874754  1
  Ir  Ir17  1  0.169650  0.339300  0.374849  1
  Ir  Ir18  1  0.169650  0.830350  0.125151  1
  Ir  Ir19  1  0.339348  0.169674  0.625246  1
  Ir  Ir20  1  0.830326  0.169674  0.874754  1
  Ir  Ir21  1  0.660700  0.830350  0.374849  1
  Ir  Ir22  1  0.830326  0.169674  0.625246  1
  Ir  Ir23  1  0.169650  0.830350  0.374849  1
