# generated using pymatgen
data_Y5In4PdPt
_symmetry_space_group_name_H-M   'P 1'
_cell_length_a   3.63760800
_cell_length_b   8.17595598
_cell_length_c   18.30641521
_cell_angle_alpha   90.10097259
_cell_angle_beta   90.00000000
_cell_angle_gamma   90.00000000
_symmetry_Int_Tables_number   1
_chemical_formula_structural   Y5In4PdPt
_chemical_formula_sum   'Y10 In8 Pd2 Pt2'
_cell_volume   544.44883758
_cell_formula_units_Z   2
loop_
 _symmetry_equiv_pos_site_id
 _symmetry_equiv_pos_as_xyz
  1  'x, y, z'
loop_
 _atom_site_type_symbol
 _atom_site_label
 _atom_site_symmetry_multiplicity
 _atom_site_fract_x
 _atom_site_fract_y
 _atom_site_fract_z
 _atom_site_occupancy
  Y  Y0  1  0.000000  0.118504  0.416199  1
  Y  Y1  1  0.000000  0.881496  0.583801  1
  Y  Y2  1  0.000000  0.382341  0.915613  1
  Y  Y3  1  0.000000  0.617659  0.084387  1
  Y  Y4  1  0.000000  0.245846  0.218987  1
  Y  Y5  1  0.000000  0.754154  0.781013  1
  Y  Y6  1  0.000000  0.261379  0.720038  1
  Y  Y7  1  0.000000  0.738621  0.279962  1
  Y  Y8  1  0.000000  0.000000  0.000000  1
  Y  Y9  1  0.000000  0.500000  0.500000  1
  In  In10  1  0.500000  0.421677  0.350945  1
  In  In11  1  0.500000  0.578323  0.649055  1
  In  In12  1  0.500000  0.075739  0.850162  1
  In  In13  1  0.500000  0.924261  0.149838  1
  In  In14  1  0.500000  0.292290  0.066648  1
  In  In15  1  0.500000  0.707710  0.933352  1
  In  In16  1  0.500000  0.206700  0.567396  1
  In  In17  1  0.500000  0.793300  0.432604  1
  Pd  Pd18  1  0.500000  0.024391  0.303429  1
  Pd  Pd19  1  0.500000  0.975609  0.696571  1
  Pt  Pt20  1  0.500000  0.475206  0.803406  1
  Pt  Pt21  1  0.500000  0.524794  0.196594  1
