# generated using pymatgen
data_La2NdGd3(RuO7)2
_symmetry_space_group_name_H-M   'P 1'
_cell_length_a   6.57398363
_cell_length_b   6.56586558
_cell_length_c   7.60398800
_cell_angle_alpha   90.00000000
_cell_angle_beta   90.00000000
_cell_angle_gamma   110.50934799
_symmetry_Int_Tables_number   1
_chemical_formula_structural   La2NdGd3(RuO7)2
_chemical_formula_sum   'La2 Nd1 Gd3 Ru2 O14'
_cell_volume   307.41365579
_cell_formula_units_Z   1
loop_
 _symmetry_equiv_pos_site_id
 _symmetry_equiv_pos_as_xyz
  1  'x, y, z'
loop_
 _atom_site_type_symbol
 _atom_site_label
 _atom_site_symmetry_multiplicity
 _atom_site_fract_x
 _atom_site_fract_y
 _atom_site_fract_z
 _atom_site_occupancy
  La  La0  1  0.999996  0.002304  0.499459  1
  La  La1  1  0.999996  0.002304  0.000541  1
  Nd  Nd2  1  0.474660  0.916675  0.750000  1
  Gd  Gd3  1  0.520887  0.071112  0.250000  1
  Gd  Gd4  1  0.925668  0.479585  0.750000  1
  Gd  Gd5  1  0.072159  0.521831  0.250000  1
  Ru  Ru6  1  0.501144  0.498875  0.498489  1
  Ru  Ru7  1  0.501144  0.498875  0.001511  1
  O  O8  1  0.586250  0.580044  0.750000  1
  O  O9  1  0.413397  0.415335  0.250000  1
  O  O10  1  0.842184  0.118016  0.750000  1
  O  O11  1  0.162089  0.886218  0.250000  1
  O  O12  1  0.103304  0.839241  0.750000  1
  O  O13  1  0.886775  0.163897  0.250000  1
  O  O14  1  0.438446  0.184294  0.966416  1
  O  O15  1  0.563897  0.814302  0.459229  1
  O  O16  1  0.189142  0.450227  0.962195  1
  O  O17  1  0.813689  0.554021  0.462124  1
  O  O18  1  0.438446  0.184294  0.533584  1
  O  O19  1  0.563897  0.814302  0.040771  1
  O  O20  1  0.813689  0.554021  0.037876  1
  O  O21  1  0.189142  0.450227  0.537805  1
