# generated using pymatgen
data_K2LiHoBi2
_symmetry_space_group_name_H-M   'P 1'
_cell_length_a   11.10099074
_cell_length_b   11.10099186
_cell_length_c   7.23985800
_cell_angle_alpha   90.00000000
_cell_angle_beta   90.00000000
_cell_angle_gamma   98.74179954
_symmetry_Int_Tables_number   1
_chemical_formula_structural   K2LiHoBi2
_chemical_formula_sum   'K8 Li4 Ho4 Bi8'
_cell_volume   881.81800055
_cell_formula_units_Z   4
loop_
 _symmetry_equiv_pos_site_id
 _symmetry_equiv_pos_as_xyz
  1  'x, y, z'
loop_
 _atom_site_type_symbol
 _atom_site_label
 _atom_site_symmetry_multiplicity
 _atom_site_fract_x
 _atom_site_fract_y
 _atom_site_fract_z
 _atom_site_occupancy
  K  K0  1  0.569897  0.930103  0.750000  1
  K  K1  1  0.930103  0.569897  0.250000  1
  K  K2  1  0.430103  0.069897  0.250000  1
  K  K3  1  0.069897  0.430103  0.750000  1
  K  K4  1  0.677192  0.322808  0.788814  1
  K  K5  1  0.822808  0.177192  0.288814  1
  K  K6  1  0.322808  0.677192  0.211186  1
  K  K7  1  0.177192  0.822808  0.711186  1
  Li  Li8  1  0.620184  0.620184  0.000000  1
  Li  Li9  1  0.879816  0.879816  0.500000  1
  Li  Li10  1  0.379816  0.379816  0.000000  1
  Li  Li11  1  0.120184  0.120184  0.500000  1
  Ho  Ho12  1  0.869579  0.869579  0.000000  1
  Ho  Ho13  1  0.630421  0.630421  0.500000  1
  Ho  Ho14  1  0.130421  0.130421  0.000000  1
  Ho  Ho15  1  0.369579  0.369579  0.500000  1
  Bi  Bi16  1  0.353434  0.146566  0.750000  1
  Bi  Bi17  1  0.146566  0.353434  0.250000  1
  Bi  Bi18  1  0.646566  0.853434  0.250000  1
  Bi  Bi19  1  0.853434  0.646566  0.750000  1
  Bi  Bi20  1  0.899178  0.100822  0.757620  1
  Bi  Bi21  1  0.600822  0.399178  0.257620  1
  Bi  Bi22  1  0.100822  0.899178  0.242380  1
  Bi  Bi23  1  0.399178  0.600822  0.742380  1
