# generated using pymatgen
data_Nd4Pt3Au
_symmetry_space_group_name_H-M   'P 1'
_cell_length_a   4.66980000
_cell_length_b   5.79181697
_cell_length_c   7.37092622
_cell_angle_alpha   90.30988649
_cell_angle_beta   90.00000000
_cell_angle_gamma   90.00000000
_symmetry_Int_Tables_number   1
_chemical_formula_structural   Nd4Pt3Au
_chemical_formula_sum   'Nd4 Pt3 Au1'
_cell_volume   199.35577539
_cell_formula_units_Z   1
loop_
 _symmetry_equiv_pos_site_id
 _symmetry_equiv_pos_as_xyz
  1  'x, y, z'
loop_
 _atom_site_type_symbol
 _atom_site_label
 _atom_site_symmetry_multiplicity
 _atom_site_fract_x
 _atom_site_fract_y
 _atom_site_fract_z
 _atom_site_occupancy
  Nd  Nd0  1  0.250000  0.358629  0.687414  1
  Nd  Nd1  1  0.250000  0.142408  0.179728  1
  Nd  Nd2  1  0.750000  0.633261  0.308663  1
  Nd  Nd3  1  0.750000  0.861996  0.826202  1
  Pt  Pt4  1  0.250000  0.654849  0.042796  1
  Pt  Pt5  1  0.750000  0.150348  0.457888  1
  Pt  Pt6  1  0.750000  0.346253  0.955744  1
  Au  Au7  1  0.250000  0.852256  0.541565  1
