# generated using pymatgen
data_Tm12Ni4AgSn
_symmetry_space_group_name_H-M   'P 1'
_cell_length_a   8.26367093
_cell_length_b   8.26178027
_cell_length_c   8.25862023
_cell_angle_alpha   106.65327325
_cell_angle_beta   109.37851358
_cell_angle_gamma   112.45672854
_symmetry_Int_Tables_number   1
_chemical_formula_structural   Tm12Ni4AgSn
_chemical_formula_sum   'Tm12 Ni4 Ag1 Sn1'
_cell_volume   432.80482275
_cell_formula_units_Z   1
loop_
 _symmetry_equiv_pos_site_id
 _symmetry_equiv_pos_as_xyz
  1  'x, y, z'
loop_
 _atom_site_type_symbol
 _atom_site_label
 _atom_site_symmetry_multiplicity
 _atom_site_fract_x
 _atom_site_fract_y
 _atom_site_fract_z
 _atom_site_occupancy
  Tm  Tm0  1  0.699957  0.275103  0.975011  1
  Tm  Tm1  1  0.300064  0.725247  0.025363  1
  Tm  Tm2  1  0.699972  0.724818  0.424802  1
  Tm  Tm3  1  0.300025  0.274832  0.574842  1
  Tm  Tm4  1  0.806267  0.129966  0.323758  1
  Tm  Tm5  1  0.806200  0.482589  0.676347  1
  Tm  Tm6  1  0.193706  0.870033  0.676204  1
  Tm  Tm7  1  0.193758  0.517398  0.323613  1
  Tm  Tm8  1  0.611883  0.793033  0.818878  1
  Tm  Tm9  1  0.973921  0.792914  0.181112  1
  Tm  Tm10  1  0.025927  0.206978  0.818852  1
  Tm  Tm11  1  0.388204  0.207098  0.181084  1
  Ni  Ni12  1  0.857207  0.499997  0.357292  1
  Ni  Ni13  1  0.143032  0.499964  0.642946  1
  Ni  Ni14  1  0.000087  0.126098  0.126228  1
  Ni  Ni15  1  0.999995  0.873916  0.873865  1
  Ag  Ag16  1  0.499741  0.500007  0.999733  1
  Sn  Sn17  1  0.500052  0.000010  0.500068  1
