# generated using pymatgen
data_Dy2Mg2SnPb
_symmetry_space_group_name_H-M   'P 1'
_cell_length_a   4.43630236
_cell_length_b   4.43630270
_cell_length_c   8.58879967
_cell_angle_alpha   104.96689383
_cell_angle_beta   104.96689105
_cell_angle_gamma   90.00000580
_symmetry_Int_Tables_number   1
_chemical_formula_structural   Dy2Mg2SnPb
_chemical_formula_sum   'Dy2 Mg2 Sn1 Pb1'
_cell_volume   157.35653648
_cell_formula_units_Z   1
loop_
 _symmetry_equiv_pos_site_id
 _symmetry_equiv_pos_as_xyz
  1  'x, y, z'
loop_
 _atom_site_type_symbol
 _atom_site_label
 _atom_site_symmetry_multiplicity
 _atom_site_fract_x
 _atom_site_fract_y
 _atom_site_fract_z
 _atom_site_occupancy
  Dy  Dy0  1  0.667206  0.667206  0.334414  1
  Dy  Dy1  1  0.334424  0.334424  0.668848  1
  Mg  Mg2  1  0.498767  0.998767  0.997533  1
  Mg  Mg3  1  0.998767  0.498767  0.997533  1
  Sn  Sn4  1  0.863883  0.863883  0.727766  1
  Pb  Pb5  1  0.136953  0.136953  0.273906  1
