# generated using pymatgen
data_Th6Al24Ir3Os5
_symmetry_space_group_name_H-M   'P 1'
_cell_length_a   8.97964400
_cell_length_b   8.98085006
_cell_length_c   9.55686900
_cell_angle_alpha   89.86217764
_cell_angle_beta   90.00000000
_cell_angle_gamma   119.99555039
_symmetry_Int_Tables_number   1
_chemical_formula_structural   Th6Al24Ir3Os5
_chemical_formula_sum   'Th6 Al24 Ir3 Os5'
_cell_volume   667.48363929
_cell_formula_units_Z   1
loop_
 _symmetry_equiv_pos_site_id
 _symmetry_equiv_pos_as_xyz
  1  'x, y, z'
loop_
 _atom_site_type_symbol
 _atom_site_label
 _atom_site_symmetry_multiplicity
 _atom_site_fract_x
 _atom_site_fract_y
 _atom_site_fract_z
 _atom_site_occupancy
  Th  Th0  1  0.806268  0.612535  0.748339  1
  Th  Th1  1  0.193689  0.806307  0.250780  1
  Th  Th2  1  0.612621  0.806307  0.250780  1
  Th  Th3  1  0.387379  0.193693  0.749220  1
  Th  Th4  1  0.806311  0.193693  0.749220  1
  Th  Th5  1  0.193732  0.387465  0.251661  1
  Al  Al6  1  0.332573  0.665147  0.484909  1
  Al  Al7  1  0.665923  0.331848  0.983302  1
  Al  Al8  1  0.667427  0.334853  0.515091  1
  Al  Al9  1  0.334077  0.668152  0.016698  1
  Al  Al10  1  0.162823  0.325646  0.577776  1
  Al  Al11  1  0.674460  0.835886  0.577222  1
  Al  Al12  1  0.161426  0.835886  0.577222  1
  Al  Al13  1  0.835877  0.161302  0.077473  1
  Al  Al14  1  0.838574  0.164114  0.422778  1
  Al  Al15  1  0.837367  0.674735  0.077136  1
  Al  Al16  1  0.325426  0.161302  0.077473  1
  Al  Al17  1  0.674574  0.838698  0.922527  1
  Al  Al18  1  0.162633  0.325265  0.922864  1
  Al  Al19  1  0.837177  0.674354  0.422224  1
  Al  Al20  1  0.000036  0.000070  0.250149  1
  Al  Al21  1  0.999964  0.999930  0.749851  1
  Al  Al22  1  0.563947  0.127895  0.248707  1
  Al  Al23  1  0.436037  0.563859  0.749371  1
  Al  Al24  1  0.127822  0.563859  0.749371  1
  Al  Al25  1  0.872178  0.436141  0.250629  1
  Al  Al26  1  0.563963  0.436141  0.250629  1
  Al  Al27  1  0.436053  0.872105  0.751293  1
  Al  Al28  1  0.164123  0.838698  0.922527  1
  Al  Al29  1  0.325540  0.164114  0.422778  1
  Ir  Ir30  1  0.500000  0.000000  0.500000  1
  Ir  Ir31  1  0.500000  0.500000  0.000000  1
  Ir  Ir32  1  0.000000  0.500000  0.000000  1
  Os  Os33  1  0.000000  0.000000  0.500000  1
  Os  Os34  1  0.000000  0.000000  0.000000  1
  Os  Os35  1  0.000000  0.500000  0.500000  1
  Os  Os36  1  0.500000  0.500000  0.500000  1
  Os  Os37  1  0.500000  0.000000  0.000000  1
