# generated using pymatgen
data_Dy6Tm10Al4TcNi3
_symmetry_space_group_name_H-M   'P 1'
_cell_length_a   9.37311933
_cell_length_b   9.37311933
_cell_length_c   9.37312000
_cell_angle_alpha   60.08293100
_cell_angle_beta   60.08293475
_cell_angle_gamma   60.08292315
_symmetry_Int_Tables_number   1
_chemical_formula_structural   Dy6Tm10Al4TcNi3
_chemical_formula_sum   'Dy6 Tm10 Al4 Tc1 Ni3'
_cell_volume   583.38176209
_cell_formula_units_Z   1
loop_
 _symmetry_equiv_pos_site_id
 _symmetry_equiv_pos_as_xyz
  1  'x, y, z'
loop_
 _atom_site_type_symbol
 _atom_site_label
 _atom_site_symmetry_multiplicity
 _atom_site_fract_x
 _atom_site_fract_y
 _atom_site_fract_z
 _atom_site_occupancy
  Dy  Dy0  1  0.185642  0.814479  0.814479  1
  Dy  Dy1  1  0.804907  0.190697  0.190697  1
  Dy  Dy2  1  0.814479  0.185642  0.814479  1
  Dy  Dy3  1  0.190697  0.804907  0.190697  1
  Dy  Dy4  1  0.814479  0.814479  0.185642  1
  Dy  Dy5  1  0.190697  0.190697  0.804907  1
  Tm  Tm6  1  0.600235  0.600235  0.600235  1
  Tm  Tm7  1  0.603865  0.603865  0.195313  1
  Tm  Tm8  1  0.603865  0.195313  0.603865  1
  Tm  Tm9  1  0.195313  0.603865  0.603865  1
  Tm  Tm10  1  0.057699  0.441533  0.441533  1
  Tm  Tm11  1  0.439708  0.058403  0.058403  1
  Tm  Tm12  1  0.441533  0.057699  0.441533  1
  Tm  Tm13  1  0.058403  0.439708  0.058403  1
  Tm  Tm14  1  0.441533  0.441533  0.057699  1
  Tm  Tm15  1  0.058403  0.058403  0.439708  1
  Al  Al16  1  0.826822  0.826822  0.826822  1
  Al  Al17  1  0.825893  0.825893  0.518010  1
  Al  Al18  1  0.825893  0.518010  0.825893  1
  Al  Al19  1  0.518010  0.825893  0.825893  1
  Tc  Tc20  1  0.394081  0.394081  0.394081  1
  Ni  Ni21  1  0.391551  0.391551  0.824739  1
  Ni  Ni22  1  0.391551  0.824739  0.391551  1
  Ni  Ni23  1  0.824739  0.391551  0.391551  1
