# generated using pymatgen
data_Tb3Zr2P12Ru9Rh10
_symmetry_space_group_name_H-M   'P 1'
_cell_length_a   3.91979600
_cell_length_b   12.58910253
_cell_length_c   12.58895208
_cell_angle_alpha   120.00039643
_cell_angle_beta   90.00000000
_cell_angle_gamma   90.00000000
_symmetry_Int_Tables_number   1
_chemical_formula_structural   Tb3Zr2P12Ru9Rh10
_chemical_formula_sum   'Tb3 Zr2 P12 Ru9 Rh10'
_cell_volume   537.99310907
_cell_formula_units_Z   1
loop_
 _symmetry_equiv_pos_site_id
 _symmetry_equiv_pos_as_xyz
  1  'x, y, z'
loop_
 _atom_site_type_symbol
 _atom_site_label
 _atom_site_symmetry_multiplicity
 _atom_site_fract_x
 _atom_site_fract_y
 _atom_site_fract_z
 _atom_site_occupancy
  Tb  Tb0  1  0.500000  0.000006  0.186462  1
  Tb  Tb1  1  0.500000  0.186448  0.000000  1
  Tb  Tb2  1  0.500000  0.813545  0.813538  1
  Zr  Zr3  1  0.000000  0.333331  0.666666  1
  Zr  Zr4  1  0.000000  0.666665  0.333334  1
  P  P5  1  0.000000  0.999986  0.817922  1
  P  P6  1  0.000000  0.817935  0.000000  1
  P  P7  1  0.000000  0.182063  0.182078  1
  P  P8  1  0.500000  0.310720  0.484146  1
  P  P9  1  0.500000  0.173430  0.689277  1
  P  P10  1  0.500000  0.515853  0.826567  1
  P  P11  1  0.500000  0.826574  0.515854  1
  P  P12  1  0.500000  0.484152  0.310723  1
  P  P13  1  0.500000  0.689287  0.173433  1
  P  P14  1  0.000000  0.999996  0.367892  1
  P  P15  1  0.000000  0.367858  0.000000  1
  P  P16  1  0.000000  0.632104  0.632108  1
  Ru  Ru17  1  0.500000  0.999983  0.714635  1
  Ru  Ru18  1  0.500000  0.714658  0.000000  1
  Ru  Ru19  1  0.500000  0.285349  0.285365  1
  Ru  Ru20  1  0.500000  0.129924  0.492369  1
  Ru  Ru21  1  0.500000  0.362412  0.870064  1
  Ru  Ru22  1  0.500000  0.507652  0.637568  1
  Ru  Ru23  1  0.500000  0.637554  0.507631  1
  Ru  Ru24  1  0.500000  0.492349  0.129936  1
  Ru  Ru25  1  0.500000  0.870084  0.362432  1
  Rh  Rh26  1  0.000000  0.999997  0.549416  1
  Rh  Rh27  1  0.000000  0.549404  0.000000  1
  Rh  Rh28  1  0.000000  0.450580  0.450584  1
  Rh  Rh29  1  0.000000  0.194610  0.378056  1
  Rh  Rh30  1  0.000000  0.183427  0.805370  1
  Rh  Rh31  1  0.000000  0.621947  0.816543  1
  Rh  Rh32  1  0.000000  0.816553  0.621944  1
  Rh  Rh33  1  0.000000  0.378058  0.194630  1
  Rh  Rh34  1  0.000000  0.805404  0.183457  1
  Rh  Rh35  1  0.000000  0.000001  0.000000  1
