# generated using pymatgen
data_LaPr(Ga3Ir)3
_symmetry_space_group_name_H-M   'P 1'
_cell_length_a   7.68127099
_cell_length_b   7.68993907
_cell_length_c   9.66829300
_cell_angle_alpha   90.00000000
_cell_angle_beta   90.00000000
_cell_angle_gamma   119.67862127
_symmetry_Int_Tables_number   1
_chemical_formula_structural   LaPr(Ga3Ir)3
_chemical_formula_sum   'La2 Pr2 Ga18 Ir6'
_cell_volume   496.17372403
_cell_formula_units_Z   2
loop_
 _symmetry_equiv_pos_site_id
 _symmetry_equiv_pos_as_xyz
  1  'x, y, z'
loop_
 _atom_site_type_symbol
 _atom_site_label
 _atom_site_symmetry_multiplicity
 _atom_site_fract_x
 _atom_site_fract_y
 _atom_site_fract_z
 _atom_site_occupancy
  La  La0  1  0.997110  0.667967  0.750000  1
  La  La1  1  0.002890  0.332033  0.250000  1
  Pr  Pr2  1  0.669158  0.997441  0.750000  1
  Pr  Pr3  1  0.330842  0.002559  0.250000  1
  Ga  Ga4  1  0.130075  0.129811  0.750000  1
  Ga  Ga5  1  0.869925  0.870189  0.250000  1
  Ga  Ga6  1  0.002268  0.333060  0.578221  1
  Ga  Ga7  1  0.997732  0.666940  0.421779  1
  Ga  Ga8  1  0.997732  0.666940  0.078221  1
  Ga  Ga9  1  0.335883  0.002498  0.923285  1
  Ga  Ga10  1  0.002268  0.333060  0.921779  1
  Ga  Ga11  1  0.664117  0.997502  0.076715  1
  Ga  Ga12  1  0.664117  0.997502  0.423285  1
  Ga  Ga13  1  0.335883  0.002498  0.576715  1
  Ga  Ga14  1  0.334870  0.333782  0.058455  1
  Ga  Ga15  1  0.665130  0.666218  0.941545  1
  Ga  Ga16  1  0.665130  0.666218  0.558455  1
  Ga  Ga17  1  0.334870  0.333782  0.441545  1
  Ga  Ga18  1  0.340679  0.544660  0.750000  1
  Ga  Ga19  1  0.659321  0.455340  0.250000  1
  Ga  Ga20  1  0.542224  0.336884  0.750000  1
  Ga  Ga21  1  0.457776  0.663116  0.250000  1
  Ir  Ir22  1  0.671312  0.329960  0.500168  1
  Ir  Ir23  1  0.328688  0.670040  0.499832  1
  Ir  Ir24  1  0.328688  0.670040  0.000168  1
  Ir  Ir25  1  0.671312  0.329960  0.999832  1
  Ir  Ir26  1  0.000000  0.000000  0.500000  1
  Ir  Ir27  1  0.000000  0.000000  0.000000  1
