# generated using pymatgen
data_LaYb11(ErSn2)8
_symmetry_space_group_name_H-M   'P 1'
_cell_length_a   7.82506093
_cell_length_b   8.41555570
_cell_length_c   15.96692433
_cell_angle_alpha   90.03950462
_cell_angle_beta   90.18293308
_cell_angle_gamma   89.89992084
_symmetry_Int_Tables_number   1
_chemical_formula_structural   LaYb11(ErSn2)8
_chemical_formula_sum   'La1 Yb11 Er8 Sn16'
_cell_volume   1051.45046260
_cell_formula_units_Z   1
loop_
 _symmetry_equiv_pos_site_id
 _symmetry_equiv_pos_as_xyz
  1  'x, y, z'
loop_
 _atom_site_type_symbol
 _atom_site_label
 _atom_site_symmetry_multiplicity
 _atom_site_fract_x
 _atom_site_fract_y
 _atom_site_fract_z
 _atom_site_occupancy
  La  La0  1  0.504666  0.682023  0.593217  1
  Yb  Yb1  1  0.003140  0.812831  0.908465  1
  Yb  Yb2  1  0.496379  0.313471  0.092787  1
  Yb  Yb3  1  0.998382  0.187418  0.406446  1
  Yb  Yb4  1  0.497243  0.314802  0.406032  1
  Yb  Yb5  1  0.995971  0.188164  0.092941  1
  Yb  Yb6  1  0.502941  0.686544  0.906835  1
  Yb  Yb7  1  0.003440  0.813935  0.592102  1
  Yb  Yb8  1  0.834717  0.508895  0.751647  1
  Yb  Yb9  1  0.332872  0.990371  0.751056  1
  Yb  Yb10  1  0.165957  0.489671  0.249902  1
  Yb  Yb11  1  0.665871  0.011104  0.249813  1
  Er  Er12  1  0.670140  0.168309  0.622591  1
  Er  Er13  1  0.171297  0.333088  0.878746  1
  Er  Er14  1  0.327784  0.834261  0.122160  1
  Er  Er15  1  0.829259  0.667032  0.377376  1
  Er  Er16  1  0.328063  0.834063  0.376423  1
  Er  Er17  1  0.827669  0.666140  0.122097  1
  Er  Er18  1  0.672566  0.166071  0.878209  1
  Er  Er19  1  0.170035  0.331467  0.622007  1
  Sn  Sn20  1  0.673092  0.964587  0.460012  1
  Sn  Sn21  1  0.172694  0.537142  0.040108  1
  Sn  Sn22  1  0.328530  0.035604  0.959446  1
  Sn  Sn23  1  0.828772  0.460757  0.539589  1
  Sn  Sn24  1  0.327911  0.034726  0.540240  1
  Sn  Sn25  1  0.827222  0.463713  0.959910  1
  Sn  Sn26  1  0.671858  0.964503  0.040483  1
  Sn  Sn27  1  0.176178  0.538621  0.460309  1
  Sn  Sn28  1  0.468871  0.374043  0.750111  1
  Sn  Sn29  1  0.968119  0.127044  0.749819  1
  Sn  Sn30  1  0.529984  0.625891  0.249568  1
  Sn  Sn31  1  0.029328  0.873751  0.249277  1
  Sn  Sn32  1  0.715270  0.871550  0.750402  1
  Sn  Sn33  1  0.215087  0.626774  0.750166  1
  Sn  Sn34  1  0.284420  0.127989  0.249697  1
  Sn  Sn35  1  0.784274  0.373645  0.250013  1
