# generated using pymatgen
data_Ho4Mg3ZrIr4
_symmetry_space_group_name_H-M   'P 1'
_cell_length_a   4.17937500
_cell_length_b   7.08764658
_cell_length_c   8.52405365
_cell_angle_alpha   88.37248145
_cell_angle_beta   90.00000000
_cell_angle_gamma   90.00000000
_symmetry_Int_Tables_number   1
_chemical_formula_structural   Ho4Mg3ZrIr4
_chemical_formula_sum   'Ho4 Mg3 Zr1 Ir4'
_cell_volume   252.39708481
_cell_formula_units_Z   1
loop_
 _symmetry_equiv_pos_site_id
 _symmetry_equiv_pos_as_xyz
  1  'x, y, z'
loop_
 _atom_site_type_symbol
 _atom_site_label
 _atom_site_symmetry_multiplicity
 _atom_site_fract_x
 _atom_site_fract_y
 _atom_site_fract_z
 _atom_site_occupancy
  Ho  Ho0  1  0.250000  0.542089  0.168363  1
  Ho  Ho1  1  0.750000  0.471396  0.831187  1
  Ho  Ho2  1  0.250000  0.027885  0.318792  1
  Ho  Ho3  1  0.750000  0.954930  0.677078  1
  Mg  Mg4  1  0.250000  0.135673  0.940161  1
  Mg  Mg5  1  0.750000  0.864507  0.059239  1
  Mg  Mg6  1  0.250000  0.643811  0.564465  1
  Zr  Zr7  1  0.750000  0.368309  0.441770  1
  Ir  Ir8  1  0.750000  0.740588  0.374507  1
  Ir  Ir9  1  0.250000  0.248163  0.614679  1
  Ir  Ir10  1  0.750000  0.248602  0.138270  1
  Ir  Ir11  1  0.250000  0.754045  0.871491  1
