# generated using pymatgen
data_Hf2Zr2Co3Si4Ir
_symmetry_space_group_name_H-M   'P 1'
_cell_length_a   3.87729500
_cell_length_b   6.45868259
_cell_length_c   7.21507743
_cell_angle_alpha   89.53661892
_cell_angle_beta   90.00000000
_cell_angle_gamma   90.00000000
_symmetry_Int_Tables_number   1
_chemical_formula_structural   Hf2Zr2Co3Si4Ir
_chemical_formula_sum   'Hf2 Zr2 Co3 Si4 Ir1'
_cell_volume   180.67563085
_cell_formula_units_Z   1
loop_
 _symmetry_equiv_pos_site_id
 _symmetry_equiv_pos_as_xyz
  1  'x, y, z'
loop_
 _atom_site_type_symbol
 _atom_site_label
 _atom_site_symmetry_multiplicity
 _atom_site_fract_x
 _atom_site_fract_y
 _atom_site_fract_z
 _atom_site_occupancy
  Hf  Hf0  1  0.250000  0.006521  0.315255  1
  Hf  Hf1  1  0.250000  0.515726  0.194971  1
  Zr  Zr2  1  0.750000  0.987436  0.681153  1
  Zr  Zr3  1  0.750000  0.488144  0.806394  1
  Co  Co4  1  0.250000  0.643569  0.561836  1
  Co  Co5  1  0.750000  0.850399  0.068451  1
  Co  Co6  1  0.750000  0.356741  0.427923  1
  Si  Si7  1  0.250000  0.284050  0.599821  1
  Si  Si8  1  0.250000  0.776947  0.889787  1
  Si  Si9  1  0.750000  0.719303  0.389950  1
  Si  Si10  1  0.750000  0.219166  0.125447  1
  Ir  Ir11  1  0.250000  0.151998  0.939010  1
