# generated using pymatgen
data_Tb4Tm3Lu(WO6)4
_symmetry_space_group_name_H-M   'P 1'
_cell_length_a   5.39034904
_cell_length_b   7.67983352
_cell_length_c   11.38058394
_cell_angle_alpha   75.59759094
_cell_angle_beta   89.99418156
_cell_angle_gamma   89.98536716
_symmetry_Int_Tables_number   1
_chemical_formula_structural   Tb4Tm3Lu(WO6)4
_chemical_formula_sum   'Tb4 Tm3 Lu1 W4 O24'
_cell_volume   456.31574211
_cell_formula_units_Z   1
loop_
 _symmetry_equiv_pos_site_id
 _symmetry_equiv_pos_as_xyz
  1  'x, y, z'
loop_
 _atom_site_type_symbol
 _atom_site_label
 _atom_site_symmetry_multiplicity
 _atom_site_fract_x
 _atom_site_fract_y
 _atom_site_fract_z
 _atom_site_occupancy
  Tb  Tb0  1  0.742397  0.999751  0.749690  1
  Tb  Tb1  1  0.257596  0.999823  0.250272  1
  Tb  Tb2  1  0.683770  0.500308  0.749768  1
  Tb  Tb3  1  0.316164  0.500057  0.250021  1
  Tm  Tm4  1  0.816843  0.793498  0.079062  1
  Tm  Tm5  1  0.183234  0.206475  0.921017  1
  Tm  Tm6  1  0.816940  0.206192  0.421085  1
  Lu  Lu7  1  0.183409  0.793054  0.579420  1
  W  W8  1  0.255624  0.723897  0.885922  1
  W  W9  1  0.743852  0.724128  0.386623  1
  W  W10  1  0.255791  0.276408  0.613765  1
  W  W11  1  0.744139  0.276176  0.113849  1
  O  O12  1  0.047709  0.940729  0.897511  1
  O  O13  1  0.537399  0.843303  0.932698  1
  O  O14  1  0.952353  0.940488  0.397883  1
  O  O15  1  0.454111  0.791207  0.725419  1
  O  O16  1  0.461215  0.842670  0.434040  1
  O  O17  1  0.982466  0.712788  0.770061  1
  O  O18  1  0.544455  0.791115  0.226549  1
  O  O19  1  0.855261  0.636045  0.549760  1
  O  O20  1  0.357652  0.488730  0.886852  1
  O  O21  1  0.017779  0.712589  0.270788  1
  O  O22  1  0.356465  0.512049  0.613013  1
  O  O23  1  0.853300  0.364993  0.950301  1
  O  O24  1  0.146710  0.635119  0.049505  1
  O  O25  1  0.642646  0.488853  0.387130  1
  O  O26  1  0.981933  0.287212  0.729092  1
  O  O27  1  0.642411  0.511361  0.113100  1
  O  O28  1  0.146641  0.364806  0.450450  1
  O  O29  1  0.455566  0.209271  0.773597  1
  O  O30  1  0.018021  0.287393  0.229296  1
  O  O31  1  0.537643  0.156890  0.566961  1
  O  O32  1  0.544546  0.209008  0.273711  1
  O  O33  1  0.049156  0.057834  0.602364  1
  O  O34  1  0.462593  0.156551  0.066953  1
  O  O35  1  0.952212  0.059229  0.102471  1
