# generated using pymatgen
data_Yb11InAs9
_symmetry_space_group_name_H-M   'P 1'
_cell_length_a   11.13695789
_cell_length_b   11.13695839
_cell_length_c   11.13695800
_cell_angle_alpha   120.92600332
_cell_angle_beta   117.49199132
_cell_angle_gamma   91.40072227
_symmetry_Int_Tables_number   1
_chemical_formula_structural   Yb11InAs9
_chemical_formula_sum   'Yb22 In2 As18'
_cell_volume   987.03466438
_cell_formula_units_Z   2
loop_
 _symmetry_equiv_pos_site_id
 _symmetry_equiv_pos_as_xyz
  1  'x, y, z'
loop_
 _atom_site_type_symbol
 _atom_site_label
 _atom_site_symmetry_multiplicity
 _atom_site_fract_x
 _atom_site_fract_y
 _atom_site_fract_z
 _atom_site_occupancy
  Yb  Yb0  1  0.563250  0.914483  0.793317  1
  Yb  Yb1  1  0.323642  0.665071  0.989322  1
  Yb  Yb2  1  0.121167  0.769933  0.206683  1
  Yb  Yb3  1  0.326243  0.326243  0.000000  1
  Yb  Yb4  1  0.316459  0.052878  0.629100  1
  Yb  Yb5  1  0.070865  0.444674  0.256729  1
  Yb  Yb6  1  0.931402  0.745996  0.359761  1
  Yb  Yb7  1  0.063250  0.269933  0.648767  1
  Yb  Yb8  1  0.386235  0.571641  0.640239  1
  Yb  Yb9  1  0.570865  0.314136  0.626191  1
  Yb  Yb10  1  0.621167  0.414483  0.351233  1
  Yb  Yb11  1  0.687945  0.944674  0.373809  1
  Yb  Yb12  1  0.175748  0.165071  0.341429  1
  Yb  Yb13  1  0.423778  0.687358  0.370900  1
  Yb  Yb14  1  0.923778  0.552878  0.736419  1
  Yb  Yb15  1  0.675748  0.334320  0.010678  1
  Yb  Yb16  1  0.826243  0.826243  0.000000  1
  Yb  Yb17  1  0.431402  0.071641  0.185407  1
  Yb  Yb18  1  0.823642  0.834320  0.658571  1
  Yb  Yb19  1  0.816459  0.187358  0.263581  1
  Yb  Yb20  1  0.886235  0.245996  0.814593  1
  Yb  Yb21  1  0.187945  0.814136  0.743271  1
  In  In22  1  0.609764  0.609764  0.000000  1
  In  In23  1  0.109764  0.109764  0.000000  1
  As  As24  1  0.994021  0.994335  0.353390  1
  As  As25  1  0.899571  0.536409  0.430439  1
  As  As26  1  0.105971  0.469132  0.569561  1
  As  As27  1  0.373922  0.360782  0.747089  1
  As  As28  1  0.873922  0.126833  0.013140  1
  As  As29  1  0.613693  0.626833  0.252911  1
  As  As30  1  0.747866  0.247866  0.500000  1
  As  As31  1  0.640944  0.640630  0.646610  1
  As  As32  1  0.836746  0.537257  0.990436  1
  As  As33  1  0.113693  0.860782  0.986860  1
  As  As34  1  0.494021  0.140630  0.999685  1
  As  As35  1  0.605971  0.036409  0.636840  1
  As  As36  1  0.140944  0.494335  0.000315  1
  As  As37  1  0.247866  0.747866  0.500000  1
  As  As38  1  0.399571  0.969132  0.363160  1
  As  As39  1  0.336746  0.346310  0.299489  1
  As  As40  1  0.546821  0.846310  0.009564  1
  As  As41  1  0.046821  0.037257  0.700511  1
