# generated using pymatgen
data_Tb11In9(AgRh)2
_symmetry_space_group_name_H-M   'P 1'
_cell_length_a   3.69536000
_cell_length_b   13.26107986
_cell_length_c   13.29559409
_cell_angle_alpha   110.78739051
_cell_angle_beta   90.00000000
_cell_angle_gamma   90.00000000
_symmetry_Int_Tables_number   1
_chemical_formula_structural   Tb11In9(AgRh)2
_chemical_formula_sum   'Tb11 In9 Ag2 Rh2'
_cell_volume   609.13046251
_cell_formula_units_Z   1
loop_
 _symmetry_equiv_pos_site_id
 _symmetry_equiv_pos_as_xyz
  1  'x, y, z'
loop_
 _atom_site_type_symbol
 _atom_site_label
 _atom_site_symmetry_multiplicity
 _atom_site_fract_x
 _atom_site_fract_y
 _atom_site_fract_z
 _atom_site_occupancy
  Tb  Tb0  1  0.000000  0.933472  0.582989  1
  Tb  Tb1  1  0.000000  0.066528  0.417011  1
  Tb  Tb2  1  0.000000  0.581667  0.926523  1
  Tb  Tb3  1  0.000000  0.418333  0.073477  1
  Tb  Tb4  1  0.000000  0.158190  0.842625  1
  Tb  Tb5  1  0.000000  0.841810  0.157375  1
  Tb  Tb6  1  0.000000  0.383533  0.641935  1
  Tb  Tb7  1  0.000000  0.616467  0.358065  1
  Tb  Tb8  1  0.000000  0.684087  0.700112  1
  Tb  Tb9  1  0.000000  0.315913  0.299888  1
  Tb  Tb10  1  0.000000  0.000000  0.000000  1
  In  In11  1  0.500000  0.158734  0.633794  1
  In  In12  1  0.500000  0.841266  0.366206  1
  In  In13  1  0.500000  0.634025  0.155862  1
  In  In14  1  0.500000  0.365975  0.844138  1
  In  In15  1  0.500000  0.926400  0.782614  1
  In  In16  1  0.500000  0.073600  0.217386  1
  In  In17  1  0.500000  0.782102  0.926389  1
  In  In18  1  0.500000  0.217898  0.073611  1
  In  In19  1  0.500000  0.500000  0.500000  1
  Ag  Ag20  1  0.500000  0.747279  0.547871  1
  Ag  Ag21  1  0.500000  0.252721  0.452129  1
  Rh  Rh22  1  0.500000  0.550504  0.758521  1
  Rh  Rh23  1  0.500000  0.449496  0.241479  1
