# generated using pymatgen
data_La17Mg(ZrIr6)2
_symmetry_space_group_name_H-M   'P 1'
_cell_length_a   11.38923900
_cell_length_b   11.38923900
_cell_length_c   6.43408400
_cell_angle_alpha   90.00000000
_cell_angle_beta   90.00000000
_cell_angle_gamma   90.00000000
_symmetry_Int_Tables_number   1
_chemical_formula_structural   La17Mg(ZrIr6)2
_chemical_formula_sum   'La17 Mg1 Zr2 Ir12'
_cell_volume   834.59569404
_cell_formula_units_Z   1
loop_
 _symmetry_equiv_pos_site_id
 _symmetry_equiv_pos_as_xyz
  1  'x, y, z'
loop_
 _atom_site_type_symbol
 _atom_site_label
 _atom_site_symmetry_multiplicity
 _atom_site_fract_x
 _atom_site_fract_y
 _atom_site_fract_z
 _atom_site_occupancy
  La  La0  1  0.285377  0.087783  0.385520  1
  La  La1  1  0.285701  0.913449  0.882689  1
  La  La2  1  0.714299  0.086551  0.882689  1
  La  La3  1  0.714623  0.912217  0.385520  1
  La  La4  1  0.585947  0.782329  0.888419  1
  La  La5  1  0.586593  0.209252  0.386055  1
  La  La6  1  0.413407  0.790748  0.386055  1
  La  La7  1  0.414053  0.217671  0.888419  1
  La  La8  1  0.209252  0.413407  0.613945  1
  La  La9  1  0.217671  0.585947  0.111581  1
  La  La10  1  0.782329  0.414053  0.111581  1
  La  La11  1  0.790748  0.586593  0.613945  1
  La  La12  1  0.913449  0.714299  0.117311  1
  La  La13  1  0.912217  0.285377  0.614480  1
  La  La14  1  0.087783  0.714623  0.614480  1
  La  La15  1  0.086551  0.285701  0.117311  1
  La  La16  1  0.500000  0.500000  0.500000  1
  Mg  Mg17  1  0.500000  0.500000  0.000000  1
  Zr  Zr18  1  0.000000  0.000000  0.500000  1
  Zr  Zr19  1  0.000000  0.000000  0.000000  1
  Ir  Ir20  1  0.863199  0.136916  0.248619  1
  Ir  Ir21  1  0.863084  0.863199  0.751381  1
  Ir  Ir22  1  0.136916  0.136801  0.751381  1
  Ir  Ir23  1  0.136801  0.863084  0.248619  1
  Ir  Ir24  1  0.654656  0.346084  0.747709  1
  Ir  Ir25  1  0.653916  0.654656  0.252291  1
  Ir  Ir26  1  0.346084  0.345344  0.252291  1
  Ir  Ir27  1  0.345344  0.653916  0.747709  1
  Ir  Ir28  1  0.500000  0.000000  0.115308  1
  Ir  Ir29  1  0.500000  0.000000  0.620339  1
  Ir  Ir30  1  0.000000  0.500000  0.884692  1
  Ir  Ir31  1  0.000000  0.500000  0.379661  1
