# generated using pymatgen
data_Lu4Os5W3
_symmetry_space_group_name_H-M   'P 1'
_cell_length_a   5.30821297
_cell_length_b   5.44213994
_cell_length_c   8.86419300
_cell_angle_alpha   90.00000000
_cell_angle_beta   90.00000000
_cell_angle_gamma   120.83815653
_symmetry_Int_Tables_number   1
_chemical_formula_structural   Lu4Os5W3
_chemical_formula_sum   'Lu4 Os5 W3'
_cell_volume   219.86575651
_cell_formula_units_Z   1
loop_
 _symmetry_equiv_pos_site_id
 _symmetry_equiv_pos_as_xyz
  1  'x, y, z'
loop_
 _atom_site_type_symbol
 _atom_site_label
 _atom_site_symmetry_multiplicity
 _atom_site_fract_x
 _atom_site_fract_y
 _atom_site_fract_z
 _atom_site_occupancy
  Lu  Lu0  1  0.342664  0.671332  0.434353  1
  Lu  Lu1  1  0.667082  0.333541  0.557778  1
  Lu  Lu2  1  0.667082  0.333541  0.942222  1
  Lu  Lu3  1  0.342664  0.671332  0.065647  1
  Os  Os4  1  0.827162  0.655219  0.250000  1
  Os  Os5  1  0.634138  0.817069  0.750000  1
  Os  Os6  1  0.014348  0.007174  0.997835  1
  Os  Os7  1  0.827162  0.171942  0.250000  1
  Os  Os8  1  0.014348  0.007174  0.502165  1
  W  W9  1  0.161528  0.334932  0.750000  1
  W  W10  1  0.161528  0.826597  0.750000  1
  W  W11  1  0.340293  0.170146  0.250000  1
