# generated using pymatgen
data_PrY5PtBr10
_symmetry_space_group_name_H-M   'P 1'
_cell_length_a   7.39575194
_cell_length_b   9.28799113
_cell_length_c   9.42912289
_cell_angle_alpha   107.57669358
_cell_angle_beta   96.26328048
_cell_angle_gamma   105.43692669
_symmetry_Int_Tables_number   1
_chemical_formula_structural   PrY5PtBr10
_chemical_formula_sum   'Pr1 Y5 Pt1 Br10'
_cell_volume   582.39762988
_cell_formula_units_Z   1
loop_
 _symmetry_equiv_pos_site_id
 _symmetry_equiv_pos_as_xyz
  1  'x, y, z'
loop_
 _atom_site_type_symbol
 _atom_site_label
 _atom_site_symmetry_multiplicity
 _atom_site_fract_x
 _atom_site_fract_y
 _atom_site_fract_z
 _atom_site_occupancy
  Pr  Pr0  1  0.868937  0.950641  0.254215  1
  Y  Y1  1  0.128407  0.047694  0.754186  1
  Y  Y2  1  0.361660  0.135659  0.175510  1
  Y  Y3  1  0.638275  0.864781  0.825485  1
  Y  Y4  1  0.970427  0.299094  0.090067  1
  Y  Y5  1  0.030001  0.699367  0.903785  1
  Pt  Pt6  1  0.000523  0.999216  0.999752  1
  Br  Br7  1  0.346717  0.449620  0.268479  1
  Br  Br8  1  0.651084  0.550107  0.730330  1
  Br  Br9  1  0.918418  0.621144  0.165193  1
  Br  Br10  1  0.084552  0.369198  0.824992  1
  Br  Br11  1  0.445164  0.820838  0.081347  1
  Br  Br12  1  0.546665  0.175957  0.913809  1
  Br  Br13  1  0.260689  0.084881  0.459071  1
  Br  Br14  1  0.750042  0.920505  0.557319  1
  Br  Br15  1  0.776859  0.262966  0.338854  1
  Br  Br16  1  0.221581  0.748329  0.657607  1
