# generated using pymatgen
data_Tm4As6Ru2Rh5
_symmetry_space_group_name_H-M   'P 1'
_cell_length_a   7.21187726
_cell_length_b   7.21216162
_cell_length_c   7.21187653
_cell_angle_alpha   109.47923689
_cell_angle_beta   109.44633040
_cell_angle_gamma   109.47924577
_symmetry_Int_Tables_number   1
_chemical_formula_structural   Tm4As6Ru2Rh5
_chemical_formula_sum   'Tm4 As6 Ru2 Rh5'
_cell_volume   288.79359160
_cell_formula_units_Z   1
loop_
 _symmetry_equiv_pos_site_id
 _symmetry_equiv_pos_as_xyz
  1  'x, y, z'
loop_
 _atom_site_type_symbol
 _atom_site_label
 _atom_site_symmetry_multiplicity
 _atom_site_fract_x
 _atom_site_fract_y
 _atom_site_fract_z
 _atom_site_occupancy
  Tm  Tm0  1  0.000082  0.000100  0.500052  1
  Tm  Tm1  1  0.499948  0.999900  0.999918  1
  Tm  Tm2  1  0.000051  0.500000  0.999949  1
  Tm  Tm3  1  0.499937  0.500000  0.500063  1
  As  As4  1  0.681685  0.684119  0.997472  1
  As  As5  1  0.313391  0.315824  0.997625  1
  As  As6  1  0.002375  0.684176  0.686609  1
  As  As7  1  0.002528  0.315881  0.318315  1
  As  As8  1  0.685800  0.999979  0.685817  1
  As  As9  1  0.314183  0.000021  0.314200  1
  Ru  Ru10  1  0.999979  0.000000  0.000021  1
  Ru  Ru11  1  0.250023  0.500000  0.749977  1
  Rh  Rh12  1  0.749530  0.248979  0.500520  1
  Rh  Rh13  1  0.499508  0.249016  0.748470  1
  Rh  Rh14  1  0.499480  0.751021  0.250470  1
  Rh  Rh15  1  0.749968  0.500000  0.250032  1
  Rh  Rh16  1  0.251530  0.750984  0.500492  1
