# generated using pymatgen
data_Tb11In9(CoPd)2
_symmetry_space_group_name_H-M   'P 1'
_cell_length_a   13.09669141
_cell_length_b   13.16331887
_cell_length_c   3.66403700
_cell_angle_alpha   90.00000000
_cell_angle_beta   90.00000000
_cell_angle_gamma   110.91536293
_symmetry_Int_Tables_number   1
_chemical_formula_structural   Tb11In9(CoPd)2
_chemical_formula_sum   'Tb11 In9 Co2 Pd2'
_cell_volume   590.04387257
_cell_formula_units_Z   1
loop_
 _symmetry_equiv_pos_site_id
 _symmetry_equiv_pos_as_xyz
  1  'x, y, z'
loop_
 _atom_site_type_symbol
 _atom_site_label
 _atom_site_symmetry_multiplicity
 _atom_site_fract_x
 _atom_site_fract_y
 _atom_site_fract_z
 _atom_site_occupancy
  Tb  Tb0  1  0.073854  0.417500  0.000000  1
  Tb  Tb1  1  0.926146  0.582500  0.000000  1
  Tb  Tb2  1  0.419891  0.078963  0.000000  1
  Tb  Tb3  1  0.580109  0.921037  0.000000  1
  Tb  Tb4  1  0.616836  0.364455  0.000000  1
  Tb  Tb5  1  0.383164  0.635545  0.000000  1
  Tb  Tb6  1  0.839314  0.156912  0.000000  1
  Tb  Tb7  1  0.160686  0.843088  0.000000  1
  Tb  Tb8  1  0.000000  0.000000  0.000000  1
  Tb  Tb9  1  0.317621  0.306000  0.000000  1
  Tb  Tb10  1  0.682379  0.694000  0.000000  1
  In  In11  1  0.839798  0.366485  0.500000  1
  In  In12  1  0.160202  0.633515  0.500000  1
  In  In13  1  0.366981  0.839356  0.500000  1
  In  In14  1  0.633019  0.160644  0.500000  1
  In  In15  1  0.074407  0.217580  0.500000  1
  In  In16  1  0.925593  0.782420  0.500000  1
  In  In17  1  0.220341  0.076858  0.500000  1
  In  In18  1  0.779659  0.923142  0.500000  1
  In  In19  1  0.500000  0.500000  0.500000  1
  Co  Co20  1  0.449033  0.239891  0.500000  1
  Co  Co21  1  0.550967  0.760109  0.500000  1
  Pd  Pd22  1  0.250794  0.451323  0.500000  1
  Pd  Pd23  1  0.749206  0.548677  0.500000  1
