# generated using pymatgen
data_Rb5BaTaP4
_symmetry_space_group_name_H-M   'P 1'
_cell_length_a   10.61761325
_cell_length_b   10.61761332
_cell_length_c   8.18187417
_cell_angle_alpha   88.82176162
_cell_angle_beta   88.82175642
_cell_angle_gamma   120.66743778
_symmetry_Int_Tables_number   1
_chemical_formula_structural   Rb5BaTaP4
_chemical_formula_sum   'Rb10 Ba2 Ta2 P8'
_cell_volume   792.68707625
_cell_formula_units_Z   2
loop_
 _symmetry_equiv_pos_site_id
 _symmetry_equiv_pos_as_xyz
  1  'x, y, z'
loop_
 _atom_site_type_symbol
 _atom_site_label
 _atom_site_symmetry_multiplicity
 _atom_site_fract_x
 _atom_site_fract_y
 _atom_site_fract_z
 _atom_site_occupancy
  Rb  Rb0  1  0.464627  0.526809  0.497874  1
  Rb  Rb1  1  0.062356  0.528496  0.499467  1
  Rb  Rb2  1  0.526809  0.464627  0.997874  1
  Rb  Rb3  1  0.528496  0.062356  0.999467  1
  Rb  Rb4  1  0.864634  0.142827  0.678201  1
  Rb  Rb5  1  0.291596  0.152210  0.709900  1
  Rb  Rb6  1  0.854643  0.714301  0.660611  1
  Rb  Rb7  1  0.142827  0.864634  0.178201  1
  Rb  Rb8  1  0.714301  0.854643  0.160611  1
  Rb  Rb9  1  0.152210  0.291596  0.209900  1
  Ba  Ba10  1  0.463433  0.933086  0.493421  1
  Ba  Ba11  1  0.933086  0.463433  0.993421  1
  Ta  Ta12  1  0.669609  0.331693  0.394189  1
  Ta  Ta13  1  0.331693  0.669609  0.894189  1
  P  P14  1  0.684229  0.337167  0.689869  1
  P  P15  1  0.337167  0.684229  0.189869  1
  P  P16  1  0.789773  0.203285  0.292123  1
  P  P17  1  0.413905  0.196261  0.321831  1
  P  P18  1  0.796249  0.578813  0.276804  1
  P  P19  1  0.203285  0.789773  0.792123  1
  P  P20  1  0.578813  0.796249  0.776804  1
  P  P21  1  0.196261  0.413905  0.821831  1
