# generated using pymatgen
data_Ca3Yb5(Si3Pd)4
_symmetry_space_group_name_H-M   'P 1'
_cell_length_a   8.26403400
_cell_length_b   8.27448376
_cell_length_c   8.28546800
_cell_angle_alpha   90.00000000
_cell_angle_beta   90.00000000
_cell_angle_gamma   119.95830466
_symmetry_Int_Tables_number   1
_chemical_formula_structural   Ca3Yb5(Si3Pd)4
_chemical_formula_sum   'Ca3 Yb5 Si12 Pd4'
_cell_volume   490.86604882
_cell_formula_units_Z   1
loop_
 _symmetry_equiv_pos_site_id
 _symmetry_equiv_pos_as_xyz
  1  'x, y, z'
loop_
 _atom_site_type_symbol
 _atom_site_label
 _atom_site_symmetry_multiplicity
 _atom_site_fract_x
 _atom_site_fract_y
 _atom_site_fract_z
 _atom_site_occupancy
  Ca  Ca0  1  0.500827  0.001655  0.250000  1
  Ca  Ca1  1  0.999931  0.999862  0.750000  1
  Ca  Ca2  1  0.999964  0.999927  0.250000  1
  Yb  Yb3  1  0.499435  0.500557  0.750000  1
  Yb  Yb4  1  0.500437  0.499730  0.250000  1
  Yb  Yb5  1  0.001121  0.500556  0.750000  1
  Yb  Yb6  1  0.999292  0.499730  0.250000  1
  Yb  Yb7  1  0.499318  0.998637  0.750000  1
  Si  Si8  1  0.835639  0.164317  0.998436  1
  Si  Si9  1  0.164350  0.835657  0.999513  1
  Si  Si10  1  0.328678  0.164317  0.998436  1
  Si  Si11  1  0.164350  0.835657  0.500487  1
  Si  Si12  1  0.671307  0.835657  0.999513  1
  Si  Si13  1  0.835639  0.164317  0.501564  1
  Si  Si14  1  0.835718  0.671436  0.000339  1
  Si  Si15  1  0.671307  0.835657  0.500487  1
  Si  Si16  1  0.164198  0.328397  0.001121  1
  Si  Si17  1  0.328678  0.164317  0.501564  1
  Si  Si18  1  0.164198  0.328397  0.498879  1
  Si  Si19  1  0.835718  0.671436  0.499661  1
  Pd  Pd20  1  0.667126  0.334253  0.994535  1
  Pd  Pd21  1  0.332820  0.665638  0.997285  1
  Pd  Pd22  1  0.332820  0.665638  0.502715  1
  Pd  Pd23  1  0.667126  0.334253  0.505465  1
