# generated using pymatgen
data_Dy4ThBi2Os
_symmetry_space_group_name_H-M   'P 1'
_cell_length_a   8.15417833
_cell_length_b   8.94444994
_cell_length_c   12.59193286
_cell_angle_alpha   90.09081190
_cell_angle_beta   89.73574322
_cell_angle_gamma   89.99187832
_symmetry_Int_Tables_number   1
_chemical_formula_structural   Dy4ThBi2Os
_chemical_formula_sum   'Dy16 Th4 Bi8 Os4'
_cell_volume   918.37715758
_cell_formula_units_Z   4
loop_
 _symmetry_equiv_pos_site_id
 _symmetry_equiv_pos_as_xyz
  1  'x, y, z'
loop_
 _atom_site_type_symbol
 _atom_site_label
 _atom_site_symmetry_multiplicity
 _atom_site_fract_x
 _atom_site_fract_y
 _atom_site_fract_z
 _atom_site_occupancy
  Dy  Dy0  1  0.839364  0.748637  0.792491  1
  Dy  Dy1  1  0.160085  0.250894  0.205273  1
  Dy  Dy2  1  0.336503  0.251349  0.708943  1
  Dy  Dy3  1  0.663912  0.749863  0.289925  1
  Dy  Dy4  1  0.376506  0.749582  0.699040  1
  Dy  Dy5  1  0.625928  0.252497  0.302153  1
  Dy  Dy6  1  0.875565  0.251092  0.805587  1
  Dy  Dy7  1  0.121690  0.746894  0.195090  1
  Dy  Dy8  1  0.943083  0.747003  0.500173  1
  Dy  Dy9  1  0.050939  0.250483  0.499568  1
  Dy  Dy10  1  0.444774  0.251663  0.998257  1
  Dy  Dy11  1  0.563446  0.750145  0.000873  1
  Dy  Dy12  1  0.819996  0.046184  0.068151  1
  Dy  Dy13  1  0.679428  0.454370  0.568071  1
  Dy  Dy14  1  0.828519  0.455838  0.065147  1
  Dy  Dy15  1  0.173007  0.543221  0.934614  1
  Th  Th16  1  0.681636  0.042073  0.564930  1
  Th  Th17  1  0.316664  0.957169  0.434949  1
  Th  Th18  1  0.171837  0.959433  0.939373  1
  Th  Th19  1  0.324520  0.542766  0.437186  1
  Bi  Bi20  1  0.566938  0.490598  0.827432  1
  Bi  Bi21  1  0.434867  0.510584  0.171152  1
  Bi  Bi22  1  0.068470  0.510431  0.673183  1
  Bi  Bi23  1  0.433251  0.989283  0.172188  1
  Bi  Bi24  1  0.929725  0.488936  0.326260  1
  Bi  Bi25  1  0.569866  0.010968  0.827717  1
  Bi  Bi26  1  0.927989  0.011178  0.325237  1
  Bi  Bi27  1  0.071921  0.987524  0.672642  1
  Os  Os28  1  0.572501  0.756820  0.511473  1
  Os  Os29  1  0.422792  0.245800  0.486115  1
  Os  Os30  1  0.078162  0.243299  0.987249  1
  Os  Os31  1  0.926116  0.753424  0.009561  1
