# generated using pymatgen
data_Ca4Sc4B24Ir3Os
_symmetry_space_group_name_H-M   'P 1'
_cell_length_a   3.54737900
_cell_length_b   9.00750673
_cell_length_c   11.40884849
_cell_angle_alpha   90.01867059
_cell_angle_beta   90.00000000
_cell_angle_gamma   90.00000000
_symmetry_Int_Tables_number   1
_chemical_formula_structural   Ca4Sc4B24Ir3Os
_chemical_formula_sum   'Ca4 Sc4 B24 Ir3 Os1'
_cell_volume   364.54737556
_cell_formula_units_Z   1
loop_
 _symmetry_equiv_pos_site_id
 _symmetry_equiv_pos_as_xyz
  1  'x, y, z'
loop_
 _atom_site_type_symbol
 _atom_site_label
 _atom_site_symmetry_multiplicity
 _atom_site_fract_x
 _atom_site_fract_y
 _atom_site_fract_z
 _atom_site_occupancy
  Ca  Ca0  1  0.500000  0.319194  0.412509  1
  Ca  Ca1  1  0.500000  0.679126  0.583960  1
  Ca  Ca2  1  0.500000  0.178674  0.917219  1
  Ca  Ca3  1  0.500000  0.822622  0.086451  1
  Sc  Sc4  1  0.500000  0.441937  0.126341  1
  Sc  Sc5  1  0.500000  0.555211  0.874427  1
  Sc  Sc6  1  0.500000  0.054784  0.625839  1
  Sc  Sc7  1  0.500000  0.947892  0.372028  1
  B  B8  1  0.000000  0.097906  0.474068  1
  B  B9  1  0.000000  0.902112  0.526289  1
  B  B10  1  0.000000  0.402514  0.973546  1
  B  B11  1  0.000000  0.598594  0.026399  1
  B  B12  1  0.000000  0.129264  0.316809  1
  B  B13  1  0.000000  0.870523  0.681668  1
  B  B14  1  0.000000  0.370947  0.818382  1
  B  B15  1  0.000000  0.629498  0.182479  1
  B  B16  1  0.000000  0.055207  0.067907  1
  B  B17  1  0.000000  0.944703  0.933015  1
  B  B18  1  0.000000  0.444069  0.566965  1
  B  B19  1  0.000000  0.555373  0.432630  1
  B  B20  1  0.000000  0.482232  0.285716  1
  B  B21  1  0.000000  0.517346  0.714371  1
  B  B22  1  0.000000  0.017353  0.785368  1
  B  B23  1  0.000000  0.982344  0.214415  1
  B  B24  1  0.000000  0.252246  0.082407  1
  B  B25  1  0.000000  0.747693  0.918582  1
  B  B26  1  0.000000  0.247074  0.581442  1
  B  B27  1  0.000000  0.752614  0.418417  1
  B  B28  1  0.000000  0.294015  0.235004  1
  B  B29  1  0.000000  0.706410  0.764373  1
  B  B30  1  0.000000  0.206656  0.735768  1
  B  B31  1  0.000000  0.793819  0.264846  1
  Ir  Ir32  1  0.500000  0.859377  0.817476  1
  Ir  Ir33  1  0.500000  0.359573  0.682073  1
  Ir  Ir34  1  0.500000  0.640365  0.318276  1
  Os  Os35  1  0.500000  0.140736  0.182533  1
