# generated using pymatgen
data_Y5Lu3(OsI4)2
_symmetry_space_group_name_H-M   'P 1'
_cell_length_a   11.40266272
_cell_length_b   11.41863223
_cell_length_c   6.15101900
_cell_angle_alpha   90.01879626
_cell_angle_beta   90.01767673
_cell_angle_gamma   88.43511350
_symmetry_Int_Tables_number   1
_chemical_formula_structural   Y5Lu3(OsI4)2
_chemical_formula_sum   'Y5 Lu3 Os2 I8'
_cell_volume   800.58119460
_cell_formula_units_Z   1
loop_
 _symmetry_equiv_pos_site_id
 _symmetry_equiv_pos_as_xyz
  1  'x, y, z'
loop_
 _atom_site_type_symbol
 _atom_site_label
 _atom_site_symmetry_multiplicity
 _atom_site_fract_x
 _atom_site_fract_y
 _atom_site_fract_z
 _atom_site_occupancy
  Y  Y0  1  0.196317  0.081924  0.500024  1
  Y  Y1  1  0.922676  0.802253  0.999333  1
  Y  Y2  1  0.915075  0.200142  0.500297  1
  Y  Y3  1  0.198748  0.913766  0.000273  1
  Y  Y4  1  0.801348  0.923778  0.499462  1
  Lu  Lu5  1  0.810097  0.078998  0.998814  1
  Lu  Lu6  1  0.080117  0.811465  0.498825  1
  Lu  Lu7  1  0.076598  0.186542  0.000106  1
  Os  Os8  1  0.999960  0.999818  0.250184  1
  Os  Os9  1  0.000192  0.999651  0.749137  1
  I  I10  1  0.643281  0.153213  0.509330  1
  I  I11  1  0.861224  0.650336  0.504804  1
  I  I12  1  0.348108  0.144198  0.995106  1
  I  I13  1  0.142185  0.352193  0.493966  1
  I  I14  1  0.649265  0.861082  0.004878  1
  I  I15  1  0.352125  0.846431  0.492850  1
  I  I16  1  0.152399  0.643953  0.009350  1
  I  I17  1  0.850285  0.350257  0.993260  1
