# generated using pymatgen
data_Ca6LaEr(Si3Au)4
_symmetry_space_group_name_H-M   'P 1'
_cell_length_a   8.30194900
_cell_length_b   8.30194861
_cell_length_c   8.51940500
_cell_angle_alpha   90.00000000
_cell_angle_beta   90.00000000
_cell_angle_gamma   120.00000552
_symmetry_Int_Tables_number   1
_chemical_formula_structural   Ca6LaEr(Si3Au)4
_chemical_formula_sum   'Ca6 La1 Er1 Si12 Au4'
_cell_volume   508.51055749
_cell_formula_units_Z   1
loop_
 _symmetry_equiv_pos_site_id
 _symmetry_equiv_pos_as_xyz
  1  'x, y, z'
loop_
 _atom_site_type_symbol
 _atom_site_label
 _atom_site_symmetry_multiplicity
 _atom_site_fract_x
 _atom_site_fract_y
 _atom_site_fract_z
 _atom_site_occupancy
  Ca  Ca0  1  0.500192  0.000387  0.250000  1
  Ca  Ca1  1  0.499157  0.998311  0.750000  1
  Ca  Ca2  1  0.999613  0.499808  0.250000  1
  Ca  Ca3  1  0.001689  0.500843  0.750000  1
  Ca  Ca4  1  0.500192  0.499808  0.250000  1
  Ca  Ca5  1  0.499157  0.500843  0.750000  1
  La  La6  1  0.000000  0.000000  0.250000  1
  Er  Er7  1  0.000000  0.000000  0.750000  1
  Si  Si8  1  0.162516  0.325032  0.994825  1
  Si  Si9  1  0.837471  0.674942  0.993624  1
  Si  Si10  1  0.674968  0.837484  0.994825  1
  Si  Si11  1  0.837471  0.674942  0.506376  1
  Si  Si12  1  0.325058  0.162529  0.993624  1
  Si  Si13  1  0.162516  0.325032  0.505175  1
  Si  Si14  1  0.162516  0.837484  0.994825  1
  Si  Si15  1  0.325058  0.162529  0.506376  1
  Si  Si16  1  0.837471  0.162529  0.993624  1
  Si  Si17  1  0.674968  0.837484  0.505175  1
  Si  Si18  1  0.837471  0.162529  0.506376  1
  Si  Si19  1  0.162516  0.837484  0.505175  1
  Au  Au20  1  0.333333  0.666667  0.999407  1
  Au  Au21  1  0.666667  0.333333  0.997513  1
  Au  Au22  1  0.666667  0.333333  0.502487  1
  Au  Au23  1  0.333333  0.666667  0.500593  1
