# generated using pymatgen
data_Dy6Nb3In(ReN4)6
_symmetry_space_group_name_H-M   'P 1'
_cell_length_a   11.10621417
_cell_length_b   11.10621348
_cell_length_c   11.19270200
_cell_angle_alpha   109.62904430
_cell_angle_beta   109.62904302
_cell_angle_gamma   109.31293431
_symmetry_Int_Tables_number   1
_chemical_formula_structural   Dy6Nb3In(ReN4)6
_chemical_formula_sum   'Dy12 Nb6 In2 Re12 N48'
_cell_volume   1060.70721602
_cell_formula_units_Z   2
loop_
 _symmetry_equiv_pos_site_id
 _symmetry_equiv_pos_as_xyz
  1  'x, y, z'
loop_
 _atom_site_type_symbol
 _atom_site_label
 _atom_site_symmetry_multiplicity
 _atom_site_fract_x
 _atom_site_fract_y
 _atom_site_fract_z
 _atom_site_occupancy
  Dy  Dy0  1  0.250308  0.375154  0.125154  1
  Dy  Dy1  1  0.373211  0.746422  0.123211  1
  Dy  Dy2  1  0.373211  0.126789  0.250000  1
  Dy  Dy3  1  0.875154  0.624846  0.250000  1
  Dy  Dy4  1  0.753578  0.126789  0.376789  1
  Dy  Dy5  1  0.124846  0.249692  0.374846  1
  Dy  Dy6  1  0.875154  0.750308  0.625154  1
  Dy  Dy7  1  0.246422  0.873211  0.623211  1
  Dy  Dy8  1  0.124846  0.375154  0.750000  1
  Dy  Dy9  1  0.626789  0.873211  0.750000  1
  Dy  Dy10  1  0.626789  0.253578  0.876789  1
  Dy  Dy11  1  0.749692  0.624846  0.874846  1
  Nb  Nb12  1  0.000000  0.000000  0.000000  1
  Nb  Nb13  1  0.000000  0.500000  0.000000  1
  Nb  Nb14  1  0.500000  0.500000  0.000000  1
  Nb  Nb15  1  0.000000  0.000000  0.500000  1
  Nb  Nb16  1  0.000000  0.500000  0.500000  1
  Nb  Nb17  1  0.500000  0.500000  0.500000  1
  In  In18  1  0.500000  0.000000  0.000000  1
  In  In19  1  0.500000  0.000000  0.500000  1
  Re  Re20  1  0.875065  0.251942  0.126096  1
  Re  Re21  1  0.751943  0.876878  0.125849  1
  Re  Re22  1  0.623122  0.375065  0.248970  1
  Re  Re23  1  0.124935  0.876878  0.251029  1
  Re  Re24  1  0.248057  0.624935  0.373904  1
  Re  Re25  1  0.623121  0.748057  0.374151  1
  Re  Re26  1  0.376878  0.251943  0.625849  1
  Re  Re27  1  0.751943  0.375065  0.626095  1
  Re  Re28  1  0.875065  0.123122  0.748970  1
  Re  Re29  1  0.376878  0.624934  0.751030  1
  Re  Re30  1  0.248056  0.123122  0.874151  1
  Re  Re31  1  0.124935  0.748057  0.873904  1
  N  N32  1  0.307004  0.899210  0.024763  1
  N  N33  1  0.206929  0.119001  0.022533  1
  N  N34  1  0.881704  0.403371  0.088751  1
  N  N35  1  0.706367  0.686910  0.086256  1
  N  N36  1  0.619001  0.412072  0.096469  1
  N  N37  1  0.980542  0.686910  0.100655  1
  N  N38  1  0.600789  0.907793  0.125552  1
  N  N39  1  0.019458  0.206368  0.120112  1
  N  N40  1  0.206928  0.587927  0.184397  1
  N  N41  1  0.478335  0.596629  0.185379  1
  N  N42  1  0.118296  0.021666  0.207045  1
  N  N43  1  0.592206  0.192996  0.217759  1
  N  N44  1  0.478335  0.381705  0.292956  1
  N  N45  1  0.307004  0.907793  0.282241  1
  N  N46  1  0.903371  0.021665  0.314621  1
  N  N47  1  0.912072  0.293072  0.315603  1
  N  N48  1  0.293633  0.480543  0.379889  1
  N  N49  1  0.592206  0.899211  0.374448  1
  N  N50  1  0.813090  0.519457  0.399345  1
  N  N51  1  0.087928  0.880999  0.403530  1
  N  N52  1  0.096628  0.618296  0.411249  1
  N  N53  1  0.813089  0.793632  0.413744  1
  N  N54  1  0.600790  0.192996  0.475237  1
  N  N55  1  0.381000  0.293072  0.477468  1
  N  N56  1  0.619000  0.706928  0.522532  1
  N  N57  1  0.399211  0.807004  0.524763  1
  N  N58  1  0.186910  0.206367  0.586255  1
  N  N59  1  0.903372  0.381705  0.588750  1
  N  N60  1  0.912072  0.119000  0.596469  1
  N  N61  1  0.186910  0.480543  0.600656  1
  N  N62  1  0.407793  0.100789  0.625553  1
  N  N63  1  0.706367  0.519457  0.620111  1
  N  N64  1  0.087928  0.706928  0.684397  1
  N  N65  1  0.096628  0.978334  0.685379  1
  N  N66  1  0.692996  0.092207  0.717759  1
  N  N67  1  0.521665  0.618295  0.707044  1
  N  N68  1  0.407793  0.807003  0.782240  1
  N  N69  1  0.881705  0.978335  0.792956  1
  N  N70  1  0.521665  0.403372  0.814621  1
  N  N71  1  0.793071  0.412072  0.815602  1
  N  N72  1  0.399210  0.092207  0.874447  1
  N  N73  1  0.980543  0.793633  0.879889  1
  N  N74  1  0.019457  0.313090  0.899344  1
  N  N75  1  0.381000  0.587927  0.903531  1
  N  N76  1  0.293633  0.313090  0.913744  1
  N  N77  1  0.118295  0.596628  0.911249  1
  N  N78  1  0.692996  0.100789  0.975236  1
  N  N79  1  0.793072  0.881000  0.977468  1
