# generated using pymatgen
data_Mn3Fe5P4
_symmetry_space_group_name_H-M   'P 1'
_cell_length_a   3.52804500
_cell_length_b   5.77260498
_cell_length_c   6.63690046
_cell_angle_alpha   89.97673081
_cell_angle_beta   90.00000000
_cell_angle_gamma   90.00000000
_symmetry_Int_Tables_number   1
_chemical_formula_structural   Mn3Fe5P4
_chemical_formula_sum   'Mn3 Fe5 P4'
_cell_volume   135.16717084
_cell_formula_units_Z   1
loop_
 _symmetry_equiv_pos_site_id
 _symmetry_equiv_pos_as_xyz
  1  'x, y, z'
loop_
 _atom_site_type_symbol
 _atom_site_label
 _atom_site_symmetry_multiplicity
 _atom_site_fract_x
 _atom_site_fract_y
 _atom_site_fract_z
 _atom_site_occupancy
  Mn  Mn0  1  0.000000  0.970158  0.323636  1
  Mn  Mn1  1  0.500000  0.528195  0.828599  1
  Mn  Mn2  1  0.500000  0.031433  0.675107  1
  Fe  Fe3  1  0.000000  0.348671  0.562538  1
  Fe  Fe4  1  0.000000  0.851473  0.936274  1
  Fe  Fe5  1  0.500000  0.650344  0.437739  1
  Fe  Fe6  1  0.500000  0.144682  0.064926  1
  Fe  Fe7  1  0.000000  0.472477  0.170030  1
  P  P8  1  0.000000  0.729525  0.624083  1
  P  P9  1  0.000000  0.233125  0.880694  1
  P  P10  1  0.500000  0.274239  0.372479  1
  P  P11  1  0.500000  0.765679  0.123896  1
