# generated using pymatgen
data_Ac4Hg3Au
_symmetry_space_group_name_H-M   'P 1'
_cell_length_a   3.96661100
_cell_length_b   3.96661100
_cell_length_c   16.41518500
_cell_angle_alpha   90.00000000
_cell_angle_beta   90.00000000
_cell_angle_gamma   90.00000000
_symmetry_Int_Tables_number   1
_chemical_formula_structural   Ac4Hg3Au
_chemical_formula_sum   'Ac4 Hg3 Au1'
_cell_volume   258.27656717
_cell_formula_units_Z   1
loop_
 _symmetry_equiv_pos_site_id
 _symmetry_equiv_pos_as_xyz
  1  'x, y, z'
loop_
 _atom_site_type_symbol
 _atom_site_label
 _atom_site_symmetry_multiplicity
 _atom_site_fract_x
 _atom_site_fract_y
 _atom_site_fract_z
 _atom_site_occupancy
  Ac  Ac0  1  0.500000  0.500000  0.114431  1
  Ac  Ac1  1  0.500000  0.500000  0.371516  1
  Ac  Ac2  1  0.500000  0.500000  0.628484  1
  Ac  Ac3  1  0.500000  0.500000  0.885569  1
  Hg  Hg4  1  0.000000  0.000000  0.245674  1
  Hg  Hg5  1  0.000000  0.000000  0.500000  1
  Hg  Hg6  1  0.000000  0.000000  0.754326  1
  Au  Au7  1  0.000000  0.000000  0.000000  1
