# generated using pymatgen
data_Cs4HfZr5FeBr18
_symmetry_space_group_name_H-M   'P 1'
_cell_length_a   10.96272223
_cell_length_b   11.32385805
_cell_length_c   11.43030169
_cell_angle_alpha   118.12941918
_cell_angle_beta   100.73730273
_cell_angle_gamma   104.41322831
_symmetry_Int_Tables_number   1
_chemical_formula_structural   Cs4HfZr5FeBr18
_chemical_formula_sum   'Cs4 Hf1 Zr5 Fe1 Br18'
_cell_volume   1132.79454682
_cell_formula_units_Z   1
loop_
 _symmetry_equiv_pos_site_id
 _symmetry_equiv_pos_as_xyz
  1  'x, y, z'
loop_
 _atom_site_type_symbol
 _atom_site_label
 _atom_site_symmetry_multiplicity
 _atom_site_fract_x
 _atom_site_fract_y
 _atom_site_fract_z
 _atom_site_occupancy
  Cs  Cs0  1  0.664694  0.537750  0.231736  1
  Cs  Cs1  1  0.334895  0.461957  0.768267  1
  Cs  Cs2  1  0.698160  0.228179  0.564284  1
  Cs  Cs3  1  0.301771  0.771311  0.435416  1
  Hf  Hf4  1  0.855970  0.767622  0.955133  1
  Zr  Zr5  1  0.150538  0.056235  0.225502  1
  Zr  Zr6  1  0.849372  0.943617  0.774420  1
  Zr  Zr7  1  0.861822  0.118794  0.125287  1
  Zr  Zr8  1  0.138175  0.881174  0.874684  1
  Zr  Zr9  1  0.145682  0.235137  0.045388  1
  Fe  Fe10  1  0.000794  0.001275  0.000199  1
  Br  Br11  1  0.007140  0.389194  0.186120  1
  Br  Br12  1  0.989625  0.611441  0.815750  1
  Br  Br13  1  0.323262  0.322055  0.300750  1
  Br  Br14  1  0.678194  0.677419  0.702719  1
  Br  Br15  1  0.315304  0.503225  0.099580  1
  Br  Br16  1  0.688842  0.502766  0.901690  1
  Br  Br17  1  0.001476  0.802762  0.197074  1
  Br  Br18  1  0.995103  0.194986  0.798989  1
  Br  Br19  1  0.707853  0.253530  0.267900  1
  Br  Br20  1  0.291443  0.745230  0.731950  1
  Br  Br21  1  0.309804  0.126928  0.911485  1
  Br  Br22  1  0.691442  0.869665  0.086109  1
  Br  Br23  1  0.015250  0.193779  0.388526  1
  Br  Br24  1  0.984370  0.805676  0.611318  1
  Br  Br25  1  0.314568  0.930806  0.110636  1
  Br  Br26  1  0.685061  0.068591  0.889207  1
  Br  Br27  1  0.327556  0.120830  0.483780  1
  Br  Br28  1  0.671836  0.878066  0.516102  1
