# generated using pymatgen
data_Ho2NiGeBr2
_symmetry_space_group_name_H-M   'P 1'
_cell_length_a   4.07574400
_cell_length_b   4.07574364
_cell_length_c   10.79804800
_cell_angle_alpha   90.00000000
_cell_angle_beta   90.00000000
_cell_angle_gamma   119.99998672
_symmetry_Int_Tables_number   1
_chemical_formula_structural   Ho2NiGeBr2
_chemical_formula_sum   'Ho2 Ni1 Ge1 Br2'
_cell_volume   155.34228905
_cell_formula_units_Z   1
loop_
 _symmetry_equiv_pos_site_id
 _symmetry_equiv_pos_as_xyz
  1  'x, y, z'
loop_
 _atom_site_type_symbol
 _atom_site_label
 _atom_site_symmetry_multiplicity
 _atom_site_fract_x
 _atom_site_fract_y
 _atom_site_fract_z
 _atom_site_occupancy
  Ho  Ho0  1  0.000000  0.000000  0.168829  1
  Ho  Ho1  1  0.000000  0.000000  0.833725  1
  Ni  Ni2  1  0.333333  0.666667  0.991055  1
  Ge  Ge3  1  0.666667  0.333333  0.008236  1
  Br  Br4  1  0.666667  0.333333  0.662690  1
  Br  Br5  1  0.333333  0.666667  0.335464  1
