# generated using pymatgen
data_Ti3ReTc5W3
_symmetry_space_group_name_H-M   'P 1'
_cell_length_a   4.40859300
_cell_length_b   6.24842100
_cell_length_c   13.28157000
_cell_angle_alpha   90.00000000
_cell_angle_beta   89.99956336
_cell_angle_gamma   90.00000000
_symmetry_Int_Tables_number   1
_chemical_formula_structural   Ti3ReTc5W3
_chemical_formula_sum   'Ti6 Re2 Tc10 W6'
_cell_volume   365.86402307
_cell_formula_units_Z   2
loop_
 _symmetry_equiv_pos_site_id
 _symmetry_equiv_pos_as_xyz
  1  'x, y, z'
loop_
 _atom_site_type_symbol
 _atom_site_label
 _atom_site_symmetry_multiplicity
 _atom_site_fract_x
 _atom_site_fract_y
 _atom_site_fract_z
 _atom_site_occupancy
  Ti  Ti0  1  0.000000  0.000000  0.000000  1
  Ti  Ti1  1  0.499934  0.500000  0.167780  1
  Ti  Ti2  1  0.999932  0.000000  0.333569  1
  Ti  Ti3  1  0.499999  0.500000  0.500000  1
  Ti  Ti4  1  0.000069  0.000000  0.666432  1
  Ti  Ti5  1  0.500065  0.500000  0.832220  1
  Re  Re6  1  0.499999  0.250021  0.000000  1
  Re  Re7  1  0.499999  0.749979  0.000000  1
  Tc  Tc8  1  0.999943  0.249873  0.167153  1
  Tc  Tc9  1  0.999943  0.750127  0.167153  1
  Tc  Tc10  1  0.499949  0.250383  0.333658  1
  Tc  Tc11  1  0.499949  0.749617  0.333658  1
  Tc  Tc12  1  0.000000  0.249730  0.500000  1
  Tc  Tc13  1  0.000000  0.750270  0.500000  1
  Tc  Tc14  1  0.500050  0.250383  0.666342  1
  Tc  Tc15  1  0.500050  0.749617  0.666342  1
  Tc  Tc16  1  0.000058  0.249873  0.832847  1
  Tc  Tc17  1  0.000058  0.750127  0.832847  1
  W  W18  1  0.000000  0.500000  0.000000  1
  W  W19  1  0.499940  0.000000  0.166581  1
  W  W20  1  0.999939  0.500000  0.333836  1
  W  W21  1  0.499999  0.000000  0.500000  1
  W  W22  1  0.000062  0.500000  0.666163  1
  W  W23  1  0.500059  0.000000  0.833419  1
