# generated using pymatgen
data_Sr4MgCu(ReN4)2
_symmetry_space_group_name_H-M   'P 1'
_cell_length_a   5.93732900
_cell_length_b   6.27908238
_cell_length_c   6.83829009
_cell_angle_alpha   74.03766964
_cell_angle_beta   90.00000000
_cell_angle_gamma   90.00000000
_symmetry_Int_Tables_number   1
_chemical_formula_structural   Sr4MgCu(ReN4)2
_chemical_formula_sum   'Sr4 Mg1 Cu1 Re2 N8'
_cell_volume   245.10841734
_cell_formula_units_Z   1
loop_
 _symmetry_equiv_pos_site_id
 _symmetry_equiv_pos_as_xyz
  1  'x, y, z'
loop_
 _atom_site_type_symbol
 _atom_site_label
 _atom_site_symmetry_multiplicity
 _atom_site_fract_x
 _atom_site_fract_y
 _atom_site_fract_z
 _atom_site_occupancy
  Sr  Sr0  1  0.250000  0.241110  0.068606  1
  Sr  Sr1  1  0.750000  0.750111  0.938979  1
  Sr  Sr2  1  0.750000  0.790585  0.423543  1
  Sr  Sr3  1  0.250000  0.222855  0.566408  1
  Mg  Mg4  1  0.250000  0.698680  0.698437  1
  Cu  Cu5  1  0.750000  0.302238  0.304320  1
  Re  Re6  1  0.250000  0.710590  0.199224  1
  Re  Re7  1  0.750000  0.285533  0.800401  1
  N  N8  1  0.501351  0.468841  0.754777  1
  N  N9  1  0.002342  0.531292  0.245861  1
  N  N10  1  0.497658  0.531292  0.245861  1
  N  N11  1  0.998649  0.468841  0.754777  1
  N  N12  1  0.750000  0.111803  0.617409  1
  N  N13  1  0.250000  0.885880  0.385792  1
  N  N14  1  0.750000  0.119664  0.071679  1
  N  N15  1  0.250000  0.880685  0.923929  1
