# generated using pymatgen
data_La10InSi4Sn
_symmetry_space_group_name_H-M   'P 1'
_cell_length_a   7.95732400
_cell_length_b   9.36304685
_cell_length_c   7.95732400
_cell_angle_alpha   115.14639160
_cell_angle_beta   90.00000000
_cell_angle_gamma   115.14639160
_symmetry_Int_Tables_number   1
_chemical_formula_structural   La10InSi4Sn
_chemical_formula_sum   'La10 In1 Si4 Sn1'
_cell_volume   473.86620155
_cell_formula_units_Z   1
loop_
 _symmetry_equiv_pos_site_id
 _symmetry_equiv_pos_as_xyz
  1  'x, y, z'
loop_
 _atom_site_type_symbol
 _atom_site_label
 _atom_site_symmetry_multiplicity
 _atom_site_fract_x
 _atom_site_fract_y
 _atom_site_fract_z
 _atom_site_occupancy
  La  La0  1  0.978479  0.956959  0.978479  1
  La  La1  1  0.521521  0.043041  0.521521  1
  La  La2  1  0.533084  0.724114  0.682148  1
  La  La3  1  0.191032  0.724114  0.041967  1
  La  La4  1  0.682148  0.724114  0.191032  1
  La  La5  1  0.041967  0.724114  0.533084  1
  La  La6  1  0.458033  0.275886  0.308968  1
  La  La7  1  0.817852  0.275886  0.966916  1
  La  La8  1  0.308968  0.275886  0.817852  1
  La  La9  1  0.966916  0.275886  0.458033  1
  In  In10  1  0.750000  0.500000  0.750000  1
  Si  Si11  1  0.884824  0.000000  0.615176  1
  Si  Si12  1  0.115176  0.000000  0.384824  1
  Si  Si13  1  0.615176  0.000000  0.115176  1
  Si  Si14  1  0.384824  0.000000  0.884824  1
  Sn  Sn15  1  0.250000  0.500000  0.250000  1
