# generated using pymatgen
data_Tm8LuZrIr6
_symmetry_space_group_name_H-M   'P 1'
_cell_length_a   10.73461300
_cell_length_b   10.73461300
_cell_length_c   6.25173400
_cell_angle_alpha   90.00000000
_cell_angle_beta   90.00000000
_cell_angle_gamma   90.00000000
_symmetry_Int_Tables_number   1
_chemical_formula_structural   Tm8LuZrIr6
_chemical_formula_sum   'Tm16 Lu2 Zr2 Ir12'
_cell_volume   720.39928877
_cell_formula_units_Z   2
loop_
 _symmetry_equiv_pos_site_id
 _symmetry_equiv_pos_as_xyz
  1  'x, y, z'
loop_
 _atom_site_type_symbol
 _atom_site_label
 _atom_site_symmetry_multiplicity
 _atom_site_fract_x
 _atom_site_fract_y
 _atom_site_fract_z
 _atom_site_occupancy
  Tm  Tm0  1  0.289692  0.086491  0.374761  1
  Tm  Tm1  1  0.289692  0.913509  0.874761  1
  Tm  Tm2  1  0.710308  0.086491  0.874761  1
  Tm  Tm3  1  0.710308  0.913509  0.374761  1
  Tm  Tm4  1  0.587544  0.792300  0.875207  1
  Tm  Tm5  1  0.587544  0.207700  0.375207  1
  Tm  Tm6  1  0.412456  0.792300  0.375207  1
  Tm  Tm7  1  0.412456  0.207700  0.875207  1
  Tm  Tm8  1  0.207700  0.412456  0.624793  1
  Tm  Tm9  1  0.207700  0.587544  0.124793  1
  Tm  Tm10  1  0.792300  0.412456  0.124793  1
  Tm  Tm11  1  0.792300  0.587544  0.624793  1
  Tm  Tm12  1  0.913509  0.710308  0.125239  1
  Tm  Tm13  1  0.913509  0.289692  0.625239  1
  Tm  Tm14  1  0.086491  0.710308  0.625239  1
  Tm  Tm15  1  0.086491  0.289692  0.125239  1
  Lu  Lu16  1  0.500000  0.500000  0.000000  1
  Lu  Lu17  1  0.500000  0.500000  0.500000  1
  Zr  Zr18  1  0.000000  0.000000  0.500000  1
  Zr  Zr19  1  0.000000  0.000000  0.000000  1
  Ir  Ir20  1  0.853738  0.146262  0.250000  1
  Ir  Ir21  1  0.853738  0.853738  0.750000  1
  Ir  Ir22  1  0.146262  0.146262  0.750000  1
  Ir  Ir23  1  0.146262  0.853738  0.250000  1
  Ir  Ir24  1  0.654060  0.345940  0.750000  1
  Ir  Ir25  1  0.654060  0.654060  0.250000  1
  Ir  Ir26  1  0.345940  0.345940  0.250000  1
  Ir  Ir27  1  0.345940  0.654060  0.750000  1
  Ir  Ir28  1  0.500000  0.000000  0.122856  1
  Ir  Ir29  1  0.500000  0.000000  0.622856  1
  Ir  Ir30  1  0.000000  0.500000  0.877144  1
  Ir  Ir31  1  0.000000  0.500000  0.377144  1
