# generated using pymatgen
data_Hf4Zr(GaSb)2
_symmetry_space_group_name_H-M   'P 1'
_cell_length_a   8.53604342
_cell_length_b   8.55637397
_cell_length_c   5.78275300
_cell_angle_alpha   90.00000000
_cell_angle_beta   90.00000000
_cell_angle_gamma   120.09925128
_symmetry_Int_Tables_number   1
_chemical_formula_structural   Hf4Zr(GaSb)2
_chemical_formula_sum   'Hf8 Zr2 Ga4 Sb4'
_cell_volume   365.40663659
_cell_formula_units_Z   2
loop_
 _symmetry_equiv_pos_site_id
 _symmetry_equiv_pos_as_xyz
  1  'x, y, z'
loop_
 _atom_site_type_symbol
 _atom_site_label
 _atom_site_symmetry_multiplicity
 _atom_site_fract_x
 _atom_site_fract_y
 _atom_site_fract_z
 _atom_site_occupancy
  Hf  Hf0  1  0.286564  0.272961  0.750000  1
  Hf  Hf1  1  0.735855  0.738045  0.250000  1
  Hf  Hf2  1  0.712948  0.985654  0.750000  1
  Hf  Hf3  1  0.338170  0.670246  0.505451  1
  Hf  Hf4  1  0.662512  0.332855  0.505398  1
  Hf  Hf5  1  0.999296  0.727646  0.750000  1
  Hf  Hf6  1  0.338170  0.670246  0.994549  1
  Hf  Hf7  1  0.662512  0.332855  0.994602  1
  Zr  Zr8  1  0.000192  0.265449  0.250000  1
  Zr  Zr9  1  0.264026  0.002189  0.250000  1
  Ga  Ga10  1  0.999474  0.001062  0.516118  1
  Ga  Ga11  1  0.615998  0.613402  0.750000  1
  Ga  Ga12  1  0.383865  0.997692  0.750000  1
  Ga  Ga13  1  0.999474  0.001062  0.983882  1
  Sb  Sb14  1  0.606181  0.000722  0.250000  1
  Sb  Sb15  1  0.395086  0.395901  0.250000  1
  Sb  Sb16  1  0.000057  0.381696  0.750000  1
  Sb  Sb17  1  0.999619  0.610316  0.250000  1
