# generated using pymatgen
data_Ba3YFeIrO9
_symmetry_space_group_name_H-M   'P 1'
_cell_length_a   5.98963100
_cell_length_b   5.98963073
_cell_length_c   14.85959200
_cell_angle_alpha   90.00000000
_cell_angle_beta   90.00000000
_cell_angle_gamma   120.00000704
_symmetry_Int_Tables_number   1
_chemical_formula_structural   Ba3YFeIrO9
_chemical_formula_sum   'Ba6 Y2 Fe2 Ir2 O18'
_cell_volume   461.67632248
_cell_formula_units_Z   2
loop_
 _symmetry_equiv_pos_site_id
 _symmetry_equiv_pos_as_xyz
  1  'x, y, z'
loop_
 _atom_site_type_symbol
 _atom_site_label
 _atom_site_symmetry_multiplicity
 _atom_site_fract_x
 _atom_site_fract_y
 _atom_site_fract_z
 _atom_site_occupancy
  Ba  Ba0  1  0.666667  0.333333  0.401119  1
  Ba  Ba1  1  0.333333  0.666667  0.596420  1
  Ba  Ba2  1  0.333333  0.666667  0.901119  1
  Ba  Ba3  1  0.666667  0.333333  0.096420  1
  Ba  Ba4  1  0.000000  0.000000  0.755061  1
  Ba  Ba5  1  0.000000  0.000000  0.255061  1
  Y  Y6  1  0.000000  0.000000  0.498348  1
  Y  Y7  1  0.000000  0.000000  0.998348  1
  Fe  Fe8  1  0.333333  0.666667  0.352810  1
  Fe  Fe9  1  0.666667  0.333333  0.852810  1
  Ir  Ir10  1  0.666667  0.333333  0.663892  1
  Ir  Ir11  1  0.333333  0.666667  0.163892  1
  O  O12  1  0.514903  0.029806  0.743252  1
  O  O13  1  0.514903  0.485097  0.743252  1
  O  O14  1  0.970194  0.485097  0.743252  1
  O  O15  1  0.485097  0.970194  0.243252  1
  O  O16  1  0.485097  0.514903  0.243252  1
  O  O17  1  0.029806  0.514903  0.243252  1
  O  O18  1  0.830045  0.660090  0.911617  1
  O  O19  1  0.830045  0.169955  0.911617  1
  O  O20  1  0.339910  0.169955  0.911617  1
  O  O21  1  0.178064  0.356129  0.089213  1
  O  O22  1  0.178064  0.821936  0.089213  1
  O  O23  1  0.643871  0.821936  0.089213  1
  O  O24  1  0.169955  0.339910  0.411617  1
  O  O25  1  0.169955  0.830045  0.411617  1
  O  O26  1  0.660090  0.830045  0.411617  1
  O  O27  1  0.821936  0.643871  0.589213  1
  O  O28  1  0.821936  0.178064  0.589213  1
  O  O29  1  0.356129  0.178064  0.589213  1
