# generated using pymatgen
data_PrHo3(Ir2O7)2
_symmetry_space_group_name_H-M   'P 1'
_cell_length_a   7.29701993
_cell_length_b   7.25880341
_cell_length_c   7.25880400
_cell_angle_alpha   59.99999730
_cell_angle_beta   60.17309441
_cell_angle_gamma   60.17309186
_symmetry_Int_Tables_number   1
_chemical_formula_structural   PrHo3(Ir2O7)2
_chemical_formula_sum   'Pr1 Ho3 Ir4 O14'
_cell_volume   272.57871187
_cell_formula_units_Z   1
loop_
 _symmetry_equiv_pos_site_id
 _symmetry_equiv_pos_as_xyz
  1  'x, y, z'
loop_
 _atom_site_type_symbol
 _atom_site_label
 _atom_site_symmetry_multiplicity
 _atom_site_fract_x
 _atom_site_fract_y
 _atom_site_fract_z
 _atom_site_occupancy
  Pr  Pr0  1  0.625000  0.125000  0.125000  1
  Ho  Ho1  1  0.125000  0.125000  0.625000  1
  Ho  Ho2  1  0.125000  0.125000  0.125000  1
  Ho  Ho3  1  0.125000  0.625000  0.125000  1
  Ir  Ir4  1  0.625000  0.625000  0.625000  1
  Ir  Ir5  1  0.125000  0.625000  0.625000  1
  Ir  Ir6  1  0.625000  0.125000  0.625000  1
  Ir  Ir7  1  0.625000  0.625000  0.125000  1
  O  O8  1  0.963041  0.537865  0.537865  1
  O  O9  1  0.286959  0.288770  0.712135  1
  O  O10  1  0.963041  0.537865  0.961230  1
  O  O11  1  0.720243  0.288897  0.288897  1
  O  O12  1  0.529757  0.548037  0.961103  1
  O  O13  1  0.529757  0.961103  0.548037  1
  O  O14  1  0.529757  0.961103  0.961103  1
  O  O15  1  0.236623  0.254459  0.254459  1
  O  O16  1  0.286959  0.712135  0.712135  1
  O  O17  1  0.720243  0.288897  0.701963  1
  O  O18  1  0.013377  0.995541  0.995541  1
  O  O19  1  0.963041  0.961230  0.537865  1
  O  O20  1  0.286959  0.712135  0.288770  1
  O  O21  1  0.720243  0.701963  0.288897  1
