# generated using pymatgen
data_YAl2PdPt4
_symmetry_space_group_name_H-M   'P 1'
_cell_length_a   8.15524860
_cell_length_b   8.15524841
_cell_length_c   8.15524887
_cell_angle_alpha   150.72015902
_cell_angle_beta   150.72015605
_cell_angle_gamma   41.88530726
_symmetry_Int_Tables_number   1
_chemical_formula_structural   YAl2PdPt4
_chemical_formula_sum   'Y1 Al2 Pd1 Pt4'
_cell_volume   129.43452504
_cell_formula_units_Z   1
loop_
 _symmetry_equiv_pos_site_id
 _symmetry_equiv_pos_as_xyz
  1  'x, y, z'
loop_
 _atom_site_type_symbol
 _atom_site_label
 _atom_site_symmetry_multiplicity
 _atom_site_fract_x
 _atom_site_fract_y
 _atom_site_fract_z
 _atom_site_occupancy
  Y  Y0  1  0.000000  0.000000  0.000000  1
  Al  Al1  1  0.746982  0.746982  0.000000  1
  Al  Al2  1  0.253018  0.253018  0.000000  1
  Pd  Pd3  1  0.500000  0.500000  0.000000  1
  Pt  Pt4  1  0.855804  0.355804  0.500000  1
  Pt  Pt5  1  0.355804  0.855804  0.500000  1
  Pt  Pt6  1  0.144196  0.644196  0.500000  1
  Pt  Pt7  1  0.644196  0.144196  0.500000  1
