# generated using pymatgen
data_Ce6Co12SiGe3
_symmetry_space_group_name_H-M   'P 1'
_cell_length_a   7.59736647
_cell_length_b   7.61112039
_cell_length_c   7.59652245
_cell_angle_alpha   109.51565583
_cell_angle_beta   109.42726563
_cell_angle_gamma   109.50513259
_symmetry_Int_Tables_number   1
_chemical_formula_structural   Ce6Co12SiGe3
_chemical_formula_sum   'Ce6 Co12 Si1 Ge3'
_cell_volume   338.00249025
_cell_formula_units_Z   1
loop_
 _symmetry_equiv_pos_site_id
 _symmetry_equiv_pos_as_xyz
  1  'x, y, z'
loop_
 _atom_site_type_symbol
 _atom_site_label
 _atom_site_symmetry_multiplicity
 _atom_site_fract_x
 _atom_site_fract_y
 _atom_site_fract_z
 _atom_site_occupancy
  Ce  Ce0  1  0.716816  0.715698  0.999968  1
  Ce  Ce1  1  0.283184  0.998882  0.283152  1
  Ce  Ce2  1  0.000000  0.284126  0.282983  1
  Ce  Ce3  1  0.283184  0.284302  0.000032  1
  Ce  Ce4  1  0.716816  0.001118  0.716848  1
  Ce  Ce5  1  0.000000  0.715874  0.717017  1
  Co  Co6  1  0.351535  0.351543  0.703111  1
  Co  Co7  1  0.648465  0.000008  0.351575  1
  Co  Co8  1  0.000000  0.646272  0.345080  1
  Co  Co9  1  0.654961  0.353678  0.000003  1
  Co  Co10  1  0.345039  0.698718  0.345042  1
  Co  Co11  1  0.000000  0.353728  0.654920  1
  Co  Co12  1  0.345039  0.646322  0.999997  1
  Co  Co13  1  0.351535  0.999992  0.648425  1
  Co  Co14  1  0.703195  0.351597  0.351597  1
  Co  Co15  1  0.648465  0.648457  0.296889  1
  Co  Co16  1  0.654961  0.301282  0.654958  1
  Co  Co17  1  0.296805  0.648403  0.648403  1
  Si  Si18  1  0.000000  0.500000  0.000000  1
  Ge  Ge19  1  0.000000  0.000000  0.500000  1
  Ge  Ge20  1  0.500000  0.000000  0.000000  1
  Ge  Ge21  1  0.500000  0.500000  0.500000  1
