# generated using pymatgen
data_Yb2Ag3AuO8
_symmetry_space_group_name_H-M   'P 1'
_cell_length_a   6.57315481
_cell_length_b   6.58796394
_cell_length_c   6.59572374
_cell_angle_alpha   126.01038523
_cell_angle_beta   126.01532540
_cell_angle_gamma   79.38473325
_symmetry_Int_Tables_number   1
_chemical_formula_structural   Yb2Ag3AuO8
_chemical_formula_sum   'Yb2 Ag3 Au1 O8'
_cell_volume   181.09761078
_cell_formula_units_Z   1
loop_
 _symmetry_equiv_pos_site_id
 _symmetry_equiv_pos_as_xyz
  1  'x, y, z'
loop_
 _atom_site_type_symbol
 _atom_site_label
 _atom_site_symmetry_multiplicity
 _atom_site_fract_x
 _atom_site_fract_y
 _atom_site_fract_z
 _atom_site_occupancy
  Yb  Yb0  1  0.001842  0.998497  0.000841  1
  Yb  Yb1  1  0.748158  0.251503  0.499159  1
  Ag  Ag2  1  0.875000  0.625000  0.250000  1
  Ag  Ag3  1  0.375000  0.625000  0.750000  1
  Ag  Ag4  1  0.375000  0.625000  0.250000  1
  Au  Au5  1  0.375000  0.125000  0.750000  1
  O  O6  1  0.402435  0.855903  0.150271  1
  O  O7  1  0.702491  0.252069  0.849572  1
  O  O8  1  0.347565  0.394097  0.349729  1
  O  O9  1  0.047509  0.997931  0.650428  1
  O  O10  1  0.997313  0.645340  0.037987  1
  O  O11  1  0.605761  0.956448  0.955099  1
  O  O12  1  0.144239  0.293552  0.544901  1
  O  O13  1  0.752687  0.604660  0.462013  1
