# generated using pymatgen
data_DyHo3(Pd2O7)2
_symmetry_space_group_name_H-M   'P 1'
_cell_length_a   7.23501607
_cell_length_b   7.23715190
_cell_length_c   7.23715200
_cell_angle_alpha   59.99999956
_cell_angle_beta   59.99023367
_cell_angle_gamma   59.99023571
_symmetry_Int_Tables_number   1
_chemical_formula_structural   DyHo3(Pd2O7)2
_chemical_formula_sum   'Dy1 Ho3 Pd4 O14'
_cell_volume   267.91421953
_cell_formula_units_Z   1
loop_
 _symmetry_equiv_pos_site_id
 _symmetry_equiv_pos_as_xyz
  1  'x, y, z'
loop_
 _atom_site_type_symbol
 _atom_site_label
 _atom_site_symmetry_multiplicity
 _atom_site_fract_x
 _atom_site_fract_y
 _atom_site_fract_z
 _atom_site_occupancy
  Dy  Dy0  1  0.625000  0.125000  0.125000  1
  Ho  Ho1  1  0.125000  0.125000  0.125000  1
  Ho  Ho2  1  0.125000  0.125000  0.625000  1
  Ho  Ho3  1  0.125000  0.625000  0.125000  1
  Pd  Pd4  1  0.625000  0.125000  0.625000  1
  Pd  Pd5  1  0.625000  0.625000  0.125000  1
  Pd  Pd6  1  0.125000  0.625000  0.625000  1
  Pd  Pd7  1  0.625000  0.625000  0.625000  1
  O  O8  1  0.965978  0.534071  0.965881  1
  O  O9  1  0.248152  0.250616  0.250616  1
  O  O10  1  0.716115  0.284343  0.715200  1
  O  O11  1  0.716115  0.715200  0.284343  1
  O  O12  1  0.284022  0.715929  0.715929  1
  O  O13  1  0.965978  0.965881  0.534071  1
  O  O14  1  0.533885  0.965657  0.965657  1
  O  O15  1  0.965978  0.534071  0.534071  1
  O  O16  1  0.533885  0.534800  0.965657  1
  O  O17  1  0.716115  0.284343  0.284343  1
  O  O18  1  0.284022  0.284119  0.715929  1
  O  O19  1  0.001848  0.999384  0.999384  1
  O  O20  1  0.284022  0.715929  0.284119  1
  O  O21  1  0.533885  0.965657  0.534800  1
