# generated using pymatgen
data_CeHo2Co8MoP6
_symmetry_space_group_name_H-M   'P 1'
_cell_length_a   3.74416700
_cell_length_b   10.63715400
_cell_length_c   12.25939800
_cell_angle_alpha   90.00000000
_cell_angle_beta   90.00000000
_cell_angle_gamma   90.00000000
_symmetry_Int_Tables_number   1
_chemical_formula_structural   CeHo2Co8MoP6
_chemical_formula_sum   'Ce2 Ho4 Co16 Mo2 P12'
_cell_volume   488.25848880
_cell_formula_units_Z   2
loop_
 _symmetry_equiv_pos_site_id
 _symmetry_equiv_pos_as_xyz
  1  'x, y, z'
loop_
 _atom_site_type_symbol
 _atom_site_label
 _atom_site_symmetry_multiplicity
 _atom_site_fract_x
 _atom_site_fract_y
 _atom_site_fract_z
 _atom_site_occupancy
  Ce  Ce0  1  0.000000  0.500000  0.529119  1
  Ce  Ce1  1  0.500000  0.000000  0.470881  1
  Ho  Ho2  1  0.500000  0.817426  0.203538  1
  Ho  Ho3  1  0.500000  0.182574  0.203538  1
  Ho  Ho4  1  0.000000  0.682574  0.796462  1
  Ho  Ho5  1  0.000000  0.317426  0.796462  1
  Co  Co6  1  0.000000  0.500000  0.986035  1
  Co  Co7  1  0.500000  0.000000  0.013965  1
  Co  Co8  1  0.500000  0.297125  0.431473  1
  Co  Co9  1  0.500000  0.702875  0.431473  1
  Co  Co10  1  0.000000  0.202875  0.568527  1
  Co  Co11  1  0.000000  0.797125  0.568527  1
  Co  Co12  1  0.500000  0.879351  0.708473  1
  Co  Co13  1  0.500000  0.120649  0.708473  1
  Co  Co14  1  0.000000  0.620649  0.291527  1
  Co  Co15  1  0.000000  0.379351  0.291527  1
  Co  Co16  1  0.500000  0.332538  0.990330  1
  Co  Co17  1  0.500000  0.667462  0.990330  1
  Co  Co18  1  0.000000  0.167462  0.009670  1
  Co  Co19  1  0.000000  0.832538  0.009670  1
  Co  Co20  1  0.500000  0.500000  0.700019  1
  Co  Co21  1  0.000000  0.000000  0.299981  1
  Mo  Mo22  1  0.500000  0.500000  0.154518  1
  Mo  Mo23  1  0.000000  0.000000  0.845482  1
  P  P24  1  0.500000  0.307246  0.617375  1
  P  P25  1  0.500000  0.692754  0.617375  1
  P  P26  1  0.000000  0.192754  0.382625  1
  P  P27  1  0.000000  0.807246  0.382625  1
  P  P28  1  0.500000  0.500000  0.880461  1
  P  P29  1  0.000000  0.000000  0.119539  1
  P  P30  1  0.500000  0.844626  0.893778  1
  P  P31  1  0.500000  0.155374  0.893778  1
  P  P32  1  0.000000  0.655374  0.106222  1
  P  P33  1  0.000000  0.344626  0.106222  1
  P  P34  1  0.500000  0.500000  0.347720  1
  P  P35  1  0.000000  0.000000  0.652280  1
