# generated using pymatgen
data_Y2RuC2
_symmetry_space_group_name_H-M   'P 1'
_cell_length_a   5.12585100
_cell_length_b   6.47492600
_cell_length_c   9.83152700
_cell_angle_alpha   90.00000000
_cell_angle_beta   90.00000000
_cell_angle_gamma   90.00000000
_symmetry_Int_Tables_number   1
_chemical_formula_structural   Y2RuC2
_chemical_formula_sum   'Y8 Ru4 C8'
_cell_volume   326.30352349
_cell_formula_units_Z   4
loop_
 _symmetry_equiv_pos_site_id
 _symmetry_equiv_pos_as_xyz
  1  'x, y, z'
loop_
 _atom_site_type_symbol
 _atom_site_label
 _atom_site_symmetry_multiplicity
 _atom_site_fract_x
 _atom_site_fract_y
 _atom_site_fract_z
 _atom_site_occupancy
  Y  Y0  1  0.750000  0.820865  0.054109  1
  Y  Y1  1  0.250000  0.679135  0.554109  1
  Y  Y2  1  0.750000  0.320865  0.445891  1
  Y  Y3  1  0.250000  0.179135  0.945891  1
  Y  Y4  1  0.750000  0.472040  0.782936  1
  Y  Y5  1  0.250000  0.027960  0.282936  1
  Y  Y6  1  0.750000  0.972040  0.717064  1
  Y  Y7  1  0.250000  0.527960  0.217064  1
  Ru  Ru8  1  0.750000  0.278476  0.135756  1
  Ru  Ru9  1  0.250000  0.221524  0.635756  1
  Ru  Ru10  1  0.750000  0.778476  0.364244  1
  Ru  Ru11  1  0.250000  0.721524  0.864244  1
  C  C12  1  0.750000  0.175651  0.948260  1
  C  C13  1  0.250000  0.824349  0.051740  1
  C  C14  1  0.750000  0.675651  0.551740  1
  C  C15  1  0.250000  0.324349  0.448260  1
  C  C16  1  0.750000  0.042752  0.257667  1
  C  C17  1  0.250000  0.457248  0.757667  1
  C  C18  1  0.750000  0.542752  0.242333  1
  C  C19  1  0.250000  0.957248  0.742333  1
