# generated using pymatgen
data_Hf3Al2VN
_symmetry_space_group_name_H-M   'P 1'
_cell_length_a   8.59567995
_cell_length_b   8.59567971
_cell_length_c   8.59588000
_cell_angle_alpha   59.99922149
_cell_angle_beta   59.99922244
_cell_angle_gamma   59.59529263
_symmetry_Int_Tables_number   1
_chemical_formula_structural   Hf3Al2VN
_chemical_formula_sum   'Hf12 Al8 V4 N4'
_cell_volume   447.69761533
_cell_formula_units_Z   4
loop_
 _symmetry_equiv_pos_site_id
 _symmetry_equiv_pos_as_xyz
  1  'x, y, z'
loop_
 _atom_site_type_symbol
 _atom_site_label
 _atom_site_symmetry_multiplicity
 _atom_site_fract_x
 _atom_site_fract_y
 _atom_site_fract_z
 _atom_site_occupancy
  Hf  Hf0  1  0.811017  0.183622  0.188904  1
  Hf  Hf1  1  0.183622  0.811017  0.188904  1
  Hf  Hf2  1  0.814971  0.814971  0.185029  1
  Hf  Hf3  1  0.183622  0.811017  0.816457  1
  Hf  Hf4  1  0.811017  0.183622  0.816457  1
  Hf  Hf5  1  0.189853  0.189853  0.810147  1
  Hf  Hf6  1  0.434890  0.072997  0.056874  1
  Hf  Hf7  1  0.072997  0.434890  0.056874  1
  Hf  Hf8  1  0.436993  0.436993  0.063007  1
  Hf  Hf9  1  0.072997  0.434890  0.435238  1
  Hf  Hf10  1  0.434890  0.072997  0.435238  1
  Hf  Hf11  1  0.060744  0.060744  0.439256  1
  Al  Al12  1  0.748194  0.411537  0.420134  1
  Al  Al13  1  0.411537  0.748194  0.420134  1
  Al  Al14  1  0.835854  0.835854  0.501517  1
  Al  Al15  1  0.835854  0.835854  0.826776  1
  Al  Al16  1  0.498695  0.841228  0.830039  1
  Al  Al17  1  0.841228  0.498695  0.830039  1
  Al  Al18  1  0.622477  0.622477  0.125970  1
  Al  Al19  1  0.622477  0.622477  0.629077  1
  V  V20  1  0.415066  0.415066  0.739388  1
  V  V21  1  0.415066  0.415066  0.430479  1
  V  V22  1  0.139665  0.612126  0.624104  1
  V  V23  1  0.612126  0.139665  0.624104  1
  N  N24  1  0.122892  0.122892  0.625342  1
  N  N25  1  0.122892  0.122892  0.128875  1
  N  N26  1  0.625796  0.122569  0.125817  1
  N  N27  1  0.122569  0.625796  0.125817  1
