# generated using pymatgen
data_LuBeFe2C
_symmetry_space_group_name_H-M   'P 1'
_cell_length_a   5.29209703
_cell_length_b   5.29209758
_cell_length_c   6.77436100
_cell_angle_alpha   90.00000000
_cell_angle_beta   90.00000000
_cell_angle_gamma   140.89605283
_symmetry_Int_Tables_number   1
_chemical_formula_structural   LuBeFe2C
_chemical_formula_sum   'Lu2 Be2 Fe4 C2'
_cell_volume   119.66494968
_cell_formula_units_Z   2
loop_
 _symmetry_equiv_pos_site_id
 _symmetry_equiv_pos_as_xyz
  1  'x, y, z'
loop_
 _atom_site_type_symbol
 _atom_site_label
 _atom_site_symmetry_multiplicity
 _atom_site_fract_x
 _atom_site_fract_y
 _atom_site_fract_z
 _atom_site_occupancy
  Lu  Lu0  1  0.542346  0.457654  0.250000  1
  Lu  Lu1  1  0.457654  0.542346  0.750000  1
  Be  Be2  1  0.263585  0.736415  0.250000  1
  Be  Be3  1  0.736415  0.263585  0.750000  1
  Fe  Fe4  1  0.824079  0.175921  0.061559  1
  Fe  Fe5  1  0.175921  0.824079  0.938441  1
  Fe  Fe6  1  0.175921  0.824079  0.561559  1
  Fe  Fe7  1  0.824079  0.175921  0.438441  1
  C  C8  1  0.000000  0.000000  0.000000  1
  C  C9  1  0.000000  0.000000  0.500000  1
