# generated using pymatgen
data_Er15ThIn4RuRh3
_symmetry_space_group_name_H-M   'P 1'
_cell_length_a   9.60390793
_cell_length_b   9.61653006
_cell_length_c   9.60081300
_cell_angle_alpha   60.05404671
_cell_angle_beta   60.01065618
_cell_angle_gamma   59.59664806
_symmetry_Int_Tables_number   1
_chemical_formula_structural   Er15ThIn4RuRh3
_chemical_formula_sum   'Er15 Th1 In4 Ru1 Rh3'
_cell_volume   625.35812428
_cell_formula_units_Z   1
loop_
 _symmetry_equiv_pos_site_id
 _symmetry_equiv_pos_as_xyz
  1  'x, y, z'
loop_
 _atom_site_type_symbol
 _atom_site_label
 _atom_site_symmetry_multiplicity
 _atom_site_fract_x
 _atom_site_fract_y
 _atom_site_fract_z
 _atom_site_occupancy
  Er  Er0  1  0.440115  0.059595  0.062292  1
  Er  Er1  1  0.440115  0.059595  0.437999  1
  Er  Er2  1  0.058586  0.440159  0.061431  1
  Er  Er3  1  0.652699  0.051037  0.648132  1
  Er  Er4  1  0.188133  0.806568  0.812413  1
  Er  Er5  1  0.064208  0.063799  0.435997  1
  Er  Er6  1  0.806303  0.189427  0.191909  1
  Er  Er7  1  0.811525  0.811103  0.188686  1
  Er  Er8  1  0.650284  0.649220  0.047657  1
  Er  Er9  1  0.650284  0.649220  0.652837  1
  Er  Er10  1  0.058586  0.440159  0.439825  1
  Er  Er11  1  0.051352  0.652484  0.648082  1
  Er  Er12  1  0.806303  0.189427  0.812360  1
  Er  Er13  1  0.437744  0.436109  0.063073  1
  Er  Er14  1  0.188133  0.806568  0.192886  1
  Th  Th15  1  0.180577  0.188916  0.815254  1
  In  In16  1  0.418002  0.749510  0.416245  1
  In  In17  1  0.418197  0.418020  0.750356  1
  In  In18  1  0.749308  0.417661  0.416516  1
  In  In19  1  0.418197  0.418020  0.413428  1
  Ru  Ru20  1  0.876302  0.419511  0.852093  1
  Rh  Rh21  1  0.856330  0.856342  0.428449  1
  Rh  Rh22  1  0.422388  0.871209  0.853201  1
  Rh  Rh23  1  0.856330  0.856342  0.858880  1
