# generated using pymatgen
data_Nd4Y3Er(ReB6)4
_symmetry_space_group_name_H-M   'P 1'
_cell_length_a   3.73134000
_cell_length_b   9.25684703
_cell_length_c   11.71443104
_cell_angle_alpha   90.00978079
_cell_angle_beta   90.00000000
_cell_angle_gamma   90.00000000
_symmetry_Int_Tables_number   1
_chemical_formula_structural   Nd4Y3Er(ReB6)4
_chemical_formula_sum   'Nd4 Y3 Er1 Re4 B24'
_cell_volume   404.62163897
_cell_formula_units_Z   1
loop_
 _symmetry_equiv_pos_site_id
 _symmetry_equiv_pos_as_xyz
  1  'x, y, z'
loop_
 _atom_site_type_symbol
 _atom_site_label
 _atom_site_symmetry_multiplicity
 _atom_site_fract_x
 _atom_site_fract_y
 _atom_site_fract_z
 _atom_site_occupancy
  Nd  Nd0  1  0.000000  0.323013  0.414290  1
  Nd  Nd1  1  0.000000  0.676950  0.585862  1
  Nd  Nd2  1  0.000000  0.822880  0.085622  1
  Nd  Nd3  1  0.000000  0.177140  0.914262  1
  Y  Y4  1  0.000000  0.943123  0.369533  1
  Y  Y5  1  0.000000  0.056869  0.630522  1
  Y  Y6  1  0.000000  0.443210  0.130179  1
  Er  Er7  1  0.000000  0.557016  0.869203  1
  Re  Re8  1  0.000000  0.639441  0.319454  1
  Re  Re9  1  0.000000  0.361010  0.680999  1
  Re  Re10  1  0.000000  0.139498  0.180496  1
  Re  Re11  1  0.000000  0.859776  0.819561  1
  B  B12  1  0.500000  0.555225  0.430406  1
  B  B13  1  0.500000  0.444795  0.569693  1
  B  B14  1  0.500000  0.055210  0.069602  1
  B  B15  1  0.500000  0.944681  0.930356  1
  B  B16  1  0.500000  0.749605  0.415931  1
  B  B17  1  0.500000  0.250428  0.584103  1
  B  B18  1  0.500000  0.249607  0.084065  1
  B  B19  1  0.500000  0.749738  0.915865  1
  B  B20  1  0.500000  0.791252  0.266020  1
  B  B21  1  0.500000  0.208872  0.734005  1
  B  B22  1  0.500000  0.291271  0.233970  1
  B  B23  1  0.500000  0.708192  0.766267  1
  B  B24  1  0.500000  0.630050  0.186582  1
  B  B25  1  0.500000  0.370505  0.813662  1
  B  B26  1  0.500000  0.130056  0.313378  1
  B  B27  1  0.500000  0.869866  0.686688  1
  B  B28  1  0.500000  0.984239  0.212854  1
  B  B29  1  0.500000  0.015718  0.787164  1
  B  B30  1  0.500000  0.484212  0.287132  1
  B  B31  1  0.500000  0.516044  0.713316  1
  B  B32  1  0.500000  0.596496  0.026076  1
  B  B33  1  0.500000  0.404004  0.972859  1
  B  B34  1  0.500000  0.096626  0.473327  1
  B  B35  1  0.500000  0.903380  0.526699  1
