# generated using pymatgen
data_Zr6Ti2Al14SiIr7
_symmetry_space_group_name_H-M   'P 1'
_cell_length_a   8.81351539
_cell_length_b   8.81351407
_cell_length_c   8.81351491
_cell_angle_alpha   120.14670128
_cell_angle_beta   119.78860308
_cell_angle_gamma   90.05631603
_symmetry_Int_Tables_number   1
_chemical_formula_structural   Zr6Ti2Al14SiIr7
_chemical_formula_sum   'Zr6 Ti2 Al14 Si1 Ir7'
_cell_volume   484.32756421
_cell_formula_units_Z   1
loop_
 _symmetry_equiv_pos_site_id
 _symmetry_equiv_pos_as_xyz
  1  'x, y, z'
loop_
 _atom_site_type_symbol
 _atom_site_label
 _atom_site_symmetry_multiplicity
 _atom_site_fract_x
 _atom_site_fract_y
 _atom_site_fract_z
 _atom_site_occupancy
  Zr  Zr0  1  0.798492  0.295187  0.087192  1
  Zr  Zr1  1  0.207995  0.295187  0.496695  1
  Zr  Zr2  1  0.202955  0.702955  0.500000  1
  Zr  Zr3  1  0.207995  0.711301  0.912808  1
  Zr  Zr4  1  0.798492  0.711301  0.503305  1
  Zr  Zr5  1  0.790702  0.290702  0.500000  1
  Ti  Ti6  1  0.380295  0.123850  0.743555  1
  Ti  Ti7  1  0.380295  0.636741  0.256445  1
  Al  Al8  1  0.163219  0.336223  0.173003  1
  Al  Al9  1  0.163219  0.990218  0.826997  1
  Al  Al10  1  0.159142  0.338300  0.820841  1
  Al  Al11  1  0.517457  0.338300  0.179159  1
  Al  Al12  1  0.836287  0.662363  0.826077  1
  Al  Al13  1  0.836287  0.010208  0.173923  1
  Al  Al14  1  0.835180  0.662908  0.172273  1
  Al  Al15  1  0.490635  0.662908  0.827727  1
  Al  Al16  1  0.380913  0.120588  0.260326  1
  Al  Al17  1  0.860263  0.120588  0.739674  1
  Al  Al18  1  0.619825  0.878513  0.258689  1
  Al  Al19  1  0.619825  0.361136  0.741311  1
  Al  Al20  1  0.618169  0.878221  0.739947  1
  Al  Al21  1  0.138273  0.878221  0.260053  1
  Si  Si22  1  0.996988  0.496988  0.500000  1
  Ir  Ir23  1  0.002171  0.000185  0.501736  1
  Ir  Ir24  1  0.498448  0.000185  0.998013  1
  Ir  Ir25  1  0.497703  0.497703  0.000000  1
  Ir  Ir26  1  0.498448  0.500435  0.498264  1
  Ir  Ir27  1  0.002171  0.500435  0.001987  1
  Ir  Ir28  1  0.000539  0.000539  0.000000  1
  Ir  Ir29  1  0.497611  0.997611  0.500000  1
