# generated using pymatgen
data_Rb4AlGa3Sb16
_symmetry_space_group_name_H-M   'P 1'
_cell_length_a   4.30856800
_cell_length_b   10.70279513
_cell_length_c   18.48758722
_cell_angle_alpha   90.01775885
_cell_angle_beta   90.00000000
_cell_angle_gamma   90.00000000
_symmetry_Int_Tables_number   1
_chemical_formula_structural   Rb4AlGa3Sb16
_chemical_formula_sum   'Rb4 Al1 Ga3 Sb16'
_cell_volume   852.53139080
_cell_formula_units_Z   1
loop_
 _symmetry_equiv_pos_site_id
 _symmetry_equiv_pos_as_xyz
  1  'x, y, z'
loop_
 _atom_site_type_symbol
 _atom_site_label
 _atom_site_symmetry_multiplicity
 _atom_site_fract_x
 _atom_site_fract_y
 _atom_site_fract_z
 _atom_site_occupancy
  Rb  Rb0  1  0.750000  0.179841  0.433516  1
  Rb  Rb1  1  0.250000  0.820023  0.566251  1
  Rb  Rb2  1  0.750000  0.680082  0.066326  1
  Rb  Rb3  1  0.250000  0.319996  0.933687  1
  Al  Al4  1  0.750000  0.317796  0.631591  1
  Ga  Ga5  1  0.250000  0.682201  0.368748  1
  Ga  Ga6  1  0.750000  0.817737  0.868664  1
  Ga  Ga7  1  0.250000  0.182256  0.131289  1
  Sb  Sb8  1  0.750000  0.828415  0.395279  1
  Sb  Sb9  1  0.250000  0.171316  0.604095  1
  Sb  Sb10  1  0.750000  0.328403  0.104642  1
  Sb  Sb11  1  0.250000  0.671609  0.895309  1
  Sb  Sb12  1  0.750000  0.391143  0.771838  1
  Sb  Sb13  1  0.250000  0.608764  0.228946  1
  Sb  Sb14  1  0.750000  0.891082  0.729034  1
  Sb  Sb15  1  0.250000  0.108792  0.271040  1
  Sb  Sb16  1  0.750000  0.530630  0.549668  1
  Sb  Sb17  1  0.250000  0.470135  0.449972  1
  Sb  Sb18  1  0.750000  0.029762  0.950139  1
  Sb  Sb19  1  0.250000  0.970179  0.049882  1
  Sb  Sb20  1  0.750000  0.929247  0.251224  1
  Sb  Sb21  1  0.250000  0.070627  0.748901  1
  Sb  Sb22  1  0.750000  0.429249  0.248792  1
  Sb  Sb23  1  0.250000  0.570715  0.751165  1
