# generated using pymatgen
data_HoPaRh2Pb
_symmetry_space_group_name_H-M   'P 1'
_cell_length_a   7.89500500
_cell_length_b   7.68907500
_cell_length_c   3.61072300
_cell_angle_alpha   90.00000000
_cell_angle_beta   90.00000000
_cell_angle_gamma   90.00000000
_symmetry_Int_Tables_number   1
_chemical_formula_structural   HoPaRh2Pb
_chemical_formula_sum   'Ho2 Pa2 Rh4 Pb2'
_cell_volume   219.18997083
_cell_formula_units_Z   2
loop_
 _symmetry_equiv_pos_site_id
 _symmetry_equiv_pos_as_xyz
  1  'x, y, z'
loop_
 _atom_site_type_symbol
 _atom_site_label
 _atom_site_symmetry_multiplicity
 _atom_site_fract_x
 _atom_site_fract_y
 _atom_site_fract_z
 _atom_site_occupancy
  Ho  Ho0  1  0.829315  0.670266  0.500000  1
  Ho  Ho1  1  0.329315  0.829734  0.500000  1
  Pa  Pa2  1  0.677557  0.161503  0.500000  1
  Pa  Pa3  1  0.177557  0.338497  0.500000  1
  Rh  Rh4  1  0.359378  0.157093  0.000000  1
  Rh  Rh5  1  0.124171  0.596240  0.000000  1
  Rh  Rh6  1  0.624171  0.903760  0.000000  1
  Rh  Rh7  1  0.859378  0.342907  0.000000  1
  Pb  Pb8  1  0.009578  0.988409  0.000000  1
  Pb  Pb9  1  0.509578  0.511591  0.000000  1
