# generated using pymatgen
data_Tm10SnSb5
_symmetry_space_group_name_H-M   'P 1'
_cell_length_a   8.85889100
_cell_length_b   8.84865883
_cell_length_c   6.26023900
_cell_angle_alpha   90.00000000
_cell_angle_beta   90.00000000
_cell_angle_gamma   120.03826294
_symmetry_Int_Tables_number   1
_chemical_formula_structural   Tm10SnSb5
_chemical_formula_sum   'Tm10 Sn1 Sb5'
_cell_volume   424.82569597
_cell_formula_units_Z   1
loop_
 _symmetry_equiv_pos_site_id
 _symmetry_equiv_pos_as_xyz
  1  'x, y, z'
loop_
 _atom_site_type_symbol
 _atom_site_label
 _atom_site_symmetry_multiplicity
 _atom_site_fract_x
 _atom_site_fract_y
 _atom_site_fract_z
 _atom_site_occupancy
  Tm  Tm0  1  0.333720  0.667326  0.000193  1
  Tm  Tm1  1  0.666395  0.332674  0.499807  1
  Tm  Tm2  1  0.666395  0.332674  0.000193  1
  Tm  Tm3  1  0.333720  0.667326  0.499807  1
  Tm  Tm4  1  0.244842  0.000000  0.250000  1
  Tm  Tm5  1  0.755619  0.000000  0.750000  1
  Tm  Tm6  1  0.999104  0.243822  0.250000  1
  Tm  Tm7  1  0.755282  0.756178  0.250000  1
  Tm  Tm8  1  0.244933  0.244324  0.750000  1
  Tm  Tm9  1  0.000609  0.755676  0.750000  1
  Sn  Sn10  1  0.609105  0.000000  0.250000  1
  Sb  Sb11  1  0.389972  0.000000  0.750000  1
  Sb  Sb12  1  0.999741  0.610190  0.250000  1
  Sb  Sb13  1  0.389551  0.389810  0.250000  1
  Sb  Sb14  1  0.610601  0.610190  0.750000  1
  Sb  Sb15  1  0.000410  0.389810  0.750000  1
