# generated using pymatgen
data_Tb3Ho4IrI12
_symmetry_space_group_name_H-M   'P 1'
_cell_length_a   9.82391221
_cell_length_b   9.82391275
_cell_length_c   9.82391300
_cell_angle_alpha   106.89547726
_cell_angle_beta   106.89547823
_cell_angle_gamma   106.89548459
_symmetry_Int_Tables_number   1
_chemical_formula_structural   Tb3Ho4IrI12
_chemical_formula_sum   'Tb3 Ho4 Ir1 I12'
_cell_volume   791.82600683
_cell_formula_units_Z   1
loop_
 _symmetry_equiv_pos_site_id
 _symmetry_equiv_pos_as_xyz
  1  'x, y, z'
loop_
 _atom_site_type_symbol
 _atom_site_label
 _atom_site_symmetry_multiplicity
 _atom_site_fract_x
 _atom_site_fract_y
 _atom_site_fract_z
 _atom_site_occupancy
  Tb  Tb0  1  0.094051  0.021565  0.295973  1
  Tb  Tb1  1  0.021565  0.295973  0.094051  1
  Tb  Tb2  1  0.295973  0.094051  0.021565  1
  Ho  Ho3  1  0.499741  0.499741  0.499741  1
  Ho  Ho4  1  0.905909  0.977940  0.706256  1
  Ho  Ho5  1  0.977940  0.706256  0.905909  1
  Ho  Ho6  1  0.706256  0.905909  0.977940  1
  Ir  Ir7  1  0.999687  0.999687  0.999687  1
  I  I8  1  0.537380  0.836256  0.613848  1
  I  I9  1  0.836256  0.613848  0.537380  1
  I  I10  1  0.613848  0.537380  0.836256  1
  I  I11  1  0.463632  0.163677  0.386841  1
  I  I12  1  0.163677  0.386841  0.463632  1
  I  I13  1  0.386841  0.463632  0.163677  1
  I  I14  1  0.675364  0.222844  0.069900  1
  I  I15  1  0.222844  0.069900  0.675364  1
  I  I16  1  0.069900  0.675364  0.222844  1
  I  I17  1  0.324313  0.775174  0.929649  1
  I  I18  1  0.775174  0.929649  0.324313  1
  I  I19  1  0.929649  0.324313  0.775174  1
