# generated using pymatgen
data_Nd2Al9NiIr2
_symmetry_space_group_name_H-M   'P 1'
_cell_length_a   7.59206244
_cell_length_b   7.59206198
_cell_length_c   9.55230200
_cell_angle_alpha   90.00000000
_cell_angle_beta   90.00000000
_cell_angle_gamma   119.68566605
_symmetry_Int_Tables_number   1
_chemical_formula_structural   Nd2Al9NiIr2
_chemical_formula_sum   'Nd4 Al18 Ni2 Ir4'
_cell_volume   478.32722094
_cell_formula_units_Z   2
loop_
 _symmetry_equiv_pos_site_id
 _symmetry_equiv_pos_as_xyz
  1  'x, y, z'
loop_
 _atom_site_type_symbol
 _atom_site_label
 _atom_site_symmetry_multiplicity
 _atom_site_fract_x
 _atom_site_fract_y
 _atom_site_fract_z
 _atom_site_occupancy
  Nd  Nd0  1  0.994569  0.668229  0.250000  1
  Nd  Nd1  1  0.005431  0.331771  0.750000  1
  Nd  Nd2  1  0.668229  0.994569  0.250000  1
  Nd  Nd3  1  0.331771  0.005431  0.750000  1
  Al  Al4  1  0.125484  0.125484  0.250000  1
  Al  Al5  1  0.874516  0.874516  0.750000  1
  Al  Al6  1  0.001817  0.332281  0.072782  1
  Al  Al7  1  0.998183  0.667719  0.927218  1
  Al  Al8  1  0.998183  0.667719  0.572782  1
  Al  Al9  1  0.332281  0.001817  0.427218  1
  Al  Al10  1  0.001817  0.332281  0.427218  1
  Al  Al11  1  0.667719  0.998183  0.572782  1
  Al  Al12  1  0.667719  0.998183  0.927218  1
  Al  Al13  1  0.332281  0.001817  0.072782  1
  Al  Al14  1  0.332774  0.332774  0.547715  1
  Al  Al15  1  0.667226  0.667226  0.452285  1
  Al  Al16  1  0.667226  0.667226  0.047715  1
  Al  Al17  1  0.332774  0.332774  0.952285  1
  Al  Al18  1  0.338230  0.544511  0.250000  1
  Al  Al19  1  0.661770  0.455489  0.750000  1
  Al  Al20  1  0.544511  0.338230  0.250000  1
  Al  Al21  1  0.455489  0.661770  0.750000  1
  Ni  Ni22  1  0.000000  0.000000  0.000000  1
  Ni  Ni23  1  0.000000  0.000000  0.500000  1
  Ir  Ir24  1  0.671326  0.328674  0.000000  1
  Ir  Ir25  1  0.328674  0.671326  0.000000  1
  Ir  Ir26  1  0.328674  0.671326  0.500000  1
  Ir  Ir27  1  0.671326  0.328674  0.500000  1
