# generated using pymatgen
data_Ho12Er4MgHg3Rh4
_symmetry_space_group_name_H-M   'P 1'
_cell_length_a   9.57864981
_cell_length_b   9.55511954
_cell_length_c   9.57699500
_cell_angle_alpha   59.92424190
_cell_angle_beta   60.00571816
_cell_angle_gamma   59.97712935
_symmetry_Int_Tables_number   1
_chemical_formula_structural   Ho12Er4MgHg3Rh4
_chemical_formula_sum   'Ho12 Er4 Mg1 Hg3 Rh4'
_cell_volume   619.36850200
_cell_formula_units_Z   1
loop_
 _symmetry_equiv_pos_site_id
 _symmetry_equiv_pos_as_xyz
  1  'x, y, z'
loop_
 _atom_site_type_symbol
 _atom_site_label
 _atom_site_symmetry_multiplicity
 _atom_site_fract_x
 _atom_site_fract_y
 _atom_site_fract_z
 _atom_site_occupancy
  Ho  Ho0  1  0.186268  0.187832  0.812950  1
  Ho  Ho1  1  0.810258  0.810699  0.189522  1
  Ho  Ho2  1  0.935032  0.563673  0.563741  1
  Ho  Ho3  1  0.562714  0.936943  0.935986  1
  Ho  Ho4  1  0.562714  0.936943  0.564357  1
  Ho  Ho5  1  0.935032  0.563673  0.937554  1
  Ho  Ho6  1  0.562895  0.564222  0.936441  1
  Ho  Ho7  1  0.934611  0.938126  0.563631  1
  Ho  Ho8  1  0.351283  0.348787  0.347632  1
  Ho  Ho9  1  0.351283  0.348787  0.952297  1
  Ho  Ho10  1  0.351939  0.951301  0.348380  1
  Ho  Ho11  1  0.941505  0.353199  0.352648  1
  Er  Er12  1  0.809716  0.189327  0.190087  1
  Er  Er13  1  0.185901  0.812391  0.813400  1
  Er  Er14  1  0.185901  0.812391  0.188307  1
  Er  Er15  1  0.809716  0.189327  0.810871  1
  Mg  Mg16  1  0.281126  0.572887  0.572994  1
  Hg  Hg17  1  0.581693  0.586094  0.586357  1
  Hg  Hg18  1  0.581693  0.586094  0.245857  1
  Hg  Hg19  1  0.581925  0.245168  0.586454  1
  Rh  Rh20  1  0.141011  0.143747  0.143566  1
  Rh  Rh21  1  0.141011  0.143747  0.571676  1
  Rh  Rh22  1  0.141634  0.571727  0.143320  1
  Rh  Rh23  1  0.573139  0.142912  0.141974  1
