# generated using pymatgen
data_RbSrAsS3
_symmetry_space_group_name_H-M   'P 1'
_cell_length_a   8.57450300
_cell_length_b   8.88717687
_cell_length_c   9.39856643
_cell_angle_alpha   73.74327844
_cell_angle_beta   90.00000000
_cell_angle_gamma   90.00000000
_symmetry_Int_Tables_number   1
_chemical_formula_structural   RbSrAsS3
_chemical_formula_sum   'Rb4 Sr4 As4 S12'
_cell_volume   687.56431417
_cell_formula_units_Z   4
loop_
 _symmetry_equiv_pos_site_id
 _symmetry_equiv_pos_as_xyz
  1  'x, y, z'
loop_
 _atom_site_type_symbol
 _atom_site_label
 _atom_site_symmetry_multiplicity
 _atom_site_fract_x
 _atom_site_fract_y
 _atom_site_fract_z
 _atom_site_occupancy
  Rb  Rb0  1  0.577250  0.222194  0.408350  1
  Rb  Rb1  1  0.077250  0.277806  0.591650  1
  Rb  Rb2  1  0.422750  0.777806  0.591650  1
  Rb  Rb3  1  0.922750  0.722194  0.408350  1
  Sr  Sr4  1  0.214110  0.471149  0.071891  1
  Sr  Sr5  1  0.714110  0.028851  0.928109  1
  Sr  Sr6  1  0.785890  0.528851  0.928109  1
  Sr  Sr7  1  0.285890  0.971149  0.071891  1
  As  As8  1  0.955417  0.149498  0.232756  1
  As  As9  1  0.455417  0.350502  0.767244  1
  As  As10  1  0.044583  0.850502  0.767244  1
  As  As11  1  0.544583  0.649498  0.232756  1
  S  S12  1  0.697075  0.404358  0.671246  1
  S  S13  1  0.197075  0.095642  0.328754  1
  S  S14  1  0.302925  0.595642  0.328754  1
  S  S15  1  0.802925  0.904358  0.671246  1
  S  S16  1  0.509464  0.281934  0.017768  1
  S  S17  1  0.009464  0.218066  0.982232  1
  S  S18  1  0.490536  0.718066  0.982232  1
  S  S19  1  0.990536  0.781934  0.017768  1
  S  S20  1  0.908083  0.394098  0.249595  1
  S  S21  1  0.408083  0.105902  0.750405  1
  S  S22  1  0.091917  0.605902  0.750405  1
  S  S23  1  0.591917  0.894098  0.249595  1
