# generated using pymatgen
data_Zr16TaNi4Os3
_symmetry_space_group_name_H-M   'P 1'
_cell_length_a   8.75073984
_cell_length_b   8.75073932
_cell_length_c   8.76980016
_cell_angle_alpha   60.07187795
_cell_angle_beta   60.07187973
_cell_angle_gamma   60.00000879
_symmetry_Int_Tables_number   1
_chemical_formula_structural   Zr16TaNi4Os3
_chemical_formula_sum   'Zr16 Ta1 Ni4 Os3'
_cell_volume   475.37378978
_cell_formula_units_Z   1
loop_
 _symmetry_equiv_pos_site_id
 _symmetry_equiv_pos_as_xyz
  1  'x, y, z'
loop_
 _atom_site_type_symbol
 _atom_site_label
 _atom_site_symmetry_multiplicity
 _atom_site_fract_x
 _atom_site_fract_y
 _atom_site_fract_z
 _atom_site_occupancy
  Zr  Zr0  1  0.194310  0.601580  0.602531  1
  Zr  Zr1  1  0.601580  0.194310  0.602531  1
  Zr  Zr2  1  0.601580  0.601580  0.602531  1
  Zr  Zr3  1  0.603994  0.603994  0.188019  1
  Zr  Zr4  1  0.456444  0.456444  0.043656  1
  Zr  Zr5  1  0.047494  0.047494  0.453064  1
  Zr  Zr6  1  0.456444  0.043457  0.043656  1
  Zr  Zr7  1  0.047494  0.451948  0.453064  1
  Zr  Zr8  1  0.043457  0.456444  0.043656  1
  Zr  Zr9  1  0.451948  0.047494  0.453064  1
  Zr  Zr10  1  0.815602  0.815602  0.185539  1
  Zr  Zr11  1  0.184214  0.184214  0.816793  1
  Zr  Zr12  1  0.815602  0.183258  0.185539  1
  Zr  Zr13  1  0.184214  0.814778  0.816793  1
  Zr  Zr14  1  0.183258  0.815602  0.185539  1
  Zr  Zr15  1  0.814778  0.184214  0.816793  1
  Ta  Ta16  1  0.828674  0.828674  0.513977  1
  Ni  Ni17  1  0.827367  0.391781  0.389070  1
  Ni  Ni18  1  0.391781  0.827367  0.389070  1
  Ni  Ni19  1  0.391781  0.391781  0.389070  1
  Ni  Ni20  1  0.390300  0.390300  0.829100  1
  Os  Os21  1  0.501636  0.833024  0.832316  1
  Os  Os22  1  0.833024  0.501636  0.832316  1
  Os  Os23  1  0.833024  0.833024  0.832316  1
