# generated using pymatgen
data_Tb3YHo4(ReC2)4
_symmetry_space_group_name_H-M   'P 1'
_cell_length_a   5.11964000
_cell_length_b   6.58544668
_cell_length_c   9.86731002
_cell_angle_alpha   89.94797803
_cell_angle_beta   90.00000000
_cell_angle_gamma   90.00000000
_symmetry_Int_Tables_number   1
_chemical_formula_structural   Tb3YHo4(ReC2)4
_chemical_formula_sum   'Tb3 Y1 Ho4 Re4 C8'
_cell_volume   332.67736700
_cell_formula_units_Z   1
loop_
 _symmetry_equiv_pos_site_id
 _symmetry_equiv_pos_as_xyz
  1  'x, y, z'
loop_
 _atom_site_type_symbol
 _atom_site_label
 _atom_site_symmetry_multiplicity
 _atom_site_fract_x
 _atom_site_fract_y
 _atom_site_fract_z
 _atom_site_occupancy
  Tb  Tb0  1  0.250000  0.467041  0.784365  1
  Tb  Tb1  1  0.750000  0.033056  0.284356  1
  Tb  Tb2  1  0.250000  0.967025  0.715537  1
  Y  Y3  1  0.750000  0.533239  0.215891  1
  Ho  Ho4  1  0.250000  0.821447  0.057015  1
  Ho  Ho5  1  0.750000  0.678493  0.556897  1
  Ho  Ho6  1  0.250000  0.321684  0.442976  1
  Ho  Ho7  1  0.750000  0.178205  0.943184  1
  Re  Re8  1  0.250000  0.279455  0.133844  1
  Re  Re9  1  0.750000  0.220735  0.633824  1
  Re  Re10  1  0.250000  0.779332  0.366068  1
  Re  Re11  1  0.750000  0.720474  0.866144  1
  C  C12  1  0.250000  0.175309  0.951366  1
  C  C13  1  0.750000  0.824082  0.048825  1
  C  C14  1  0.250000  0.675370  0.548748  1
  C  C15  1  0.750000  0.324867  0.451146  1
  C  C16  1  0.250000  0.046663  0.258989  1
  C  C17  1  0.750000  0.453420  0.759017  1
  C  C18  1  0.250000  0.546623  0.240805  1
  C  C19  1  0.750000  0.953479  0.741003  1
