# generated using pymatgen
data_K5HfAs2P
_symmetry_space_group_name_H-M   'P 1'
_cell_length_a   8.38565900
_cell_length_b   9.15861111
_cell_length_c   17.68004039
_cell_angle_alpha   59.79987093
_cell_angle_beta   90.00000000
_cell_angle_gamma   90.00000000
_symmetry_Int_Tables_number   1
_chemical_formula_structural   K5HfAs2P
_chemical_formula_sum   'K20 Hf4 As8 P4'
_cell_volume   1173.54933407
_cell_formula_units_Z   4
loop_
 _symmetry_equiv_pos_site_id
 _symmetry_equiv_pos_as_xyz
  1  'x, y, z'
loop_
 _atom_site_type_symbol
 _atom_site_label
 _atom_site_symmetry_multiplicity
 _atom_site_fract_x
 _atom_site_fract_y
 _atom_site_fract_z
 _atom_site_occupancy
  K  K0  1  0.167232  0.839714  0.740896  1
  K  K1  1  0.667232  0.160286  0.759104  1
  K  K2  1  0.832768  0.160286  0.259104  1
  K  K3  1  0.332768  0.839714  0.240896  1
  K  K4  1  0.170257  0.163755  0.419635  1
  K  K5  1  0.670257  0.836245  0.080365  1
  K  K6  1  0.829743  0.836245  0.580365  1
  K  K7  1  0.329743  0.163755  0.919635  1
  K  K8  1  0.006469  0.085140  0.091921  1
  K  K9  1  0.506469  0.914860  0.408079  1
  K  K10  1  0.993531  0.914860  0.908079  1
  K  K11  1  0.493531  0.085140  0.591921  1
  K  K12  1  0.520083  0.262822  0.077972  1
  K  K13  1  0.020083  0.737178  0.422028  1
  K  K14  1  0.479917  0.737178  0.922028  1
  K  K15  1  0.979917  0.262822  0.577972  1
  K  K16  1  0.985697  0.548684  0.257430  1
  K  K17  1  0.485697  0.451316  0.242570  1
  K  K18  1  0.014303  0.451316  0.742570  1
  K  K19  1  0.514303  0.548684  0.757430  1
  Hf  Hf20  1  0.370491  0.492358  0.579278  1
  Hf  Hf21  1  0.870491  0.507642  0.920722  1
  Hf  Hf22  1  0.629509  0.507642  0.420722  1
  Hf  Hf23  1  0.129509  0.492358  0.079278  1
  As  As24  1  0.218032  0.210904  0.218829  1
  As  As25  1  0.718032  0.789096  0.281171  1
  As  As26  1  0.781968  0.789096  0.781171  1
  As  As27  1  0.281968  0.210904  0.718829  1
  As  As28  1  0.252786  0.757515  0.077866  1
  As  As29  1  0.752786  0.242485  0.422134  1
  As  As30  1  0.747214  0.242485  0.922134  1
  As  As31  1  0.247214  0.757515  0.577866  1
  P  P32  1  0.325775  0.487367  0.437404  1
  P  P33  1  0.825775  0.512633  0.062596  1
  P  P34  1  0.674225  0.512633  0.562596  1
  P  P35  1  0.174225  0.487367  0.937404  1
