# generated using pymatgen
data_Hf10CdSb5
_symmetry_space_group_name_H-M   'P 1'
_cell_length_a   5.63357511
_cell_length_b   8.34766954
_cell_length_c   8.34766892
_cell_angle_alpha   96.53797059
_cell_angle_beta   109.72061546
_cell_angle_gamma   70.27938460
_symmetry_Int_Tables_number   1
_chemical_formula_structural   Hf10CdSb5
_chemical_formula_sum   'Hf10 Cd1 Sb5'
_cell_volume   347.86926884
_cell_formula_units_Z   1
loop_
 _symmetry_equiv_pos_site_id
 _symmetry_equiv_pos_as_xyz
  1  'x, y, z'
loop_
 _atom_site_type_symbol
 _atom_site_label
 _atom_site_symmetry_multiplicity
 _atom_site_fract_x
 _atom_site_fract_y
 _atom_site_fract_z
 _atom_site_occupancy
  Hf  Hf0  1  0.923111  0.852931  0.699778  1
  Hf  Hf1  1  0.076263  0.147069  0.300222  1
  Hf  Hf2  1  0.423737  0.300222  0.147069  1
  Hf  Hf3  1  0.576889  0.699778  0.852931  1
  Hf  Hf4  1  0.223333  0.699778  0.147069  1
  Hf  Hf5  1  0.776041  0.300222  0.852931  1
  Hf  Hf6  1  0.276667  0.147069  0.699778  1
  Hf  Hf7  1  0.723959  0.852931  0.300222  1
  Hf  Hf8  1  0.250000  0.500000  0.500000  1
  Hf  Hf9  1  0.750000  0.500000  0.500000  1
  Cd  Cd10  1  0.250000  0.000000  0.000000  1
  Sb  Sb11  1  0.335372  0.829255  0.500000  1
  Sb  Sb12  1  0.664628  0.170745  0.500000  1
  Sb  Sb13  1  0.835372  0.500000  0.170745  1
  Sb  Sb14  1  0.164628  0.500000  0.829255  1
  Sb  Sb15  1  0.750000  0.000000  0.000000  1
