# generated using pymatgen
data_Tb8Tm4Co3Si8Ni
_symmetry_space_group_name_H-M   'P 1'
_cell_length_a   4.09226900
_cell_length_b   11.08506200
_cell_length_c   11.35974300
_cell_angle_alpha   89.99985861
_cell_angle_beta   90.00000000
_cell_angle_gamma   90.00000000
_symmetry_Int_Tables_number   1
_chemical_formula_structural   Tb8Tm4Co3Si8Ni
_chemical_formula_sum   'Tb8 Tm4 Co3 Si8 Ni1'
_cell_volume   515.31265316
_cell_formula_units_Z   1
loop_
 _symmetry_equiv_pos_site_id
 _symmetry_equiv_pos_as_xyz
  1  'x, y, z'
loop_
 _atom_site_type_symbol
 _atom_site_label
 _atom_site_symmetry_multiplicity
 _atom_site_fract_x
 _atom_site_fract_y
 _atom_site_fract_z
 _atom_site_occupancy
  Tb  Tb0  1  0.250000  0.127097  0.555929  1
  Tb  Tb1  1  0.250000  0.371114  0.056174  1
  Tb  Tb2  1  0.750000  0.871610  0.443368  1
  Tb  Tb3  1  0.750000  0.625437  0.944901  1
  Tb  Tb4  1  0.250000  0.802985  0.717357  1
  Tb  Tb5  1  0.250000  0.699523  0.220361  1
  Tb  Tb6  1  0.750000  0.200136  0.279490  1
  Tb  Tb7  1  0.750000  0.300031  0.780221  1
  Tm  Tm8  1  0.250000  0.058745  0.882391  1
  Tm  Tm9  1  0.250000  0.442668  0.382948  1
  Tm  Tm10  1  0.750000  0.943219  0.118068  1
  Tm  Tm11  1  0.750000  0.557574  0.618031  1
  Co  Co12  1  0.250000  0.369348  0.628275  1
  Co  Co13  1  0.250000  0.130591  0.127664  1
  Co  Co14  1  0.750000  0.629267  0.372111  1
  Si  Si15  1  0.250000  0.817452  0.977641  1
  Si  Si16  1  0.250000  0.682034  0.477930  1
  Si  Si17  1  0.750000  0.181166  0.021643  1
  Si  Si18  1  0.750000  0.318412  0.522500  1
  Si  Si19  1  0.250000  0.498530  0.799660  1
  Si  Si20  1  0.250000  0.001887  0.299643  1
  Si  Si21  1  0.750000  0.501454  0.199987  1
  Si  Si22  1  0.750000  0.999561  0.699421  1
  Ni  Ni23  1  0.750000  0.870160  0.874284  1
