# generated using pymatgen
data_Tm3AuO6
_symmetry_space_group_name_H-M   'P 1'
_cell_length_a   3.52750698
_cell_length_b   5.51316524
_cell_length_c   7.01916736
_cell_angle_alpha   89.54493534
_cell_angle_beta   102.47431268
_cell_angle_gamma   91.16929030
_symmetry_Int_Tables_number   1
_chemical_formula_structural   Tm3AuO6
_chemical_formula_sum   'Tm3 Au1 O6'
_cell_volume   133.25571059
_cell_formula_units_Z   1
loop_
 _symmetry_equiv_pos_site_id
 _symmetry_equiv_pos_as_xyz
  1  'x, y, z'
loop_
 _atom_site_type_symbol
 _atom_site_label
 _atom_site_symmetry_multiplicity
 _atom_site_fract_x
 _atom_site_fract_y
 _atom_site_fract_z
 _atom_site_occupancy
  Tm  Tm0  1  0.612405  0.530329  0.761938  1
  Tm  Tm1  1  0.387595  0.469671  0.238062  1
  Tm  Tm2  1  0.000000  0.000000  0.500000  1
  Au  Au3  1  0.000000  0.000000  0.000000  1
  O  O4  1  0.834179  0.677926  0.106710  1
  O  O5  1  0.165821  0.322074  0.893290  1
  O  O6  1  0.523343  0.256031  0.531594  1
  O  O7  1  0.476657  0.743969  0.468406  1
  O  O8  1  0.125753  0.797979  0.782408  1
  O  O9  1  0.874247  0.202021  0.217592  1
