# generated using pymatgen
data_Tb8Ho4TlTc2Ni2Sn
_symmetry_space_group_name_H-M   'P 1'
_cell_length_a   8.47731584
_cell_length_b   8.47731656
_cell_length_c   8.47731600
_cell_angle_alpha   113.50131860
_cell_angle_beta   110.57998075
_cell_angle_gamma   104.46067701
_symmetry_Int_Tables_number   1
_chemical_formula_structural   Tb8Ho4TlTc2Ni2Sn
_chemical_formula_sum   'Tb8 Ho4 Tl1 Tc2 Ni2 Sn1'
_cell_volume   465.98667339
_cell_formula_units_Z   1
loop_
 _symmetry_equiv_pos_site_id
 _symmetry_equiv_pos_as_xyz
  1  'x, y, z'
loop_
 _atom_site_type_symbol
 _atom_site_label
 _atom_site_symmetry_multiplicity
 _atom_site_fract_x
 _atom_site_fract_y
 _atom_site_fract_z
 _atom_site_occupancy
  Tb  Tb0  1  0.440918  0.240386  0.200533  1
  Tb  Tb1  1  0.559082  0.759614  0.799467  1
  Tb  Tb2  1  0.039851  0.240386  0.799470  1
  Tb  Tb3  1  0.960149  0.759614  0.200530  1
  Tb  Tb4  1  0.183593  0.284993  0.468591  1
  Tb  Tb5  1  0.816407  0.715007  0.531409  1
  Tb  Tb6  1  0.183597  0.715007  0.898600  1
  Tb  Tb7  1  0.816403  0.284993  0.101400  1
  Ho  Ho8  1  0.332280  0.648759  0.316478  1
  Ho  Ho9  1  0.667720  0.351241  0.683522  1
  Ho  Ho10  1  0.332280  0.015798  0.683518  1
  Ho  Ho11  1  0.667720  0.984202  0.316482  1
  Tl  Tl12  1  0.000000  0.000000  0.000000  1
  Tc  Tc13  1  0.326845  0.000000  0.326845  1
  Tc  Tc14  1  0.673155  0.000000  0.673155  1
  Ni  Ni15  1  0.116524  0.616486  0.499962  1
  Ni  Ni16  1  0.883476  0.383514  0.500038  1
  Sn  Sn17  1  0.500000  0.500000  0.000000  1
