# generated using pymatgen
data_Th2Sc3P7Ir9
_symmetry_space_group_name_H-M   'P 1'
_cell_length_a   9.87453500
_cell_length_b   9.87453461
_cell_length_c   3.96421100
_cell_angle_alpha   90.00000000
_cell_angle_beta   90.00000000
_cell_angle_gamma   119.99999795
_symmetry_Int_Tables_number   1
_chemical_formula_structural   Th2Sc3P7Ir9
_chemical_formula_sum   'Th2 Sc3 P7 Ir9'
_cell_volume   334.75008258
_cell_formula_units_Z   1
loop_
 _symmetry_equiv_pos_site_id
 _symmetry_equiv_pos_as_xyz
  1  'x, y, z'
loop_
 _atom_site_type_symbol
 _atom_site_label
 _atom_site_symmetry_multiplicity
 _atom_site_fract_x
 _atom_site_fract_y
 _atom_site_fract_z
 _atom_site_occupancy
  Th  Th0  1  0.333333  0.666667  0.000000  1
  Th  Th1  1  0.000000  0.000000  0.500000  1
  Sc  Sc2  1  0.786847  0.224325  0.500000  1
  Sc  Sc3  1  0.775675  0.562521  0.500000  1
  Sc  Sc4  1  0.437479  0.213153  0.500000  1
  P  P5  1  0.775282  0.025025  0.000000  1
  P  P6  1  0.974975  0.750256  0.000000  1
  P  P7  1  0.249744  0.224718  0.000000  1
  P  P8  1  0.386325  0.922137  0.500000  1
  P  P9  1  0.077863  0.464189  0.500000  1
  P  P10  1  0.535811  0.613675  0.500000  1
  P  P11  1  0.666667  0.333333  0.000000  1
  Ir  Ir12  1  0.023919  0.249763  0.000000  1
  Ir  Ir13  1  0.750237  0.774156  0.000000  1
  Ir  Ir14  1  0.225844  0.976081  0.000000  1
  Ir  Ir15  1  0.543457  0.047391  0.000000  1
  Ir  Ir16  1  0.952609  0.496065  0.000000  1
  Ir  Ir17  1  0.503935  0.456543  0.000000  1
  Ir  Ir18  1  0.612494  0.881861  0.500000  1
  Ir  Ir19  1  0.118139  0.730632  0.500000  1
  Ir  Ir20  1  0.269368  0.387506  0.500000  1
