# generated using pymatgen
data_Ho3MgZn2Ge2Pd
_symmetry_space_group_name_H-M   'P 1'
_cell_length_a   7.00147524
_cell_length_b   7.00147682
_cell_length_c   4.28600500
_cell_angle_alpha   90.00000000
_cell_angle_beta   90.00000000
_cell_angle_gamma   119.97000100
_symmetry_Int_Tables_number   1
_chemical_formula_structural   Ho3MgZn2Ge2Pd
_chemical_formula_sum   'Ho3 Mg1 Zn2 Ge2 Pd1'
_cell_volume   182.00935930
_cell_formula_units_Z   1
loop_
 _symmetry_equiv_pos_site_id
 _symmetry_equiv_pos_as_xyz
  1  'x, y, z'
loop_
 _atom_site_type_symbol
 _atom_site_label
 _atom_site_symmetry_multiplicity
 _atom_site_fract_x
 _atom_site_fract_y
 _atom_site_fract_z
 _atom_site_occupancy
  Ho  Ho0  1  0.579604  0.999512  0.000000  1
  Ho  Ho1  1  0.999512  0.579604  0.000000  1
  Ho  Ho2  1  0.408858  0.408858  0.000000  1
  Mg  Mg3  1  0.771730  0.771730  0.500000  1
  Zn  Zn4  1  0.241311  0.998672  0.500000  1
  Zn  Zn5  1  0.998672  0.241311  0.500000  1
  Ge  Ge6  1  0.329040  0.663417  0.500000  1
  Ge  Ge7  1  0.663417  0.329040  0.500000  1
  Pd  Pd8  1  0.007856  0.007856  0.000000  1
