# generated using pymatgen
data_Mg2TcSn8Rh
_symmetry_space_group_name_H-M   'P 1'
_cell_length_a   7.48796619
_cell_length_b   7.48796641
_cell_length_c   7.48796538
_cell_angle_alpha   125.18499604
_cell_angle_beta   125.18499330
_cell_angle_gamma   81.23184857
_symmetry_Int_Tables_number   1
_chemical_formula_structural   Mg2TcSn8Rh
_chemical_formula_sum   'Mg2 Tc1 Sn8 Rh1'
_cell_volume   270.12034512
_cell_formula_units_Z   1
loop_
 _symmetry_equiv_pos_site_id
 _symmetry_equiv_pos_as_xyz
  1  'x, y, z'
loop_
 _atom_site_type_symbol
 _atom_site_label
 _atom_site_symmetry_multiplicity
 _atom_site_fract_x
 _atom_site_fract_y
 _atom_site_fract_z
 _atom_site_occupancy
  Mg  Mg0  1  0.498182  0.498182  0.000000  1
  Mg  Mg1  1  0.001818  0.001818  0.000000  1
  Tc  Tc2  1  0.750000  0.750000  0.000000  1
  Sn  Sn3  1  0.707711  0.517814  0.504220  1
  Sn  Sn4  1  0.517814  0.013594  0.810103  1
  Sn  Sn5  1  0.203492  0.707711  0.189897  1
  Sn  Sn6  1  0.792289  0.296508  0.810103  1
  Sn  Sn7  1  0.486406  0.982186  0.189897  1
  Sn  Sn8  1  0.296508  0.486406  0.504220  1
  Sn  Sn9  1  0.982186  0.792289  0.495780  1
  Sn  Sn10  1  0.013594  0.203492  0.495780  1
  Rh  Rh11  1  0.250000  0.250000  0.000000  1
