# generated using pymatgen
data_La3Pr3OsI10
_symmetry_space_group_name_H-M   'P 1'
_cell_length_a   8.13714320
_cell_length_b   10.19653571
_cell_length_c   10.04146124
_cell_angle_alpha   107.29242862
_cell_angle_beta   96.68439203
_cell_angle_gamma   105.60766233
_symmetry_Int_Tables_number   1
_chemical_formula_structural   La3Pr3OsI10
_chemical_formula_sum   'La3 Pr3 Os1 I10'
_cell_volume   748.48349730
_cell_formula_units_Z   1
loop_
 _symmetry_equiv_pos_site_id
 _symmetry_equiv_pos_as_xyz
  1  'x, y, z'
loop_
 _atom_site_type_symbol
 _atom_site_label
 _atom_site_symmetry_multiplicity
 _atom_site_fract_x
 _atom_site_fract_y
 _atom_site_fract_z
 _atom_site_occupancy
  La  La0  1  0.137750  0.865136  0.321380  1
  La  La1  1  0.386938  0.958589  0.728100  1
  La  La2  1  0.613967  0.042745  0.272368  1
  Pr  Pr3  1  0.469300  0.294924  0.590517  1
  Pr  Pr4  1  0.532227  0.705981  0.411455  1
  Pr  Pr5  1  0.858229  0.132109  0.675307  1
  Os  Os6  1  0.499383  0.999894  0.499402  1
  I  I7  1  0.416176  0.631524  0.680373  1
  I  I8  1  0.585429  0.369811  0.321593  1
  I  I9  1  0.287635  0.259950  0.849251  1
  I  I10  1  0.706959  0.738819  0.148640  1
  I  I11  1  0.854803  0.454286  0.772566  1
  I  I12  1  0.148186  0.542670  0.228379  1
  I  I13  1  0.045787  0.181330  0.411486  1
  I  I14  1  0.243750  0.914970  0.038872  1
  I  I15  1  0.759739  0.086833  0.958834  1
  I  I16  1  0.953743  0.820431  0.591479  1
