# generated using pymatgen
data_Yb2Co5PdO12
_symmetry_space_group_name_H-M   'P 1'
_cell_length_a   4.99402600
_cell_length_b   5.57078679
_cell_length_c   8.66499300
_cell_angle_alpha   90.00004114
_cell_angle_beta   89.99996558
_cell_angle_gamma   72.37579822
_symmetry_Int_Tables_number   1
_chemical_formula_structural   Yb2Co5PdO12
_chemical_formula_sum   'Yb2 Co5 Pd1 O12'
_cell_volume   229.75083525
_cell_formula_units_Z   1
loop_
 _symmetry_equiv_pos_site_id
 _symmetry_equiv_pos_as_xyz
  1  'x, y, z'
loop_
 _atom_site_type_symbol
 _atom_site_label
 _atom_site_symmetry_multiplicity
 _atom_site_fract_x
 _atom_site_fract_y
 _atom_site_fract_z
 _atom_site_occupancy
  Yb  Yb0  1  0.000001  0.500000  0.169729  1
  Yb  Yb1  1  0.500001  0.500000  0.660266  1
  Co  Co2  1  0.500000  0.000000  0.171434  1
  Co  Co3  1  0.500000  0.000000  0.494959  1
  Co  Co4  1  0.000000  0.000000  0.662510  1
  Co  Co5  1  0.000001  0.000000  0.335704  1
  Co  Co6  1  0.000000  0.000000  0.003365  1
  Pd  Pd7  1  0.499998  0.999999  0.834309  1
  O  O8  1  0.776648  0.184152  0.171809  1
  O  O9  1  0.266886  0.191718  0.657674  1
  O  O10  1  0.223353  0.815849  0.171809  1
  O  O11  1  0.733112  0.808283  0.657674  1
  O  O12  1  0.262858  0.189814  0.010230  1
  O  O13  1  0.770041  0.185871  0.497696  1
  O  O14  1  0.264000  0.185490  0.332660  1
  O  O15  1  0.781717  0.194517  0.830460  1
  O  O16  1  0.736002  0.814510  0.332660  1
  O  O17  1  0.218281  0.805483  0.830460  1
  O  O18  1  0.737142  0.810185  0.010230  1
  O  O19  1  0.229960  0.814130  0.497696  1
