# generated using pymatgen
data_Zr6NbAl6W3N2
_symmetry_space_group_name_H-M   'P 1'
_cell_length_a   7.99691000
_cell_length_b   7.99691105
_cell_length_c   5.40730600
_cell_angle_alpha   90.00000000
_cell_angle_beta   90.00000000
_cell_angle_gamma   119.99998739
_symmetry_Int_Tables_number   1
_chemical_formula_structural   Zr6NbAl6W3N2
_chemical_formula_sum   'Zr6 Nb1 Al6 W3 N2'
_cell_volume   299.47192039
_cell_formula_units_Z   1
loop_
 _symmetry_equiv_pos_site_id
 _symmetry_equiv_pos_as_xyz
  1  'x, y, z'
loop_
 _atom_site_type_symbol
 _atom_site_label
 _atom_site_symmetry_multiplicity
 _atom_site_fract_x
 _atom_site_fract_y
 _atom_site_fract_z
 _atom_site_occupancy
  Zr  Zr0  1  0.232423  0.000468  0.249655  1
  Zr  Zr1  1  0.768046  0.000468  0.750345  1
  Zr  Zr2  1  0.999532  0.231954  0.249655  1
  Zr  Zr3  1  0.999532  0.767577  0.750345  1
  Zr  Zr4  1  0.768046  0.767577  0.249655  1
  Zr  Zr5  1  0.232423  0.231954  0.750345  1
  Nb  Nb6  1  0.333333  0.666667  0.500000  1
  Al  Al7  1  0.586833  0.003186  0.246249  1
  Al  Al8  1  0.416353  0.003186  0.753751  1
  Al  Al9  1  0.996814  0.583647  0.246249  1
  Al  Al10  1  0.996814  0.413167  0.753751  1
  Al  Al11  1  0.416353  0.413167  0.246249  1
  Al  Al12  1  0.586833  0.583647  0.753751  1
  W  W13  1  0.333333  0.666667  0.000000  1
  W  W14  1  0.666667  0.333333  0.000000  1
  W  W15  1  0.666667  0.333333  0.500000  1
  N  N16  1  0.000000  0.000000  0.000000  1
  N  N17  1  0.000000  0.000000  0.500000  1
