# generated using pymatgen
data_TbY2Pa(InPd2)2
_symmetry_space_group_name_H-M   'P 1'
_cell_length_a   7.81424003
_cell_length_b   7.81423958
_cell_length_c   3.68706400
_cell_angle_alpha   90.00000000
_cell_angle_beta   90.00000000
_cell_angle_gamma   91.72696935
_symmetry_Int_Tables_number   1
_chemical_formula_structural   TbY2Pa(InPd2)2
_chemical_formula_sum   'Tb1 Y2 Pa1 In2 Pd4'
_cell_volume   225.03850705
_cell_formula_units_Z   1
loop_
 _symmetry_equiv_pos_site_id
 _symmetry_equiv_pos_as_xyz
  1  'x, y, z'
loop_
 _atom_site_type_symbol
 _atom_site_label
 _atom_site_symmetry_multiplicity
 _atom_site_fract_x
 _atom_site_fract_y
 _atom_site_fract_z
 _atom_site_occupancy
  Tb  Tb0  1  0.324056  0.824056  0.500000  1
  Y  Y1  1  0.174931  0.329267  0.500000  1
  Y  Y2  1  0.829267  0.674931  0.500000  1
  Pa  Pa3  1  0.669565  0.169565  0.500000  1
  In  In4  1  0.500287  0.504142  0.000000  1
  In  In5  1  0.004142  0.000287  0.000000  1
  Pd  Pd6  1  0.121685  0.621685  0.000000  1
  Pd  Pd7  1  0.860258  0.360258  0.000000  1
  Pd  Pd8  1  0.632608  0.883200  0.000000  1
  Pd  Pd9  1  0.383200  0.132608  0.000000  1
