# generated using pymatgen
data_DySi2OsPt
_symmetry_space_group_name_H-M   'P 1'
_cell_length_a   5.80026762
_cell_length_b   5.80026761
_cell_length_c   5.80026714
_cell_angle_alpha   138.66411284
_cell_angle_beta   138.66410749
_cell_angle_gamma   59.88739150
_symmetry_Int_Tables_number   1
_chemical_formula_structural   DySi2OsPt
_chemical_formula_sum   'Dy1 Si2 Os1 Pt1'
_cell_volume   84.25791660
_cell_formula_units_Z   1
loop_
 _symmetry_equiv_pos_site_id
 _symmetry_equiv_pos_as_xyz
  1  'x, y, z'
loop_
 _atom_site_type_symbol
 _atom_site_label
 _atom_site_symmetry_multiplicity
 _atom_site_fract_x
 _atom_site_fract_y
 _atom_site_fract_z
 _atom_site_occupancy
  Dy  Dy0  1  0.000000  0.000000  0.000000  1
  Si  Si1  1  0.619968  0.619968  0.000000  1
  Si  Si2  1  0.380032  0.380032  0.000000  1
  Os  Os3  1  0.250000  0.750000  0.500000  1
  Pt  Pt4  1  0.750000  0.250000  0.500000  1
