# generated using pymatgen
data_CuIr5O12
_symmetry_space_group_name_H-M   'P 1'
_cell_length_a   4.53431691
_cell_length_b   4.53431679
_cell_length_c   9.52949000
_cell_angle_alpha   90.00000000
_cell_angle_beta   90.00000000
_cell_angle_gamma   89.54259540
_symmetry_Int_Tables_number   1
_chemical_formula_structural   CuIr5O12
_chemical_formula_sum   'Cu1 Ir5 O12'
_cell_volume   195.92034981
_cell_formula_units_Z   1
loop_
 _symmetry_equiv_pos_site_id
 _symmetry_equiv_pos_as_xyz
  1  'x, y, z'
loop_
 _atom_site_type_symbol
 _atom_site_label
 _atom_site_symmetry_multiplicity
 _atom_site_fract_x
 _atom_site_fract_y
 _atom_site_fract_z
 _atom_site_occupancy
  Cu  Cu0  1  0.000000  0.000000  0.000000  1
  Ir  Ir1  1  0.000000  0.000000  0.331707  1
  Ir  Ir2  1  0.000000  0.000000  0.668293  1
  Ir  Ir3  1  0.500000  0.500000  0.500000  1
  Ir  Ir4  1  0.500000  0.500000  0.834762  1
  Ir  Ir5  1  0.500000  0.500000  0.165238  1
  O  O6  1  0.307790  0.307790  0.333429  1
  O  O7  1  0.307790  0.307790  0.666571  1
  O  O8  1  0.692210  0.692210  0.333429  1
  O  O9  1  0.692210  0.692210  0.666571  1
  O  O10  1  0.191941  0.808059  0.500000  1
  O  O11  1  0.196716  0.803284  0.829670  1
  O  O12  1  0.196716  0.803284  0.170330  1
  O  O13  1  0.310661  0.310661  0.000000  1
  O  O14  1  0.689339  0.689339  0.000000  1
  O  O15  1  0.803284  0.196716  0.170330  1
  O  O16  1  0.803284  0.196716  0.829670  1
  O  O17  1  0.808059  0.191941  0.500000  1
