# generated using pymatgen
data_Sm2TePd14
_symmetry_space_group_name_H-M   'P 1'
_cell_length_a   9.02266400
_cell_length_b   9.02266400
_cell_length_c   7.34395900
_cell_angle_alpha   90.00000000
_cell_angle_beta   90.00000000
_cell_angle_gamma   90.00000000
_symmetry_Int_Tables_number   1
_chemical_formula_structural   Sm2TePd14
_chemical_formula_sum   'Sm4 Te2 Pd28'
_cell_volume   597.86043404
_cell_formula_units_Z   2
loop_
 _symmetry_equiv_pos_site_id
 _symmetry_equiv_pos_as_xyz
  1  'x, y, z'
loop_
 _atom_site_type_symbol
 _atom_site_label
 _atom_site_symmetry_multiplicity
 _atom_site_fract_x
 _atom_site_fract_y
 _atom_site_fract_z
 _atom_site_occupancy
  Sm  Sm0  1  0.500000  0.000000  0.932898  1
  Sm  Sm1  1  0.000000  0.500000  0.067102  1
  Sm  Sm2  1  0.000000  0.000000  0.500000  1
  Sm  Sm3  1  0.500000  0.500000  0.500000  1
  Te  Te4  1  0.500000  0.000000  0.453503  1
  Te  Te5  1  0.000000  0.500000  0.546497  1
  Pd  Pd6  1  0.323206  0.823206  0.633996  1
  Pd  Pd7  1  0.323206  0.176794  0.633996  1
  Pd  Pd8  1  0.676794  0.823206  0.633996  1
  Pd  Pd9  1  0.676794  0.176794  0.633996  1
  Pd  Pd10  1  0.176794  0.676794  0.366004  1
  Pd  Pd11  1  0.176794  0.323206  0.366004  1
  Pd  Pd12  1  0.823206  0.676794  0.366004  1
  Pd  Pd13  1  0.823206  0.323206  0.366004  1
  Pd  Pd14  1  0.500000  0.760948  0.245163  1
  Pd  Pd15  1  0.500000  0.239052  0.245163  1
  Pd  Pd16  1  0.260948  0.000000  0.245163  1
  Pd  Pd17  1  0.739052  0.000000  0.245163  1
  Pd  Pd18  1  0.000000  0.739052  0.754837  1
  Pd  Pd19  1  0.000000  0.260948  0.754837  1
  Pd  Pd20  1  0.239052  0.500000  0.754837  1
  Pd  Pd21  1  0.760948  0.500000  0.754837  1
  Pd  Pd22  1  0.500000  0.348559  0.859385  1
  Pd  Pd23  1  0.500000  0.651441  0.859385  1
  Pd  Pd24  1  0.848559  0.000000  0.859385  1
  Pd  Pd25  1  0.151441  0.000000  0.859385  1
  Pd  Pd26  1  0.000000  0.151441  0.140615  1
  Pd  Pd27  1  0.000000  0.848559  0.140615  1
  Pd  Pd28  1  0.651441  0.500000  0.140615  1
  Pd  Pd29  1  0.348559  0.500000  0.140615  1
  Pd  Pd30  1  0.250000  0.750000  0.000000  1
  Pd  Pd31  1  0.250000  0.250000  0.000000  1
  Pd  Pd32  1  0.750000  0.750000  0.000000  1
  Pd  Pd33  1  0.750000  0.250000  0.000000  1
