# generated using pymatgen
data_La3YbIn4
_symmetry_space_group_name_H-M   'P 1'
_cell_length_a   6.85436815
_cell_length_b   6.85436796
_cell_length_c   10.35129100
_cell_angle_alpha   90.00000000
_cell_angle_beta   90.00000000
_cell_angle_gamma   97.88435925
_symmetry_Int_Tables_number   1
_chemical_formula_structural   La3YbIn4
_chemical_formula_sum   'La6 Yb2 In8'
_cell_volume   481.73080974
_cell_formula_units_Z   2
loop_
 _symmetry_equiv_pos_site_id
 _symmetry_equiv_pos_as_xyz
  1  'x, y, z'
loop_
 _atom_site_type_symbol
 _atom_site_label
 _atom_site_symmetry_multiplicity
 _atom_site_fract_x
 _atom_site_fract_y
 _atom_site_fract_z
 _atom_site_occupancy
  La  La0  1  0.544191  0.544191  0.250000  1
  La  La1  1  0.455809  0.455809  0.750000  1
  La  La2  1  0.247759  0.752241  0.500000  1
  La  La3  1  0.247759  0.752241  0.000000  1
  La  La4  1  0.752241  0.247759  0.500000  1
  La  La5  1  0.752241  0.247759  0.000000  1
  Yb  Yb6  1  0.972017  0.972016  0.250000  1
  Yb  Yb7  1  0.027984  0.027983  0.750000  1
  In  In8  1  0.247999  0.247999  0.028801  1
  In  In9  1  0.752001  0.752001  0.971199  1
  In  In10  1  0.247999  0.247999  0.471199  1
  In  In11  1  0.752001  0.752001  0.528801  1
  In  In12  1  0.469947  0.030373  0.250000  1
  In  In13  1  0.969627  0.530053  0.750000  1
  In  In14  1  0.530053  0.969627  0.750000  1
  In  In15  1  0.030373  0.469947  0.250000  1
