# generated using pymatgen
data_ZnAg2Hg(SeO4)4
_symmetry_space_group_name_H-M   'P 1'
_cell_length_a   5.23371402
_cell_length_b   7.52678607
_cell_length_c   9.39807289
_cell_angle_alpha   89.79363035
_cell_angle_beta   90.05012074
_cell_angle_gamma   94.91718897
_symmetry_Int_Tables_number   1
_chemical_formula_structural   ZnAg2Hg(SeO4)4
_chemical_formula_sum   'Zn1 Ag2 Hg1 Se4 O16'
_cell_volume   368.85372014
_cell_formula_units_Z   1
loop_
 _symmetry_equiv_pos_site_id
 _symmetry_equiv_pos_as_xyz
  1  'x, y, z'
loop_
 _atom_site_type_symbol
 _atom_site_label
 _atom_site_symmetry_multiplicity
 _atom_site_fract_x
 _atom_site_fract_y
 _atom_site_fract_z
 _atom_site_occupancy
  Zn  Zn0  1  0.500000  0.000000  0.500000  1
  Ag  Ag1  1  0.000000  0.000000  0.000000  1
  Ag  Ag2  1  0.500000  0.500000  0.500000  1
  Hg  Hg3  1  0.000000  0.500000  0.000000  1
  Se  Se4  1  0.473633  0.265315  0.808410  1
  Se  Se5  1  0.038480  0.215528  0.324318  1
  Se  Se6  1  0.526367  0.734685  0.191590  1
  Se  Se7  1  0.961520  0.784472  0.675682  1
  O  O8  1  0.731694  0.191176  0.373514  1
  O  O9  1  0.804381  0.957867  0.625671  1
  O  O10  1  0.541891  0.752790  0.373750  1
  O  O11  1  0.324380  0.073179  0.867446  1
  O  O12  1  0.656253  0.547034  0.149218  1
  O  O13  1  0.936278  0.769936  0.858021  1
  O  O14  1  0.458109  0.247210  0.626250  1
  O  O15  1  0.675620  0.926821  0.132554  1
  O  O16  1  0.268306  0.808824  0.626486  1
  O  O17  1  0.837494  0.581950  0.622329  1
  O  O18  1  0.779226  0.272549  0.863237  1
  O  O19  1  0.063722  0.230064  0.141979  1
  O  O20  1  0.343747  0.452966  0.850782  1
  O  O21  1  0.220774  0.727451  0.136763  1
  O  O22  1  0.195619  0.042133  0.374329  1
  O  O23  1  0.162506  0.418050  0.377671  1
