# generated using pymatgen
data_Y9Ho3(CoPd)2
_symmetry_space_group_name_H-M   'P 1'
_cell_length_a   6.41051026
_cell_length_b   7.07235712
_cell_length_c   9.48331036
_cell_angle_alpha   89.88988666
_cell_angle_beta   90.09028896
_cell_angle_gamma   90.48030691
_symmetry_Int_Tables_number   1
_chemical_formula_structural   Y9Ho3(CoPd)2
_chemical_formula_sum   'Y9 Ho3 Co2 Pd2'
_cell_volume   429.93238076
_cell_formula_units_Z   1
loop_
 _symmetry_equiv_pos_site_id
 _symmetry_equiv_pos_as_xyz
  1  'x, y, z'
loop_
 _atom_site_type_symbol
 _atom_site_label
 _atom_site_symmetry_multiplicity
 _atom_site_fract_x
 _atom_site_fract_y
 _atom_site_fract_z
 _atom_site_occupancy
  Y  Y0  1  0.621912  0.046465  0.248075  1
  Y  Y1  1  0.378289  0.954288  0.751377  1
  Y  Y2  1  0.146860  0.479378  0.750394  1
  Y  Y3  1  0.852576  0.520508  0.248933  1
  Y  Y4  1  0.820044  0.815005  0.563082  1
  Y  Y5  1  0.329102  0.670500  0.063957  1
  Y  Y6  1  0.180152  0.185118  0.436738  1
  Y  Y7  1  0.328618  0.670309  0.434188  1
  Y  Y8  1  0.671369  0.329646  0.565730  1
  Ho  Ho9  1  0.180331  0.186556  0.063003  1
  Ho  Ho10  1  0.819542  0.813489  0.936664  1
  Ho  Ho11  1  0.672260  0.329652  0.934827  1
  Co  Co12  1  0.444382  0.383943  0.246592  1
  Co  Co13  1  0.556753  0.614053  0.754985  1
  Pd  Pd14  1  0.949541  0.110601  0.754565  1
  Pd  Pd15  1  0.048270  0.890488  0.246890  1
