# generated using pymatgen
data_Er2Al6(SiRu)3
_symmetry_space_group_name_H-M   'P 1'
_cell_length_a   7.43184517
_cell_length_b   7.39571050
_cell_length_c   9.42091302
_cell_angle_alpha   90.08220417
_cell_angle_beta   90.01608077
_cell_angle_gamma   119.86357402
_symmetry_Int_Tables_number   1
_chemical_formula_structural   Er2Al6(SiRu)3
_chemical_formula_sum   'Er4 Al12 Si6 Ru6'
_cell_volume   449.05014504
_cell_formula_units_Z   2
loop_
 _symmetry_equiv_pos_site_id
 _symmetry_equiv_pos_as_xyz
  1  'x, y, z'
loop_
 _atom_site_type_symbol
 _atom_site_label
 _atom_site_symmetry_multiplicity
 _atom_site_fract_x
 _atom_site_fract_y
 _atom_site_fract_z
 _atom_site_occupancy
  Er  Er0  1  0.000294  0.663375  0.254979  1
  Er  Er1  1  0.999706  0.336625  0.745021  1
  Er  Er2  1  0.675101  0.008203  0.258283  1
  Er  Er3  1  0.324899  0.991797  0.741717  1
  Al  Al4  1  0.126427  0.126120  0.250474  1
  Al  Al5  1  0.873573  0.873880  0.749526  1
  Al  Al6  1  0.662459  0.995766  0.929237  1
  Al  Al7  1  0.337541  0.004234  0.070763  1
  Al  Al8  1  0.335600  0.334227  0.557183  1
  Al  Al9  1  0.664400  0.665773  0.442817  1
  Al  Al10  1  0.664695  0.667951  0.057754  1
  Al  Al11  1  0.335305  0.332049  0.942246  1
  Al  Al12  1  0.338126  0.549454  0.250253  1
  Al  Al13  1  0.661874  0.450546  0.749747  1
  Al  Al14  1  0.547285  0.341493  0.251131  1
  Al  Al15  1  0.452715  0.658507  0.748869  1
  Si  Si16  1  0.002908  0.328873  0.066422  1
  Si  Si17  1  0.997092  0.671127  0.933578  1
  Si  Si18  1  0.989595  0.664493  0.571236  1
  Si  Si19  1  0.334493  0.008339  0.422817  1
  Si  Si20  1  0.010405  0.335507  0.428764  1
  Si  Si21  1  0.665507  0.991661  0.577183  1
  Ru  Ru22  1  0.689269  0.336048  0.002329  1
  Ru  Ru23  1  0.310731  0.663952  0.997671  1
  Ru  Ru24  1  0.318059  0.682090  0.500102  1
  Ru  Ru25  1  0.681941  0.317910  0.499898  1
  Ru  Ru26  1  0.000000  0.000000  0.000000  1
  Ru  Ru27  1  0.000000  0.000000  0.500000  1
