# generated using pymatgen
data_Hg4BiIr3O14
_symmetry_space_group_name_H-M   'P 1'
_cell_length_a   7.37789400
_cell_length_b   7.57110294
_cell_length_c   7.57110224
_cell_angle_alpha   58.31872970
_cell_angle_beta   90.00000000
_cell_angle_gamma   60.84064006
_symmetry_Int_Tables_number   1
_chemical_formula_structural   Hg4BiIr3O14
_chemical_formula_sum   'Hg4 Bi1 Ir3 O14'
_cell_volume   295.06109952
_cell_formula_units_Z   1
loop_
 _symmetry_equiv_pos_site_id
 _symmetry_equiv_pos_as_xyz
  1  'x, y, z'
loop_
 _atom_site_type_symbol
 _atom_site_label
 _atom_site_symmetry_multiplicity
 _atom_site_fract_x
 _atom_site_fract_y
 _atom_site_fract_z
 _atom_site_occupancy
  Hg  Hg0  1  0.499999  0.000000  0.000000  1
  Hg  Hg1  1  0.000000  0.500000  0.000000  1
  Hg  Hg2  1  0.500001  0.500000  0.000000  1
  Hg  Hg3  1  0.500001  0.000000  0.500000  1
  Bi  Bi4  1  0.000000  0.000000  0.500000  1
  Ir  Ir5  1  0.000000  0.000000  0.000000  1
  Ir  Ir6  1  0.000000  0.499998  0.500002  1
  Ir  Ir7  1  0.500001  0.499998  0.500002  1
  O  O8  1  0.383211  0.233578  0.116787  1
  O  O9  1  0.304854  0.779131  0.195143  1
  O  O10  1  0.916013  0.779131  0.195143  1
  O  O11  1  0.909209  0.181581  0.134419  1
  O  O12  1  0.090789  0.274791  0.409208  1
  O  O13  1  0.634419  0.274791  0.409208  1
  O  O14  1  0.695144  0.609711  0.416015  1
  O  O15  1  0.365581  0.725210  0.590791  1
  O  O16  1  0.909209  0.725210  0.590791  1
  O  O17  1  0.304856  0.390288  0.583987  1
  O  O18  1  0.090792  0.818418  0.865580  1
  O  O19  1  0.083987  0.220871  0.804856  1
  O  O20  1  0.695143  0.220871  0.804856  1
  O  O21  1  0.616788  0.766423  0.883213  1
