# generated using pymatgen
data_Gd2B2Ir2CN
_symmetry_space_group_name_H-M   'P 1'
_cell_length_a   3.77300400
_cell_length_b   3.77300600
_cell_length_c   7.66529200
_cell_angle_alpha   90.00003014
_cell_angle_beta   89.99996986
_cell_angle_gamma   89.99996963
_symmetry_Int_Tables_number   1
_chemical_formula_structural   Gd2B2Ir2CN
_chemical_formula_sum   'Gd2 B2 Ir2 C1 N1'
_cell_volume   109.11977577
_cell_formula_units_Z   1
loop_
 _symmetry_equiv_pos_site_id
 _symmetry_equiv_pos_as_xyz
  1  'x, y, z'
loop_
 _atom_site_type_symbol
 _atom_site_label
 _atom_site_symmetry_multiplicity
 _atom_site_fract_x
 _atom_site_fract_y
 _atom_site_fract_z
 _atom_site_occupancy
  Gd  Gd0  1  0.500000  0.000000  0.157249  1
  Gd  Gd1  1  0.000000  0.500000  0.834419  1
  B  B2  1  0.000000  0.500000  0.347276  1
  B  B3  1  0.500000  0.000000  0.658806  1
  Ir  Ir4  1  0.000000  0.000000  0.502570  1
  Ir  Ir5  1  0.500000  0.500000  0.502570  1
  C  C6  1  0.000000  0.500000  0.146917  1
  N  N7  1  0.500000  0.000000  0.850195  1
