# generated using pymatgen
data_K3Rb(B9Se10)2
_symmetry_space_group_name_H-M   'P 1'
_cell_length_a   10.53422884
_cell_length_b   11.30784468
_cell_length_c   11.33611369
_cell_angle_alpha   107.22209294
_cell_angle_beta   89.81477695
_cell_angle_gamma   120.00999124
_symmetry_Int_Tables_number   1
_chemical_formula_structural   K3Rb(B9Se10)2
_chemical_formula_sum   'K3 Rb1 B18 Se20'
_cell_volume   1099.63273581
_cell_formula_units_Z   1
loop_
 _symmetry_equiv_pos_site_id
 _symmetry_equiv_pos_as_xyz
  1  'x, y, z'
loop_
 _atom_site_type_symbol
 _atom_site_label
 _atom_site_symmetry_multiplicity
 _atom_site_fract_x
 _atom_site_fract_y
 _atom_site_fract_z
 _atom_site_occupancy
  K  K0  1  0.756002  0.138449  0.011253  1
  K  K1  1  0.251088  0.867258  0.982364  1
  K  K2  1  0.169057  0.362569  0.484885  1
  Rb  Rb3  1  0.826301  0.648861  0.510217  1
  B  B4  1  0.528567  0.167957  0.559561  1
  B  B5  1  0.471478  0.831337  0.440552  1
  B  B6  1  0.670738  0.133041  0.588637  1
  B  B7  1  0.329076  0.865941  0.411199  1
  B  B8  1  0.505354  0.062363  0.654359  1
  B  B9  1  0.494273  0.936563  0.345479  1
  B  B10  1  0.350878  0.010652  0.545754  1
  B  B11  1  0.648904  0.988527  0.454119  1
  B  B12  1  0.419523  0.048142  0.408139  1
  B  B13  1  0.580212  0.951018  0.591798  1
  B  B14  1  0.614790  0.121678  0.435423  1
  B  B15  1  0.384816  0.877329  0.564419  1
  B  B16  1  0.787915  0.443536  0.726311  1
  B  B17  1  0.211758  0.554521  0.276613  1
  B  B18  1  0.293702  0.106135  0.800849  1
  B  B19  1  0.706519  0.894884  0.198819  1
  B  B20  1  0.555682  0.250217  0.267580  1
  B  B21  1  0.443769  0.747866  0.732021  1
  Se  Se22  1  0.335704  0.325800  0.119125  1
  Se  Se23  1  0.665459  0.673406  0.882306  1
  Se  Se24  1  0.588195  0.376529  0.642264  1
  Se  Se25  1  0.412605  0.622921  0.359327  1
  Se  Se26  1  0.860395  0.307777  0.699664  1
  Se  Se27  1  0.139970  0.690193  0.300105  1
  Se  Se28  1  0.491794  0.138610  0.835212  1
  Se  Se29  1  0.507660  0.860434  0.164570  1
  Se  Se30  1  0.191582  0.037555  0.627870  1
  Se  Se31  1  0.809079  0.963529  0.371844  1
  Se  Se32  1  0.353225  0.124503  0.296324  1
  Se  Se33  1  0.646402  0.874792  0.703778  1
  Se  Se34  1  0.730792  0.264482  0.347517  1
  Se  Se35  1  0.268693  0.733901  0.651799  1
  Se  Se36  1  0.909738  0.643810  0.831932  1
  Se  Se37  1  0.088609  0.351669  0.177495  1
  Se  Se38  1  0.172726  0.117500  0.931068  1
  Se  Se39  1  0.827713  0.885343  0.068094  1
  Se  Se40  1  0.594320  0.363290  0.157253  1
  Se  Se41  1  0.404935  0.635115  0.842104  1
