# generated using pymatgen
data_Zr12Ta4VRh7N4
_symmetry_space_group_name_H-M   'P 1'
_cell_length_a   8.72273488
_cell_length_b   8.70848828
_cell_length_c   8.70848800
_cell_angle_alpha   60.00000106
_cell_angle_beta   60.05401456
_cell_angle_gamma   60.05401595
_symmetry_Int_Tables_number   1
_chemical_formula_structural   Zr12Ta4VRh7N4
_chemical_formula_sum   'Zr12 Ta4 V1 Rh7 N4'
_cell_volume   468.14167100
_cell_formula_units_Z   1
loop_
 _symmetry_equiv_pos_site_id
 _symmetry_equiv_pos_as_xyz
  1  'x, y, z'
loop_
 _atom_site_type_symbol
 _atom_site_label
 _atom_site_symmetry_multiplicity
 _atom_site_fract_x
 _atom_site_fract_y
 _atom_site_fract_z
 _atom_site_occupancy
  Zr  Zr0  1  0.812510  0.810464  0.188513  1
  Zr  Zr1  1  0.184417  0.187932  0.813825  1
  Zr  Zr2  1  0.812510  0.188513  0.810464  1
  Zr  Zr3  1  0.184417  0.813825  0.187932  1
  Zr  Zr4  1  0.184417  0.813825  0.813825  1
  Zr  Zr5  1  0.812510  0.188513  0.188513  1
  Zr  Zr6  1  0.434525  0.435623  0.064926  1
  Zr  Zr7  1  0.055323  0.070250  0.437214  1
  Zr  Zr8  1  0.434525  0.064926  0.435623  1
  Zr  Zr9  1  0.055323  0.437214  0.070250  1
  Zr  Zr10  1  0.055323  0.437214  0.437214  1
  Zr  Zr11  1  0.434525  0.064926  0.064926  1
  Ta  Ta12  1  0.133458  0.622181  0.622181  1
  Ta  Ta13  1  0.625282  0.122980  0.625869  1
  Ta  Ta14  1  0.625282  0.625869  0.122980  1
  Ta  Ta15  1  0.625282  0.625869  0.625869  1
  V  V16  1  0.748843  0.417052  0.417052  1
  Rh  Rh17  1  0.422452  0.752837  0.412354  1
  Rh  Rh18  1  0.422452  0.412354  0.752837  1
  Rh  Rh19  1  0.422452  0.412354  0.412354  1
  Rh  Rh20  1  0.492742  0.835753  0.835753  1
  Rh  Rh21  1  0.839580  0.499343  0.830539  1
  Rh  Rh22  1  0.839580  0.830539  0.499343  1
  Rh  Rh23  1  0.839580  0.830539  0.830539  1
  N  N24  1  0.623273  0.125576  0.125576  1
  N  N25  1  0.126474  0.625203  0.124162  1
  N  N26  1  0.126474  0.124162  0.625203  1
  N  N27  1  0.126474  0.124162  0.124162  1
