# generated using pymatgen
data_DyHo5NpO12
_symmetry_space_group_name_H-M   'P 1'
_cell_length_a   6.54430826
_cell_length_b   6.53952962
_cell_length_c   6.54025727
_cell_angle_alpha   98.92509778
_cell_angle_beta   98.88009647
_cell_angle_gamma   98.94520910
_symmetry_Int_Tables_number   1
_chemical_formula_structural   DyHo5NpO12
_chemical_formula_sum   'Dy1 Ho5 Np1 O12'
_cell_volume   268.54153820
_cell_formula_units_Z   1
loop_
 _symmetry_equiv_pos_site_id
 _symmetry_equiv_pos_as_xyz
  1  'x, y, z'
loop_
 _atom_site_type_symbol
 _atom_site_label
 _atom_site_symmetry_multiplicity
 _atom_site_fract_x
 _atom_site_fract_y
 _atom_site_fract_z
 _atom_site_occupancy
  Dy  Dy0  1  0.145239  0.320776  0.610895  1
  Ho  Ho1  1  0.389442  0.854377  0.678385  1
  Ho  Ho2  1  0.678507  0.389252  0.854557  1
  Ho  Ho3  1  0.321870  0.611070  0.145743  1
  Ho  Ho4  1  0.610689  0.145494  0.321306  1
  Ho  Ho5  1  0.854278  0.678520  0.389073  1
  Np  Np6  1  0.999848  0.999598  0.999854  1
  O  O7  1  0.077464  0.308886  0.955464  1
  O  O8  1  0.045563  0.922506  0.691185  1
  O  O9  1  0.412113  0.571470  0.822730  1
  O  O10  1  0.177655  0.589828  0.428864  1
  O  O11  1  0.691315  0.045453  0.922418  1
  O  O12  1  0.430287  0.177219  0.588891  1
  O  O13  1  0.570967  0.822208  0.411154  1
  O  O14  1  0.308705  0.954594  0.077643  1
  O  O15  1  0.821234  0.411729  0.570577  1
  O  O16  1  0.588662  0.429091  0.177658  1
  O  O17  1  0.953825  0.076886  0.308279  1
  O  O18  1  0.922338  0.691044  0.045323  1
