# generated using pymatgen
data_Ce2Be4CuIr5
_symmetry_space_group_name_H-M   'P 1'
_cell_length_a   6.37136253
_cell_length_b   6.37139837
_cell_length_c   6.36862449
_cell_angle_alpha   129.20513002
_cell_angle_beta   113.52587859
_cell_angle_gamma   88.23375571
_symmetry_Int_Tables_number   1
_chemical_formula_structural   Ce2Be4CuIr5
_chemical_formula_sum   'Ce2 Be4 Cu1 Ir5'
_cell_volume   174.52729691
_cell_formula_units_Z   1
loop_
 _symmetry_equiv_pos_site_id
 _symmetry_equiv_pos_as_xyz
  1  'x, y, z'
loop_
 _atom_site_type_symbol
 _atom_site_label
 _atom_site_symmetry_multiplicity
 _atom_site_fract_x
 _atom_site_fract_y
 _atom_site_fract_z
 _atom_site_occupancy
  Ce  Ce0  1  0.752565  0.026602  0.279166  1
  Ce  Ce1  1  0.247435  0.973398  0.720834  1
  Be  Be2  1  0.580861  0.370630  0.791831  1
  Be  Be3  1  0.078803  0.289029  0.208167  1
  Be  Be4  1  0.419139  0.629370  0.208169  1
  Be  Be5  1  0.921197  0.710971  0.791833  1
  Cu  Cu6  1  0.500000  0.500000  0.500000  1
  Ir  Ir7  1  0.765541  0.497338  0.273771  1
  Ir  Ir8  1  0.000000  0.500000  0.000000  1
  Ir  Ir9  1  0.723564  0.991763  0.726222  1
  Ir  Ir10  1  0.234459  0.502662  0.726229  1
  Ir  Ir11  1  0.276436  0.008237  0.273778  1
