# generated using pymatgen
data_EuHo(ReB4)2
_symmetry_space_group_name_H-M   'P 1'
_cell_length_a   3.62928300
_cell_length_b   6.02638887
_cell_length_c   11.65998033
_cell_angle_alpha   89.80940661
_cell_angle_beta   90.00000000
_cell_angle_gamma   90.00000000
_symmetry_Int_Tables_number   1
_chemical_formula_structural   EuHo(ReB4)2
_chemical_formula_sum   'Eu2 Ho2 Re4 B16'
_cell_volume   255.01950708
_cell_formula_units_Z   2
loop_
 _symmetry_equiv_pos_site_id
 _symmetry_equiv_pos_as_xyz
  1  'x, y, z'
loop_
 _atom_site_type_symbol
 _atom_site_label
 _atom_site_symmetry_multiplicity
 _atom_site_fract_x
 _atom_site_fract_y
 _atom_site_fract_z
 _atom_site_occupancy
  Eu  Eu0  1  0.000000  0.626337  0.349550  1
  Eu  Eu1  1  0.000000  0.373663  0.650450  1
  Ho  Ho2  1  0.000000  0.127059  0.150294  1
  Ho  Ho3  1  0.000000  0.872941  0.849706  1
  Re  Re4  1  0.000000  0.633025  0.085206  1
  Re  Re5  1  0.000000  0.366975  0.914794  1
  Re  Re6  1  0.000000  0.129643  0.413403  1
  Re  Re7  1  0.000000  0.870357  0.586597  1
  B  B8  1  0.500000  0.785395  0.183935  1
  B  B9  1  0.500000  0.214605  0.816065  1
  B  B10  1  0.500000  0.283870  0.314653  1
  B  B11  1  0.500000  0.716130  0.685347  1
  B  B12  1  0.500000  0.863492  0.031241  1
  B  B13  1  0.500000  0.136508  0.968759  1
  B  B14  1  0.500000  0.362389  0.467599  1
  B  B15  1  0.500000  0.637611  0.532401  1
  B  B16  1  0.500000  0.887178  0.453260  1
  B  B17  1  0.500000  0.112822  0.546740  1
  B  B18  1  0.500000  0.386075  0.047072  1
  B  B19  1  0.500000  0.613925  0.952928  1
  B  B20  1  0.500000  0.977217  0.307562  1
  B  B21  1  0.500000  0.022783  0.692438  1
  B  B22  1  0.500000  0.474414  0.190857  1
  B  B23  1  0.500000  0.525586  0.809143  1
