# generated using pymatgen
data_HoSc9(In2Au)4
_symmetry_space_group_name_H-M   'P 1'
_cell_length_a   3.46249000
_cell_length_b   7.89564615
_cell_length_c   17.76330657
_cell_angle_alpha   89.93833955
_cell_angle_beta   90.00000000
_cell_angle_gamma   90.00000000
_symmetry_Int_Tables_number   1
_chemical_formula_structural   HoSc9(In2Au)4
_chemical_formula_sum   'Ho1 Sc9 In8 Au4'
_cell_volume   485.62357746
_cell_formula_units_Z   1
loop_
 _symmetry_equiv_pos_site_id
 _symmetry_equiv_pos_as_xyz
  1  'x, y, z'
loop_
 _atom_site_type_symbol
 _atom_site_label
 _atom_site_symmetry_multiplicity
 _atom_site_fract_x
 _atom_site_fract_y
 _atom_site_fract_z
 _atom_site_occupancy
  Ho  Ho0  1  0.000000  0.000000  0.000000  1
  Sc  Sc1  1  0.000000  0.500000  0.500000  1
  Sc  Sc2  1  0.000000  0.736327  0.283745  1
  Sc  Sc3  1  0.000000  0.263673  0.716255  1
  Sc  Sc4  1  0.000000  0.763518  0.782265  1
  Sc  Sc5  1  0.000000  0.236482  0.217735  1
  Sc  Sc6  1  0.000000  0.622530  0.078914  1
  Sc  Sc7  1  0.000000  0.377470  0.921086  1
  Sc  Sc8  1  0.000000  0.878269  0.577712  1
  Sc  Sc9  1  0.000000  0.121731  0.422288  1
  In  In10  1  0.500000  0.701893  0.933206  1
  In  In11  1  0.500000  0.298107  0.066794  1
  In  In12  1  0.500000  0.789545  0.435046  1
  In  In13  1  0.500000  0.210455  0.564954  1
  In  In14  1  0.500000  0.582940  0.645909  1
  In  In15  1  0.500000  0.417060  0.354091  1
  In  In16  1  0.500000  0.914386  0.149934  1
  In  In17  1  0.500000  0.085614  0.850066  1
  Au  Au18  1  0.500000  0.528926  0.196835  1
  Au  Au19  1  0.500000  0.471074  0.803165  1
  Au  Au20  1  0.500000  0.971170  0.694695  1
  Au  Au21  1  0.500000  0.028830  0.305305  1
