# generated using pymatgen
data_Nd4B4Pd9Pt7
_symmetry_space_group_name_H-M   'P 1'
_cell_length_a   6.14952313
_cell_length_b   5.51585933
_cell_length_c   11.81933684
_cell_angle_alpha   89.89492313
_cell_angle_beta   90.00062544
_cell_angle_gamma   90.00822537
_symmetry_Int_Tables_number   1
_chemical_formula_structural   Nd4B4Pd9Pt7
_chemical_formula_sum   'Nd4 B4 Pd9 Pt7'
_cell_volume   400.91009951
_cell_formula_units_Z   1
loop_
 _symmetry_equiv_pos_site_id
 _symmetry_equiv_pos_as_xyz
  1  'x, y, z'
loop_
 _atom_site_type_symbol
 _atom_site_label
 _atom_site_symmetry_multiplicity
 _atom_site_fract_x
 _atom_site_fract_y
 _atom_site_fract_z
 _atom_site_occupancy
  Nd  Nd0  1  0.192187  0.250551  0.342512  1
  Nd  Nd1  1  0.692261  0.250977  0.157949  1
  Nd  Nd2  1  0.806646  0.748423  0.656258  1
  Nd  Nd3  1  0.307585  0.749041  0.842053  1
  B  B4  1  0.094932  0.253374  0.952550  1
  B  B5  1  0.592559  0.249849  0.547078  1
  B  B6  1  0.906366  0.745213  0.048736  1
  B  B7  1  0.407567  0.750287  0.452821  1
  Pd  Pd8  1  0.116624  0.249740  0.766171  1
  Pd  Pd9  1  0.618182  0.251529  0.734873  1
  Pd  Pd10  1  0.882983  0.751613  0.235072  1
  Pd  Pd11  1  0.382221  0.751923  0.264928  1
  Pd  Pd12  1  0.442710  0.250168  0.944131  1
  Pd  Pd13  1  0.941151  0.249235  0.556146  1
  Pd  Pd14  1  0.559510  0.750884  0.055308  1
  Pd  Pd15  1  0.059245  0.750615  0.444455  1
  Pd  Pd16  1  0.835887  0.996807  0.906835  1
  Pt  Pt17  1  0.336926  0.997568  0.593629  1
  Pt  Pt18  1  0.837864  0.501579  0.908221  1
  Pt  Pt19  1  0.663374  0.498081  0.407076  1
  Pt  Pt20  1  0.159761  0.000934  0.089682  1
  Pt  Pt21  1  0.662806  0.002746  0.407165  1
  Pt  Pt22  1  0.164288  0.496714  0.093763  1
  Pt  Pt23  1  0.336364  0.502150  0.592592  1
