# generated using pymatgen
data_Ac2BiSbO7
_symmetry_space_group_name_H-M   'P 1'
_cell_length_a   7.98485018
_cell_length_b   7.98484923
_cell_length_c   7.98484946
_cell_angle_alpha   119.85793451
_cell_angle_beta   120.62282046
_cell_angle_gamma   89.58544248
_symmetry_Int_Tables_number   1
_chemical_formula_structural   Ac2BiSbO7
_chemical_formula_sum   'Ac4 Bi2 Sb2 O14'
_cell_volume   358.64741082
_cell_formula_units_Z   2
loop_
 _symmetry_equiv_pos_site_id
 _symmetry_equiv_pos_as_xyz
  1  'x, y, z'
loop_
 _atom_site_type_symbol
 _atom_site_label
 _atom_site_symmetry_multiplicity
 _atom_site_fract_x
 _atom_site_fract_y
 _atom_site_fract_z
 _atom_site_occupancy
  Ac  Ac0  1  0.500000  0.500000  0.000000  1
  Ac  Ac1  1  0.000000  0.500000  0.500000  1
  Ac  Ac2  1  0.000000  0.500000  0.000000  1
  Ac  Ac3  1  0.000000  0.000000  0.500000  1
  Bi  Bi4  1  0.000000  0.000000  0.000000  1
  Bi  Bi5  1  0.500000  0.000000  0.500000  1
  Sb  Sb6  1  0.500000  0.000000  0.000000  1
  Sb  Sb7  1  0.500000  0.500000  0.500000  1
  O  O8  1  0.552538  0.302538  0.250000  1
  O  O9  1  0.138237  0.888237  0.250000  1
  O  O10  1  0.567069  0.358886  0.667384  1
  O  O11  1  0.191502  0.899685  0.832616  1
  O  O12  1  0.191502  0.358886  0.291818  1
  O  O13  1  0.567069  0.899685  0.208182  1
  O  O14  1  0.447462  0.697462  0.750000  1
  O  O15  1  0.861763  0.111763  0.750000  1
  O  O16  1  0.432931  0.641114  0.332616  1
  O  O17  1  0.808498  0.100315  0.167384  1
  O  O18  1  0.808498  0.641114  0.708182  1
  O  O19  1  0.432931  0.100315  0.791818  1
  O  O20  1  0.870493  0.620493  0.250000  1
  O  O21  1  0.129507  0.379507  0.750000  1
