# generated using pymatgen
data_Yb5Cd3(B2O5)4
_symmetry_space_group_name_H-M   'P 1'
_cell_length_a   6.32951703
_cell_length_b   3.53819966
_cell_length_c   19.24199820
_cell_angle_alpha   87.33606658
_cell_angle_beta   90.20863400
_cell_angle_gamma   89.72879315
_symmetry_Int_Tables_number   1
_chemical_formula_structural   Yb5Cd3(B2O5)4
_chemical_formula_sum   'Yb5 Cd3 B8 O20'
_cell_volume   430.45264999
_cell_formula_units_Z   1
loop_
 _symmetry_equiv_pos_site_id
 _symmetry_equiv_pos_as_xyz
  1  'x, y, z'
loop_
 _atom_site_type_symbol
 _atom_site_label
 _atom_site_symmetry_multiplicity
 _atom_site_fract_x
 _atom_site_fract_y
 _atom_site_fract_z
 _atom_site_occupancy
  Yb  Yb0  1  0.051935  0.707156  0.210736  1
  Yb  Yb1  1  0.687470  0.241888  0.561974  1
  Yb  Yb2  1  0.188959  0.757155  0.938426  1
  Yb  Yb3  1  0.309048  0.757481  0.437802  1
  Yb  Yb4  1  0.815675  0.245021  0.062294  1
  Cd  Cd5  1  0.450437  0.711518  0.710603  1
  Cd  Cd6  1  0.950290  0.290330  0.789488  1
  Cd  Cd7  1  0.550894  0.287674  0.289030  1
  B  B8  1  0.961074  0.830624  0.655350  1
  B  B9  1  0.460329  0.169061  0.844647  1
  B  B10  1  0.033480  0.163566  0.343771  1
  B  B11  1  0.543324  0.832927  0.155123  1
  B  B12  1  0.753071  0.825750  0.917814  1
  B  B13  1  0.251675  0.174489  0.582193  1
  B  B14  1  0.249029  0.179661  0.082905  1
  B  B15  1  0.745611  0.825973  0.418071  1
  O  O16  1  0.309782  0.245176  0.514793  1
  O  O17  1  0.812274  0.756389  0.985257  1
  O  O18  1  0.686675  0.754304  0.485278  1
  O  O19  1  0.187054  0.242973  0.015433  1
  O  O20  1  0.395578  0.218266  0.634670  1
  O  O21  1  0.896557  0.783321  0.865427  1
  O  O22  1  0.601903  0.780283  0.365436  1
  O  O23  1  0.110338  0.229041  0.136095  1
  O  O24  1  0.761315  0.707427  0.643752  1
  O  O25  1  0.260406  0.292656  0.856246  1
  O  O26  1  0.233356  0.295358  0.354236  1
  O  O27  1  0.745625  0.715318  0.145149  1
  O  O28  1  0.045077  0.039422  0.596367  1
  O  O29  1  0.545125  0.957528  0.903461  1
  O  O30  1  0.951674  0.965411  0.404412  1
  O  O31  1  0.458151  0.045163  0.096256  1
  O  O32  1  0.070927  0.776911  0.717172  1
  O  O33  1  0.570012  0.224597  0.783088  1
  O  O34  1  0.926876  0.197817  0.281699  1
  O  O35  1  0.428994  0.772363  0.215547  1
