# generated using pymatgen
data_CaLa4Si3H
_symmetry_space_group_name_H-M   'P 1'
_cell_length_a   9.08311140
_cell_length_b   9.08311214
_cell_length_c   9.08311307
_cell_angle_alpha   128.26878704
_cell_angle_beta   128.26879162
_cell_angle_gamma   76.19000235
_symmetry_Int_Tables_number   1
_chemical_formula_structural   CaLa4Si3H
_chemical_formula_sum   'Ca2 La8 Si6 H2'
_cell_volume   448.97979193
_cell_formula_units_Z   2
loop_
 _symmetry_equiv_pos_site_id
 _symmetry_equiv_pos_as_xyz
  1  'x, y, z'
loop_
 _atom_site_type_symbol
 _atom_site_label
 _atom_site_symmetry_multiplicity
 _atom_site_fract_x
 _atom_site_fract_y
 _atom_site_fract_z
 _atom_site_occupancy
  Ca  Ca0  1  0.500000  0.500000  0.000000  1
  Ca  Ca1  1  0.000000  0.000000  0.000000  1
  La  La2  1  0.525597  0.025597  0.847217  1
  La  La3  1  0.178381  0.678381  0.152783  1
  La  La4  1  0.025597  0.178381  0.500000  1
  La  La5  1  0.678381  0.525597  0.500000  1
  La  La6  1  0.474403  0.974403  0.152783  1
  La  La7  1  0.821619  0.321619  0.847217  1
  La  La8  1  0.974403  0.821619  0.500000  1
  La  La9  1  0.321619  0.474403  0.500000  1
  Si  Si10  1  0.250000  0.250000  0.000000  1
  Si  Si11  1  0.750000  0.750000  0.000000  1
  Si  Si12  1  0.887106  0.387106  0.274214  1
  Si  Si13  1  0.112894  0.612894  0.725786  1
  Si  Si14  1  0.387106  0.112894  0.500000  1
  Si  Si15  1  0.612894  0.887106  0.500000  1
  H  H16  1  0.250000  0.750000  0.500000  1
  H  H17  1  0.750000  0.250000  0.500000  1
