# generated using pymatgen
data_TaTiMn4
_symmetry_space_group_name_H-M   'P 1'
_cell_length_a   4.77665800
_cell_length_b   4.77665785
_cell_length_c   7.87454300
_cell_angle_alpha   90.00000000
_cell_angle_beta   90.00000000
_cell_angle_gamma   120.00000104
_symmetry_Int_Tables_number   1
_chemical_formula_structural   TaTiMn4
_chemical_formula_sum   'Ta2 Ti2 Mn8'
_cell_volume   155.59809221
_cell_formula_units_Z   2
loop_
 _symmetry_equiv_pos_site_id
 _symmetry_equiv_pos_as_xyz
  1  'x, y, z'
loop_
 _atom_site_type_symbol
 _atom_site_label
 _atom_site_symmetry_multiplicity
 _atom_site_fract_x
 _atom_site_fract_y
 _atom_site_fract_z
 _atom_site_occupancy
  Ta  Ta0  1  0.333333  0.666667  0.436890  1
  Ta  Ta1  1  0.666667  0.333333  0.936890  1
  Ti  Ti2  1  0.666667  0.333333  0.562968  1
  Ti  Ti3  1  0.333333  0.666667  0.062968  1
  Mn  Mn4  1  0.655901  0.827950  0.749917  1
  Mn  Mn5  1  0.344099  0.172050  0.249917  1
  Mn  Mn6  1  0.827950  0.172050  0.249917  1
  Mn  Mn7  1  0.172050  0.344099  0.749917  1
  Mn  Mn8  1  0.172050  0.827950  0.749917  1
  Mn  Mn9  1  0.827950  0.655901  0.249917  1
  Mn  Mn10  1  0.000000  0.000000  0.500391  1
  Mn  Mn11  1  0.000000  0.000000  0.000391  1
