# generated using pymatgen
data_Sr2Bi2Ru3PtO14
_symmetry_space_group_name_H-M   'P 1'
_cell_length_a   7.39571334
_cell_length_b   7.39571387
_cell_length_c   7.34502283
_cell_angle_alpha   60.35392476
_cell_angle_beta   60.35392086
_cell_angle_gamma   60.29148111
_symmetry_Int_Tables_number   1
_chemical_formula_structural   Sr2Bi2Ru3PtO14
_chemical_formula_sum   'Sr2 Bi2 Ru3 Pt1 O14'
_cell_volume   286.21917194
_cell_formula_units_Z   1
loop_
 _symmetry_equiv_pos_site_id
 _symmetry_equiv_pos_as_xyz
  1  'x, y, z'
loop_
 _atom_site_type_symbol
 _atom_site_label
 _atom_site_symmetry_multiplicity
 _atom_site_fract_x
 _atom_site_fract_y
 _atom_site_fract_z
 _atom_site_occupancy
  Sr  Sr0  1  0.125000  0.125000  0.625000  1
  Sr  Sr1  1  0.125000  0.125000  0.125000  1
  Bi  Bi2  1  0.125000  0.625000  0.125000  1
  Bi  Bi3  1  0.625000  0.125000  0.125000  1
  Ru  Ru4  1  0.625000  0.625000  0.125000  1
  Ru  Ru5  1  0.625000  0.125000  0.625000  1
  Ru  Ru6  1  0.125000  0.625000  0.625000  1
  Pt  Pt7  1  0.625000  0.625000  0.625000  1
  O  O8  1  0.262161  0.262161  0.237222  1
  O  O9  1  0.987839  0.987839  0.012778  1
  O  O10  1  0.552053  0.956319  0.537308  1
  O  O11  1  0.305746  0.690382  0.301240  1
  O  O12  1  0.547220  0.547220  0.955219  1
  O  O13  1  0.956319  0.552053  0.537308  1
  O  O14  1  0.559618  0.944254  0.948760  1
  O  O15  1  0.935527  0.935527  0.557222  1
  O  O16  1  0.944254  0.559618  0.948760  1
  O  O17  1  0.690382  0.305746  0.301240  1
  O  O18  1  0.293681  0.697947  0.712692  1
  O  O19  1  0.697947  0.293681  0.712692  1
  O  O20  1  0.314473  0.314473  0.692778  1
  O  O21  1  0.702780  0.702780  0.294781  1
