# generated using pymatgen
data_CeSmAg2(Pt2O7)2
_symmetry_space_group_name_H-M   'P 1'
_cell_length_a   7.29629388
_cell_length_b   7.29629361
_cell_length_c   7.46480778
_cell_angle_alpha   59.11744506
_cell_angle_beta   59.11744537
_cell_angle_gamma   59.41938367
_symmetry_Int_Tables_number   1
_chemical_formula_structural   CeSmAg2(Pt2O7)2
_chemical_formula_sum   'Ce1 Sm1 Ag2 Pt4 O14'
_cell_volume   275.99058274
_cell_formula_units_Z   1
loop_
 _symmetry_equiv_pos_site_id
 _symmetry_equiv_pos_as_xyz
  1  'x, y, z'
loop_
 _atom_site_type_symbol
 _atom_site_label
 _atom_site_symmetry_multiplicity
 _atom_site_fract_x
 _atom_site_fract_y
 _atom_site_fract_z
 _atom_site_occupancy
  Ce  Ce0  1  0.125000  0.125000  0.125000  1
  Sm  Sm1  1  0.125000  0.125000  0.625000  1
  Ag  Ag2  1  0.625000  0.125000  0.125000  1
  Ag  Ag3  1  0.125000  0.625000  0.125000  1
  Pt  Pt4  1  0.625000  0.625000  0.125000  1
  Pt  Pt5  1  0.625000  0.625000  0.625000  1
  Pt  Pt6  1  0.625000  0.125000  0.625000  1
  Pt  Pt7  1  0.125000  0.625000  0.625000  1
  O  O8  1  0.719851  0.290838  0.295659  1
  O  O9  1  0.717648  0.289883  0.697020  1
  O  O10  1  0.993179  0.993179  0.016827  1
  O  O11  1  0.290838  0.719851  0.295659  1
  O  O12  1  0.704760  0.704760  0.295066  1
  O  O13  1  0.960117  0.532352  0.552980  1
  O  O14  1  0.289883  0.717648  0.697020  1
  O  O15  1  0.256821  0.256821  0.233173  1
  O  O16  1  0.959162  0.530149  0.954341  1
  O  O17  1  0.532352  0.960117  0.552980  1
  O  O18  1  0.545240  0.545240  0.954934  1
  O  O19  1  0.965385  0.965385  0.533601  1
  O  O20  1  0.530149  0.959162  0.954341  1
  O  O21  1  0.284615  0.284615  0.716399  1
