# generated using pymatgen
data_Y4LuIr2Rh
_symmetry_space_group_name_H-M   'P 1'
_cell_length_a   10.90061200
_cell_length_b   10.90061200
_cell_length_c   6.38013600
_cell_angle_alpha   90.00000000
_cell_angle_beta   90.00000000
_cell_angle_gamma   90.00000000
_symmetry_Int_Tables_number   1
_chemical_formula_structural   Y4LuIr2Rh
_chemical_formula_sum   'Y16 Lu4 Ir8 Rh4'
_cell_volume   758.10908177
_cell_formula_units_Z   4
loop_
 _symmetry_equiv_pos_site_id
 _symmetry_equiv_pos_as_xyz
  1  'x, y, z'
loop_
 _atom_site_type_symbol
 _atom_site_label
 _atom_site_symmetry_multiplicity
 _atom_site_fract_x
 _atom_site_fract_y
 _atom_site_fract_z
 _atom_site_occupancy
  Y  Y0  1  0.289326  0.088407  0.379326  1
  Y  Y1  1  0.289326  0.911593  0.879326  1
  Y  Y2  1  0.710674  0.088407  0.879326  1
  Y  Y3  1  0.710674  0.911593  0.379326  1
  Y  Y4  1  0.588407  0.789326  0.879326  1
  Y  Y5  1  0.588407  0.210674  0.379326  1
  Y  Y6  1  0.411593  0.789326  0.379326  1
  Y  Y7  1  0.411593  0.210674  0.879326  1
  Y  Y8  1  0.210674  0.411593  0.620674  1
  Y  Y9  1  0.210674  0.588407  0.120674  1
  Y  Y10  1  0.789326  0.411593  0.120674  1
  Y  Y11  1  0.789326  0.588407  0.620674  1
  Y  Y12  1  0.911593  0.710674  0.120674  1
  Y  Y13  1  0.911593  0.289326  0.620674  1
  Y  Y14  1  0.088407  0.710674  0.620674  1
  Y  Y15  1  0.088407  0.289326  0.120674  1
  Lu  Lu16  1  0.000000  0.000000  0.500000  1
  Lu  Lu17  1  0.000000  0.000000  0.000000  1
  Lu  Lu18  1  0.500000  0.500000  0.000000  1
  Lu  Lu19  1  0.500000  0.500000  0.500000  1
  Ir  Ir20  1  0.849175  0.150825  0.250000  1
  Ir  Ir21  1  0.849175  0.849175  0.750000  1
  Ir  Ir22  1  0.150825  0.150825  0.750000  1
  Ir  Ir23  1  0.150825  0.849175  0.250000  1
  Ir  Ir24  1  0.650825  0.349175  0.750000  1
  Ir  Ir25  1  0.650825  0.650825  0.250000  1
  Ir  Ir26  1  0.349175  0.349175  0.250000  1
  Ir  Ir27  1  0.349175  0.650825  0.750000  1
  Rh  Rh28  1  0.500000  0.000000  0.124717  1
  Rh  Rh29  1  0.500000  0.000000  0.624717  1
  Rh  Rh30  1  0.000000  0.500000  0.875283  1
  Rh  Rh31  1  0.000000  0.500000  0.375283  1
