# generated using pymatgen
data_Dy5YZn4Pt13
_symmetry_space_group_name_H-M   'P 1'
_cell_length_a   8.23661966
_cell_length_b   8.23661991
_cell_length_c   8.23662000
_cell_angle_alpha   109.60806303
_cell_angle_beta   109.60806367
_cell_angle_gamma   109.19789263
_symmetry_Int_Tables_number   1
_chemical_formula_structural   Dy5YZn4Pt13
_chemical_formula_sum   'Dy5 Y1 Zn4 Pt13'
_cell_volume   430.14779707
_cell_formula_units_Z   1
loop_
 _symmetry_equiv_pos_site_id
 _symmetry_equiv_pos_as_xyz
  1  'x, y, z'
loop_
 _atom_site_type_symbol
 _atom_site_label
 _atom_site_symmetry_multiplicity
 _atom_site_fract_x
 _atom_site_fract_y
 _atom_site_fract_z
 _atom_site_occupancy
  Dy  Dy0  1  0.301384  0.000334  0.301049  1
  Dy  Dy1  1  0.000338  0.301393  0.301056  1
  Dy  Dy2  1  0.300528  0.300531  0.000003  1
  Dy  Dy3  1  0.699285  0.000334  0.698950  1
  Dy  Dy4  1  0.000332  0.699276  0.698943  1
  Y  Y5  1  0.700181  0.700190  0.000009  1
  Zn  Zn6  1  0.999339  0.999338  0.498850  1
  Zn  Zn7  1  0.999339  0.500488  0.999999  1
  Zn  Zn8  1  0.500488  0.999338  0.000000  1
  Zn  Zn9  1  0.500488  0.500488  0.501149  1
  Pt  Pt10  1  0.331757  0.331758  0.664309  1
  Pt  Pt11  1  0.667260  0.000470  0.333210  1
  Pt  Pt12  1  0.000449  0.667230  0.333202  1
  Pt  Pt13  1  0.667450  0.331758  0.000001  1
  Pt  Pt14  1  0.332360  0.664638  0.332277  1
  Pt  Pt15  1  0.000109  0.332376  0.667747  1
  Pt  Pt16  1  0.331747  0.667439  0.999998  1
  Pt  Pt17  1  0.332343  0.000082  0.667739  1
  Pt  Pt18  1  0.664630  0.332376  0.332268  1
  Pt  Pt19  1  0.667441  0.667439  0.335691  1
  Pt  Pt20  1  0.667246  0.334016  0.666772  1
  Pt  Pt21  1  0.334026  0.667230  0.666781  1
  Pt  Pt22  1  0.001483  0.001482  0.999999  1
