# generated using pymatgen
data_SrEu5Al8O18
_symmetry_space_group_name_H-M   'P 1'
_cell_length_a   6.70224198
_cell_length_b   7.94515043
_cell_length_c   9.57909466
_cell_angle_alpha   84.55541178
_cell_angle_beta   72.52012279
_cell_angle_gamma   74.14919514
_symmetry_Int_Tables_number   1
_chemical_formula_structural   SrEu5Al8O18
_chemical_formula_sum   'Sr1 Eu5 Al8 O18'
_cell_volume   467.98942268
_cell_formula_units_Z   1
loop_
 _symmetry_equiv_pos_site_id
 _symmetry_equiv_pos_as_xyz
  1  'x, y, z'
loop_
 _atom_site_type_symbol
 _atom_site_label
 _atom_site_symmetry_multiplicity
 _atom_site_fract_x
 _atom_site_fract_y
 _atom_site_fract_z
 _atom_site_occupancy
  Sr  Sr0  1  0.947688  0.944159  0.310829  1
  Eu  Eu1  1  0.052301  0.053737  0.692138  1
  Eu  Eu2  1  0.178130  0.565844  0.672692  1
  Eu  Eu3  1  0.303866  0.211783  0.957883  1
  Eu  Eu4  1  0.696300  0.788209  0.042133  1
  Eu  Eu5  1  0.822032  0.433862  0.326491  1
  Al  Al6  1  0.397479  0.174709  0.300978  1
  Al  Al7  1  0.330242  0.553642  0.238372  1
  Al  Al8  1  0.744395  0.263379  0.057672  1
  Al  Al9  1  0.565436  0.190371  0.580457  1
  Al  Al10  1  0.433183  0.809638  0.419882  1
  Al  Al11  1  0.256580  0.736574  0.941869  1
  Al  Al12  1  0.670088  0.446197  0.761020  1
  Al  Al13  1  0.602928  0.825664  0.699542  1
  O  O14  1  0.258507  0.016288  0.388773  1
  O  O15  1  0.210617  0.375648  0.280956  1
  O  O16  1  0.205567  0.720928  0.133535  1
  O  O17  1  0.564280  0.118514  0.116102  1
  O  O18  1  0.027162  0.811566  0.876550  1
  O  O19  1  0.299669  0.239336  0.697722  1
  O  O20  1  0.296067  0.650960  0.406926  1
  O  O21  1  0.585379  0.194895  0.391848  1
  O  O22  1  0.609351  0.476406  0.138519  1
  O  O23  1  0.390661  0.523614  0.860584  1
  O  O24  1  0.414894  0.805943  0.608444  1
  O  O25  1  0.701493  0.349740  0.593035  1
  O  O26  1  0.698057  0.758494  0.302020  1
  O  O27  1  0.974154  0.191807  0.122076  1
  O  O28  1  0.436730  0.881273  0.884272  1
  O  O29  1  0.795351  0.277974  0.865455  1
  O  O30  1  0.789593  0.624346  0.718981  1
  O  O31  1  0.741819  0.984499  0.612242  1
