# generated using pymatgen
data_Tb2HfScPt2
_symmetry_space_group_name_H-M   'P 1'
_cell_length_a   4.68764100
_cell_length_b   7.05093100
_cell_length_c   8.31306300
_cell_angle_alpha   90.00000000
_cell_angle_beta   90.00000000
_cell_angle_gamma   90.00000000
_symmetry_Int_Tables_number   1
_chemical_formula_structural   Tb2HfScPt2
_chemical_formula_sum   'Tb4 Hf2 Sc2 Pt4'
_cell_volume   274.76529725
_cell_formula_units_Z   2
loop_
 _symmetry_equiv_pos_site_id
 _symmetry_equiv_pos_as_xyz
  1  'x, y, z'
loop_
 _atom_site_type_symbol
 _atom_site_label
 _atom_site_symmetry_multiplicity
 _atom_site_fract_x
 _atom_site_fract_y
 _atom_site_fract_z
 _atom_site_occupancy
  Tb  Tb0  1  0.750000  0.481363  0.824813  1
  Tb  Tb1  1  0.250000  0.017055  0.321030  1
  Tb  Tb2  1  0.750000  0.981363  0.675187  1
  Tb  Tb3  1  0.250000  0.517055  0.178970  1
  Hf  Hf4  1  0.750000  0.360048  0.426313  1
  Hf  Hf5  1  0.750000  0.860048  0.073687  1
  Sc  Sc6  1  0.250000  0.643122  0.577263  1
  Sc  Sc7  1  0.250000  0.143122  0.922737  1
  Pt  Pt8  1  0.250000  0.763702  0.910614  1
  Pt  Pt9  1  0.250000  0.263702  0.589386  1
  Pt  Pt10  1  0.750000  0.734711  0.397330  1
  Pt  Pt11  1  0.750000  0.234711  0.102670  1
