# generated using pymatgen
data_LiDy6IrBr12
_symmetry_space_group_name_H-M   'P 1'
_cell_length_a   9.21122975
_cell_length_b   9.33289230
_cell_length_c   9.25899728
_cell_angle_alpha   108.37116041
_cell_angle_beta   107.24203100
_cell_angle_gamma   107.63803553
_symmetry_Int_Tables_number   1
_chemical_formula_structural   LiDy6IrBr12
_chemical_formula_sum   'Li1 Dy6 Ir1 Br12'
_cell_volume   648.79562663
_cell_formula_units_Z   1
loop_
 _symmetry_equiv_pos_site_id
 _symmetry_equiv_pos_as_xyz
  1  'x, y, z'
loop_
 _atom_site_type_symbol
 _atom_site_label
 _atom_site_symmetry_multiplicity
 _atom_site_fract_x
 _atom_site_fract_y
 _atom_site_fract_z
 _atom_site_occupancy
  Li  Li0  1  0.499999  0.500001  0.500001  1
  Dy  Dy1  1  0.114866  0.326119  0.034382  1
  Dy  Dy2  1  0.317535  0.034068  0.112271  1
  Dy  Dy3  1  0.035167  0.110539  0.319379  1
  Dy  Dy4  1  0.964832  0.889458  0.680620  1
  Dy  Dy5  1  0.682463  0.965934  0.887728  1
  Dy  Dy6  1  0.885134  0.673882  0.965616  1
  Ir  Ir7  1  0.999999  0.000003  0.000003  1
  Br  Br8  1  0.219598  0.684275  0.073596  1
  Br  Br9  1  0.459436  0.379828  0.167444  1
  Br  Br10  1  0.684397  0.073220  0.218484  1
  Br  Br11  1  0.926336  0.781726  0.317314  1
  Br  Br12  1  0.166494  0.457140  0.380910  1
  Br  Br13  1  0.382932  0.168535  0.460499  1
  Br  Br14  1  0.617065  0.831464  0.539502  1
  Br  Br15  1  0.833505  0.542858  0.619090  1
  Br  Br16  1  0.073673  0.218270  0.682693  1
  Br  Br17  1  0.315601  0.926779  0.781517  1
  Br  Br18  1  0.540569  0.620171  0.832554  1
  Br  Br19  1  0.780403  0.315733  0.926399  1
