# generated using pymatgen
data_Ho3Tm9ZnCo4Bi
_symmetry_space_group_name_H-M   'P 1'
_cell_length_a   8.25258813
_cell_length_b   8.25258850
_cell_length_c   8.25279052
_cell_angle_alpha   109.77505118
_cell_angle_beta   111.38879217
_cell_angle_gamma   107.27510544
_symmetry_Int_Tables_number   1
_chemical_formula_structural   Ho3Tm9ZnCo4Bi
_chemical_formula_sum   'Ho3 Tm9 Zn1 Co4 Bi1'
_cell_volume   432.11442715
_cell_formula_units_Z   1
loop_
 _symmetry_equiv_pos_site_id
 _symmetry_equiv_pos_as_xyz
  1  'x, y, z'
loop_
 _atom_site_type_symbol
 _atom_site_label
 _atom_site_symmetry_multiplicity
 _atom_site_fract_x
 _atom_site_fract_y
 _atom_site_fract_z
 _atom_site_occupancy
  Ho  Ho0  1  0.285418  0.183157  0.468575  1
  Ho  Ho1  1  0.714828  0.817387  0.532215  1
  Ho  Ho2  1  0.285380  0.817069  0.102448  1
  Tm  Tm3  1  0.714495  0.182417  0.896912  1
  Tm  Tm4  1  0.622113  0.313721  0.307781  1
  Tm  Tm5  1  0.378403  0.686710  0.691980  1
  Tm  Tm6  1  0.005271  0.313577  0.691980  1
  Tm  Tm7  1  0.994060  0.685668  0.307781  1
  Tm  Tm8  1  0.218450  0.425549  0.206412  1
  Tm  Tm9  1  0.780882  0.573599  0.793244  1
  Tm  Tm10  1  0.219645  0.012362  0.793244  1
  Tm  Tm11  1  0.780862  0.987962  0.206412  1
  Zn  Zn12  1  0.999498  0.000110  0.999608  1
  Co  Co13  1  0.999412  0.376659  0.376072  1
  Co  Co14  1  0.000254  0.623159  0.623412  1
  Co  Co15  1  0.387061  0.886974  0.500933  1
  Co  Co16  1  0.613959  0.113873  0.500933  1
  Bi  Bi17  1  0.500008  0.500049  0.000057  1
