# generated using pymatgen
data_Sr3Nd(H6Pd)2
_symmetry_space_group_name_H-M   'P 1'
_cell_length_a   7.38873566
_cell_length_b   7.38873411
_cell_length_c   5.45916103
_cell_angle_alpha   90.00312527
_cell_angle_beta   90.00311545
_cell_angle_gamma   136.38224452
_symmetry_Int_Tables_number   1
_chemical_formula_structural   Sr3Nd(H6Pd)2
_chemical_formula_sum   'Sr3 Nd1 H12 Pd2'
_cell_volume   205.59706604
_cell_formula_units_Z   1
loop_
 _symmetry_equiv_pos_site_id
 _symmetry_equiv_pos_as_xyz
  1  'x, y, z'
loop_
 _atom_site_type_symbol
 _atom_site_label
 _atom_site_symmetry_multiplicity
 _atom_site_fract_x
 _atom_site_fract_y
 _atom_site_fract_z
 _atom_site_occupancy
  Sr  Sr0  1  0.644787  0.355213  0.000000  1
  Sr  Sr1  1  0.854268  0.145732  0.500000  1
  Sr  Sr2  1  0.354791  0.645209  0.000000  1
  Nd  Nd3  1  0.144254  0.855746  0.500000  1
  H  H4  1  0.006122  0.519508  0.737815  1
  H  H5  1  0.480492  0.993878  0.262185  1
  H  H6  1  0.006096  0.519455  0.262223  1
  H  H7  1  0.480545  0.993904  0.737777  1
  H  H8  1  0.378158  0.621842  0.500000  1
  H  H9  1  0.875687  0.124313  0.000000  1
  H  H10  1  0.627590  0.372410  0.500000  1
  H  H11  1  0.126563  0.873437  0.000000  1
  H  H12  1  0.248639  0.241235  0.744829  1
  H  H13  1  0.758765  0.751361  0.255171  1
  H  H14  1  0.247117  0.239734  0.253162  1
  H  H15  1  0.760266  0.752883  0.746838  1
  Pd  Pd16  1  0.503283  0.496717  0.500000  1
  Pd  Pd17  1  0.002579  0.997421  0.000000  1
