# generated using pymatgen
data_Hf3TiOs2
_symmetry_space_group_name_H-M   'P 1'
_cell_length_a   8.57985218
_cell_length_b   8.57985216
_cell_length_c   8.57985200
_cell_angle_alpha   60.00000063
_cell_angle_beta   60.00000069
_cell_angle_gamma   60.00000040
_symmetry_Int_Tables_number   1
_chemical_formula_structural   Hf3TiOs2
_chemical_formula_sum   'Hf12 Ti4 Os8'
_cell_volume   446.60585733
_cell_formula_units_Z   4
loop_
 _symmetry_equiv_pos_site_id
 _symmetry_equiv_pos_as_xyz
  1  'x, y, z'
loop_
 _atom_site_type_symbol
 _atom_site_label
 _atom_site_symmetry_multiplicity
 _atom_site_fract_x
 _atom_site_fract_y
 _atom_site_fract_z
 _atom_site_occupancy
  Hf  Hf0  1  0.807089  0.807089  0.192911  1
  Hf  Hf1  1  0.192911  0.192911  0.807089  1
  Hf  Hf2  1  0.807089  0.192911  0.807089  1
  Hf  Hf3  1  0.192911  0.807089  0.192911  1
  Hf  Hf4  1  0.192911  0.807089  0.807089  1
  Hf  Hf5  1  0.807089  0.192911  0.192911  1
  Hf  Hf6  1  0.442911  0.442911  0.057089  1
  Hf  Hf7  1  0.057089  0.057089  0.442911  1
  Hf  Hf8  1  0.442911  0.057089  0.442911  1
  Hf  Hf9  1  0.057089  0.442911  0.057089  1
  Hf  Hf10  1  0.057089  0.442911  0.442911  1
  Hf  Hf11  1  0.442911  0.057089  0.057089  1
  Ti  Ti12  1  0.125000  0.625000  0.625000  1
  Ti  Ti13  1  0.625000  0.125000  0.625000  1
  Ti  Ti14  1  0.625000  0.625000  0.125000  1
  Ti  Ti15  1  0.625000  0.625000  0.625000  1
  Os  Os16  1  0.756447  0.414517  0.414517  1
  Os  Os17  1  0.414517  0.756447  0.414517  1
  Os  Os18  1  0.414517  0.414517  0.756447  1
  Os  Os19  1  0.414517  0.414517  0.414517  1
  Os  Os20  1  0.493553  0.835483  0.835483  1
  Os  Os21  1  0.835483  0.493553  0.835483  1
  Os  Os22  1  0.835483  0.835483  0.493553  1
  Os  Os23  1  0.835483  0.835483  0.835483  1
