# generated using pymatgen
data_SrAuF7
_symmetry_space_group_name_H-M   'P 1'
_cell_length_a   7.87064500
_cell_length_b   4.67567157
_cell_length_c   7.82804834
_cell_angle_alpha   89.88818107
_cell_angle_beta   90.00000000
_cell_angle_gamma   90.00000000
_symmetry_Int_Tables_number   1
_chemical_formula_structural   SrAuF7
_chemical_formula_sum   'Sr2 Au2 F14'
_cell_volume   288.07594375
_cell_formula_units_Z   2
loop_
 _symmetry_equiv_pos_site_id
 _symmetry_equiv_pos_as_xyz
  1  'x, y, z'
loop_
 _atom_site_type_symbol
 _atom_site_label
 _atom_site_symmetry_multiplicity
 _atom_site_fract_x
 _atom_site_fract_y
 _atom_site_fract_z
 _atom_site_occupancy
  Sr  Sr0  1  0.250000  0.237964  0.750679  1
  Sr  Sr1  1  0.750000  0.762036  0.249321  1
  Au  Au2  1  0.250000  0.418532  0.284523  1
  Au  Au3  1  0.750000  0.581468  0.715477  1
  F  F4  1  0.250000  0.741303  0.806867  1
  F  F5  1  0.571363  0.337963  0.813067  1
  F  F6  1  0.750000  0.258697  0.193133  1
  F  F7  1  0.071363  0.662037  0.186933  1
  F  F8  1  0.250000  0.190299  0.072312  1
  F  F9  1  0.079860  0.177976  0.394501  1
  F  F10  1  0.420140  0.177976  0.394501  1
  F  F11  1  0.579860  0.822024  0.605499  1
  F  F12  1  0.928637  0.337963  0.813067  1
  F  F13  1  0.750000  0.809701  0.927688  1
  F  F14  1  0.428637  0.662037  0.186933  1
  F  F15  1  0.750000  0.376588  0.496329  1
  F  F16  1  0.920140  0.822024  0.605499  1
  F  F17  1  0.250000  0.623412  0.503671  1
