# generated using pymatgen
data_ScPaB6Os
_symmetry_space_group_name_H-M   'P 1'
_cell_length_a   3.59230700
_cell_length_b   9.01529900
_cell_length_c   11.39884200
_cell_angle_alpha   90.00000000
_cell_angle_beta   90.00000000
_cell_angle_gamma   90.00000000
_symmetry_Int_Tables_number   1
_chemical_formula_structural   ScPaB6Os
_chemical_formula_sum   'Sc4 Pa4 B24 Os4'
_cell_volume   369.15972477
_cell_formula_units_Z   4
loop_
 _symmetry_equiv_pos_site_id
 _symmetry_equiv_pos_as_xyz
  1  'x, y, z'
loop_
 _atom_site_type_symbol
 _atom_site_label
 _atom_site_symmetry_multiplicity
 _atom_site_fract_x
 _atom_site_fract_y
 _atom_site_fract_z
 _atom_site_occupancy
  Sc  Sc0  1  0.000000  0.445889  0.124489  1
  Sc  Sc1  1  0.000000  0.554111  0.875511  1
  Sc  Sc2  1  0.000000  0.945889  0.375511  1
  Sc  Sc3  1  0.000000  0.054111  0.624489  1
  Pa  Pa4  1  0.000000  0.822562  0.085898  1
  Pa  Pa5  1  0.000000  0.177438  0.914102  1
  Pa  Pa6  1  0.000000  0.322562  0.414102  1
  Pa  Pa7  1  0.000000  0.677438  0.585898  1
  B  B8  1  0.500000  0.053360  0.065552  1
  B  B9  1  0.500000  0.946640  0.934448  1
  B  B10  1  0.500000  0.553360  0.434448  1
  B  B11  1  0.500000  0.446640  0.565552  1
  B  B12  1  0.500000  0.253903  0.081101  1
  B  B13  1  0.500000  0.746097  0.918899  1
  B  B14  1  0.500000  0.753903  0.418899  1
  B  B15  1  0.500000  0.246097  0.581101  1
  B  B16  1  0.500000  0.296593  0.234186  1
  B  B17  1  0.500000  0.703407  0.765814  1
  B  B18  1  0.500000  0.796593  0.265814  1
  B  B19  1  0.500000  0.203407  0.734186  1
  B  B20  1  0.500000  0.130816  0.318017  1
  B  B21  1  0.500000  0.869184  0.681983  1
  B  B22  1  0.500000  0.630816  0.181983  1
  B  B23  1  0.500000  0.369184  0.818017  1
  B  B24  1  0.500000  0.481563  0.284143  1
  B  B25  1  0.500000  0.518437  0.715857  1
  B  B26  1  0.500000  0.981563  0.215857  1
  B  B27  1  0.500000  0.018437  0.784143  1
  B  B28  1  0.500000  0.102031  0.472434  1
  B  B29  1  0.500000  0.897969  0.527566  1
  B  B30  1  0.500000  0.602031  0.027566  1
  B  B31  1  0.500000  0.397969  0.972434  1
  Os  Os32  1  0.000000  0.140971  0.180652  1
  Os  Os33  1  0.000000  0.859029  0.819348  1
  Os  Os34  1  0.000000  0.640971  0.319348  1
  Os  Os35  1  0.000000  0.359029  0.680652  1
