# generated using pymatgen
data_Pr5Nd5Sn20Ir3Pd5
_symmetry_space_group_name_H-M   'P 1'
_cell_length_a   14.28417107
_cell_length_b   14.28333617
_cell_length_c   4.67368800
_cell_angle_alpha   90.00000000
_cell_angle_beta   90.00000000
_cell_angle_gamma   89.94421752
_symmetry_Int_Tables_number   1
_chemical_formula_structural   Pr5Nd5Sn20Ir3Pd5
_chemical_formula_sum   'Pr5 Nd5 Sn20 Ir3 Pd5'
_cell_volume   953.55162715
_cell_formula_units_Z   1
loop_
 _symmetry_equiv_pos_site_id
 _symmetry_equiv_pos_as_xyz
  1  'x, y, z'
loop_
 _atom_site_type_symbol
 _atom_site_label
 _atom_site_symmetry_multiplicity
 _atom_site_fract_x
 _atom_site_fract_y
 _atom_site_fract_z
 _atom_site_occupancy
  Pr  Pr0  1  0.001028  0.999529  0.000000  1
  Pr  Pr1  1  0.892696  0.389463  0.500000  1
  Pr  Pr2  1  0.106890  0.610410  0.500000  1
  Pr  Pr3  1  0.393580  0.110802  0.500000  1
  Pr  Pr4  1  0.608915  0.891611  0.500000  1
  Nd  Nd5  1  0.500833  0.496442  0.000000  1
  Nd  Nd6  1  0.676318  0.181596  0.500000  1
  Nd  Nd7  1  0.320152  0.820898  0.500000  1
  Nd  Nd8  1  0.175754  0.318458  0.500000  1
  Nd  Nd9  1  0.823454  0.680753  0.500000  1
  Sn  Sn10  1  0.568654  0.071559  0.000000  1
  Sn  Sn11  1  0.431229  0.932558  0.000000  1
  Sn  Sn12  1  0.068816  0.429755  0.000000  1
  Sn  Sn13  1  0.931953  0.570531  0.000000  1
  Sn  Sn14  1  0.652999  0.700429  0.000000  1
  Sn  Sn15  1  0.347161  0.296574  0.000000  1
  Sn  Sn16  1  0.151076  0.796596  0.000000  1
  Sn  Sn17  1  0.848098  0.202320  0.000000  1
  Sn  Sn18  1  0.299054  0.652613  0.000000  1
  Sn  Sn19  1  0.699841  0.346826  0.000000  1
  Sn  Sn20  1  0.198567  0.152716  0.000000  1
  Sn  Sn21  1  0.800811  0.847988  0.000000  1
  Sn  Sn22  1  0.663288  0.500880  0.500000  1
  Sn  Sn23  1  0.337380  0.495714  0.500000  1
  Sn  Sn24  1  0.163043  0.997845  0.500000  1
  Sn  Sn25  1  0.837532  0.004134  0.500000  1
  Sn  Sn26  1  0.498629  0.662124  0.500000  1
  Sn  Sn27  1  0.503281  0.337134  0.500000  1
  Sn  Sn28  1  0.004573  0.162131  0.500000  1
  Sn  Sn29  1  0.995103  0.837465  0.500000  1
  Ir  Ir30  1  0.532052  0.256900  0.000000  1
  Ir  Ir31  1  0.031600  0.244814  0.000000  1
  Ir  Ir32  1  0.967030  0.755693  0.000000  1
  Pd  Pd33  1  0.745662  0.530777  0.000000  1
  Pd  Pd34  1  0.255242  0.468389  0.000000  1
  Pd  Pd35  1  0.244294  0.967977  0.000000  1
  Pd  Pd36  1  0.755028  0.031701  0.000000  1
  Pd  Pd37  1  0.468388  0.745894  0.000000  1
