# generated using pymatgen
data_Tb5Lu5(SiBi2)2
_symmetry_space_group_name_H-M   'P 1'
_cell_length_a   12.02152800
_cell_length_b   9.09946003
_cell_length_c   8.00073803
_cell_angle_alpha   90.00969463
_cell_angle_beta   90.00000000
_cell_angle_gamma   90.00000000
_symmetry_Int_Tables_number   1
_chemical_formula_structural   Tb5Lu5(SiBi2)2
_chemical_formula_sum   'Tb10 Lu10 Si4 Bi8'
_cell_volume   875.19602852
_cell_formula_units_Z   2
loop_
 _symmetry_equiv_pos_site_id
 _symmetry_equiv_pos_as_xyz
  1  'x, y, z'
loop_
 _atom_site_type_symbol
 _atom_site_label
 _atom_site_symmetry_multiplicity
 _atom_site_fract_x
 _atom_site_fract_y
 _atom_site_fract_z
 _atom_site_occupancy
  Tb  Tb0  1  0.063370  0.948448  0.818689  1
  Tb  Tb1  1  0.563370  0.551552  0.681311  1
  Tb  Tb2  1  0.211904  0.749440  0.164559  1
  Tb  Tb3  1  0.711904  0.750560  0.335441  1
  Tb  Tb4  1  0.788445  0.249852  0.836018  1
  Tb  Tb5  1  0.288445  0.250148  0.663982  1
  Tb  Tb6  1  0.294729  0.749780  0.637369  1
  Tb  Tb7  1  0.794729  0.750220  0.862631  1
  Tb  Tb8  1  0.705588  0.249982  0.361621  1
  Tb  Tb9  1  0.205588  0.250018  0.138379  1
  Lu  Lu10  1  0.063001  0.553629  0.820783  1
  Lu  Lu11  1  0.563001  0.946371  0.679217  1
  Lu  Lu12  1  0.937096  0.054640  0.178876  1
  Lu  Lu13  1  0.437096  0.445360  0.321124  1
  Lu  Lu14  1  0.937298  0.445637  0.179809  1
  Lu  Lu15  1  0.437298  0.054363  0.320191  1
  Lu  Lu16  1  0.000708  0.749903  0.459221  1
  Lu  Lu17  1  0.500708  0.750097  0.040779  1
  Lu  Lu18  1  0.999007  0.250256  0.539019  1
  Lu  Lu19  1  0.499007  0.249744  0.960981  1
  Si  Si20  1  0.477742  0.751682  0.409828  1
  Si  Si21  1  0.977742  0.748318  0.090172  1
  Si  Si22  1  0.520763  0.246090  0.586704  1
  Si  Si23  1  0.020763  0.253910  0.913296  1
  Bi  Bi24  1  0.328311  0.509999  0.932327  1
  Bi  Bi25  1  0.828311  0.990001  0.567673  1
  Bi  Bi26  1  0.671346  0.010672  0.067697  1
  Bi  Bi27  1  0.171346  0.489328  0.432303  1
  Bi  Bi28  1  0.671752  0.489538  0.068193  1
  Bi  Bi29  1  0.171752  0.010462  0.431807  1
  Bi  Bi30  1  0.328942  0.989870  0.933272  1
  Bi  Bi31  1  0.828942  0.510130  0.566728  1
