# generated using pymatgen
data_CrOsI18
_symmetry_space_group_name_H-M   'P 1'
_cell_length_a   10.03423528
_cell_length_b   10.03423673
_cell_length_c   10.03423657
_cell_angle_alpha   91.56813941
_cell_angle_beta   91.56813702
_cell_angle_gamma   91.56813626
_symmetry_Int_Tables_number   1
_chemical_formula_structural   CrOsI18
_chemical_formula_sum   'Cr1 Os1 I18'
_cell_volume   1009.14979106
_cell_formula_units_Z   1
loop_
 _symmetry_equiv_pos_site_id
 _symmetry_equiv_pos_as_xyz
  1  'x, y, z'
loop_
 _atom_site_type_symbol
 _atom_site_label
 _atom_site_symmetry_multiplicity
 _atom_site_fract_x
 _atom_site_fract_y
 _atom_site_fract_z
 _atom_site_occupancy
  Cr  Cr0  1  0.500000  0.500000  0.500000  1
  Os  Os1  1  0.000000  0.000000  0.000000  1
  I  I2  1  0.732219  0.988585  0.010828  1
  I  I3  1  0.745507  0.128753  0.619173  1
  I  I4  1  0.010828  0.732219  0.988585  1
  I  I5  1  0.254493  0.871247  0.380827  1
  I  I6  1  0.128753  0.619173  0.745507  1
  I  I7  1  0.011415  0.989172  0.267781  1
  I  I8  1  0.619173  0.745507  0.128753  1
  I  I9  1  0.989172  0.267781  0.011415  1
  I  I10  1  0.871247  0.380827  0.254493  1
  I  I11  1  0.380827  0.254493  0.871247  1
  I  I12  1  0.988585  0.010828  0.732219  1
  I  I13  1  0.267781  0.011415  0.989172  1
  I  I14  1  0.771174  0.526772  0.491670  1
  I  I15  1  0.508330  0.228826  0.473228  1
  I  I16  1  0.473228  0.508330  0.228826  1
  I  I17  1  0.491670  0.771174  0.526772  1
  I  I18  1  0.526772  0.491670  0.771174  1
  I  I19  1  0.228826  0.473228  0.508330  1
