# generated using pymatgen
data_Y5Er27B8(C8I19)2
_symmetry_space_group_name_H-M   'P 1'
_cell_length_a   12.49060397
_cell_length_b   14.35369877
_cell_length_c   19.64060364
_cell_angle_alpha   104.70233004
_cell_angle_beta   89.63647316
_cell_angle_gamma   112.79172238
_symmetry_Int_Tables_number   1
_chemical_formula_structural   Y5Er27B8(C8I19)2
_chemical_formula_sum   'Y5 Er27 B8 C16 I38'
_cell_volume   3123.30730029
_cell_formula_units_Z   1
loop_
 _symmetry_equiv_pos_site_id
 _symmetry_equiv_pos_as_xyz
  1  'x, y, z'
loop_
 _atom_site_type_symbol
 _atom_site_label
 _atom_site_symmetry_multiplicity
 _atom_site_fract_x
 _atom_site_fract_y
 _atom_site_fract_z
 _atom_site_occupancy
  Y  Y0  1  0.595360  0.736919  0.457049  1
  Y  Y1  1  0.635184  0.503488  0.592727  1
  Y  Y2  1  0.556612  0.347807  0.720870  1
  Y  Y3  1  0.298364  0.339137  0.722016  1
  Y  Y4  1  0.602905  0.737766  0.627670  1
  Er  Er5  1  0.315622  0.341099  0.220706  1
  Er  Er6  1  0.569346  0.347455  0.221593  1
  Er  Er7  1  0.684357  0.658658  0.779524  1
  Er  Er8  1  0.398088  0.265648  0.042396  1
  Er  Er9  1  0.320881  0.710763  0.543911  1
  Er  Er10  1  0.859795  0.728193  0.541700  1
  Er  Er11  1  0.638202  0.504354  0.408538  1
  Er  Er12  1  0.444093  0.650974  0.278787  1
  Er  Er13  1  0.398077  0.264709  0.373682  1
  Er  Er14  1  0.138847  0.276668  0.955970  1
  Er  Er15  1  0.325502  0.714637  0.041898  1
  Er  Er16  1  0.405428  0.263950  0.873818  1
  Er  Er17  1  0.861148  0.723341  0.044041  1
  Er  Er18  1  0.678536  0.288662  0.455738  1
  Er  Er19  1  0.601942  0.734368  0.957616  1
  Er  Er20  1  0.594587  0.736003  0.126350  1
  Er  Er21  1  0.636887  0.502229  0.091543  1
  Er  Er22  1  0.363070  0.497861  0.908671  1
  Er  Er23  1  0.140480  0.271705  0.458071  1
  Er  Er24  1  0.698793  0.659588  0.277828  1
  Er  Er25  1  0.405172  0.265332  0.542194  1
  Er  Er26  1  0.366793  0.496534  0.408246  1
  Er  Er27  1  0.366914  0.497440  0.091555  1
  Er  Er28  1  0.633061  0.502712  0.908636  1
  Er  Er29  1  0.430352  0.652279  0.778617  1
  Er  Er30  1  0.361632  0.495369  0.591208  1
  Er  Er31  1  0.674538  0.285391  0.958147  1
  B  B32  1  0.508076  0.500974  0.205120  1
  B  B33  1  0.470920  0.430178  0.486763  1
  B  B34  1  0.491721  0.498584  0.795023  1
  B  B35  1  0.470891  0.430516  0.987125  1
  B  B36  1  0.529113  0.569521  0.013042  1
  B  B37  1  0.491669  0.500240  0.705486  1
  B  B38  1  0.507676  0.498790  0.294234  1
  B  B39  1  0.529267  0.569719  0.512700  1
  C  C40  1  0.667219  0.636205  0.524756  1
  C  C41  1  0.460158  0.390468  0.315597  1
  C  C42  1  0.449754  0.391538  0.817392  1
  C  C43  1  0.444467  0.630525  0.025076  1
  C  C44  1  0.553864  0.367561  0.475042  1
  C  C45  1  0.539008  0.609259  0.685085  1
  C  C46  1  0.333097  0.362889  0.975566  1
  C  C47  1  0.449668  0.394326  0.643387  1
  C  C48  1  0.555618  0.369594  0.975057  1
  C  C49  1  0.666919  0.637240  0.024591  1
  C  C50  1  0.550492  0.609235  0.183880  1
  C  C51  1  0.460712  0.394233  0.143937  1
  C  C52  1  0.444720  0.630931  0.524157  1
  C  C53  1  0.332930  0.363653  0.474598  1
  C  C54  1  0.549424  0.605415  0.355364  1
  C  C55  1  0.539330  0.605828  0.856017  1
  I  I56  1  0.455906  0.085522  0.947373  1
  I  I57  1  0.616800  0.868257  0.834015  1
  I  I58  1  0.501988  0.906712  0.640751  1
  I  I59  1  0.110026  0.353221  0.825535  1
  I  I60  1  0.615736  0.204161  0.583577  1
  I  I61  1  0.869026  0.193571  0.437579  1
  I  I62  1  0.845966  0.912162  0.143516  1
  I  I63  1  0.873546  0.505994  0.949419  1
  I  I64  1  0.864298  0.812505  0.702966  1
  I  I65  1  0.383238  0.131850  0.165897  1
  I  I66  1  0.136699  0.187524  0.297268  1
  I  I67  1  0.771342  0.366342  0.324567  1
  I  I68  1  0.867508  0.808376  0.916534  1
  I  I69  1  0.750958  0.338404  0.114542  1
  I  I70  1  0.544106  0.914482  0.052674  1
  I  I71  1  0.106298  0.325079  0.614478  1
  I  I72  1  0.892229  0.674996  0.384798  1
  I  I73  1  0.820414  0.923506  0.539734  1
  I  I74  1  0.135668  0.810884  0.057392  1
  I  I75  1  0.807521  0.511168  0.749275  1
  I  I76  1  0.864334  0.189129  0.942682  1
  I  I77  1  0.127054  0.491322  0.450215  1
  I  I78  1  0.248950  0.661644  0.885531  1
  I  I79  1  0.130994  0.806474  0.562367  1
  I  I80  1  0.625053  0.210629  0.797998  1
  I  I81  1  0.194835  0.490205  0.251048  1
  I  I82  1  0.181206  0.077674  0.460918  1
  I  I83  1  0.496868  0.094247  0.359024  1
  I  I84  1  0.383498  0.795310  0.415565  1
  I  I85  1  0.153984  0.087842  0.856479  1
  I  I86  1  0.874555  0.508616  0.549203  1
  I  I87  1  0.684868  0.869130  0.327978  1
  I  I88  1  0.132506  0.191701  0.083507  1
  I  I89  1  0.126551  0.494077  0.050657  1
  I  I90  1  0.228688  0.633712  0.675416  1
  I  I91  1  0.375474  0.788500  0.202457  1
  I  I92  1  0.315405  0.129556  0.671472  1
  I  I93  1  0.888624  0.647056  0.175279  1
