# generated using pymatgen
data_GdHoTm6(WO6)4
_symmetry_space_group_name_H-M   'P 1'
_cell_length_a   5.35831600
_cell_length_b   7.65381268
_cell_length_c   11.39929930
_cell_angle_alpha   75.27604379
_cell_angle_beta   90.00000000
_cell_angle_gamma   90.00000000
_symmetry_Int_Tables_number   1
_chemical_formula_structural   GdHoTm6(WO6)4
_chemical_formula_sum   'Gd1 Ho1 Tm6 W4 O24'
_cell_volume   452.15083637
_cell_formula_units_Z   1
loop_
 _symmetry_equiv_pos_site_id
 _symmetry_equiv_pos_as_xyz
  1  'x, y, z'
loop_
 _atom_site_type_symbol
 _atom_site_label
 _atom_site_symmetry_multiplicity
 _atom_site_fract_x
 _atom_site_fract_y
 _atom_site_fract_z
 _atom_site_occupancy
  Gd  Gd0  1  0.685079  0.500000  0.750000  1
  Ho  Ho1  1  0.315377  0.500000  0.250000  1
  Tm  Tm2  1  0.740537  0.000000  0.750000  1
  Tm  Tm3  1  0.260261  0.000000  0.250000  1
  Tm  Tm4  1  0.185699  0.797076  0.577646  1
  Tm  Tm5  1  0.814832  0.795938  0.078582  1
  Tm  Tm6  1  0.185699  0.202924  0.922354  1
  Tm  Tm7  1  0.814832  0.204062  0.421418  1
  W  W8  1  0.254906  0.724839  0.886163  1
  W  W9  1  0.745103  0.724111  0.384779  1
  W  W10  1  0.254906  0.275161  0.613837  1
  W  W11  1  0.745103  0.275889  0.115221  1
  O  O12  1  0.039876  0.941171  0.896271  1
  O  O13  1  0.535894  0.848376  0.931018  1
  O  O14  1  0.959541  0.941830  0.394840  1
  O  O15  1  0.458780  0.793977  0.726302  1
  O  O16  1  0.465359  0.848601  0.430681  1
  O  O17  1  0.983655  0.715643  0.769465  1
  O  O18  1  0.539540  0.792119  0.226013  1
  O  O19  1  0.855256  0.635962  0.547676  1
  O  O20  1  0.355616  0.488283  0.887955  1
  O  O21  1  0.019000  0.711999  0.269956  1
  O  O22  1  0.355616  0.511717  0.612045  1
  O  O23  1  0.855256  0.364038  0.952324  1
  O  O24  1  0.147035  0.636237  0.049944  1
  O  O25  1  0.639282  0.488492  0.386288  1
  O  O26  1  0.983655  0.284357  0.730535  1
  O  O27  1  0.639282  0.511508  0.113712  1
  O  O28  1  0.147035  0.363763  0.450056  1
  O  O29  1  0.458780  0.206023  0.773698  1
  O  O30  1  0.019000  0.288001  0.230044  1
  O  O31  1  0.535894  0.151624  0.568982  1
  O  O32  1  0.539540  0.207881  0.273987  1
  O  O33  1  0.039876  0.058829  0.603729  1
  O  O34  1  0.465359  0.151399  0.069319  1
  O  O35  1  0.959541  0.058170  0.105160  1
