# generated using pymatgen
data_Rb3TlI16
_symmetry_space_group_name_H-M   'P 1'
_cell_length_a   9.11263663
_cell_length_b   10.50599293
_cell_length_c   11.14615809
_cell_angle_alpha   66.69014380
_cell_angle_beta   90.58870850
_cell_angle_gamma   89.35606871
_symmetry_Int_Tables_number   1
_chemical_formula_structural   Rb3TlI16
_chemical_formula_sum   'Rb3 Tl1 I16'
_cell_volume   979.81647710
_cell_formula_units_Z   1
loop_
 _symmetry_equiv_pos_site_id
 _symmetry_equiv_pos_as_xyz
  1  'x, y, z'
loop_
 _atom_site_type_symbol
 _atom_site_label
 _atom_site_symmetry_multiplicity
 _atom_site_fract_x
 _atom_site_fract_y
 _atom_site_fract_z
 _atom_site_occupancy
  Rb  Rb0  1  0.121908  0.262056  0.803606  1
  Rb  Rb1  1  0.381763  0.269915  0.304111  1
  Rb  Rb2  1  0.874810  0.734879  0.194868  1
  Tl  Tl3  1  0.609500  0.750251  0.708493  1
  I  I4  1  0.353042  0.542777  0.515030  1
  I  I5  1  0.853638  0.462073  0.977844  1
  I  I6  1  0.641932  0.459900  0.484239  1
  I  I7  1  0.141844  0.545203  0.005966  1
  I  I8  1  0.030393  0.656954  0.557473  1
  I  I9  1  0.527985  0.346416  0.940016  1
  I  I10  1  0.979774  0.342636  0.439528  1
  I  I11  1  0.473275  0.662233  0.042178  1
  I  I12  1  0.210875  0.864508  0.612796  1
  I  I13  1  0.700689  0.132101  0.885821  1
  I  I14  1  0.799791  0.128353  0.396357  1
  I  I15  1  0.295823  0.871000  0.104438  1
  I  I16  1  0.401071  0.053892  0.669815  1
  I  I17  1  0.877709  0.931655  0.828159  1
  I  I18  1  0.613659  0.922721  0.360661  1
  I  I19  1  0.110519  0.060476  0.168603  1
