# generated using pymatgen
data_Nd2Al9Ni2Ru
_symmetry_space_group_name_H-M   'P 1'
_cell_length_a   7.54051116
_cell_length_b   7.54051120
_cell_length_c   9.51366367
_cell_angle_alpha   90.06691124
_cell_angle_beta   90.06691253
_cell_angle_gamma   119.33357424
_symmetry_Int_Tables_number   1
_chemical_formula_structural   Nd2Al9Ni2Ru
_chemical_formula_sum   'Nd4 Al18 Ni4 Ru2'
_cell_volume   471.58098334
_cell_formula_units_Z   2
loop_
 _symmetry_equiv_pos_site_id
 _symmetry_equiv_pos_as_xyz
  1  'x, y, z'
loop_
 _atom_site_type_symbol
 _atom_site_label
 _atom_site_symmetry_multiplicity
 _atom_site_fract_x
 _atom_site_fract_y
 _atom_site_fract_z
 _atom_site_occupancy
  Nd  Nd0  1  0.993789  0.670841  0.248581  1
  Nd  Nd1  1  0.003889  0.328315  0.751651  1
  Nd  Nd2  1  0.671685  0.996111  0.248349  1
  Nd  Nd3  1  0.329159  0.006211  0.751419  1
  Al  Al4  1  0.129143  0.129897  0.249183  1
  Al  Al5  1  0.870103  0.870857  0.750817  1
  Al  Al6  1  0.001657  0.335897  0.072970  1
  Al  Al7  1  0.998803  0.666164  0.926571  1
  Al  Al8  1  0.000123  0.664730  0.570649  1
  Al  Al9  1  0.335270  0.999877  0.429351  1
  Al  Al10  1  0.002979  0.334990  0.429200  1
  Al  Al11  1  0.665010  0.997021  0.570800  1
  Al  Al12  1  0.664103  0.998343  0.927030  1
  Al  Al13  1  0.333836  0.001197  0.073429  1
  Al  Al14  1  0.334886  0.333121  0.544125  1
  Al  Al15  1  0.666879  0.665114  0.455875  1
  Al  Al16  1  0.665067  0.665844  0.046130  1
  Al  Al17  1  0.334156  0.334933  0.953870  1
  Al  Al18  1  0.340276  0.550665  0.249720  1
  Al  Al19  1  0.659144  0.451537  0.750827  1
  Al  Al20  1  0.548463  0.340856  0.249173  1
  Al  Al21  1  0.449335  0.659724  0.750280  1
  Ni  Ni22  1  0.670476  0.329524  0.000000  1
  Ni  Ni23  1  0.329214  0.670786  0.000000  1
  Ni  Ni24  1  0.330460  0.669540  0.500000  1
  Ni  Ni25  1  0.999451  0.000549  0.000000  1
  Ru  Ru26  1  0.671887  0.328113  0.500000  1
  Ru  Ru27  1  0.000756  0.999244  0.500000  1
