# generated using pymatgen
data_Lu8BeNiB28
_symmetry_space_group_name_H-M   'P 1'
_cell_length_a   7.13628900
_cell_length_b   7.13628900
_cell_length_c   7.31999200
_cell_angle_alpha   90.00000000
_cell_angle_beta   90.00000000
_cell_angle_gamma   90.00000000
_symmetry_Int_Tables_number   1
_chemical_formula_structural   Lu8BeNiB28
_chemical_formula_sum   'Lu8 Be1 Ni1 B28'
_cell_volume   372.78245605
_cell_formula_units_Z   1
loop_
 _symmetry_equiv_pos_site_id
 _symmetry_equiv_pos_as_xyz
  1  'x, y, z'
loop_
 _atom_site_type_symbol
 _atom_site_label
 _atom_site_symmetry_multiplicity
 _atom_site_fract_x
 _atom_site_fract_y
 _atom_site_fract_z
 _atom_site_occupancy
  Lu  Lu0  1  0.194246  0.328701  0.000000  1
  Lu  Lu1  1  0.671299  0.194246  0.000000  1
  Lu  Lu2  1  0.328701  0.805754  0.000000  1
  Lu  Lu3  1  0.695525  0.167251  0.500000  1
  Lu  Lu4  1  0.304475  0.832749  0.500000  1
  Lu  Lu5  1  0.805754  0.671299  0.000000  1
  Lu  Lu6  1  0.832749  0.695525  0.500000  1
  Lu  Lu7  1  0.167251  0.304475  0.500000  1
  Be  Be8  1  0.000000  0.000000  0.000000  1
  Ni  Ni9  1  0.500000  0.500000  0.500000  1
  B  B10  1  0.174958  0.038809  0.227391  1
  B  B11  1  0.961191  0.174958  0.227391  1
  B  B12  1  0.038809  0.825042  0.227391  1
  B  B13  1  0.675778  0.460816  0.268814  1
  B  B14  1  0.324222  0.539184  0.268814  1
  B  B15  1  0.825042  0.961191  0.227391  1
  B  B16  1  0.539184  0.675778  0.268814  1
  B  B17  1  0.460816  0.324222  0.268814  1
  B  B18  1  0.825042  0.961191  0.772609  1
  B  B19  1  0.038809  0.825042  0.772609  1
  B  B20  1  0.961191  0.174958  0.772609  1
  B  B21  1  0.324222  0.539184  0.731186  1
  B  B22  1  0.675778  0.460816  0.731186  1
  B  B23  1  0.174958  0.038809  0.772609  1
  B  B24  1  0.460816  0.324222  0.731186  1
  B  B25  1  0.539184  0.675778  0.731186  1
  B  B26  1  0.087764  0.588169  0.249018  1
  B  B27  1  0.411831  0.087764  0.249018  1
  B  B28  1  0.588169  0.912236  0.249018  1
  B  B29  1  0.912236  0.411831  0.249018  1
  B  B30  1  0.912236  0.411831  0.750982  1
  B  B31  1  0.588169  0.912236  0.750982  1
  B  B32  1  0.411831  0.087764  0.750982  1
  B  B33  1  0.087764  0.588169  0.750982  1
  B  B34  1  0.000000  0.000000  0.387415  1
  B  B35  1  0.500000  0.500000  0.110820  1
  B  B36  1  0.000000  0.000000  0.612585  1
  B  B37  1  0.500000  0.500000  0.889180  1
