# generated using pymatgen
data_V3W(SeO3)8
_symmetry_space_group_name_H-M   'P 1'
_cell_length_a   8.25671959
_cell_length_b   8.25672029
_cell_length_c   8.25672088
_cell_angle_alpha   88.84225141
_cell_angle_beta   91.15774391
_cell_angle_gamma   91.15774890
_symmetry_Int_Tables_number   1
_chemical_formula_structural   V3W(SeO3)8
_chemical_formula_sum   'V3 W1 Se8 O24'
_cell_volume   562.54877834
_cell_formula_units_Z   1
loop_
 _symmetry_equiv_pos_site_id
 _symmetry_equiv_pos_as_xyz
  1  'x, y, z'
loop_
 _atom_site_type_symbol
 _atom_site_label
 _atom_site_symmetry_multiplicity
 _atom_site_fract_x
 _atom_site_fract_y
 _atom_site_fract_z
 _atom_site_occupancy
  V  V0  1  0.500000  0.500000  0.500000  1
  V  V1  1  0.500000  0.000000  0.000000  1
  V  V2  1  0.000000  0.500000  0.000000  1
  W  W3  1  0.000000  0.000000  0.500000  1
  Se  Se4  1  0.826253  0.659547  0.309017  1
  Se  Se5  1  0.190983  0.173747  0.159547  1
  Se  Se6  1  0.673180  0.326820  0.826820  1
  Se  Se7  1  0.340453  0.809017  0.673747  1
  Se  Se8  1  0.173747  0.340453  0.690983  1
  Se  Se9  1  0.809017  0.826253  0.840453  1
  Se  Se10  1  0.326820  0.673180  0.173180  1
  Se  Se11  1  0.659547  0.190983  0.326253  1
  O  O12  1  0.738128  0.532354  0.446925  1
  O  O13  1  0.259633  0.027710  0.036345  1
  O  O14  1  0.767968  0.439042  0.978066  1
  O  O15  1  0.225613  0.949570  0.545951  1
  O  O16  1  0.463655  0.740367  0.527710  1
  O  O17  1  0.053075  0.261872  0.032354  1
  O  O18  1  0.954049  0.774387  0.449570  1
  O  O19  1  0.521934  0.232032  0.939042  1
  O  O20  1  0.560958  0.478066  0.732032  1
  O  O21  1  0.050430  0.045951  0.274387  1
  O  O22  1  0.467646  0.946925  0.761872  1
  O  O23  1  0.972290  0.536345  0.240367  1
  O  O24  1  0.261872  0.467646  0.553075  1
  O  O25  1  0.740367  0.972290  0.963655  1
  O  O26  1  0.232032  0.560958  0.021934  1
  O  O27  1  0.774387  0.050430  0.454049  1
  O  O28  1  0.536345  0.259633  0.472290  1
  O  O29  1  0.946925  0.738128  0.967646  1
  O  O30  1  0.045951  0.225613  0.550430  1
  O  O31  1  0.478066  0.767968  0.060958  1
  O  O32  1  0.439042  0.521934  0.267968  1
  O  O33  1  0.949570  0.954049  0.725613  1
  O  O34  1  0.532354  0.053075  0.238128  1
  O  O35  1  0.027710  0.463655  0.759633  1
