# generated using pymatgen
data_Ho2ErU2Ga15
_symmetry_space_group_name_H-M   'P 1'
_cell_length_a   12.40442892
_cell_length_b   12.40442919
_cell_length_c   12.40442800
_cell_angle_alpha   28.64083412
_cell_angle_beta   28.64083184
_cell_angle_gamma   28.64083460
_symmetry_Int_Tables_number   1
_chemical_formula_structural   Ho2ErU2Ga15
_chemical_formula_sum   'Ho2 Er1 U2 Ga15'
_cell_volume   387.65663134
_cell_formula_units_Z   1
loop_
 _symmetry_equiv_pos_site_id
 _symmetry_equiv_pos_as_xyz
  1  'x, y, z'
loop_
 _atom_site_type_symbol
 _atom_site_label
 _atom_site_symmetry_multiplicity
 _atom_site_fract_x
 _atom_site_fract_y
 _atom_site_fract_z
 _atom_site_occupancy
  Ho  Ho0  1  0.400639  0.400639  0.400639  1
  Ho  Ho1  1  0.599361  0.599361  0.599361  1
  Er  Er2  1  0.000000  0.000000  0.000000  1
  U  U3  1  0.129716  0.129716  0.129716  1
  U  U4  1  0.870284  0.870284  0.870284  1
  Ga  Ga5  1  0.433081  0.882176  0.882176  1
  Ga  Ga6  1  0.882176  0.882176  0.433081  1
  Ga  Ga7  1  0.882176  0.433081  0.882176  1
  Ga  Ga8  1  0.117824  0.566919  0.117824  1
  Ga  Ga9  1  0.117824  0.117824  0.566919  1
  Ga  Ga10  1  0.566919  0.117824  0.117824  1
  Ga  Ga11  1  0.127858  0.637123  0.637123  1
  Ga  Ga12  1  0.637123  0.637123  0.127858  1
  Ga  Ga13  1  0.637123  0.127858  0.637123  1
  Ga  Ga14  1  0.362877  0.872142  0.362877  1
  Ga  Ga15  1  0.362877  0.362877  0.872142  1
  Ga  Ga16  1  0.872142  0.362877  0.362877  1
  Ga  Ga17  1  0.500000  0.500000  0.000000  1
  Ga  Ga18  1  0.500000  0.000000  0.500000  1
  Ga  Ga19  1  0.000000  0.500000  0.500000  1
