# generated using pymatgen
data_YTm4(CoB3)2
_symmetry_space_group_name_H-M   'P 1'
_cell_length_a   5.38091928
_cell_length_b   5.38091955
_cell_length_c   8.25354719
_cell_angle_alpha   70.97527130
_cell_angle_beta   70.97527066
_cell_angle_gamma   60.00001586
_symmetry_Int_Tables_number   1
_chemical_formula_structural   YTm4(CoB3)2
_chemical_formula_sum   'Y1 Tm4 Co2 B6'
_cell_volume   191.73825084
_cell_formula_units_Z   1
loop_
 _symmetry_equiv_pos_site_id
 _symmetry_equiv_pos_as_xyz
  1  'x, y, z'
loop_
 _atom_site_type_symbol
 _atom_site_label
 _atom_site_symmetry_multiplicity
 _atom_site_fract_x
 _atom_site_fract_y
 _atom_site_fract_z
 _atom_site_occupancy
  Y  Y0  1  0.000000  0.000000  0.000000  1
  Tm  Tm1  1  0.251001  0.251001  0.246995  1
  Tm  Tm2  1  0.748999  0.748999  0.753005  1
  Tm  Tm3  1  0.416632  0.416632  0.750104  1
  Tm  Tm4  1  0.583368  0.583368  0.249896  1
  Co  Co5  1  0.118907  0.118907  0.643279  1
  Co  Co6  1  0.881093  0.881093  0.356721  1
  B  B7  1  0.169017  0.830983  0.500000  1
  B  B8  1  0.830983  0.500000  0.500000  1
  B  B9  1  0.500000  0.169017  0.500000  1
  B  B10  1  0.169017  0.500000  0.500000  1
  B  B11  1  0.500000  0.830983  0.500000  1
  B  B12  1  0.830983  0.169017  0.500000  1
