# generated using pymatgen
data_TbYbB4(Ru5W2)2
_symmetry_space_group_name_H-M   'P 1'
_cell_length_a   9.57345900
_cell_length_b   9.57345932
_cell_length_c   2.93538000
_cell_angle_alpha   90.00000000
_cell_angle_beta   90.00000000
_cell_angle_gamma   90.95050463
_symmetry_Int_Tables_number   1
_chemical_formula_structural   TbYbB4(Ru5W2)2
_chemical_formula_sum   'Tb1 Yb1 B4 Ru10 W4'
_cell_volume   268.99384649
_cell_formula_units_Z   1
loop_
 _symmetry_equiv_pos_site_id
 _symmetry_equiv_pos_as_xyz
  1  'x, y, z'
loop_
 _atom_site_type_symbol
 _atom_site_label
 _atom_site_symmetry_multiplicity
 _atom_site_fract_x
 _atom_site_fract_y
 _atom_site_fract_z
 _atom_site_occupancy
  Tb  Tb0  1  0.176034  0.323966  0.000000  1
  Yb  Yb1  1  0.823054  0.676946  0.000000  1
  B  B2  1  0.621199  0.878801  0.000000  1
  B  B3  1  0.378697  0.121303  0.000000  1
  B  B4  1  0.120166  0.619589  0.000000  1
  B  B5  1  0.880411  0.379834  0.000000  1
  Ru  Ru6  1  0.554164  0.726829  0.500000  1
  Ru  Ru7  1  0.443625  0.276085  0.500000  1
  Ru  Ru8  1  0.086247  0.786003  0.500000  1
  Ru  Ru9  1  0.916153  0.212278  0.500000  1
  Ru  Ru10  1  0.287722  0.583847  0.500000  1
  Ru  Ru11  1  0.713997  0.413753  0.500000  1
  Ru  Ru12  1  0.223915  0.056375  0.500000  1
  Ru  Ru13  1  0.773171  0.945836  0.500000  1
  Ru  Ru14  1  0.498818  0.001182  0.500000  1
  Ru  Ru15  1  0.999988  0.500012  0.500000  1
  W  W16  1  0.325219  0.824732  0.000000  1
  W  W17  1  0.675268  0.174781  0.000000  1
  W  W18  1  0.503406  0.501256  0.000000  1
  W  W19  1  0.998744  0.996594  0.000000  1
