# generated using pymatgen
data_Ho2Tm3Ga4P8Ir19
_symmetry_space_group_name_H-M   'P 1'
_cell_length_a   12.89863837
_cell_length_b   12.87115405
_cell_length_c   3.94931700
_cell_angle_alpha   90.00000000
_cell_angle_beta   90.00000000
_cell_angle_gamma   120.01879119
_symmetry_Int_Tables_number   1
_chemical_formula_structural   Ho2Tm3Ga4P8Ir19
_chemical_formula_sum   'Ho2 Tm3 Ga4 P8 Ir19'
_cell_volume   567.71676013
_cell_formula_units_Z   1
loop_
 _symmetry_equiv_pos_site_id
 _symmetry_equiv_pos_as_xyz
  1  'x, y, z'
loop_
 _atom_site_type_symbol
 _atom_site_label
 _atom_site_symmetry_multiplicity
 _atom_site_fract_x
 _atom_site_fract_y
 _atom_site_fract_z
 _atom_site_occupancy
  Ho  Ho0  1  0.180350  0.181269  0.000000  1
  Ho  Ho1  1  0.818431  0.999238  0.000000  1
  Tm  Tm2  1  0.336325  0.669733  0.500000  1
  Tm  Tm3  1  0.665411  0.331069  0.500000  1
  Tm  Tm4  1  0.003108  0.817496  0.000000  1
  Ga  Ga5  1  0.318411  0.834358  0.000000  1
  Ga  Ga6  1  0.357029  0.358017  0.500000  1
  Ga  Ga7  1  0.641308  0.001000  0.500000  1
  Ga  Ga8  1  0.996322  0.638503  0.500000  1
  P  P9  1  0.172566  0.485053  0.000000  1
  P  P10  1  0.522021  0.689296  0.000000  1
  P  P11  1  0.821275  0.304645  0.000000  1
  P  P12  1  0.482565  0.176206  0.000000  1
  P  P13  1  0.692354  0.513694  0.000000  1
  P  P14  1  0.823932  0.818813  0.500000  1
  P  P15  1  0.178309  0.001151  0.500000  1
  P  P16  1  0.999655  0.179652  0.500000  1
  Ir  Ir17  1  0.189699  0.825184  0.500000  1
  Ir  Ir18  1  0.174904  0.381678  0.500000  1
  Ir  Ir19  1  0.628296  0.797284  0.500000  1
  Ir  Ir20  1  0.825478  0.206589  0.500000  1
  Ir  Ir21  1  0.385836  0.178517  0.500000  1
  Ir  Ir22  1  0.789745  0.613229  0.500000  1
  Ir  Ir23  1  0.129368  0.634666  0.000000  1
  Ir  Ir24  1  0.361541  0.498174  0.000000  1
  Ir  Ir25  1  0.521442  0.869062  0.000000  1
  Ir  Ir26  1  0.632003  0.131316  0.000000  1
  Ir  Ir27  1  0.497682  0.367170  0.000000  1
  Ir  Ir28  1  0.866046  0.499153  0.000000  1
  Ir  Ir29  1  0.546577  0.552299  0.500000  1
  Ir  Ir30  1  0.442408  0.991380  0.500000  1
  Ir  Ir31  1  0.000101  0.448453  0.500000  1
  Ir  Ir32  1  0.720727  0.716170  0.000000  1
  Ir  Ir33  1  0.279664  0.007829  0.000000  1
  Ir  Ir34  1  0.000073  0.282252  0.000000  1
  Ir  Ir35  1  0.999036  0.000403  0.500000  1
