# generated using pymatgen
data_Dy2Lu8ZnSb5
_symmetry_space_group_name_H-M   'P 1'
_cell_length_a   7.86659300
_cell_length_b   9.07999900
_cell_length_c   11.52458600
_cell_angle_alpha   90.00000000
_cell_angle_beta   90.00000000
_cell_angle_gamma   90.00000000
_symmetry_Int_Tables_number   1
_chemical_formula_structural   Dy2Lu8ZnSb5
_chemical_formula_sum   'Dy4 Lu16 Zn2 Sb10'
_cell_volume   823.18569554
_cell_formula_units_Z   2
loop_
 _symmetry_equiv_pos_site_id
 _symmetry_equiv_pos_as_xyz
  1  'x, y, z'
loop_
 _atom_site_type_symbol
 _atom_site_label
 _atom_site_symmetry_multiplicity
 _atom_site_fract_x
 _atom_site_fract_y
 _atom_site_fract_z
 _atom_site_occupancy
  Dy  Dy0  1  0.311632  0.250000  0.219317  1
  Dy  Dy1  1  0.811632  0.250000  0.280683  1
  Dy  Dy2  1  0.679204  0.750000  0.786378  1
  Dy  Dy3  1  0.179204  0.750000  0.713622  1
  Lu  Lu4  1  0.350304  0.750000  0.205255  1
  Lu  Lu5  1  0.850304  0.750000  0.294745  1
  Lu  Lu6  1  0.656218  0.250000  0.783170  1
  Lu  Lu7  1  0.156218  0.250000  0.716830  1
  Lu  Lu8  1  0.687471  0.566190  0.060619  1
  Lu  Lu9  1  0.187471  0.933810  0.439381  1
  Lu  Lu10  1  0.308101  0.047733  0.940680  1
  Lu  Lu11  1  0.808101  0.452267  0.559320  1
  Lu  Lu12  1  0.308101  0.452267  0.940680  1
  Lu  Lu13  1  0.808101  0.047733  0.559320  1
  Lu  Lu14  1  0.687471  0.933810  0.060619  1
  Lu  Lu15  1  0.187471  0.566190  0.439381  1
  Lu  Lu16  1  0.476856  0.250000  0.491661  1
  Lu  Lu17  1  0.976856  0.250000  0.008339  1
  Lu  Lu18  1  0.535086  0.750000  0.508958  1
  Lu  Lu19  1  0.035086  0.750000  0.991042  1
  Zn  Zn20  1  0.410054  0.750000  0.961987  1
  Zn  Zn21  1  0.910054  0.750000  0.538013  1
  Sb  Sb22  1  0.591369  0.250000  0.038218  1
  Sb  Sb23  1  0.091369  0.250000  0.461782  1
  Sb  Sb24  1  0.558617  0.995624  0.325455  1
  Sb  Sb25  1  0.058617  0.504376  0.174545  1
  Sb  Sb26  1  0.440449  0.496726  0.676430  1
  Sb  Sb27  1  0.940449  0.003274  0.823570  1
  Sb  Sb28  1  0.440449  0.003274  0.676430  1
  Sb  Sb29  1  0.940449  0.496726  0.823570  1
  Sb  Sb30  1  0.558617  0.504376  0.325455  1
  Sb  Sb31  1  0.058617  0.995624  0.174545  1
