# generated using pymatgen
data_TbHo3HgPd
_symmetry_space_group_name_H-M   'P 1'
_cell_length_a   9.63740923
_cell_length_b   9.63740875
_cell_length_c   9.63740900
_cell_angle_alpha   59.99999569
_cell_angle_beta   59.99999736
_cell_angle_gamma   59.99999855
_symmetry_Int_Tables_number   1
_chemical_formula_structural   TbHo3HgPd
_chemical_formula_sum   'Tb4 Ho12 Hg4 Pd4'
_cell_volume   632.94481213
_cell_formula_units_Z   4
loop_
 _symmetry_equiv_pos_site_id
 _symmetry_equiv_pos_as_xyz
  1  'x, y, z'
loop_
 _atom_site_type_symbol
 _atom_site_label
 _atom_site_symmetry_multiplicity
 _atom_site_fract_x
 _atom_site_fract_y
 _atom_site_fract_z
 _atom_site_occupancy
  Tb  Tb0  1  0.356307  0.356307  0.356307  1
  Tb  Tb1  1  0.356307  0.356307  0.931080  1
  Tb  Tb2  1  0.356307  0.931080  0.356307  1
  Tb  Tb3  1  0.931080  0.356307  0.356307  1
  Ho  Ho4  1  0.811144  0.188856  0.188856  1
  Ho  Ho5  1  0.188856  0.811144  0.811144  1
  Ho  Ho6  1  0.188856  0.811144  0.188856  1
  Ho  Ho7  1  0.811144  0.188856  0.811144  1
  Ho  Ho8  1  0.188856  0.188856  0.811144  1
  Ho  Ho9  1  0.811144  0.811144  0.188856  1
  Ho  Ho10  1  0.934475  0.565525  0.565525  1
  Ho  Ho11  1  0.565525  0.934475  0.934475  1
  Ho  Ho12  1  0.565525  0.934475  0.565525  1
  Ho  Ho13  1  0.934475  0.565525  0.934475  1
  Ho  Ho14  1  0.565525  0.565525  0.934475  1
  Ho  Ho15  1  0.934475  0.934475  0.565525  1
  Hg  Hg16  1  0.586758  0.586758  0.586758  1
  Hg  Hg17  1  0.586758  0.586758  0.239726  1
  Hg  Hg18  1  0.586758  0.239726  0.586758  1
  Hg  Hg19  1  0.239726  0.586758  0.586758  1
  Pd  Pd20  1  0.144259  0.144259  0.144259  1
  Pd  Pd21  1  0.144259  0.144259  0.567223  1
  Pd  Pd22  1  0.144259  0.567223  0.144259  1
  Pd  Pd23  1  0.567223  0.144259  0.144259  1
