# generated using pymatgen
data_Pr2P7(IrRu)6
_symmetry_space_group_name_H-M   'P 1'
_cell_length_a   9.62422300
_cell_length_b   9.62422409
_cell_length_c   3.92692700
_cell_angle_alpha   90.00000000
_cell_angle_beta   90.00000000
_cell_angle_gamma   120.00000657
_symmetry_Int_Tables_number   1
_chemical_formula_structural   Pr2P7(IrRu)6
_chemical_formula_sum   'Pr2 P7 Ir6 Ru6'
_cell_volume   315.00310504
_cell_formula_units_Z   1
loop_
 _symmetry_equiv_pos_site_id
 _symmetry_equiv_pos_as_xyz
  1  'x, y, z'
loop_
 _atom_site_type_symbol
 _atom_site_label
 _atom_site_symmetry_multiplicity
 _atom_site_fract_x
 _atom_site_fract_y
 _atom_site_fract_z
 _atom_site_occupancy
  Pr  Pr0  1  0.666667  0.333333  0.000000  1
  Pr  Pr1  1  0.333333  0.666667  0.500000  1
  P  P2  1  0.114569  0.400046  0.000000  1
  P  P3  1  0.599954  0.714523  0.000000  1
  P  P4  1  0.285477  0.885431  0.000000  1
  P  P5  1  0.000000  0.000000  0.500000  1
  P  P6  1  0.401532  0.285984  0.500000  1
  P  P7  1  0.714016  0.115549  0.500000  1
  P  P8  1  0.884451  0.598468  0.500000  1
  Ir  Ir9  1  0.445617  0.065494  0.500000  1
  Ir  Ir10  1  0.934506  0.380123  0.500000  1
  Ir  Ir11  1  0.619877  0.554383  0.500000  1
  Ir  Ir12  1  0.384196  0.445248  0.000000  1
  Ir  Ir13  1  0.554752  0.938949  0.000000  1
  Ir  Ir14  1  0.061051  0.615804  0.000000  1
  Ru  Ru15  1  0.152185  0.267999  0.500000  1
  Ru  Ru16  1  0.732001  0.884185  0.500000  1
  Ru  Ru17  1  0.115815  0.847815  0.500000  1
  Ru  Ru18  1  0.254322  0.109529  0.000000  1
  Ru  Ru19  1  0.890471  0.144792  0.000000  1
  Ru  Ru20  1  0.855208  0.745678  0.000000  1
