# generated using pymatgen
data_Ba6Dy2MnNiO12
_symmetry_space_group_name_H-M   'P 1'
_cell_length_a   7.15879289
_cell_length_b   7.15879270
_cell_length_c   7.15879257
_cell_angle_alpha   93.50789279
_cell_angle_beta   93.50791204
_cell_angle_gamma   93.50787727
_symmetry_Int_Tables_number   1
_chemical_formula_structural   Ba6Dy2MnNiO12
_chemical_formula_sum   'Ba6 Dy2 Mn1 Ni1 O12'
_cell_volume   364.72548075
_cell_formula_units_Z   1
loop_
 _symmetry_equiv_pos_site_id
 _symmetry_equiv_pos_as_xyz
  1  'x, y, z'
loop_
 _atom_site_type_symbol
 _atom_site_label
 _atom_site_symmetry_multiplicity
 _atom_site_fract_x
 _atom_site_fract_y
 _atom_site_fract_z
 _atom_site_occupancy
  Ba  Ba0  1  0.377795  0.111825  0.750445  1
  Ba  Ba1  1  0.750445  0.377796  0.111826  1
  Ba  Ba2  1  0.249554  0.622205  0.888175  1
  Ba  Ba3  1  0.622204  0.888174  0.249556  1
  Ba  Ba4  1  0.111826  0.750445  0.377796  1
  Ba  Ba5  1  0.888174  0.249555  0.622205  1
  Dy  Dy6  1  0.755441  0.755442  0.755441  1
  Dy  Dy7  1  0.244560  0.244559  0.244559  1
  Mn  Mn8  1  0.500000  0.500000  0.500000  1
  Ni  Ni9  1  0.000000  0.000000  0.000000  1
  O  O10  1  0.765364  0.585276  0.464348  1
  O  O11  1  0.585277  0.464347  0.765364  1
  O  O12  1  0.464347  0.765364  0.585277  1
  O  O13  1  0.034494  0.898097  0.709949  1
  O  O14  1  0.898096  0.709948  0.034494  1
  O  O15  1  0.709949  0.034494  0.898096  1
  O  O16  1  0.234637  0.414723  0.535653  1
  O  O17  1  0.414723  0.535652  0.234637  1
  O  O18  1  0.535652  0.234637  0.414722  1
  O  O19  1  0.965506  0.101904  0.290052  1
  O  O20  1  0.290052  0.965505  0.101903  1
  O  O21  1  0.101903  0.290051  0.965505  1
