# generated using pymatgen
data_HfZr7(Si4Mo3)4
_symmetry_space_group_name_H-M   'P 1'
_cell_length_a   6.61666014
_cell_length_b   6.77731421
_cell_length_c   12.67632943
_cell_angle_alpha   89.97585791
_cell_angle_beta   89.98244796
_cell_angle_gamma   90.01568844
_symmetry_Int_Tables_number   1
_chemical_formula_structural   HfZr7(Si4Mo3)4
_chemical_formula_sum   'Hf1 Zr7 Si16 Mo12'
_cell_volume   568.44688492
_cell_formula_units_Z   1
loop_
 _symmetry_equiv_pos_site_id
 _symmetry_equiv_pos_as_xyz
  1  'x, y, z'
loop_
 _atom_site_type_symbol
 _atom_site_label
 _atom_site_symmetry_multiplicity
 _atom_site_fract_x
 _atom_site_fract_y
 _atom_site_fract_z
 _atom_site_occupancy
  Hf  Hf0  1  0.506822  0.672029  0.593068  1
  Zr  Zr1  1  0.994111  0.171998  0.093135  1
  Zr  Zr2  1  0.005923  0.827893  0.906909  1
  Zr  Zr3  1  0.505785  0.672094  0.907261  1
  Zr  Zr4  1  0.005966  0.827885  0.592955  1
  Zr  Zr5  1  0.494210  0.327829  0.093114  1
  Zr  Zr6  1  0.994284  0.172271  0.406979  1
  Zr  Zr7  1  0.494136  0.328063  0.407198  1
  Si  Si8  1  0.032158  0.123614  0.749875  1
  Si  Si9  1  0.967476  0.876335  0.250105  1
  Si  Si10  1  0.467404  0.623649  0.249977  1
  Si  Si11  1  0.532207  0.376868  0.749767  1
  Si  Si12  1  0.301914  0.862342  0.749558  1
  Si  Si13  1  0.698751  0.137057  0.250163  1
  Si  Si14  1  0.198993  0.362719  0.250024  1
  Si  Si15  1  0.800540  0.637472  0.749735  1
  Si  Si16  1  0.167253  0.459474  0.543274  1
  Si  Si17  1  0.833493  0.541300  0.456956  1
  Si  Si18  1  0.333824  0.958524  0.456987  1
  Si  Si19  1  0.833884  0.541250  0.043234  1
  Si  Si20  1  0.666034  0.040420  0.543411  1
  Si  Si21  1  0.166178  0.458759  0.956813  1
  Si  Si22  1  0.666283  0.041189  0.956734  1
  Si  Si23  1  0.333813  0.958797  0.043329  1
  Mo  Mo24  1  0.167553  0.511771  0.749401  1
  Mo  Mo25  1  0.832998  0.488504  0.250173  1
  Mo  Mo26  1  0.332889  0.011533  0.250137  1
  Mo  Mo27  1  0.666571  0.987950  0.749446  1
  Mo  Mo28  1  0.330809  0.164743  0.623666  1
  Mo  Mo29  1  0.668473  0.834557  0.376793  1
  Mo  Mo30  1  0.169380  0.664863  0.376317  1
  Mo  Mo31  1  0.669267  0.835088  0.124026  1
  Mo  Mo32  1  0.829820  0.336127  0.623630  1
  Mo  Mo33  1  0.330955  0.164745  0.875972  1
  Mo  Mo34  1  0.830762  0.335476  0.876008  1
  Mo  Mo35  1  0.169080  0.664813  0.123872  1
