# generated using pymatgen
data_RbNd6OsI12
_symmetry_space_group_name_H-M   'P 1'
_cell_length_a   10.11487951
_cell_length_b   10.11488079
_cell_length_c   10.11488039
_cell_angle_alpha   105.07738258
_cell_angle_beta   105.07738366
_cell_angle_gamma   105.07737221
_symmetry_Int_Tables_number   1
_chemical_formula_structural   RbNd6OsI12
_chemical_formula_sum   'Rb1 Nd6 Os1 I12'
_cell_volume   903.24236011
_cell_formula_units_Z   1
loop_
 _symmetry_equiv_pos_site_id
 _symmetry_equiv_pos_as_xyz
  1  'x, y, z'
loop_
 _atom_site_type_symbol
 _atom_site_label
 _atom_site_symmetry_multiplicity
 _atom_site_fract_x
 _atom_site_fract_y
 _atom_site_fract_z
 _atom_site_occupancy
  Rb  Rb0  1  0.500000  0.500000  0.500000  1
  Nd  Nd1  1  0.092512  0.295999  0.016979  1
  Nd  Nd2  1  0.295998  0.016978  0.092512  1
  Nd  Nd3  1  0.016978  0.092512  0.295999  1
  Nd  Nd4  1  0.983021  0.907488  0.704001  1
  Nd  Nd5  1  0.704002  0.983021  0.907487  1
  Nd  Nd6  1  0.907488  0.704001  0.983021  1
  Os  Os7  1  0.000000  0.000000  0.000000  1
  I  I8  1  0.222767  0.678502  0.075623  1
  I  I9  1  0.429807  0.345848  0.110365  1
  I  I10  1  0.678502  0.075624  0.222767  1
  I  I11  1  0.924377  0.777234  0.321499  1
  I  I12  1  0.110365  0.429807  0.345848  1
  I  I13  1  0.345848  0.110365  0.429808  1
  I  I14  1  0.654152  0.889635  0.570192  1
  I  I15  1  0.889634  0.570193  0.654152  1
  I  I16  1  0.075624  0.222767  0.678502  1
  I  I17  1  0.321499  0.924377  0.777233  1
  I  I18  1  0.570192  0.654151  0.889635  1
  I  I19  1  0.777233  0.321499  0.924377  1
