# generated using pymatgen
data_Cd3GaPt2
_symmetry_space_group_name_H-M   'P 1'
_cell_length_a   8.55917020
_cell_length_b   8.56307955
_cell_length_c   8.56063148
_cell_angle_alpha   120.01398636
_cell_angle_beta   90.01106081
_cell_angle_gamma   119.99675687
_symmetry_Int_Tables_number   1
_chemical_formula_structural   Cd3GaPt2
_chemical_formula_sum   'Cd12 Ga4 Pt8'
_cell_volume   443.54728995
_cell_formula_units_Z   4
loop_
 _symmetry_equiv_pos_site_id
 _symmetry_equiv_pos_as_xyz
  1  'x, y, z'
loop_
 _atom_site_type_symbol
 _atom_site_label
 _atom_site_symmetry_multiplicity
 _atom_site_fract_x
 _atom_site_fract_y
 _atom_site_fract_z
 _atom_site_occupancy
  Cd  Cd0  1  0.939015  0.500045  0.060979  1
  Cd  Cd1  1  0.560809  0.121731  0.060837  1
  Cd  Cd2  1  0.560918  0.499966  0.060887  1
  Cd  Cd3  1  0.810984  0.999953  0.189018  1
  Cd  Cd4  1  0.189080  0.000034  0.189113  1
  Cd  Cd5  1  0.189191  0.378269  0.189163  1
  Cd  Cd6  1  0.560998  0.499997  0.438965  1
  Cd  Cd7  1  0.939122  0.500058  0.439137  1
  Cd  Cd8  1  0.939154  0.878250  0.439111  1
  Cd  Cd9  1  0.189002  0.000003  0.811035  1
  Cd  Cd10  1  0.810847  0.621750  0.810888  1
  Cd  Cd11  1  0.810880  0.999943  0.810864  1
  Ga  Ga12  1  0.375001  0.750001  0.125001  1
  Ga  Ga13  1  0.375000  0.250000  0.625001  1
  Ga  Ga14  1  0.375001  0.750002  0.625001  1
  Ga  Ga15  1  0.875001  0.250001  0.625001  1
  Pt  Pt16  1  0.587726  0.175408  0.412209  1
  Pt  Pt17  1  0.236793  0.824554  0.412358  1
  Pt  Pt18  1  0.587778  0.824610  0.412295  1
  Pt  Pt19  1  0.162349  0.324644  0.486830  1
  Pt  Pt20  1  0.587650  0.175356  0.763171  1
  Pt  Pt21  1  0.162276  0.324594  0.837793  1
  Pt  Pt22  1  0.162224  0.675391  0.837707  1
  Pt  Pt23  1  0.513205  0.675444  0.837638  1
