# generated using pymatgen
data_LiBiRu2O7
_symmetry_space_group_name_H-M   'P 1'
_cell_length_a   7.18657782
_cell_length_b   7.18657707
_cell_length_c   7.18657715
_cell_angle_alpha   119.51978170
_cell_angle_beta   120.02760495
_cell_angle_gamma   90.39298420
_symmetry_Int_Tables_number   1
_chemical_formula_structural   LiBiRu2O7
_chemical_formula_sum   'Li2 Bi2 Ru4 O14'
_cell_volume   263.33749277
_cell_formula_units_Z   2
loop_
 _symmetry_equiv_pos_site_id
 _symmetry_equiv_pos_as_xyz
  1  'x, y, z'
loop_
 _atom_site_type_symbol
 _atom_site_label
 _atom_site_symmetry_multiplicity
 _atom_site_fract_x
 _atom_site_fract_y
 _atom_site_fract_z
 _atom_site_occupancy
  Li  Li0  1  0.500000  0.500000  0.000000  1
  Li  Li1  1  0.000000  0.500000  0.500000  1
  Bi  Bi2  1  0.500000  0.500000  0.500000  1
  Bi  Bi3  1  0.500000  0.000000  0.000000  1
  Ru  Ru4  1  0.000000  0.000000  0.500000  1
  Ru  Ru5  1  0.000000  0.500000  0.000000  1
  Ru  Ru6  1  0.000000  0.000000  0.000000  1
  Ru  Ru7  1  0.500000  0.000000  0.500000  1
  O  O8  1  0.327394  0.063886  0.650057  1
  O  O9  1  0.913829  0.063886  0.236493  1
  O  O10  1  0.938644  0.688644  0.250000  1
  O  O11  1  0.913829  0.677335  0.849943  1
  O  O12  1  0.327394  0.677335  0.263507  1
  O  O13  1  0.330101  0.080101  0.250000  1
  O  O14  1  0.672606  0.936114  0.349943  1
  O  O15  1  0.086171  0.936114  0.763507  1
  O  O16  1  0.061356  0.311356  0.750000  1
  O  O17  1  0.086171  0.322665  0.150057  1
  O  O18  1  0.672606  0.322665  0.736493  1
  O  O19  1  0.669899  0.919899  0.750000  1
  O  O20  1  0.634370  0.384370  0.250000  1
  O  O21  1  0.365630  0.615630  0.750000  1
