# generated using pymatgen
data_HoScFe9Co3P7
_symmetry_space_group_name_H-M   'P 1'
_cell_length_a   8.92082100
_cell_length_b   8.92081986
_cell_length_c   3.58862400
_cell_angle_alpha   90.00000000
_cell_angle_beta   90.00000000
_cell_angle_gamma   120.00000795
_symmetry_Int_Tables_number   1
_chemical_formula_structural   HoScFe9Co3P7
_chemical_formula_sum   'Ho1 Sc1 Fe9 Co3 P7'
_cell_volume   247.32507467
_cell_formula_units_Z   1
loop_
 _symmetry_equiv_pos_site_id
 _symmetry_equiv_pos_as_xyz
  1  'x, y, z'
loop_
 _atom_site_type_symbol
 _atom_site_label
 _atom_site_symmetry_multiplicity
 _atom_site_fract_x
 _atom_site_fract_y
 _atom_site_fract_z
 _atom_site_occupancy
  Ho  Ho0  1  0.333333  0.666667  0.500000  1
  Sc  Sc1  1  0.000000  0.000000  0.000000  1
  Fe  Fe2  1  0.787100  0.179561  0.000000  1
  Fe  Fe3  1  0.392461  0.212900  0.000000  1
  Fe  Fe4  1  0.820439  0.607539  0.000000  1
  Fe  Fe5  1  0.718646  0.947152  0.500000  1
  Fe  Fe6  1  0.228509  0.281354  0.500000  1
  Fe  Fe7  1  0.052848  0.771491  0.500000  1
  Fe  Fe8  1  0.540724  0.107856  0.500000  1
  Fe  Fe9  1  0.567132  0.459276  0.500000  1
  Fe  Fe10  1  0.892144  0.432868  0.500000  1
  Co  Co11  1  0.295427  0.902374  0.000000  1
  Co  Co12  1  0.606946  0.704573  0.000000  1
  Co  Co13  1  0.097626  0.393054  0.000000  1
  P  P14  1  0.556535  0.926543  0.000000  1
  P  P15  1  0.370009  0.443465  0.000000  1
  P  P16  1  0.073457  0.629991  0.000000  1
  P  P17  1  0.953837  0.213138  0.500000  1
  P  P18  1  0.259301  0.046163  0.500000  1
  P  P19  1  0.786862  0.740699  0.500000  1
  P  P20  1  0.666667  0.333333  0.000000  1
