# generated using pymatgen
data_Eu3Tm(CuSi3)2
_symmetry_space_group_name_H-M   'P 1'
_cell_length_a   8.13526602
_cell_length_b   8.25776412
_cell_length_c   5.93746164
_cell_angle_alpha   67.66714889
_cell_angle_beta   69.87105084
_cell_angle_gamma   42.46179148
_symmetry_Int_Tables_number   1
_chemical_formula_structural   Eu3Tm(CuSi3)2
_chemical_formula_sum   'Eu3 Tm1 Cu2 Si6'
_cell_volume   247.77700097
_cell_formula_units_Z   1
loop_
 _symmetry_equiv_pos_site_id
 _symmetry_equiv_pos_as_xyz
  1  'x, y, z'
loop_
 _atom_site_type_symbol
 _atom_site_label
 _atom_site_symmetry_multiplicity
 _atom_site_fract_x
 _atom_site_fract_y
 _atom_site_fract_z
 _atom_site_occupancy
  Eu  Eu0  1  0.250000  0.250000  0.249999  1
  Eu  Eu1  1  0.744198  0.255802  0.255802  1
  Eu  Eu2  1  0.255803  0.744198  0.744197  1
  Tm  Tm3  1  0.750000  0.750000  0.750000  1
  Cu  Cu4  1  0.832336  0.832336  0.167664  1
  Cu  Cu5  1  0.167663  0.167664  0.832337  1
  Si  Si6  1  0.332686  0.837364  0.159392  1
  Si  Si7  1  0.159391  0.670560  0.332686  1
  Si  Si8  1  0.668748  0.668748  0.331253  1
  Si  Si9  1  0.331252  0.331252  0.668749  1
  Si  Si10  1  0.837364  0.332686  0.670559  1
  Si  Si11  1  0.670559  0.159392  0.837364  1
