# generated using pymatgen
data_Pr5Nd3MgCo2Hg
_symmetry_space_group_name_H-M   'P 1'
_cell_length_a   9.88859664
_cell_length_b   9.88859684
_cell_length_c   9.90320200
_cell_angle_alpha   59.95113019
_cell_angle_beta   59.95112951
_cell_angle_gamma   60.35104984
_symmetry_Int_Tables_number   1
_chemical_formula_structural   Pr5Nd3MgCo2Hg
_chemical_formula_sum   'Pr10 Nd6 Mg2 Co4 Hg2'
_cell_volume   686.03462400
_cell_formula_units_Z   2
loop_
 _symmetry_equiv_pos_site_id
 _symmetry_equiv_pos_as_xyz
  1  'x, y, z'
loop_
 _atom_site_type_symbol
 _atom_site_label
 _atom_site_symmetry_multiplicity
 _atom_site_fract_x
 _atom_site_fract_y
 _atom_site_fract_z
 _atom_site_occupancy
  Pr  Pr0  1  0.595700  0.595700  0.594885  1
  Pr  Pr1  1  0.595700  0.595700  0.213715  1
  Pr  Pr2  1  0.597587  0.209861  0.596275  1
  Pr  Pr3  1  0.209861  0.597587  0.596275  1
  Pr  Pr4  1  0.189156  0.809659  0.811761  1
  Pr  Pr5  1  0.809659  0.189156  0.189424  1
  Pr  Pr6  1  0.809659  0.189156  0.811761  1
  Pr  Pr7  1  0.189156  0.809659  0.189424  1
  Pr  Pr8  1  0.810500  0.810500  0.189500  1
  Pr  Pr9  1  0.188497  0.188497  0.811503  1
  Nd  Nd10  1  0.061048  0.436552  0.439416  1
  Nd  Nd11  1  0.436552  0.061048  0.062985  1
  Nd  Nd12  1  0.436552  0.061048  0.439416  1
  Nd  Nd13  1  0.061048  0.436552  0.062985  1
  Nd  Nd14  1  0.436103  0.436103  0.063897  1
  Nd  Nd15  1  0.056511  0.056511  0.443489  1
  Mg  Mg16  1  0.830121  0.524713  0.822584  1
  Mg  Mg17  1  0.524713  0.830121  0.822584  1
  Co  Co18  1  0.390949  0.390949  0.389243  1
  Co  Co19  1  0.390949  0.390949  0.828860  1
  Co  Co20  1  0.390882  0.828319  0.390400  1
  Co  Co21  1  0.828319  0.390882  0.390400  1
  Hg  Hg22  1  0.830390  0.830390  0.836511  1
  Hg  Hg23  1  0.830390  0.830390  0.502710  1
