# generated using pymatgen
data_Li4Al3Zn
_symmetry_space_group_name_H-M   'P 1'
_cell_length_a   7.70071469
_cell_length_b   7.70071515
_cell_length_c   7.70071560
_cell_angle_alpha   33.55763676
_cell_angle_beta   33.55763312
_cell_angle_gamma   33.55763687
_symmetry_Int_Tables_number   1
_chemical_formula_structural   Li4Al3Zn
_chemical_formula_sum   'Li4 Al3 Zn1'
_cell_volume   124.28936573
_cell_formula_units_Z   1
loop_
 _symmetry_equiv_pos_site_id
 _symmetry_equiv_pos_as_xyz
  1  'x, y, z'
loop_
 _atom_site_type_symbol
 _atom_site_label
 _atom_site_symmetry_multiplicity
 _atom_site_fract_x
 _atom_site_fract_y
 _atom_site_fract_z
 _atom_site_occupancy
  Li  Li0  1  0.125358  0.125358  0.125358  1
  Li  Li1  1  0.624437  0.624437  0.624437  1
  Li  Li2  1  0.002459  0.002459  0.002459  1
  Li  Li3  1  0.497017  0.497017  0.497017  1
  Al  Al4  1  0.874009  0.874009  0.874009  1
  Al  Al5  1  0.747786  0.747786  0.747786  1
  Al  Al6  1  0.252990  0.252990  0.252990  1
  Zn  Zn7  1  0.375945  0.375945  0.375945  1
