# generated using pymatgen
data_TaNb2Al2IrC
_symmetry_space_group_name_H-M   'P 1'
_cell_length_a   8.34430525
_cell_length_b   8.34104591
_cell_length_c   8.34430441
_cell_angle_alpha   59.95484815
_cell_angle_beta   59.97382401
_cell_angle_gamma   59.95484320
_symmetry_Int_Tables_number   1
_chemical_formula_structural   TaNb2Al2IrC
_chemical_formula_sum   'Ta4 Nb8 Al8 Ir4 C4'
_cell_volume   410.30160801
_cell_formula_units_Z   4
loop_
 _symmetry_equiv_pos_site_id
 _symmetry_equiv_pos_as_xyz
  1  'x, y, z'
loop_
 _atom_site_type_symbol
 _atom_site_label
 _atom_site_symmetry_multiplicity
 _atom_site_fract_x
 _atom_site_fract_y
 _atom_site_fract_z
 _atom_site_occupancy
  Ta  Ta0  1  0.563457  0.936436  0.936649  1
  Ta  Ta1  1  0.936649  0.936436  0.563457  1
  Ta  Ta2  1  0.686803  0.313383  0.686803  1
  Ta  Ta3  1  0.936499  0.563414  0.936499  1
  Nb  Nb4  1  0.563568  0.936743  0.563568  1
  Nb  Nb5  1  0.313770  0.686556  0.686492  1
  Nb  Nb6  1  0.686616  0.313478  0.313740  1
  Nb  Nb7  1  0.313269  0.686992  0.313269  1
  Nb  Nb8  1  0.686492  0.686556  0.313770  1
  Nb  Nb9  1  0.313740  0.313478  0.686616  1
  Nb  Nb10  1  0.563494  0.563272  0.936999  1
  Nb  Nb11  1  0.936999  0.563272  0.563494  1
  Al  Al12  1  0.916951  0.916003  0.916951  1
  Al  Al13  1  0.999458  0.333976  0.332975  1
  Al  Al14  1  0.333844  0.999257  0.333844  1
  Al  Al15  1  0.332975  0.333976  0.999458  1
  Al  Al16  1  0.916596  0.250561  0.916596  1
  Al  Al17  1  0.915959  0.916472  0.250561  1
  Al  Al18  1  0.250561  0.916472  0.915959  1
  Al  Al19  1  0.333700  0.333276  0.333700  1
  Ir  Ir20  1  0.125315  0.125095  0.125315  1
  Ir  Ir21  1  0.625310  0.124957  0.121098  1
  Ir  Ir22  1  0.123875  0.624957  0.123875  1
  Ir  Ir23  1  0.121098  0.124957  0.625310  1
  C  C24  1  0.625749  0.623158  0.625749  1
  C  C25  1  0.123043  0.626542  0.626905  1
  C  C26  1  0.627305  0.123780  0.627305  1
  C  C27  1  0.626905  0.626542  0.123043  1
