# generated using pymatgen
data_Lu12ZnCo4Pb
_symmetry_space_group_name_H-M   'P 1'
_cell_length_a   8.14264585
_cell_length_b   8.14264511
_cell_length_c   8.14264624
_cell_angle_alpha   111.61574939
_cell_angle_beta   109.97972111
_cell_angle_gamma   106.85390556
_symmetry_Int_Tables_number   1
_chemical_formula_structural   Lu12ZnCo4Pb
_chemical_formula_sum   'Lu12 Zn1 Co4 Pb1'
_cell_volume   414.86368547
_cell_formula_units_Z   1
loop_
 _symmetry_equiv_pos_site_id
 _symmetry_equiv_pos_as_xyz
  1  'x, y, z'
loop_
 _atom_site_type_symbol
 _atom_site_label
 _atom_site_symmetry_multiplicity
 _atom_site_fract_x
 _atom_site_fract_y
 _atom_site_fract_z
 _atom_site_occupancy
  Lu  Lu0  1  0.431372  0.227421  0.203949  1
  Lu  Lu1  1  0.568628  0.772579  0.796051  1
  Lu  Lu2  1  0.023472  0.227421  0.796051  1
  Lu  Lu3  1  0.976528  0.772579  0.203949  1
  Lu  Lu4  1  0.181994  0.282135  0.464130  1
  Lu  Lu5  1  0.818006  0.717865  0.535870  1
  Lu  Lu6  1  0.181994  0.717865  0.899858  1
  Lu  Lu7  1  0.818006  0.282135  0.100142  1
  Lu  Lu8  1  0.318291  0.626171  0.307881  1
  Lu  Lu9  1  0.681709  0.373829  0.692119  1
  Lu  Lu10  1  0.318291  0.010411  0.692119  1
  Lu  Lu11  1  0.681709  0.989589  0.307881  1
  Zn  Zn12  1  0.000000  0.000000  0.000000  1
  Co  Co13  1  0.363136  0.000000  0.363136  1
  Co  Co14  1  0.636864  0.000000  0.636864  1
  Co  Co15  1  0.115035  0.615035  0.500000  1
  Co  Co16  1  0.884965  0.384965  0.500000  1
  Pb  Pb17  1  0.500000  0.500000  0.000000  1
