# generated using pymatgen
data_DyY3Fe5Si10Rh
_symmetry_space_group_name_H-M   'P 1'
_cell_length_a   8.02473253
_cell_length_b   8.02789219
_cell_length_c   8.02789206
_cell_angle_alpha   140.36330249
_cell_angle_beta   107.96664326
_cell_angle_gamma   85.49893818
_symmetry_Int_Tables_number   1
_chemical_formula_structural   DyY3Fe5Si10Rh
_chemical_formula_sum   'Dy1 Y3 Fe5 Si10 Rh1'
_cell_volume   302.84941486
_cell_formula_units_Z   1
loop_
 _symmetry_equiv_pos_site_id
 _symmetry_equiv_pos_as_xyz
  1  'x, y, z'
loop_
 _atom_site_type_symbol
 _atom_site_label
 _atom_site_symmetry_multiplicity
 _atom_site_fract_x
 _atom_site_fract_y
 _atom_site_fract_z
 _atom_site_occupancy
  Dy  Dy0  1  0.135545  0.863533  0.272011  1
  Y  Y1  1  0.594587  0.362680  0.231906  1
  Y  Y2  1  0.404582  0.637224  0.767360  1
  Y  Y3  1  0.871522  0.138481  0.733040  1
  Fe  Fe4  1  0.996338  0.747400  0.745622  1
  Fe  Fe5  1  0.447611  0.857371  0.590242  1
  Fe  Fe6  1  0.262991  0.354775  0.908216  1
  Fe  Fe7  1  0.736828  0.644269  0.092559  1
  Fe  Fe8  1  0.996338  0.250716  0.248938  1
  Si  Si9  1  0.248390  0.091074  0.157317  1
  Si  Si10  1  0.735376  0.906089  0.829288  1
  Si  Si11  1  0.074321  0.405752  0.668569  1
  Si  Si12  1  0.925498  0.594715  0.330783  1
  Si  Si13  1  0.796953  0.033918  0.245671  1
  Si  Si14  1  0.211015  0.463215  0.251102  1
  Si  Si15  1  0.211015  0.959912  0.747799  1
  Si  Si16  1  0.502258  0.734442  0.242801  1
  Si  Si17  1  0.502258  0.259457  0.767816  1
  Si  Si18  1  0.796953  0.551282  0.763035  1
  Rh  Rh19  1  0.549620  0.143695  0.405924  1
