# generated using pymatgen
data_Ho4ReB16MoRh2
_symmetry_space_group_name_H-M   'P 1'
_cell_length_a   3.58386200
_cell_length_b   5.97443856
_cell_length_c   11.57637153
_cell_angle_alpha   90.26510524
_cell_angle_beta   90.00000000
_cell_angle_gamma   90.00000000
_symmetry_Int_Tables_number   1
_chemical_formula_structural   Ho4ReB16MoRh2
_chemical_formula_sum   'Ho4 Re1 B16 Mo1 Rh2'
_cell_volume   247.86555855
_cell_formula_units_Z   1
loop_
 _symmetry_equiv_pos_site_id
 _symmetry_equiv_pos_as_xyz
  1  'x, y, z'
loop_
 _atom_site_type_symbol
 _atom_site_label
 _atom_site_symmetry_multiplicity
 _atom_site_fract_x
 _atom_site_fract_y
 _atom_site_fract_z
 _atom_site_occupancy
  Ho  Ho0  1  0.000000  0.628754  0.151593  1
  Ho  Ho1  1  0.000000  0.372691  0.848711  1
  Ho  Ho2  1  0.000000  0.128994  0.352880  1
  Ho  Ho3  1  0.000000  0.870747  0.647590  1
  Re  Re4  1  0.000000  0.870016  0.913184  1
  B  B5  1  0.500000  0.975609  0.194150  1
  B  B6  1  0.500000  0.022421  0.806140  1
  B  B7  1  0.500000  0.477896  0.307644  1
  B  B8  1  0.500000  0.523339  0.692702  1
  B  B9  1  0.500000  0.787766  0.314265  1
  B  B10  1  0.500000  0.211111  0.686134  1
  B  B11  1  0.500000  0.290374  0.187767  1
  B  B12  1  0.500000  0.711679  0.813209  1
  B  B13  1  0.500000  0.864319  0.469334  1
  B  B14  1  0.500000  0.135761  0.530731  1
  B  B15  1  0.500000  0.367297  0.030768  1
  B  B16  1  0.500000  0.634750  0.967145  1
  B  B17  1  0.500000  0.884327  0.045872  1
  B  B18  1  0.500000  0.112772  0.951676  1
  B  B19  1  0.500000  0.386830  0.452856  1
  B  B20  1  0.500000  0.613192  0.547408  1
  Mo  Mo21  1  0.000000  0.130649  0.086073  1
  Rh  Rh22  1  0.000000  0.641019  0.407418  1
  Rh  Rh23  1  0.000000  0.357687  0.594753  1
