# generated using pymatgen
data_Ce4SiPt4(Rh3Au)2
_symmetry_space_group_name_H-M   'P 1'
_cell_length_a   7.35236206
_cell_length_b   7.37225379
_cell_length_c   7.37225496
_cell_angle_alpha   108.71593636
_cell_angle_beta   109.90614838
_cell_angle_gamma   109.90614619
_symmetry_Int_Tables_number   1
_chemical_formula_structural   Ce4SiPt4(Rh3Au)2
_chemical_formula_sum   'Ce4 Si1 Pt4 Rh6 Au2'
_cell_volume   307.14493014
_cell_formula_units_Z   1
loop_
 _symmetry_equiv_pos_site_id
 _symmetry_equiv_pos_as_xyz
  1  'x, y, z'
loop_
 _atom_site_type_symbol
 _atom_site_label
 _atom_site_symmetry_multiplicity
 _atom_site_fract_x
 _atom_site_fract_y
 _atom_site_fract_z
 _atom_site_occupancy
  Ce  Ce0  1  0.009957  0.004978  0.504978  1
  Ce  Ce1  1  0.009957  0.504978  0.004978  1
  Ce  Ce2  1  0.491310  0.986483  0.986483  1
  Ce  Ce3  1  0.491310  0.504828  0.504828  1
  Si  Si4  1  0.000163  0.000081  0.000081  1
  Pt  Pt5  1  0.503929  0.251964  0.751964  1
  Pt  Pt6  1  0.247751  0.498379  0.749372  1
  Pt  Pt7  1  0.247751  0.749372  0.498379  1
  Pt  Pt8  1  0.503929  0.751964  0.251964  1
  Rh  Rh9  1  0.728445  0.726188  0.002257  1
  Rh  Rh10  1  0.273823  0.999769  0.274055  1
  Rh  Rh11  1  0.996635  0.269055  0.269055  1
  Rh  Rh12  1  0.273823  0.274055  0.999769  1
  Rh  Rh13  1  0.728445  0.002257  0.726188  1
  Rh  Rh14  1  0.996635  0.727581  0.727581  1
  Au  Au15  1  0.748068  0.249798  0.498271  1
  Au  Au16  1  0.748068  0.498271  0.249798  1
