# generated using pymatgen
data_RbHfHgF7
_symmetry_space_group_name_H-M   'P 1'
_cell_length_a   6.68465826
_cell_length_b   6.68465773
_cell_length_c   8.82862100
_cell_angle_alpha   90.00000000
_cell_angle_beta   90.00000000
_cell_angle_gamma   117.22994485
_symmetry_Int_Tables_number   1
_chemical_formula_structural   RbHfHgF7
_chemical_formula_sum   'Rb2 Hf2 Hg2 F14'
_cell_volume   350.78390045
_cell_formula_units_Z   2
loop_
 _symmetry_equiv_pos_site_id
 _symmetry_equiv_pos_as_xyz
  1  'x, y, z'
loop_
 _atom_site_type_symbol
 _atom_site_label
 _atom_site_symmetry_multiplicity
 _atom_site_fract_x
 _atom_site_fract_y
 _atom_site_fract_z
 _atom_site_occupancy
  Rb  Rb0  1  0.000000  0.000000  0.000000  1
  Rb  Rb1  1  0.000000  0.000000  0.500000  1
  Hf  Hf2  1  0.692756  0.307244  0.750000  1
  Hf  Hf3  1  0.307244  0.692756  0.250000  1
  Hg  Hg4  1  0.308837  0.691163  0.750000  1
  Hg  Hg5  1  0.691163  0.308837  0.250000  1
  F  F6  1  0.352695  0.069490  0.750000  1
  F  F7  1  0.647305  0.930510  0.250000  1
  F  F8  1  0.930510  0.647305  0.750000  1
  F  F9  1  0.069490  0.352695  0.250000  1
  F  F10  1  0.514679  0.485321  0.750000  1
  F  F11  1  0.485321  0.514679  0.250000  1
  F  F12  1  0.703295  0.296705  0.976740  1
  F  F13  1  0.296705  0.703295  0.023260  1
  F  F14  1  0.296705  0.703295  0.476740  1
  F  F15  1  0.703295  0.296705  0.523260  1
  F  F16  1  0.673043  0.980305  0.750000  1
  F  F17  1  0.326957  0.019695  0.250000  1
  F  F18  1  0.019695  0.326957  0.750000  1
  F  F19  1  0.980305  0.673043  0.250000  1
