# generated using pymatgen
data_TbCoP3Ir4
_symmetry_space_group_name_H-M   'P 1'
_cell_length_a   3.94726300
_cell_length_b   10.73503500
_cell_length_c   12.40843500
_cell_angle_alpha   90.00000000
_cell_angle_beta   90.00000000
_cell_angle_gamma   90.00000000
_symmetry_Int_Tables_number   1
_chemical_formula_structural   TbCoP3Ir4
_chemical_formula_sum   'Tb4 Co4 P12 Ir16'
_cell_volume   525.79510484
_cell_formula_units_Z   4
loop_
 _symmetry_equiv_pos_site_id
 _symmetry_equiv_pos_as_xyz
  1  'x, y, z'
loop_
 _atom_site_type_symbol
 _atom_site_label
 _atom_site_symmetry_multiplicity
 _atom_site_fract_x
 _atom_site_fract_y
 _atom_site_fract_z
 _atom_site_occupancy
  Tb  Tb0  1  0.250000  0.585822  0.709579  1
  Tb  Tb1  1  0.250000  0.914178  0.209579  1
  Tb  Tb2  1  0.750000  0.414178  0.290421  1
  Tb  Tb3  1  0.750000  0.085822  0.790421  1
  Co  Co4  1  0.250000  0.462111  0.933952  1
  Co  Co5  1  0.250000  0.037889  0.433952  1
  Co  Co6  1  0.750000  0.537889  0.066048  1
  Co  Co7  1  0.750000  0.962111  0.566048  1
  P  P8  1  0.250000  0.426057  0.105376  1
  P  P9  1  0.250000  0.073943  0.605376  1
  P  P10  1  0.750000  0.573943  0.894624  1
  P  P11  1  0.750000  0.926057  0.394624  1
  P  P12  1  0.250000  0.271837  0.871152  1
  P  P13  1  0.250000  0.228163  0.371152  1
  P  P14  1  0.750000  0.728163  0.128848  1
  P  P15  1  0.750000  0.771837  0.628848  1
  P  P16  1  0.250000  0.594820  0.385159  1
  P  P17  1  0.250000  0.905180  0.885159  1
  P  P18  1  0.750000  0.405180  0.614841  1
  P  P19  1  0.750000  0.094820  0.114841  1
  Ir  Ir20  1  0.250000  0.721681  0.981617  1
  Ir  Ir21  1  0.250000  0.778319  0.481617  1
  Ir  Ir22  1  0.750000  0.278319  0.018383  1
  Ir  Ir23  1  0.750000  0.221681  0.518383  1
  Ir  Ir24  1  0.250000  0.407572  0.478420  1
  Ir  Ir25  1  0.250000  0.092428  0.978420  1
  Ir  Ir26  1  0.750000  0.592428  0.521580  1
  Ir  Ir27  1  0.750000  0.907572  0.021580  1
  Ir  Ir28  1  0.250000  0.231235  0.178914  1
  Ir  Ir29  1  0.250000  0.268765  0.678914  1
  Ir  Ir30  1  0.750000  0.768765  0.821086  1
  Ir  Ir31  1  0.750000  0.731235  0.321086  1
  Ir  Ir32  1  0.250000  0.886074  0.699011  1
  Ir  Ir33  1  0.250000  0.613926  0.199011  1
  Ir  Ir34  1  0.750000  0.113926  0.300989  1
  Ir  Ir35  1  0.750000  0.386074  0.800989  1
