# generated using pymatgen
data_Gd6Ir7Rh11
_symmetry_space_group_name_H-M   'P 1'
_cell_length_a   5.25569600
_cell_length_b   5.25997453
_cell_length_c   17.53573200
_cell_angle_alpha   90.00143785
_cell_angle_beta   90.00000000
_cell_angle_gamma   119.97309617
_symmetry_Int_Tables_number   1
_chemical_formula_structural   Gd6Ir7Rh11
_chemical_formula_sum   'Gd6 Ir7 Rh11'
_cell_volume   419.93887728
_cell_formula_units_Z   1
loop_
 _symmetry_equiv_pos_site_id
 _symmetry_equiv_pos_as_xyz
  1  'x, y, z'
loop_
 _atom_site_type_symbol
 _atom_site_label
 _atom_site_symmetry_multiplicity
 _atom_site_fract_x
 _atom_site_fract_y
 _atom_site_fract_z
 _atom_site_occupancy
  Gd  Gd0  1  0.333389  0.666918  0.041037  1
  Gd  Gd1  1  0.333327  0.666583  0.249412  1
  Gd  Gd2  1  0.333874  0.667646  0.458647  1
  Gd  Gd3  1  0.667117  0.334050  0.540595  1
  Gd  Gd4  1  0.666564  0.333152  0.749965  1
  Gd  Gd5  1  0.666638  0.333489  0.959404  1
  Ir  Ir6  1  0.999537  0.999319  0.999805  1
  Ir  Ir7  1  0.335204  0.167765  0.126021  1
  Ir  Ir8  1  0.832505  0.167675  0.126067  1
  Ir  Ir9  1  0.832953  0.665827  0.126243  1
  Ir  Ir10  1  0.333472  0.164209  0.374089  1
  Ir  Ir11  1  0.830534  0.163978  0.374051  1
  Ir  Ir12  1  0.002100  0.004119  0.500100  1
  Rh  Rh13  1  0.000527  0.000764  0.249989  1
  Rh  Rh14  1  0.666913  0.334001  0.250241  1
  Rh  Rh15  1  0.831684  0.663123  0.374866  1
  Rh  Rh16  1  0.167023  0.333798  0.625763  1
  Rh  Rh17  1  0.166853  0.832813  0.625856  1
  Rh  Rh18  1  0.666045  0.832916  0.625872  1
  Rh  Rh19  1  0.000220  0.000375  0.750028  1
  Rh  Rh20  1  0.333130  0.666368  0.749903  1
  Rh  Rh21  1  0.166944  0.334011  0.874047  1
  Rh  Rh22  1  0.167218  0.833532  0.874011  1
  Rh  Rh23  1  0.666230  0.833567  0.873991  1
