# generated using pymatgen
data_Ba14Na17TmN6
_symmetry_space_group_name_H-M   'P 1'
_cell_length_a   11.06563993
_cell_length_b   12.09143693
_cell_length_c   13.39536260
_cell_angle_alpha   67.00260387
_cell_angle_beta   67.89442833
_cell_angle_gamma   79.05859532
_symmetry_Int_Tables_number   1
_chemical_formula_structural   Ba14Na17TmN6
_chemical_formula_sum   'Ba14 Na17 Tm1 N6'
_cell_volume   1526.64459671
_cell_formula_units_Z   1
loop_
 _symmetry_equiv_pos_site_id
 _symmetry_equiv_pos_as_xyz
  1  'x, y, z'
loop_
 _atom_site_type_symbol
 _atom_site_label
 _atom_site_symmetry_multiplicity
 _atom_site_fract_x
 _atom_site_fract_y
 _atom_site_fract_z
 _atom_site_occupancy
  Ba  Ba0  1  0.366862  0.782528  0.444674  1
  Ba  Ba1  1  0.633138  0.217472  0.555326  1
  Ba  Ba2  1  0.270663  0.306870  0.701112  1
  Ba  Ba3  1  0.729337  0.693130  0.298888  1
  Ba  Ba4  1  0.258513  0.521008  0.401010  1
  Ba  Ba5  1  0.741487  0.478992  0.598990  1
  Ba  Ba6  1  0.380495  0.569173  0.741860  1
  Ba  Ba7  1  0.619505  0.430827  0.258140  1
  Ba  Ba8  1  0.345323  0.165608  0.456165  1
  Ba  Ba9  1  0.654677  0.834392  0.543835  1
  Ba  Ba10  1  0.477573  0.788606  0.119295  1
  Ba  Ba11  1  0.522427  0.211394  0.880705  1
  Ba  Ba12  1  0.034219  0.620049  0.675625  1
  Ba  Ba13  1  0.965781  0.379951  0.324375  1
  Na  Na14  1  0.000000  0.000000  0.500000  1
  Na  Na15  1  0.238900  0.096813  0.206617  1
  Na  Na16  1  0.761100  0.903187  0.793383  1
  Na  Na17  1  0.631744  0.599938  0.894572  1
  Na  Na18  1  0.368256  0.400062  0.105428  1
  Na  Na19  1  0.041520  0.815277  0.310832  1
  Na  Na20  1  0.958480  0.184723  0.689168  1
  Na  Na21  1  0.135441  0.891806  0.755532  1
  Na  Na22  1  0.864559  0.108194  0.244468  1
  Na  Na23  1  0.586322  0.084138  0.186778  1
  Na  Na24  1  0.413678  0.915862  0.813222  1
  Na  Na25  1  0.905421  0.644243  0.984335  1
  Na  Na26  1  0.094579  0.355757  0.015665  1
  Na  Na27  1  0.850804  0.972597  0.990863  1
  Na  Na28  1  0.149196  0.027403  0.009137  1
  Na  Na29  1  0.168709  0.688539  0.057493  1
  Na  Na30  1  0.831291  0.311461  0.942507  1
  Tm  Tm31  1  0.500000  0.500000  0.500000  1
  N  N32  1  0.487030  0.634598  0.312910  1
  N  N33  1  0.512970  0.365402  0.687090  1
  N  N34  1  0.429577  0.334541  0.476113  1
  N  N35  1  0.570423  0.665459  0.523887  1
  N  N36  1  0.727577  0.444790  0.408762  1
  N  N37  1  0.272423  0.555210  0.591238  1
