# generated using pymatgen
data_Pr5Bi2PbS
_symmetry_space_group_name_H-M   'P 1'
_cell_length_a   9.61538000
_cell_length_b   9.57171358
_cell_length_c   6.86106300
_cell_angle_alpha   90.00000000
_cell_angle_beta   90.00000000
_cell_angle_gamma   119.84988809
_symmetry_Int_Tables_number   1
_chemical_formula_structural   Pr5Bi2PbS
_chemical_formula_sum   'Pr10 Bi4 Pb2 S2'
_cell_volume   547.68787451
_cell_formula_units_Z   2
loop_
 _symmetry_equiv_pos_site_id
 _symmetry_equiv_pos_as_xyz
  1  'x, y, z'
loop_
 _atom_site_type_symbol
 _atom_site_label
 _atom_site_symmetry_multiplicity
 _atom_site_fract_x
 _atom_site_fract_y
 _atom_site_fract_z
 _atom_site_occupancy
  Pr  Pr0  1  0.665511  0.332363  0.999182  1
  Pr  Pr1  1  0.334489  0.666853  0.999182  1
  Pr  Pr2  1  0.334489  0.666853  0.500818  1
  Pr  Pr3  1  0.665511  0.332363  0.500818  1
  Pr  Pr4  1  0.753879  0.756197  0.750000  1
  Pr  Pr5  1  0.246121  0.002317  0.750000  1
  Pr  Pr6  1  0.000000  0.243896  0.750000  1
  Pr  Pr7  1  0.244686  0.244607  0.250000  1
  Pr  Pr8  1  0.755314  0.999921  0.250000  1
  Pr  Pr9  1  0.000000  0.755913  0.250000  1
  Bi  Bi10  1  0.000000  0.605704  0.750000  1
  Bi  Bi11  1  0.604922  0.605199  0.250000  1
  Bi  Bi12  1  0.395078  0.000278  0.250000  1
  Bi  Bi13  1  0.000000  0.394057  0.250000  1
  Pb  Pb14  1  0.394462  0.394493  0.750000  1
  Pb  Pb15  1  0.605538  0.000031  0.750000  1
  S  S16  1  0.000000  0.999478  0.000361  1
  S  S17  1  0.000000  0.999478  0.499639  1
