# generated using pymatgen
data_Lu2PaCr(Co4P3)2
_symmetry_space_group_name_H-M   'P 1'
_cell_length_a   3.68539000
_cell_length_b   10.48825000
_cell_length_c   12.09075600
_cell_angle_alpha   90.00000000
_cell_angle_beta   90.00000000
_cell_angle_gamma   90.00000000
_symmetry_Int_Tables_number   1
_chemical_formula_structural   Lu2PaCr(Co4P3)2
_chemical_formula_sum   'Lu4 Pa2 Cr2 Co16 P12'
_cell_volume   467.34751815
_cell_formula_units_Z   2
loop_
 _symmetry_equiv_pos_site_id
 _symmetry_equiv_pos_as_xyz
  1  'x, y, z'
loop_
 _atom_site_type_symbol
 _atom_site_label
 _atom_site_symmetry_multiplicity
 _atom_site_fract_x
 _atom_site_fract_y
 _atom_site_fract_z
 _atom_site_occupancy
  Lu  Lu0  1  0.500000  0.817155  0.204092  1
  Lu  Lu1  1  0.500000  0.182845  0.204092  1
  Lu  Lu2  1  0.000000  0.682845  0.795908  1
  Lu  Lu3  1  0.000000  0.317155  0.795908  1
  Pa  Pa4  1  0.000000  0.500000  0.530299  1
  Pa  Pa5  1  0.500000  0.000000  0.469701  1
  Cr  Cr6  1  0.500000  0.500000  0.154844  1
  Cr  Cr7  1  0.000000  0.000000  0.845156  1
  Co  Co8  1  0.500000  0.500000  0.698261  1
  Co  Co9  1  0.000000  0.000000  0.301739  1
  Co  Co10  1  0.000000  0.500000  0.986383  1
  Co  Co11  1  0.500000  0.000000  0.013617  1
  Co  Co12  1  0.500000  0.333091  0.992012  1
  Co  Co13  1  0.500000  0.666909  0.992012  1
  Co  Co14  1  0.000000  0.166909  0.007988  1
  Co  Co15  1  0.000000  0.833091  0.007988  1
  Co  Co16  1  0.500000  0.300260  0.432339  1
  Co  Co17  1  0.500000  0.699740  0.432339  1
  Co  Co18  1  0.000000  0.199740  0.567661  1
  Co  Co19  1  0.000000  0.800260  0.567661  1
  Co  Co20  1  0.500000  0.879495  0.710368  1
  Co  Co21  1  0.500000  0.120505  0.710368  1
  Co  Co22  1  0.000000  0.620505  0.289632  1
  Co  Co23  1  0.000000  0.379495  0.289632  1
  P  P24  1  0.500000  0.500000  0.878602  1
  P  P25  1  0.000000  0.000000  0.121398  1
  P  P26  1  0.500000  0.500000  0.343890  1
  P  P27  1  0.000000  0.000000  0.656110  1
  P  P28  1  0.500000  0.307949  0.619256  1
  P  P29  1  0.500000  0.692051  0.619256  1
  P  P30  1  0.000000  0.192051  0.380744  1
  P  P31  1  0.000000  0.807949  0.380744  1
  P  P32  1  0.500000  0.846333  0.892470  1
  P  P33  1  0.500000  0.153667  0.892470  1
  P  P34  1  0.000000  0.653667  0.107530  1
  P  P35  1  0.000000  0.346333  0.107530  1
