# generated using pymatgen
data_Ba2DyFeO5
_symmetry_space_group_name_H-M   'P 1'
_cell_length_a   6.15544800
_cell_length_b   7.91060184
_cell_length_c   12.75940116
_cell_angle_alpha   92.04328944
_cell_angle_beta   90.00000000
_cell_angle_gamma   90.00000000
_symmetry_Int_Tables_number   1
_chemical_formula_structural   Ba2DyFeO5
_chemical_formula_sum   'Ba8 Dy4 Fe4 O20'
_cell_volume   620.90228953
_cell_formula_units_Z   4
loop_
 _symmetry_equiv_pos_site_id
 _symmetry_equiv_pos_as_xyz
  1  'x, y, z'
loop_
 _atom_site_type_symbol
 _atom_site_label
 _atom_site_symmetry_multiplicity
 _atom_site_fract_x
 _atom_site_fract_y
 _atom_site_fract_z
 _atom_site_occupancy
  Ba  Ba0  1  0.762763  0.483214  0.346554  1
  Ba  Ba1  1  0.737237  0.983214  0.846554  1
  Ba  Ba2  1  0.237237  0.516786  0.653446  1
  Ba  Ba3  1  0.262763  0.016786  0.153446  1
  Ba  Ba4  1  0.752662  0.992449  0.381383  1
  Ba  Ba5  1  0.747338  0.492449  0.881383  1
  Ba  Ba6  1  0.247338  0.007551  0.618617  1
  Ba  Ba7  1  0.252662  0.507551  0.118617  1
  Dy  Dy8  1  0.750387  0.268315  0.629539  1
  Dy  Dy9  1  0.749613  0.768315  0.129539  1
  Dy  Dy10  1  0.249613  0.731685  0.370461  1
  Dy  Dy11  1  0.250387  0.231685  0.870461  1
  Fe  Fe12  1  0.734353  0.742094  0.583310  1
  Fe  Fe13  1  0.765647  0.242094  0.083310  1
  Fe  Fe14  1  0.265647  0.257906  0.416690  1
  Fe  Fe15  1  0.234353  0.757906  0.916690  1
  O  O16  1  0.755412  0.974574  0.629264  1
  O  O17  1  0.744588  0.474574  0.129264  1
  O  O18  1  0.244588  0.025426  0.370736  1
  O  O19  1  0.255412  0.525426  0.870736  1
  O  O20  1  0.725830  0.064556  0.177780  1
  O  O21  1  0.774170  0.564556  0.677780  1
  O  O22  1  0.274170  0.935444  0.822220  1
  O  O23  1  0.225830  0.435444  0.322220  1
  O  O24  1  0.543935  0.743009  0.272607  1
  O  O25  1  0.956065  0.243009  0.772607  1
  O  O26  1  0.456065  0.256991  0.727393  1
  O  O27  1  0.043935  0.756991  0.227393  1
  O  O28  1  0.551512  0.222072  0.975321  1
  O  O29  1  0.948488  0.722072  0.475321  1
  O  O30  1  0.448488  0.777928  0.024679  1
  O  O31  1  0.051512  0.277928  0.524679  1
  O  O32  1  0.047103  0.227004  0.021291  1
  O  O33  1  0.452897  0.727004  0.521291  1
  O  O34  1  0.952897  0.772996  0.978709  1
  O  O35  1  0.547103  0.272996  0.478709  1
