# generated using pymatgen
data_Ca2Eu5DySb6
_symmetry_space_group_name_H-M   'P 1'
_cell_length_a   8.34356812
_cell_length_b   8.26847324
_cell_length_c   8.35903215
_cell_angle_alpha   70.64693749
_cell_angle_beta   70.37861670
_cell_angle_gamma   109.20453892
_symmetry_Int_Tables_number   1
_chemical_formula_structural   Ca2Eu5DySb6
_chemical_formula_sum   'Ca2 Eu5 Dy1 Sb6'
_cell_volume   445.20320489
_cell_formula_units_Z   1
loop_
 _symmetry_equiv_pos_site_id
 _symmetry_equiv_pos_as_xyz
  1  'x, y, z'
loop_
 _atom_site_type_symbol
 _atom_site_label
 _atom_site_symmetry_multiplicity
 _atom_site_fract_x
 _atom_site_fract_y
 _atom_site_fract_z
 _atom_site_occupancy
  Ca  Ca0  1  0.857558  0.999828  0.000106  1
  Ca  Ca1  1  0.000802  0.857140  0.499217  1
  Eu  Eu2  1  0.501971  0.499338  0.142383  1
  Eu  Eu3  1  0.641903  0.141655  0.356432  1
  Eu  Eu4  1  0.354424  0.999854  0.000117  1
  Eu  Eu5  1  0.500249  0.499992  0.645262  1
  Eu  Eu6  1  0.144994  0.645540  0.855137  1
  Dy  Dy7  1  0.000078  0.360134  0.500200  1
  Sb  Sb8  1  0.635107  0.884644  0.744266  1
  Sb  Sb9  1  0.876897  0.619972  0.255903  1
  Sb  Sb10  1  0.240698  0.127544  0.624734  1
  Sb  Sb11  1  0.757648  0.373921  0.865905  1
  Sb  Sb12  1  0.366578  0.741611  0.376516  1
  Sb  Sb13  1  0.121090  0.248823  0.133824  1
