# generated using pymatgen
data_CaFeNi(Sb6Os)2
_symmetry_space_group_name_H-M   'P 1'
_cell_length_a   8.03999042
_cell_length_b   8.10424021
_cell_length_c   8.09341651
_cell_angle_alpha   109.68768340
_cell_angle_beta   109.53008328
_cell_angle_gamma   109.50145780
_symmetry_Int_Tables_number   1
_chemical_formula_structural   CaFeNi(Sb6Os)2
_chemical_formula_sum   'Ca1 Fe1 Ni1 Sb12 Os2'
_cell_volume   404.41589666
_cell_formula_units_Z   1
loop_
 _symmetry_equiv_pos_site_id
 _symmetry_equiv_pos_as_xyz
  1  'x, y, z'
loop_
 _atom_site_type_symbol
 _atom_site_label
 _atom_site_symmetry_multiplicity
 _atom_site_fract_x
 _atom_site_fract_y
 _atom_site_fract_z
 _atom_site_occupancy
  Ca  Ca0  1  0.000000  0.000000  0.000000  1
  Fe  Fe1  1  0.000000  0.000000  0.500000  1
  Ni  Ni2  1  0.000000  0.500000  0.000000  1
  Sb  Sb3  1  0.846691  0.670731  0.503824  1
  Sb  Sb4  1  0.153309  0.329269  0.496176  1
  Sb  Sb5  1  0.153877  0.656890  0.816595  1
  Sb  Sb6  1  0.846123  0.343110  0.183405  1
  Sb  Sb7  1  0.662537  0.503358  0.845548  1
  Sb  Sb8  1  0.337463  0.496642  0.154452  1
  Sb  Sb9  1  0.669688  0.824329  0.165544  1
  Sb  Sb10  1  0.330312  0.175671  0.834456  1
  Sb  Sb11  1  0.502631  0.842641  0.659238  1
  Sb  Sb12  1  0.497369  0.157359  0.340762  1
  Sb  Sb13  1  0.176512  0.844822  0.340350  1
  Sb  Sb14  1  0.823488  0.155178  0.659650  1
  Os  Os15  1  0.500000  0.500000  0.500000  1
  Os  Os16  1  0.500000  0.000000  0.000000  1
