# generated using pymatgen
data_Mg2P7Ru12
_symmetry_space_group_name_H-M   'P 1'
_cell_length_a   9.42687500
_cell_length_b   9.42687492
_cell_length_c   3.87010700
_cell_angle_alpha   90.00000000
_cell_angle_beta   90.00000000
_cell_angle_gamma   119.99999584
_symmetry_Int_Tables_number   1
_chemical_formula_structural   Mg2P7Ru12
_chemical_formula_sum   'Mg2 P7 Ru12'
_cell_volume   297.84417807
_cell_formula_units_Z   1
loop_
 _symmetry_equiv_pos_site_id
 _symmetry_equiv_pos_as_xyz
  1  'x, y, z'
loop_
 _atom_site_type_symbol
 _atom_site_label
 _atom_site_symmetry_multiplicity
 _atom_site_fract_x
 _atom_site_fract_y
 _atom_site_fract_z
 _atom_site_occupancy
  Mg  Mg0  1  0.000000  0.000000  0.000000  1
  Mg  Mg1  1  0.333333  0.666667  0.500000  1
  P  P2  1  0.268427  0.043934  0.500000  1
  P  P3  1  0.956066  0.224492  0.500000  1
  P  P4  1  0.775508  0.731573  0.500000  1
  P  P5  1  0.359202  0.431541  0.000000  1
  P  P6  1  0.568459  0.927661  0.000000  1
  P  P7  1  0.072339  0.640798  0.000000  1
  P  P8  1  0.666667  0.333333  0.000000  1
  Ru  Ru9  1  0.054264  0.782591  0.500000  1
  Ru  Ru10  1  0.728329  0.945736  0.500000  1
  Ru  Ru11  1  0.878961  0.427234  0.500000  1
  Ru  Ru12  1  0.548273  0.121039  0.500000  1
  Ru  Ru13  1  0.572766  0.451727  0.500000  1
  Ru  Ru14  1  0.391870  0.206215  0.000000  1
  Ru  Ru15  1  0.793785  0.185655  0.000000  1
  Ru  Ru16  1  0.814345  0.608130  0.000000  1
  Ru  Ru17  1  0.580554  0.689779  0.000000  1
  Ru  Ru18  1  0.310221  0.890774  0.000000  1
  Ru  Ru19  1  0.109226  0.419446  0.000000  1
  Ru  Ru20  1  0.217409  0.271671  0.500000  1
