# generated using pymatgen
data_Sm6YCoI12
_symmetry_space_group_name_H-M   'P 1'
_cell_length_a   9.91288842
_cell_length_b   9.91288936
_cell_length_c   9.91288919
_cell_angle_alpha   106.87388797
_cell_angle_beta   106.87388404
_cell_angle_gamma   106.87389128
_symmetry_Int_Tables_number   1
_chemical_formula_structural   Sm6YCoI12
_chemical_formula_sum   'Sm6 Y1 Co1 I12'
_cell_volume   814.00922838
_cell_formula_units_Z   1
loop_
 _symmetry_equiv_pos_site_id
 _symmetry_equiv_pos_as_xyz
  1  'x, y, z'
loop_
 _atom_site_type_symbol
 _atom_site_label
 _atom_site_symmetry_multiplicity
 _atom_site_fract_x
 _atom_site_fract_y
 _atom_site_fract_z
 _atom_site_occupancy
  Sm  Sm0  1  0.022193  0.093804  0.291905  1
  Sm  Sm1  1  0.093804  0.291905  0.022193  1
  Sm  Sm2  1  0.291905  0.022193  0.093804  1
  Sm  Sm3  1  0.977807  0.906196  0.708095  1
  Sm  Sm4  1  0.906196  0.708095  0.977807  1
  Sm  Sm5  1  0.708095  0.977807  0.906196  1
  Y  Y6  1  0.500000  0.500000  0.500000  1
  Co  Co7  1  0.000000  0.000000  0.000000  1
  I  I8  1  0.164503  0.464190  0.387506  1
  I  I9  1  0.464190  0.387506  0.164503  1
  I  I10  1  0.387506  0.164503  0.464190  1
  I  I11  1  0.835497  0.535810  0.612494  1
  I  I12  1  0.535810  0.612494  0.835497  1
  I  I13  1  0.612494  0.835497  0.535810  1
  I  I14  1  0.678094  0.071682  0.225417  1
  I  I15  1  0.071682  0.225417  0.678094  1
  I  I16  1  0.225417  0.678094  0.071682  1
  I  I17  1  0.321906  0.928318  0.774583  1
  I  I18  1  0.928318  0.774583  0.321906  1
  I  I19  1  0.774583  0.321906  0.928318  1
