# generated using pymatgen
data_Ho2U2In2Ir3Rh
_symmetry_space_group_name_H-M   'P 1'
_cell_length_a   7.77860173
_cell_length_b   7.59010339
_cell_length_c   3.59004900
_cell_angle_alpha   90.00000000
_cell_angle_beta   90.00000000
_cell_angle_gamma   90.19877855
_symmetry_Int_Tables_number   1
_chemical_formula_structural   Ho2U2In2Ir3Rh
_chemical_formula_sum   'Ho2 U2 In2 Ir3 Rh1'
_cell_volume   211.95662247
_cell_formula_units_Z   1
loop_
 _symmetry_equiv_pos_site_id
 _symmetry_equiv_pos_as_xyz
  1  'x, y, z'
loop_
 _atom_site_type_symbol
 _atom_site_label
 _atom_site_symmetry_multiplicity
 _atom_site_fract_x
 _atom_site_fract_y
 _atom_site_fract_z
 _atom_site_occupancy
  Ho  Ho0  1  0.171138  0.330024  0.500000  1
  Ho  Ho1  1  0.671082  0.169063  0.500000  1
  U  U2  1  0.326273  0.837709  0.500000  1
  U  U3  1  0.822409  0.660407  0.500000  1
  In  In4  1  0.490912  0.490581  0.000000  1
  In  In5  1  0.990949  0.007412  0.000000  1
  Ir  Ir6  1  0.371276  0.099932  0.000000  1
  Ir  Ir7  1  0.638510  0.840242  0.000000  1
  Ir  Ir8  1  0.874415  0.402480  0.000000  1
  Rh  Rh9  1  0.143039  0.662150  0.000000  1
