# generated using pymatgen
data_Zr8Fe5Si14Ni3
_symmetry_space_group_name_H-M   'P 1'
_cell_length_a   5.11088818
_cell_length_b   9.55578523
_cell_length_c   9.51678234
_cell_angle_alpha   94.03364810
_cell_angle_beta   74.59912703
_cell_angle_gamma   105.54793378
_symmetry_Int_Tables_number   1
_chemical_formula_structural   Zr8Fe5Si14Ni3
_chemical_formula_sum   'Zr8 Fe5 Si14 Ni3'
_cell_volume   431.69845980
_cell_formula_units_Z   1
loop_
 _symmetry_equiv_pos_site_id
 _symmetry_equiv_pos_as_xyz
  1  'x, y, z'
loop_
 _atom_site_type_symbol
 _atom_site_label
 _atom_site_symmetry_multiplicity
 _atom_site_fract_x
 _atom_site_fract_y
 _atom_site_fract_z
 _atom_site_occupancy
  Zr  Zr0  1  0.138961  0.275315  0.999165  1
  Zr  Zr1  1  0.861780  0.724804  0.999953  1
  Zr  Zr2  1  0.499725  0.195184  0.195760  1
  Zr  Zr3  1  0.305684  0.803780  0.197372  1
  Zr  Zr4  1  0.863062  0.999317  0.276388  1
  Zr  Zr5  1  0.137934  0.000044  0.722851  1
  Zr  Zr6  1  0.699000  0.197294  0.802852  1
  Zr  Zr7  1  0.497239  0.802133  0.802212  1
  Fe  Fe8  1  0.603506  0.203243  0.499520  1
  Fe  Fe9  1  0.396062  0.790346  0.499936  1
  Fe  Fe10  1  0.899376  0.801057  0.499989  1
  Fe  Fe11  1  0.102527  0.499146  0.791741  1
  Fe  Fe12  1  0.600441  0.502022  0.796583  1
  Si  Si13  1  0.250755  0.999811  0.999450  1
  Si  Si14  1  0.750046  0.999901  0.999726  1
  Si  Si15  1  0.710131  0.420592  0.999557  1
  Si  Si16  1  0.289911  0.579882  0.999697  1
  Si  Si17  1  0.701432  0.701283  0.303368  1
  Si  Si18  1  0.994169  0.299269  0.301675  1
  Si  Si19  1  0.513187  0.403869  0.410830  1
  Si  Si20  1  0.084247  0.597509  0.415414  1
  Si  Si21  1  0.296650  0.997977  0.421588  1
  Si  Si22  1  0.702123  0.998036  0.578275  1
  Si  Si23  1  0.887165  0.408713  0.590458  1
  Si  Si24  1  0.509809  0.593045  0.586388  1
  Si  Si25  1  0.997914  0.701267  0.697659  1
  Si  Si26  1  0.308943  0.300762  0.698337  1
  Ni  Ni27  1  0.395071  0.497444  0.208915  1
  Ni  Ni28  1  0.900644  0.502752  0.204373  1
  Ni  Ni29  1  0.102498  0.204204  0.499966  1
