# generated using pymatgen
data_TbZn3CuPd
_symmetry_space_group_name_H-M   'P 1'
_cell_length_a   5.12005119
_cell_length_b   5.16974310
_cell_length_c   5.16974400
_cell_angle_alpha   60.00000702
_cell_angle_beta   59.67843390
_cell_angle_gamma   59.67843688
_symmetry_Int_Tables_number   1
_chemical_formula_structural   TbZn3CuPd
_chemical_formula_sum   'Tb1 Zn3 Cu1 Pd1'
_cell_volume   96.28735869
_cell_formula_units_Z   1
loop_
 _symmetry_equiv_pos_site_id
 _symmetry_equiv_pos_as_xyz
  1  'x, y, z'
loop_
 _atom_site_type_symbol
 _atom_site_label
 _atom_site_symmetry_multiplicity
 _atom_site_fract_x
 _atom_site_fract_y
 _atom_site_fract_z
 _atom_site_occupancy
  Tb  Tb0  1  0.248048  0.250651  0.250651  1
  Zn  Zn1  1  0.626226  0.627003  0.627003  1
  Zn  Zn2  1  0.626226  0.627003  0.119769  1
  Zn  Zn3  1  0.626226  0.119769  0.627003  1
  Cu  Cu4  1  0.124198  0.625268  0.625268  1
  Pd  Pd5  1  0.999076  0.000308  0.000308  1
