# generated using pymatgen
data_Yb2Er2AlOs7
_symmetry_space_group_name_H-M   'P 1'
_cell_length_a   5.33125200
_cell_length_b   5.33125179
_cell_length_c   8.65469100
_cell_angle_alpha   90.00000000
_cell_angle_beta   90.00000000
_cell_angle_gamma   119.99998890
_symmetry_Int_Tables_number   1
_chemical_formula_structural   Yb2Er2AlOs7
_chemical_formula_sum   'Yb2 Er2 Al1 Os7'
_cell_volume   213.02994379
_cell_formula_units_Z   1
loop_
 _symmetry_equiv_pos_site_id
 _symmetry_equiv_pos_as_xyz
  1  'x, y, z'
loop_
 _atom_site_type_symbol
 _atom_site_label
 _atom_site_symmetry_multiplicity
 _atom_site_fract_x
 _atom_site_fract_y
 _atom_site_fract_z
 _atom_site_occupancy
  Yb  Yb0  1  0.666667  0.333333  0.940359  1
  Yb  Yb1  1  0.333333  0.666667  0.059641  1
  Er  Er2  1  0.333333  0.666667  0.425902  1
  Er  Er3  1  0.666667  0.333333  0.574098  1
  Al  Al4  1  0.000000  0.000000  0.500000  1
  Os  Os5  1  0.000000  0.000000  0.000000  1
  Os  Os6  1  0.828942  0.171058  0.252418  1
  Os  Os7  1  0.828942  0.657885  0.252418  1
  Os  Os8  1  0.342115  0.171058  0.252418  1
  Os  Os9  1  0.171058  0.828942  0.747582  1
  Os  Os10  1  0.171058  0.342115  0.747582  1
  Os  Os11  1  0.657885  0.828942  0.747582  1
