# generated using pymatgen
data_Ho2Er6In3Au
_symmetry_space_group_name_H-M   'P 1'
_cell_length_a   10.53749300
_cell_length_b   10.53902262
_cell_length_c   6.84726302
_cell_angle_alpha   89.99184366
_cell_angle_beta   90.00110147
_cell_angle_gamma   119.99602885
_symmetry_Int_Tables_number   1
_chemical_formula_structural   Ho2Er6In3Au
_chemical_formula_sum   'Ho4 Er12 In6 Au2'
_cell_volume   658.57107188
_cell_formula_units_Z   2
loop_
 _symmetry_equiv_pos_site_id
 _symmetry_equiv_pos_as_xyz
  1  'x, y, z'
loop_
 _atom_site_type_symbol
 _atom_site_label
 _atom_site_symmetry_multiplicity
 _atom_site_fract_x
 _atom_site_fract_y
 _atom_site_fract_z
 _atom_site_occupancy
  Ho  Ho0  1  0.523478  0.046996  0.796345  1
  Ho  Ho1  1  0.952946  0.476465  0.796330  1
  Ho  Ho2  1  0.523477  0.476464  0.796315  1
  Ho  Ho3  1  0.476525  0.953046  0.296282  1
  Er  Er4  1  0.047210  0.523678  0.296220  1
  Er  Er5  1  0.476429  0.523653  0.296234  1
  Er  Er6  1  0.827254  0.654511  0.511870  1
  Er  Er7  1  0.345434  0.172864  0.511935  1
  Er  Er8  1  0.827404  0.172810  0.511977  1
  Er  Er9  1  0.172791  0.345537  0.012352  1
  Er  Er10  1  0.654503  0.827169  0.012195  1
  Er  Er11  1  0.172704  0.827208  0.012221  1
  Er  Er12  1  0.666743  0.333529  0.153576  1
  Er  Er13  1  0.333250  0.666507  0.653225  1
  Er  Er14  1  0.000018  0.999984  0.777260  1
  Er  Er15  1  0.000025  0.000050  0.277274  1
  In  In16  1  0.836110  0.672217  0.032291  1
  In  In17  1  0.327771  0.163890  0.032272  1
  In  In18  1  0.836115  0.163899  0.032282  1
  In  In19  1  0.163974  0.327932  0.532138  1
  In  In20  1  0.672160  0.836004  0.532249  1
  In  In21  1  0.163857  0.836012  0.532234  1
  Au  Au22  1  0.666687  0.333324  0.565181  1
  Au  Au23  1  0.333135  0.666251  0.065656  1
