# generated using pymatgen
data_Dy2HoCo7(P3Ru)2
_symmetry_space_group_name_H-M   'P 1'
_cell_length_a   3.73727400
_cell_length_b   10.56617204
_cell_length_c   12.31420605
_cell_angle_alpha   89.98958241
_cell_angle_beta   90.00000000
_cell_angle_gamma   90.00000000
_symmetry_Int_Tables_number   1
_chemical_formula_structural   Dy2HoCo7(P3Ru)2
_chemical_formula_sum   'Dy4 Ho2 Co14 P12 Ru4'
_cell_volume   486.27173488
_cell_formula_units_Z   2
loop_
 _symmetry_equiv_pos_site_id
 _symmetry_equiv_pos_as_xyz
  1  'x, y, z'
loop_
 _atom_site_type_symbol
 _atom_site_label
 _atom_site_symmetry_multiplicity
 _atom_site_fract_x
 _atom_site_fract_y
 _atom_site_fract_z
 _atom_site_occupancy
  Dy  Dy0  1  0.000000  0.499990  0.528583  1
  Dy  Dy1  1  0.500000  0.000003  0.478507  1
  Dy  Dy2  1  0.500000  0.818042  0.202805  1
  Dy  Dy3  1  0.000000  0.683079  0.795802  1
  Ho  Ho4  1  0.500000  0.182037  0.202854  1
  Ho  Ho5  1  0.000000  0.316807  0.795692  1
  Co  Co6  1  0.000000  0.499712  0.985598  1
  Co  Co7  1  0.500000  0.000314  0.013402  1
  Co  Co8  1  0.000000  0.200191  0.573783  1
  Co  Co9  1  0.000000  0.799887  0.573623  1
  Co  Co10  1  0.500000  0.880010  0.710714  1
  Co  Co11  1  0.500000  0.120356  0.710869  1
  Co  Co12  1  0.000000  0.620758  0.286832  1
  Co  Co13  1  0.000000  0.378877  0.286744  1
  Co  Co14  1  0.500000  0.332265  0.989915  1
  Co  Co15  1  0.500000  0.667465  0.990024  1
  Co  Co16  1  0.000000  0.167215  0.008726  1
  Co  Co17  1  0.000000  0.833060  0.008640  1
  Co  Co18  1  0.500000  0.499666  0.705160  1
  Co  Co19  1  0.000000  0.000345  0.294369  1
  P  P20  1  0.500000  0.309436  0.621531  1
  P  P21  1  0.500000  0.690509  0.621267  1
  P  P22  1  0.000000  0.183873  0.381652  1
  P  P23  1  0.000000  0.816310  0.382016  1
  P  P24  1  0.500000  0.499685  0.882201  1
  P  P25  1  0.000000  0.000321  0.116704  1
  P  P26  1  0.500000  0.846711  0.894169  1
  P  P27  1  0.500000  0.153544  0.893791  1
  P  P28  1  0.000000  0.653507  0.104419  1
  P  P29  1  0.000000  0.346224  0.104780  1
  P  P30  1  0.500000  0.499993  0.344937  1
  P  P31  1  0.000000  0.999977  0.651564  1
  Ru  Ru32  1  0.500000  0.295814  0.430449  1
  Ru  Ru33  1  0.500000  0.703995  0.430508  1
  Ru  Ru34  1  0.500000  0.499880  0.156530  1
  Ru  Ru35  1  0.000000  0.000142  0.840840  1
