# generated using pymatgen
data_La2YbDyIn2
_symmetry_space_group_name_H-M   'P 1'
_cell_length_a   5.55997900
_cell_length_b   5.55997820
_cell_length_c   7.03782900
_cell_angle_alpha   90.00000000
_cell_angle_beta   90.00000000
_cell_angle_gamma   119.99998691
_symmetry_Int_Tables_number   1
_chemical_formula_structural   La2YbDyIn2
_chemical_formula_sum   'La2 Yb1 Dy1 In2'
_cell_volume   188.41507147
_cell_formula_units_Z   1
loop_
 _symmetry_equiv_pos_site_id
 _symmetry_equiv_pos_as_xyz
  1  'x, y, z'
loop_
 _atom_site_type_symbol
 _atom_site_label
 _atom_site_symmetry_multiplicity
 _atom_site_fract_x
 _atom_site_fract_y
 _atom_site_fract_z
 _atom_site_occupancy
  La  La0  1  0.333333  0.666667  0.748477  1
  La  La1  1  0.666667  0.333333  0.251523  1
  Yb  Yb2  1  0.000000  0.000000  0.500000  1
  Dy  Dy3  1  0.000000  0.000000  0.000000  1
  In  In4  1  0.666667  0.333333  0.760140  1
  In  In5  1  0.333333  0.666667  0.239860  1
