# generated using pymatgen
data_Ba6TaNb(P3O)2
_symmetry_space_group_name_H-M   'P 1'
_cell_length_a   6.68227306
_cell_length_b   11.01614600
_cell_length_c   13.43684612
_cell_angle_alpha   90.00000000
_cell_angle_beta   89.98473613
_cell_angle_gamma   90.00000000
_symmetry_Int_Tables_number   1
_chemical_formula_structural   Ba6TaNb(P3O)2
_chemical_formula_sum   'Ba12 Ta2 Nb2 P12 O4'
_cell_volume   989.12511591
_cell_formula_units_Z   2
loop_
 _symmetry_equiv_pos_site_id
 _symmetry_equiv_pos_as_xyz
  1  'x, y, z'
loop_
 _atom_site_type_symbol
 _atom_site_label
 _atom_site_symmetry_multiplicity
 _atom_site_fract_x
 _atom_site_fract_y
 _atom_site_fract_z
 _atom_site_occupancy
  Ba  Ba0  1  0.246074  0.043685  0.132333  1
  Ba  Ba1  1  0.253834  0.543145  0.632326  1
  Ba  Ba2  1  0.246074  0.456315  0.132333  1
  Ba  Ba3  1  0.746166  0.043145  0.367674  1
  Ba  Ba4  1  0.753926  0.956315  0.867667  1
  Ba  Ba5  1  0.746166  0.456855  0.367674  1
  Ba  Ba6  1  0.753926  0.543685  0.867667  1
  Ba  Ba7  1  0.253834  0.956855  0.632326  1
  Ba  Ba8  1  0.273943  0.250000  0.869928  1
  Ba  Ba9  1  0.774287  0.250000  0.630251  1
  Ba  Ba10  1  0.726057  0.750000  0.130072  1
  Ba  Ba11  1  0.225713  0.750000  0.369748  1
  Ta  Ta12  1  0.665450  0.750000  0.545293  1
  Ta  Ta13  1  0.334550  0.250000  0.454707  1
  Nb  Nb14  1  0.165544  0.750000  0.954598  1
  Nb  Nb15  1  0.834456  0.250000  0.045402  1
  P  P16  1  0.273516  0.250000  0.630604  1
  P  P17  1  0.773204  0.250000  0.869395  1
  P  P18  1  0.726484  0.750000  0.369396  1
  P  P19  1  0.226796  0.750000  0.130605  1
  P  P20  1  0.736523  0.441385  0.115972  1
  P  P21  1  0.236861  0.441148  0.384018  1
  P  P22  1  0.263477  0.941385  0.884028  1
  P  P23  1  0.763139  0.558852  0.615982  1
  P  P24  1  0.263477  0.558615  0.884028  1
  P  P25  1  0.763139  0.941148  0.615982  1
  P  P26  1  0.736523  0.058615  0.115972  1
  P  P27  1  0.236861  0.058852  0.384018  1
  O  O28  1  0.119991  0.250000  0.053233  1
  O  O29  1  0.616483  0.250000  0.446788  1
  O  O30  1  0.880009  0.750000  0.946767  1
  O  O31  1  0.383517  0.750000  0.553212  1
