# generated using pymatgen
data_Sr4Gd2TaNbO12
_symmetry_space_group_name_H-M   'P 1'
_cell_length_a   5.98680007
_cell_length_b   5.88607185
_cell_length_c   10.21539443
_cell_angle_alpha   55.06909229
_cell_angle_beta   90.01740407
_cell_angle_gamma   90.00874579
_symmetry_Int_Tables_number   1
_chemical_formula_structural   Sr4Gd2TaNbO12
_chemical_formula_sum   'Sr4 Gd2 Ta1 Nb1 O12'
_cell_volume   295.12512862
_cell_formula_units_Z   1
loop_
 _symmetry_equiv_pos_site_id
 _symmetry_equiv_pos_as_xyz
  1  'x, y, z'
loop_
 _atom_site_type_symbol
 _atom_site_label
 _atom_site_symmetry_multiplicity
 _atom_site_fract_x
 _atom_site_fract_y
 _atom_site_fract_z
 _atom_site_occupancy
  Sr  Sr0  1  0.461088  0.258728  0.750560  1
  Sr  Sr1  1  0.961191  0.741263  0.749376  1
  Sr  Sr2  1  0.038809  0.258737  0.250624  1
  Sr  Sr3  1  0.538912  0.741272  0.249440  1
  Gd  Gd4  1  0.000000  0.000000  0.000000  1
  Gd  Gd5  1  0.500000  0.000000  0.500000  1
  Ta  Ta6  1  0.500000  0.500000  0.000000  1
  Nb  Nb7  1  0.000000  0.500000  0.500000  1
  O  O8  1  0.723774  0.642044  0.548839  1
  O  O9  1  0.225603  0.358771  0.951476  1
  O  O10  1  0.276226  0.357956  0.451161  1
  O  O11  1  0.774397  0.641229  0.048524  1
  O  O12  1  0.194050  0.731608  0.544161  1
  O  O13  1  0.693015  0.269866  0.956158  1
  O  O14  1  0.805950  0.268392  0.455839  1
  O  O15  1  0.306985  0.730134  0.043842  1
  O  O16  1  0.028331  0.179066  0.733728  1
  O  O17  1  0.528066  0.818827  0.767802  1
  O  O18  1  0.971669  0.820934  0.266272  1
  O  O19  1  0.471934  0.181173  0.232198  1
