# generated using pymatgen
data_TaTiMn4(CrP2)2
_symmetry_space_group_name_H-M   'P 1'
_cell_length_a   3.62962200
_cell_length_b   5.84912987
_cell_length_c   6.88427162
_cell_angle_alpha   90.02618062
_cell_angle_beta   90.00000000
_cell_angle_gamma   90.00000000
_symmetry_Int_Tables_number   1
_chemical_formula_structural   TaTiMn4(CrP2)2
_chemical_formula_sum   'Ta1 Ti1 Mn4 Cr2 P4'
_cell_volume   146.15396938
_cell_formula_units_Z   1
loop_
 _symmetry_equiv_pos_site_id
 _symmetry_equiv_pos_as_xyz
  1  'x, y, z'
loop_
 _atom_site_type_symbol
 _atom_site_label
 _atom_site_symmetry_multiplicity
 _atom_site_fract_x
 _atom_site_fract_y
 _atom_site_fract_z
 _atom_site_occupancy
  Ta  Ta0  1  0.750000  0.468451  0.676082  1
  Ti  Ti1  1  0.250000  0.531089  0.319344  1
  Mn  Mn2  1  0.750000  0.353306  0.056917  1
  Mn  Mn3  1  0.250000  0.649493  0.942666  1
  Mn  Mn4  1  0.750000  0.851664  0.445799  1
  Mn  Mn5  1  0.250000  0.151391  0.554644  1
  Cr  Cr6  1  0.750000  0.973865  0.827844  1
  Cr  Cr7  1  0.250000  0.022542  0.173855  1
  P  P8  1  0.250000  0.783159  0.633282  1
  P  P9  1  0.750000  0.219471  0.362227  1
  P  P10  1  0.250000  0.254017  0.880820  1
  P  P11  1  0.750000  0.741551  0.126521  1
