# generated using pymatgen
data_CaNd(Ga2Rh3)2
_symmetry_space_group_name_H-M   'P 1'
_cell_length_a   6.82961112
_cell_length_b   6.82961210
_cell_length_c   6.82961256
_cell_angle_alpha   130.79290462
_cell_angle_beta   112.29478993
_cell_angle_gamma   88.12615448
_symmetry_Int_Tables_number   1
_chemical_formula_structural   CaNd(Ga2Rh3)2
_chemical_formula_sum   'Ca1 Nd1 Ga4 Rh6'
_cell_volume   212.35657845
_cell_formula_units_Z   1
loop_
 _symmetry_equiv_pos_site_id
 _symmetry_equiv_pos_as_xyz
  1  'x, y, z'
loop_
 _atom_site_type_symbol
 _atom_site_label
 _atom_site_symmetry_multiplicity
 _atom_site_fract_x
 _atom_site_fract_y
 _atom_site_fract_z
 _atom_site_occupancy
  Ca  Ca0  1  0.750000  0.028210  0.278210  1
  Nd  Nd1  1  0.250000  0.969769  0.719769  1
  Ga  Ga2  1  0.586220  0.365943  0.779723  1
  Ga  Ga3  1  0.422052  0.641152  0.219099  1
  Ga  Ga4  1  0.077948  0.297047  0.219099  1
  Ga  Ga5  1  0.913780  0.693503  0.779723  1
  Rh  Rh6  1  0.233843  0.501071  0.734175  1
  Rh  Rh7  1  0.733104  0.000332  0.734175  1
  Rh  Rh8  1  0.766896  0.501071  0.267228  1
  Rh  Rh9  1  0.266157  0.000332  0.267228  1
  Rh  Rh10  1  0.494627  0.500786  0.495412  1
  Rh  Rh11  1  0.005373  0.500786  0.006159  1
