# generated using pymatgen
data_ZrFe(TcO4)6
_symmetry_space_group_name_H-M   'P 1'
_cell_length_a   10.75254727
_cell_length_b   10.75254670
_cell_length_c   10.75254611
_cell_angle_alpha   49.04577363
_cell_angle_beta   49.04578336
_cell_angle_gamma   49.04578418
_symmetry_Int_Tables_number   1
_chemical_formula_structural   ZrFe(TcO4)6
_chemical_formula_sum   'Zr1 Fe1 Tc6 O24'
_cell_volume   651.13438334
_cell_formula_units_Z   1
loop_
 _symmetry_equiv_pos_site_id
 _symmetry_equiv_pos_as_xyz
  1  'x, y, z'
loop_
 _atom_site_type_symbol
 _atom_site_label
 _atom_site_symmetry_multiplicity
 _atom_site_fract_x
 _atom_site_fract_y
 _atom_site_fract_z
 _atom_site_occupancy
  Zr  Zr0  1  0.500000  0.500000  0.500000  1
  Fe  Fe1  1  0.000000  0.000000  0.000000  1
  Tc  Tc2  1  0.600178  0.906142  0.246718  1
  Tc  Tc3  1  0.246718  0.600178  0.906142  1
  Tc  Tc4  1  0.906142  0.246718  0.600178  1
  Tc  Tc5  1  0.753282  0.399822  0.093858  1
  Tc  Tc6  1  0.093858  0.753282  0.399822  1
  Tc  Tc7  1  0.399822  0.093858  0.753282  1
  O  O8  1  0.810989  0.894156  0.168000  1
  O  O9  1  0.168000  0.810989  0.894156  1
  O  O10  1  0.894156  0.168000  0.810989  1
  O  O11  1  0.673119  0.384989  0.310967  1
  O  O12  1  0.310967  0.673119  0.384989  1
  O  O13  1  0.384989  0.310967  0.673119  1
  O  O14  1  0.189011  0.105844  0.832000  1
  O  O15  1  0.832000  0.189011  0.105844  1
  O  O16  1  0.105844  0.832000  0.189011  1
  O  O17  1  0.326881  0.615011  0.689033  1
  O  O18  1  0.689033  0.326881  0.615011  1
  O  O19  1  0.615011  0.689033  0.326881  1
  O  O20  1  0.449321  0.976620  0.418615  1
  O  O21  1  0.418615  0.449321  0.976620  1
  O  O22  1  0.976620  0.418615  0.449321  1
  O  O23  1  0.923431  0.472762  0.944104  1
  O  O24  1  0.944104  0.923431  0.472762  1
  O  O25  1  0.472762  0.944104  0.923431  1
  O  O26  1  0.550679  0.023380  0.581385  1
  O  O27  1  0.581385  0.550679  0.023380  1
  O  O28  1  0.023380  0.581385  0.550679  1
  O  O29  1  0.076569  0.527238  0.055896  1
  O  O30  1  0.055896  0.076569  0.527238  1
  O  O31  1  0.527238  0.055896  0.076569  1
