# generated using pymatgen
data_YbDy2Y(Pt2O7)2
_symmetry_space_group_name_H-M   'P 1'
_cell_length_a   7.27286723
_cell_length_b   7.26825976
_cell_length_c   7.27476400
_cell_angle_alpha   59.97039311
_cell_angle_beta   59.99137242
_cell_angle_gamma   59.95369231
_symmetry_Int_Tables_number   1
_chemical_formula_structural   YbDy2Y(Pt2O7)2
_chemical_formula_sum   'Yb1 Dy2 Y1 Pt4 O14'
_cell_volume   271.74545938
_cell_formula_units_Z   1
loop_
 _symmetry_equiv_pos_site_id
 _symmetry_equiv_pos_as_xyz
  1  'x, y, z'
loop_
 _atom_site_type_symbol
 _atom_site_label
 _atom_site_symmetry_multiplicity
 _atom_site_fract_x
 _atom_site_fract_y
 _atom_site_fract_z
 _atom_site_occupancy
  Yb  Yb0  1  0.125000  0.625000  0.125000  1
  Dy  Dy1  1  0.125000  0.125000  0.625000  1
  Dy  Dy2  1  0.125000  0.125000  0.125000  1
  Y  Y3  1  0.625000  0.125000  0.125000  1
  Pt  Pt4  1  0.625000  0.625000  0.625000  1
  Pt  Pt5  1  0.125000  0.625000  0.625000  1
  Pt  Pt6  1  0.625000  0.125000  0.625000  1
  Pt  Pt7  1  0.625000  0.625000  0.125000  1
  O  O8  1  0.288399  0.716081  0.707154  1
  O  O9  1  0.535423  0.964877  0.963937  1
  O  O10  1  0.714577  0.285123  0.714238  1
  O  O11  1  0.285984  0.285022  0.714497  1
  O  O12  1  0.707207  0.715822  0.288485  1
  O  O13  1  0.998130  0.006079  0.997896  1
  O  O14  1  0.288399  0.716081  0.288367  1
  O  O15  1  0.961601  0.533919  0.961633  1
  O  O16  1  0.964016  0.964978  0.535503  1
  O  O17  1  0.542793  0.534178  0.961515  1
  O  O18  1  0.251870  0.243921  0.252104  1
  O  O19  1  0.535423  0.964877  0.535762  1
  O  O20  1  0.714577  0.285123  0.286063  1
  O  O21  1  0.961601  0.533919  0.542846  1
