# generated using pymatgen
data_Ho11TmPb10
_symmetry_space_group_name_H-M   'P 1'
_cell_length_a   11.72737388
_cell_length_b   11.72737407
_cell_length_c   11.72599761
_cell_angle_alpha   146.97148632
_cell_angle_beta   132.77668859
_cell_angle_gamma   58.84439188
_symmetry_Int_Tables_number   1
_chemical_formula_structural   Ho11TmPb10
_chemical_formula_sum   'Ho11 Tm1 Pb10'
_cell_volume   639.71806625
_cell_formula_units_Z   1
loop_
 _symmetry_equiv_pos_site_id
 _symmetry_equiv_pos_as_xyz
  1  'x, y, z'
loop_
 _atom_site_type_symbol
 _atom_site_label
 _atom_site_symmetry_multiplicity
 _atom_site_fract_x
 _atom_site_fract_y
 _atom_site_fract_z
 _atom_site_occupancy
  Ho  Ho0  1  0.250185  0.637710  0.612551  1
  Ho  Ho1  1  0.680855  0.941166  0.739637  1
  Ho  Ho2  1  0.025160  0.137633  0.887449  1
  Ho  Ho3  1  0.974664  0.862313  0.112508  1
  Ho  Ho4  1  0.798445  0.558999  0.239639  1
  Ho  Ho5  1  0.201529  0.441217  0.760363  1
  Ho  Ho6  1  0.303744  0.053744  0.750000  1
  Ho  Ho7  1  0.319359  0.058806  0.260361  1
  Ho  Ho8  1  0.303750  0.553750  0.250000  1
  Ho  Ho9  1  0.749804  0.362156  0.387492  1
  Ho  Ho10  1  0.696260  0.446260  0.750000  1
  Tm  Tm11  1  0.696213  0.946213  0.250000  1
  Pb  Pb12  1  0.480496  0.574852  0.906465  1
  Pb  Pb13  1  0.599084  0.794756  0.805119  1
  Pb  Pb14  1  0.668387  0.074032  0.593535  1
  Pb  Pb15  1  0.999986  0.749986  0.750000  1
  Pb  Pb16  1  0.989637  0.293965  0.694881  1
  Pb  Pb17  1  0.519773  0.425737  0.094137  1
  Pb  Pb18  1  0.009835  0.705795  0.304570  1
  Pb  Pb19  1  0.401225  0.205265  0.195430  1
  Pb  Pb20  1  0.331599  0.925635  0.405863  1
  Pb  Pb21  1  0.000011  0.250011  0.250000  1
