# generated using pymatgen
data_La5Ga2IrRu2
_symmetry_space_group_name_H-M   'P 1'
_cell_length_a   8.67760656
_cell_length_b   8.67760668
_cell_length_c   8.67760600
_cell_angle_alpha   109.36774183
_cell_angle_beta   109.94004588
_cell_angle_gamma   109.10700547
_symmetry_Int_Tables_number   1
_chemical_formula_structural   La5Ga2IrRu2
_chemical_formula_sum   'La10 Ga4 Ir2 Ru4'
_cell_volume   502.98363070
_cell_formula_units_Z   2
loop_
 _symmetry_equiv_pos_site_id
 _symmetry_equiv_pos_as_xyz
  1  'x, y, z'
loop_
 _atom_site_type_symbol
 _atom_site_label
 _atom_site_symmetry_multiplicity
 _atom_site_fract_x
 _atom_site_fract_y
 _atom_site_fract_z
 _atom_site_occupancy
  La  La0  1  0.249997  0.690433  0.440451  1
  La  La1  1  0.749986  0.809541  0.059534  1
  La  La2  1  0.439715  0.250003  0.689705  1
  La  La3  1  0.689746  0.439735  0.250011  1
  La  La4  1  0.060279  0.750003  0.810297  1
  La  La5  1  0.810274  0.060277  0.750009  1
  La  La6  1  0.210094  0.212387  0.214145  1
  La  La7  1  0.498249  0.995939  0.285847  1
  La  La8  1  0.289905  0.504055  0.002290  1
  La  La9  1  0.001760  0.287615  0.497711  1
  Ga  Ga10  1  0.500437  0.998748  0.909832  1
  Ga  Ga11  1  0.588916  0.590610  0.590172  1
  Ga  Ga12  1  0.911104  0.501264  0.001694  1
  Ga  Ga13  1  0.999565  0.909403  0.498307  1
  Ir  Ir14  1  0.250005  0.121214  0.871231  1
  Ir  Ir15  1  0.749987  0.378772  0.628769  1
  Ru  Ru16  1  0.868399  0.250015  0.118408  1
  Ru  Ru17  1  0.123224  0.873214  0.249997  1
  Ru  Ru18  1  0.631584  0.749983  0.381574  1
  Ru  Ru19  1  0.376774  0.626791  0.750018  1
