# generated using pymatgen
data_Ho5Lu5(In2Bi)2
_symmetry_space_group_name_H-M   'P 1'
_cell_length_a   8.93721752
_cell_length_b   8.89742167
_cell_length_c   6.53159400
_cell_angle_alpha   90.00000000
_cell_angle_beta   90.00000000
_cell_angle_gamma   119.63215180
_symmetry_Int_Tables_number   1
_chemical_formula_structural   Ho5Lu5(In2Bi)2
_chemical_formula_sum   'Ho5 Lu5 In4 Bi2'
_cell_volume   451.45472394
_cell_formula_units_Z   1
loop_
 _symmetry_equiv_pos_site_id
 _symmetry_equiv_pos_as_xyz
  1  'x, y, z'
loop_
 _atom_site_type_symbol
 _atom_site_label
 _atom_site_symmetry_multiplicity
 _atom_site_fract_x
 _atom_site_fract_y
 _atom_site_fract_z
 _atom_site_occupancy
  Ho  Ho0  1  0.769097  0.758114  0.750000  1
  Ho  Ho1  1  0.228978  0.991361  0.750000  1
  Ho  Ho2  1  0.000535  0.235599  0.750000  1
  Ho  Ho3  1  0.765384  0.001160  0.250000  1
  Ho  Ho4  1  0.000597  0.764607  0.250000  1
  Lu  Lu5  1  0.671595  0.339189  0.007701  1
  Lu  Lu6  1  0.328308  0.667727  0.007830  1
  Lu  Lu7  1  0.328308  0.667727  0.492170  1
  Lu  Lu8  1  0.671595  0.339189  0.492299  1
  Lu  Lu9  1  0.234374  0.235332  0.250000  1
  In  In10  1  0.000928  0.593949  0.750000  1
  In  In11  1  0.598392  0.602504  0.250000  1
  In  In12  1  0.399705  0.005395  0.250000  1
  In  In13  1  0.001070  0.399808  0.250000  1
  Bi  Bi14  1  0.397696  0.397857  0.750000  1
  Bi  Bi15  1  0.603438  0.000484  0.750000  1
