# generated using pymatgen
data_TcOsBr9
_symmetry_space_group_name_H-M   'P 1'
_cell_length_a   12.14914100
_cell_length_b   7.06395479
_cell_length_c   9.40178098
_cell_angle_alpha   76.69726592
_cell_angle_beta   90.00000000
_cell_angle_gamma   90.00000000
_symmetry_Int_Tables_number   1
_chemical_formula_structural   TcOsBr9
_chemical_formula_sum   'Tc2 Os2 Br18'
_cell_volume   785.22005958
_cell_formula_units_Z   2
loop_
 _symmetry_equiv_pos_site_id
 _symmetry_equiv_pos_as_xyz
  1  'x, y, z'
loop_
 _atom_site_type_symbol
 _atom_site_label
 _atom_site_symmetry_multiplicity
 _atom_site_fract_x
 _atom_site_fract_y
 _atom_site_fract_z
 _atom_site_occupancy
  Tc  Tc0  1  0.250000  0.753160  0.475401  1
  Tc  Tc1  1  0.750000  0.246840  0.524599  1
  Os  Os2  1  0.250000  0.648296  0.855943  1
  Os  Os3  1  0.750000  0.351704  0.144057  1
  Br  Br4  1  0.610459  0.438350  0.325387  1
  Br  Br5  1  0.110459  0.561650  0.674613  1
  Br  Br6  1  0.389541  0.561650  0.674613  1
  Br  Br7  1  0.889541  0.438350  0.325387  1
  Br  Br8  1  0.750000  0.682815  0.001323  1
  Br  Br9  1  0.250000  0.317185  0.998677  1
  Br  Br10  1  0.750000  0.507481  0.652050  1
  Br  Br11  1  0.250000  0.492519  0.347950  1
  Br  Br12  1  0.750000  0.023709  0.333660  1
  Br  Br13  1  0.250000  0.976291  0.666340  1
  Br  Br14  1  0.895662  0.244446  0.006849  1
  Br  Br15  1  0.395662  0.755554  0.993151  1
  Br  Br16  1  0.104338  0.755554  0.993151  1
  Br  Br17  1  0.604338  0.244446  0.006849  1
  Br  Br18  1  0.897683  0.062731  0.664737  1
  Br  Br19  1  0.397683  0.937269  0.335263  1
  Br  Br20  1  0.102317  0.937269  0.335263  1
  Br  Br21  1  0.602317  0.062731  0.664737  1
