# generated using pymatgen
data_Er5Tl2Te
_symmetry_space_group_name_H-M   'P 1'
_cell_length_a   8.89248509
_cell_length_b   8.88819703
_cell_length_c   6.55529400
_cell_angle_alpha   90.00000000
_cell_angle_beta   90.00000000
_cell_angle_gamma   119.98405393
_symmetry_Int_Tables_number   1
_chemical_formula_structural   Er5Tl2Te
_chemical_formula_sum   'Er10 Tl4 Te2'
_cell_volume   448.77575523
_cell_formula_units_Z   2
loop_
 _symmetry_equiv_pos_site_id
 _symmetry_equiv_pos_as_xyz
  1  'x, y, z'
loop_
 _atom_site_type_symbol
 _atom_site_label
 _atom_site_symmetry_multiplicity
 _atom_site_fract_x
 _atom_site_fract_y
 _atom_site_fract_z
 _atom_site_occupancy
  Er  Er0  1  0.994658  0.762587  0.750000  1
  Er  Er1  1  0.994658  0.232071  0.250000  1
  Er  Er2  1  0.767232  0.764847  0.250000  1
  Er  Er3  1  0.767232  0.002385  0.750000  1
  Er  Er4  1  0.235162  0.242070  0.750000  1
  Er  Er5  1  0.235162  0.993092  0.250000  1
  Er  Er6  1  0.333949  0.666975  0.500000  1
  Er  Er7  1  0.673786  0.336893  0.000000  1
  Er  Er8  1  0.673786  0.336893  0.500000  1
  Er  Er9  1  0.333949  0.666975  0.000000  1
  Tl  Tl10  1  0.002612  0.602321  0.250000  1
  Tl  Tl11  1  0.002612  0.400291  0.750000  1
  Tl  Tl12  1  0.602084  0.603709  0.750000  1
  Tl  Tl13  1  0.602084  0.998375  0.250000  1
  Te  Te14  1  0.390516  0.001264  0.750000  1
  Te  Te15  1  0.390516  0.389252  0.250000  1
