# generated using pymatgen
data_NdSmThIn3Ni2Rh
_symmetry_space_group_name_H-M   'P 1'
_cell_length_a   7.47984980
_cell_length_b   7.51265404
_cell_length_c   3.98710200
_cell_angle_alpha   90.00000000
_cell_angle_beta   90.00000000
_cell_angle_gamma   118.43009289
_symmetry_Int_Tables_number   1
_chemical_formula_structural   NdSmThIn3Ni2Rh
_chemical_formula_sum   'Nd1 Sm1 Th1 In3 Ni2 Rh1'
_cell_volume   197.02866050
_cell_formula_units_Z   1
loop_
 _symmetry_equiv_pos_site_id
 _symmetry_equiv_pos_as_xyz
  1  'x, y, z'
loop_
 _atom_site_type_symbol
 _atom_site_label
 _atom_site_symmetry_multiplicity
 _atom_site_fract_x
 _atom_site_fract_y
 _atom_site_fract_z
 _atom_site_occupancy
  Nd  Nd0  1  0.998801  0.410816  0.500000  1
  Sm  Sm1  1  0.410781  0.000148  0.500000  1
  Th  Th2  1  0.582694  0.585253  0.500000  1
  In  In3  1  0.755817  0.011318  0.000000  1
  In  In4  1  0.005131  0.753372  0.000000  1
  In  In5  1  0.238230  0.234287  0.000000  1
  Ni  Ni6  1  0.662202  0.351400  0.000000  1
  Ni  Ni7  1  0.991176  0.989168  0.500000  1
  Rh  Rh8  1  0.355168  0.664239  0.000000  1
