# generated using pymatgen
data_Tb17Dy3(Bi2Te)4
_symmetry_space_group_name_H-M   'P 1'
_cell_length_a   8.20933800
_cell_length_b   9.49833600
_cell_length_c   11.98500600
_cell_angle_alpha   89.99871996
_cell_angle_beta   89.99758307
_cell_angle_gamma   89.99803265
_symmetry_Int_Tables_number   1
_chemical_formula_structural   Tb17Dy3(Bi2Te)4
_chemical_formula_sum   'Tb17 Dy3 Bi8 Te4'
_cell_volume   934.53144922
_cell_formula_units_Z   1
loop_
 _symmetry_equiv_pos_site_id
 _symmetry_equiv_pos_as_xyz
  1  'x, y, z'
loop_
 _atom_site_type_symbol
 _atom_site_label
 _atom_site_symmetry_multiplicity
 _atom_site_fract_x
 _atom_site_fract_y
 _atom_site_fract_z
 _atom_site_occupancy
  Tb  Tb0  1  0.353513  0.749934  0.213134  1
  Tb  Tb1  1  0.853528  0.750027  0.286859  1
  Tb  Tb2  1  0.646521  0.249920  0.786841  1
  Tb  Tb3  1  0.146402  0.249996  0.713090  1
  Tb  Tb4  1  0.689674  0.561828  0.057339  1
  Tb  Tb5  1  0.189663  0.938153  0.442669  1
  Tb  Tb6  1  0.310357  0.061718  0.942671  1
  Tb  Tb7  1  0.810332  0.438169  0.557306  1
  Tb  Tb8  1  0.310342  0.438260  0.942697  1
  Tb  Tb9  1  0.476278  0.249960  0.488362  1
  Tb  Tb10  1  0.976197  0.249979  0.011650  1
  Tb  Tb11  1  0.523735  0.749983  0.511633  1
  Tb  Tb12  1  0.023719  0.750051  0.988370  1
  Tb  Tb13  1  0.319135  0.250015  0.218029  1
  Tb  Tb14  1  0.819144  0.249937  0.282027  1
  Tb  Tb15  1  0.680847  0.750053  0.782023  1
  Tb  Tb16  1  0.180847  0.749960  0.717975  1
  Dy  Dy17  1  0.810355  0.061894  0.557312  1
  Dy  Dy18  1  0.689662  0.938104  0.057300  1
  Dy  Dy19  1  0.189633  0.561913  0.442684  1
  Bi  Bi20  1  0.568540  0.995601  0.325161  1
  Bi  Bi21  1  0.068499  0.504380  0.174890  1
  Bi  Bi22  1  0.431504  0.495598  0.674776  1
  Bi  Bi23  1  0.931457  0.004367  0.825153  1
  Bi  Bi24  1  0.431587  0.004371  0.674816  1
  Bi  Bi25  1  0.931521  0.495612  0.825138  1
  Bi  Bi26  1  0.568427  0.504380  0.325177  1
  Bi  Bi27  1  0.068384  0.995608  0.174837  1
  Te  Te28  1  0.407195  0.750105  0.957329  1
  Te  Te29  1  0.907090  0.750235  0.542715  1
  Te  Te30  1  0.592995  0.249669  0.042754  1
  Te  Te31  1  0.092917  0.250219  0.457284  1
