# generated using pymatgen
data_Yb4HoEr5Ru4
_symmetry_space_group_name_H-M   'P 1'
_cell_length_a   6.40698152
_cell_length_b   7.22720984
_cell_length_c   8.48907943
_cell_angle_alpha   97.33762300
_cell_angle_beta   112.17062105
_cell_angle_gamma   89.99999573
_symmetry_Int_Tables_number   1
_chemical_formula_structural   Yb4HoEr5Ru4
_chemical_formula_sum   'Yb4 Ho1 Er5 Ru4'
_cell_volume   360.54205967
_cell_formula_units_Z   1
loop_
 _symmetry_equiv_pos_site_id
 _symmetry_equiv_pos_as_xyz
  1  'x, y, z'
loop_
 _atom_site_type_symbol
 _atom_site_label
 _atom_site_symmetry_multiplicity
 _atom_site_fract_x
 _atom_site_fract_y
 _atom_site_fract_z
 _atom_site_occupancy
  Yb  Yb0  1  0.978757  0.919649  0.183348  1
  Yb  Yb1  1  0.795409  0.580351  0.816652  1
  Yb  Yb2  1  0.021315  0.079861  0.816692  1
  Yb  Yb3  1  0.204622  0.420139  0.183308  1
  Ho  Ho4  1  0.569369  0.250000  0.000000  1
  Er  Er5  1  0.634617  0.816657  0.434225  1
  Er  Er6  1  0.200393  0.683343  0.565775  1
  Er  Er7  1  0.365121  0.183235  0.565414  1
  Er  Er8  1  0.799706  0.316765  0.434586  1
  Er  Er9  1  0.431053  0.750000  0.000000  1
  Ru  Ru10  1  0.816141  0.574840  0.231032  1
  Ru  Ru11  1  0.585109  0.925160  0.768968  1
  Ru  Ru12  1  0.183718  0.425484  0.769049  1
  Ru  Ru13  1  0.414669  0.074516  0.230951  1
