# generated using pymatgen
data_Yb5Tm2Hf(Si4Mo3)4
_symmetry_space_group_name_H-M   'P 1'
_cell_length_a   6.70098524
_cell_length_b   6.90132330
_cell_length_c   12.94890466
_cell_angle_alpha   89.64483251
_cell_angle_beta   90.01545691
_cell_angle_gamma   90.07041580
_symmetry_Int_Tables_number   1
_chemical_formula_structural   Yb5Tm2Hf(Si4Mo3)4
_chemical_formula_sum   'Yb5 Tm2 Hf1 Si16 Mo12'
_cell_volume   598.81873678
_cell_formula_units_Z   1
loop_
 _symmetry_equiv_pos_site_id
 _symmetry_equiv_pos_as_xyz
  1  'x, y, z'
loop_
 _atom_site_type_symbol
 _atom_site_label
 _atom_site_symmetry_multiplicity
 _atom_site_fract_x
 _atom_site_fract_y
 _atom_site_fract_z
 _atom_site_occupancy
  Yb  Yb0  1  0.504015  0.664219  0.909741  1
  Yb  Yb1  1  0.004033  0.835252  0.589763  1
  Yb  Yb2  1  0.497826  0.332870  0.090001  1
  Yb  Yb3  1  0.998893  0.167487  0.410769  1
  Yb  Yb4  1  0.498148  0.331387  0.409625  1
  Tm  Tm5  1  0.998741  0.170406  0.094325  1
  Tm  Tm6  1  0.002769  0.831183  0.905127  1
  Hf  Hf7  1  0.502924  0.673001  0.599303  1
  Si  Si8  1  0.033105  0.131205  0.747418  1
  Si  Si9  1  0.964845  0.873525  0.251203  1
  Si  Si10  1  0.465669  0.624166  0.248450  1
  Si  Si11  1  0.533658  0.371409  0.748319  1
  Si  Si12  1  0.302713  0.866162  0.749256  1
  Si  Si13  1  0.696570  0.131076  0.251079  1
  Si  Si14  1  0.199002  0.367545  0.251186  1
  Si  Si15  1  0.801450  0.634535  0.749239  1
  Si  Si16  1  0.167743  0.462738  0.546655  1
  Si  Si17  1  0.836646  0.543031  0.457247  1
  Si  Si18  1  0.341662  0.952410  0.458169  1
  Si  Si19  1  0.840682  0.542913  0.044020  1
  Si  Si20  1  0.658514  0.038763  0.546510  1
  Si  Si21  1  0.158641  0.457845  0.953105  1
  Si  Si22  1  0.661381  0.040990  0.953014  1
  Si  Si23  1  0.338361  0.958475  0.044233  1
  Mo  Mo24  1  0.165641  0.500433  0.748287  1
  Mo  Mo25  1  0.837892  0.506357  0.249858  1
  Mo  Mo26  1  0.337266  0.991112  0.249595  1
  Mo  Mo27  1  0.663711  0.999199  0.747974  1
  Mo  Mo28  1  0.331920  0.164342  0.624698  1
  Mo  Mo29  1  0.662930  0.827909  0.375086  1
  Mo  Mo30  1  0.167329  0.667098  0.373011  1
  Mo  Mo31  1  0.668189  0.833335  0.126409  1
  Mo  Mo32  1  0.829234  0.341363  0.625461  1
  Mo  Mo33  1  0.330390  0.165145  0.872412  1
  Mo  Mo34  1  0.832353  0.333190  0.873879  1
  Mo  Mo35  1  0.165157  0.667924  0.125575  1
