# generated using pymatgen
data_La3Y16ErBi12
_symmetry_space_group_name_H-M   'P 1'
_cell_length_a   8.31683845
_cell_length_b   9.53416600
_cell_length_c   12.20015300
_cell_angle_alpha   90.00000000
_cell_angle_beta   89.98113756
_cell_angle_gamma   90.00000000
_symmetry_Int_Tables_number   1
_chemical_formula_structural   La3Y16ErBi12
_chemical_formula_sum   'La3 Y16 Er1 Bi12'
_cell_volume   967.40032386
_cell_formula_units_Z   1
loop_
 _symmetry_equiv_pos_site_id
 _symmetry_equiv_pos_as_xyz
  1  'x, y, z'
loop_
 _atom_site_type_symbol
 _atom_site_label
 _atom_site_symmetry_multiplicity
 _atom_site_fract_x
 _atom_site_fract_y
 _atom_site_fract_z
 _atom_site_occupancy
  La  La0  1  0.320085  0.250000  0.220072  1
  La  La1  1  0.819244  0.250000  0.279886  1
  La  La2  1  0.680267  0.750000  0.780185  1
  Y  Y3  1  0.348950  0.750000  0.217620  1
  Y  Y4  1  0.849894  0.750000  0.283248  1
  Y  Y5  1  0.649678  0.250000  0.781252  1
  Y  Y6  1  0.150692  0.250000  0.717859  1
  Y  Y7  1  0.688780  0.562989  0.061804  1
  Y  Y8  1  0.189685  0.937448  0.439236  1
  Y  Y9  1  0.311344  0.062239  0.937503  1
  Y  Y10  1  0.809571  0.437646  0.561838  1
  Y  Y11  1  0.311344  0.437761  0.937503  1
  Y  Y12  1  0.809571  0.062354  0.561838  1
  Y  Y13  1  0.688780  0.937011  0.061804  1
  Y  Y14  1  0.189685  0.562552  0.439236  1
  Y  Y15  1  0.476892  0.250000  0.488399  1
  Y  Y16  1  0.979083  0.250000  0.011808  1
  Y  Y17  1  0.520893  0.750000  0.513985  1
  Y  Y18  1  0.022834  0.750000  0.986895  1
  Er  Er19  1  0.182777  0.750000  0.715982  1
  Bi  Bi20  1  0.401903  0.750000  0.963436  1
  Bi  Bi21  1  0.908289  0.750000  0.538781  1
  Bi  Bi22  1  0.596964  0.250000  0.034068  1
  Bi  Bi23  1  0.095413  0.250000  0.465412  1
  Bi  Bi24  1  0.565127  0.989718  0.329528  1
  Bi  Bi25  1  0.064716  0.509947  0.171202  1
  Bi  Bi26  1  0.429564  0.493598  0.672500  1
  Bi  Bi27  1  0.939284  0.006343  0.826945  1
  Bi  Bi28  1  0.429564  0.006402  0.672500  1
  Bi  Bi29  1  0.939284  0.493657  0.826945  1
  Bi  Bi30  1  0.565127  0.510282  0.329528  1
  Bi  Bi31  1  0.064716  0.990053  0.171202  1
