# generated using pymatgen
data_Dy8Ti3Si16Tc9
_symmetry_space_group_name_H-M   'P 1'
_cell_length_a   6.78612075
_cell_length_b   6.78612075
_cell_length_c   12.94254175
_cell_angle_alpha   90.07374797
_cell_angle_beta   89.92625203
_cell_angle_gamma   89.47157252
_symmetry_Int_Tables_number   1
_chemical_formula_structural   Dy8Ti3Si16Tc9
_chemical_formula_sum   'Dy8 Ti3 Si16 Tc9'
_cell_volume   595.99627250
_cell_formula_units_Z   1
loop_
 _symmetry_equiv_pos_site_id
 _symmetry_equiv_pos_as_xyz
  1  'x, y, z'
loop_
 _atom_site_type_symbol
 _atom_site_label
 _atom_site_symmetry_multiplicity
 _atom_site_fract_x
 _atom_site_fract_y
 _atom_site_fract_z
 _atom_site_occupancy
  Dy  Dy0  1  0.998721  0.662484  0.029219  1
  Dy  Dy1  1  0.000473  0.338145  0.528834  1
  Dy  Dy2  1  0.662484  0.998721  0.970781  1
  Dy  Dy3  1  0.174200  0.490882  0.782776  1
  Dy  Dy4  1  0.823145  0.511612  0.283102  1
  Dy  Dy5  1  0.490882  0.174200  0.217224  1
  Dy  Dy6  1  0.511612  0.823145  0.716898  1
  Dy  Dy7  1  0.338145  0.000473  0.471166  1
  Ti  Ti8  1  0.843545  0.155916  0.748962  1
  Ti  Ti9  1  0.155916  0.843545  0.251038  1
  Ti  Ti10  1  0.335314  0.335314  0.000000  1
  Si  Si11  1  0.014309  0.736304  0.444849  1
  Si  Si12  1  0.977559  0.270208  0.942738  1
  Si  Si13  1  0.736304  0.014309  0.555151  1
  Si  Si14  1  0.199979  0.474955  0.186327  1
  Si  Si15  1  0.798484  0.527751  0.685468  1
  Si  Si16  1  0.474955  0.199979  0.813673  1
  Si  Si17  1  0.527751  0.798484  0.314532  1
  Si  Si18  1  0.270208  0.977559  0.057262  1
  Si  Si19  1  0.789541  0.881761  0.180825  1
  Si  Si20  1  0.316813  0.604230  0.560668  1
  Si  Si21  1  0.693824  0.386337  0.063208  1
  Si  Si22  1  0.604230  0.316813  0.439332  1
  Si  Si23  1  0.386337  0.693824  0.936792  1
  Si  Si24  1  0.116487  0.211973  0.317758  1
  Si  Si25  1  0.211973  0.116487  0.682242  1
  Si  Si26  1  0.881761  0.789541  0.819175  1
  Tc  Tc27  1  0.307089  0.522822  0.369348  1
  Tc  Tc28  1  0.818310  0.016216  0.364359  1
  Tc  Tc29  1  0.990428  0.180466  0.136060  1
  Tc  Tc30  1  0.016216  0.818310  0.635641  1
  Tc  Tc31  1  0.522822  0.307089  0.630652  1
  Tc  Tc32  1  0.180466  0.990428  0.863940  1
  Tc  Tc33  1  0.664943  0.664943  0.500000  1
  Tc  Tc34  1  0.480658  0.684116  0.130224  1
  Tc  Tc35  1  0.684116  0.480658  0.869776  1
