# generated using pymatgen
data_TbY15(LuRh3)4
_symmetry_space_group_name_H-M   'P 1'
_cell_length_a   10.90615037
_cell_length_b   10.90473821
_cell_length_c   6.36351900
_cell_angle_alpha   89.99221852
_cell_angle_beta   89.98515878
_cell_angle_gamma   89.99203260
_symmetry_Int_Tables_number   1
_chemical_formula_structural   TbY15(LuRh3)4
_chemical_formula_sum   'Tb1 Y15 Lu4 Rh12'
_cell_volume   756.80509516
_cell_formula_units_Z   1
loop_
 _symmetry_equiv_pos_site_id
 _symmetry_equiv_pos_as_xyz
  1  'x, y, z'
loop_
 _atom_site_type_symbol
 _atom_site_label
 _atom_site_symmetry_multiplicity
 _atom_site_fract_x
 _atom_site_fract_y
 _atom_site_fract_z
 _atom_site_occupancy
  Tb  Tb0  1  0.289963  0.088087  0.379173  1
  Y  Y1  1  0.290091  0.912248  0.878513  1
  Y  Y2  1  0.709906  0.087692  0.878791  1
  Y  Y3  1  0.710035  0.912217  0.378711  1
  Y  Y4  1  0.587848  0.790072  0.878623  1
  Y  Y5  1  0.587973  0.210000  0.378515  1
  Y  Y6  1  0.412305  0.789974  0.378653  1
  Y  Y7  1  0.412323  0.209971  0.878479  1
  Y  Y8  1  0.209901  0.412240  0.621358  1
  Y  Y9  1  0.209942  0.587695  0.121376  1
  Y  Y10  1  0.790100  0.412231  0.121290  1
  Y  Y11  1  0.790081  0.587758  0.621225  1
  Y  Y12  1  0.912226  0.709957  0.121514  1
  Y  Y13  1  0.912216  0.290048  0.621342  1
  Y  Y14  1  0.087668  0.709877  0.621369  1
  Y  Y15  1  0.087663  0.289928  0.121311  1
  Lu  Lu16  1  0.999839  0.999952  0.500014  1
  Lu  Lu17  1  0.999938  0.999981  0.999901  1
  Lu  Lu18  1  0.499993  0.499951  0.000038  1
  Lu  Lu19  1  0.500067  0.500008  0.500106  1
  Rh  Rh20  1  0.849576  0.150769  0.249855  1
  Rh  Rh21  1  0.849491  0.849334  0.749948  1
  Rh  Rh22  1  0.150686  0.150696  0.749760  1
  Rh  Rh23  1  0.150775  0.849463  0.249971  1
  Rh  Rh24  1  0.650511  0.349304  0.749952  1
  Rh  Rh25  1  0.650446  0.650694  0.249957  1
  Rh  Rh26  1  0.349626  0.349023  0.250189  1
  Rh  Rh27  1  0.349464  0.650642  0.750070  1
  Rh  Rh28  1  0.499631  0.000126  0.124804  1
  Rh  Rh29  1  0.499728  0.000127  0.624163  1
  Rh  Rh30  1  0.000028  0.499935  0.875451  1
  Rh  Rh31  1  0.999959  0.499998  0.375580  1
