# generated using pymatgen
data_NaNdEu2(YTe2)4
_symmetry_space_group_name_H-M   'P 1'
_cell_length_a   8.97840364
_cell_length_b   8.97840278
_cell_length_c   8.94730001
_cell_angle_alpha   59.50723488
_cell_angle_beta   59.50723766
_cell_angle_gamma   59.45967983
_symmetry_Int_Tables_number   1
_chemical_formula_structural   NaNdEu2(YTe2)4
_chemical_formula_sum   'Na1 Nd1 Eu2 Y4 Te8'
_cell_volume   504.10598515
_cell_formula_units_Z   1
loop_
 _symmetry_equiv_pos_site_id
 _symmetry_equiv_pos_as_xyz
  1  'x, y, z'
loop_
 _atom_site_type_symbol
 _atom_site_label
 _atom_site_symmetry_multiplicity
 _atom_site_fract_x
 _atom_site_fract_y
 _atom_site_fract_z
 _atom_site_occupancy
  Na  Na0  1  0.125000  0.125000  0.625000  1
  Nd  Nd1  1  0.125000  0.125000  0.125000  1
  Eu  Eu2  1  0.125000  0.625000  0.125000  1
  Eu  Eu3  1  0.625000  0.125000  0.125000  1
  Y  Y4  1  0.625000  0.125000  0.625000  1
  Y  Y5  1  0.625000  0.625000  0.625000  1
  Y  Y6  1  0.125000  0.625000  0.625000  1
  Y  Y7  1  0.625000  0.625000  0.125000  1
  Te  Te8  1  0.375913  0.865448  0.381140  1
  Te  Te9  1  0.874087  0.384552  0.868860  1
  Te  Te10  1  0.871596  0.871596  0.385943  1
  Te  Te11  1  0.872165  0.872165  0.868725  1
  Te  Te12  1  0.865448  0.375913  0.381140  1
  Te  Te13  1  0.378404  0.378404  0.864057  1
  Te  Te14  1  0.377835  0.377835  0.381275  1
  Te  Te15  1  0.384552  0.874087  0.868860  1
