# generated using pymatgen
data_Li4Th3Ge4
_symmetry_space_group_name_H-M   'P 1'
_cell_length_a   4.44985383
_cell_length_b   6.85915538
_cell_length_c   8.35186819
_cell_angle_alpha   114.24478682
_cell_angle_beta   105.45008878
_cell_angle_gamma   89.99999730
_symmetry_Int_Tables_number   1
_chemical_formula_structural   Li4Th3Ge4
_chemical_formula_sum   'Li4 Th3 Ge4'
_cell_volume   222.29202377
_cell_formula_units_Z   1
loop_
 _symmetry_equiv_pos_site_id
 _symmetry_equiv_pos_as_xyz
  1  'x, y, z'
loop_
 _atom_site_type_symbol
 _atom_site_label
 _atom_site_symmetry_multiplicity
 _atom_site_fract_x
 _atom_site_fract_y
 _atom_site_fract_z
 _atom_site_occupancy
  Li  Li0  1  0.670668  0.985041  0.341334  1
  Li  Li1  1  0.329450  0.016064  0.658900  1
  Li  Li2  1  0.329450  0.642837  0.658900  1
  Li  Li3  1  0.670668  0.356293  0.341334  1
  Th  Th4  1  0.872284  0.372284  0.744569  1
  Th  Th5  1  0.999470  0.999470  0.998938  1
  Th  Th6  1  0.128138  0.628138  0.256275  1
  Ge  Ge7  1  0.500209  0.690376  0.000418  1
  Ge  Ge8  1  0.500209  0.310042  0.000418  1
  Ge  Ge9  1  0.784520  0.784520  0.569040  1
  Ge  Ge10  1  0.214936  0.214936  0.429873  1
