# generated using pymatgen
data_Dy3Ho7Zn3Bi2Au
_symmetry_space_group_name_H-M   'P 1'
_cell_length_a   8.64134143
_cell_length_b   8.63890421
_cell_length_c   8.64803605
_cell_angle_alpha   123.81778098
_cell_angle_beta   123.81299321
_cell_angle_gamma   83.44144452
_symmetry_Int_Tables_number   1
_chemical_formula_structural   Dy3Ho7Zn3Bi2Au
_chemical_formula_sum   'Dy3 Ho7 Zn3 Bi2 Au1'
_cell_volume   427.39759001
_cell_formula_units_Z   1
loop_
 _symmetry_equiv_pos_site_id
 _symmetry_equiv_pos_as_xyz
  1  'x, y, z'
loop_
 _atom_site_type_symbol
 _atom_site_label
 _atom_site_symmetry_multiplicity
 _atom_site_fract_x
 _atom_site_fract_y
 _atom_site_fract_z
 _atom_site_occupancy
  Dy  Dy0  1  0.793937  0.295841  0.804007  1
  Dy  Dy1  1  0.989557  0.795497  0.500062  1
  Dy  Dy2  1  0.295244  0.488707  0.500214  1
  Ho  Ho3  1  0.499131  0.499249  0.999341  1
  Ho  Ho4  1  0.000476  0.999824  0.001241  1
  Ho  Ho5  1  0.509421  0.010678  0.804662  1
  Ho  Ho6  1  0.205119  0.705722  0.195634  1
  Ho  Ho7  1  0.011366  0.206505  0.500046  1
  Ho  Ho8  1  0.706108  0.511246  0.499896  1
  Ho  Ho9  1  0.489902  0.991437  0.195878  1
  Zn  Zn10  1  0.139495  0.641308  0.780799  1
  Zn  Zn11  1  0.859121  0.361032  0.220327  1
  Zn  Zn12  1  0.640598  0.859389  0.500075  1
  Bi  Bi13  1  0.248933  0.250705  0.000019  1
  Bi  Bi14  1  0.748436  0.750967  0.999741  1
  Au  Au15  1  0.363158  0.131893  0.498057  1
