# generated using pymatgen
data_SrPtI18
_symmetry_space_group_name_H-M   'P 1'
_cell_length_a   10.34638581
_cell_length_b   10.34638463
_cell_length_c   10.34638678
_cell_angle_alpha   97.58009614
_cell_angle_beta   97.58010880
_cell_angle_gamma   97.58010058
_symmetry_Int_Tables_number   1
_chemical_formula_structural   SrPtI18
_chemical_formula_sum   'Sr1 Pt1 I18'
_cell_volume   1075.64623082
_cell_formula_units_Z   1
loop_
 _symmetry_equiv_pos_site_id
 _symmetry_equiv_pos_as_xyz
  1  'x, y, z'
loop_
 _atom_site_type_symbol
 _atom_site_label
 _atom_site_symmetry_multiplicity
 _atom_site_fract_x
 _atom_site_fract_y
 _atom_site_fract_z
 _atom_site_occupancy
  Sr  Sr0  1  0.500000  0.500000  0.500000  1
  Pt  Pt1  1  0.000000  0.000000  0.000000  1
  I  I2  1  0.966681  0.976123  0.731657  1
  I  I3  1  0.731657  0.966681  0.976123  1
  I  I4  1  0.976123  0.731657  0.966681  1
  I  I5  1  0.033319  0.023877  0.268343  1
  I  I6  1  0.268343  0.033319  0.023877  1
  I  I7  1  0.023877  0.268343  0.033319  1
  I  I8  1  0.911019  0.370100  0.792235  1
  I  I9  1  0.792235  0.911019  0.370100  1
  I  I10  1  0.370100  0.792235  0.911019  1
  I  I11  1  0.088981  0.629900  0.207765  1
  I  I12  1  0.207765  0.088981  0.629900  1
  I  I13  1  0.629900  0.207765  0.088981  1
  I  I14  1  0.563919  0.819917  0.486719  1
  I  I15  1  0.486719  0.563919  0.819917  1
  I  I16  1  0.819917  0.486719  0.563919  1
  I  I17  1  0.436081  0.180083  0.513281  1
  I  I18  1  0.513281  0.436081  0.180083  1
  I  I19  1  0.180083  0.513281  0.436081  1
