# generated using pymatgen
data_Tb3Pr2Er(IrO7)2
_symmetry_space_group_name_H-M   'P 1'
_cell_length_a   6.49062520
_cell_length_b   6.49562403
_cell_length_c   7.52819200
_cell_angle_alpha   90.00000000
_cell_angle_beta   90.00000000
_cell_angle_gamma   109.86896509
_symmetry_Int_Tables_number   1
_chemical_formula_structural   Tb3Pr2Er(IrO7)2
_chemical_formula_sum   'Tb3 Pr2 Er1 Ir2 O14'
_cell_volume   298.49986180
_cell_formula_units_Z   1
loop_
 _symmetry_equiv_pos_site_id
 _symmetry_equiv_pos_as_xyz
  1  'x, y, z'
loop_
 _atom_site_type_symbol
 _atom_site_label
 _atom_site_symmetry_multiplicity
 _atom_site_fract_x
 _atom_site_fract_y
 _atom_site_fract_z
 _atom_site_occupancy
  Tb  Tb0  1  0.517068  0.065332  0.250000  1
  Tb  Tb1  1  0.933341  0.483210  0.750000  1
  Tb  Tb2  1  0.066399  0.516753  0.250000  1
  Pr  Pr3  1  0.999115  0.998460  0.999047  1
  Pr  Pr4  1  0.999115  0.998460  0.500953  1
  Er  Er5  1  0.485364  0.936574  0.750000  1
  Ir  Ir6  1  0.498965  0.499194  0.998988  1
  Ir  Ir7  1  0.498965  0.499194  0.501012  1
  O  O8  1  0.591313  0.596838  0.750000  1
  O  O9  1  0.412317  0.412621  0.250000  1
  O  O10  1  0.837113  0.118001  0.750000  1
  O  O11  1  0.160031  0.880858  0.250000  1
  O  O12  1  0.124856  0.839171  0.750000  1
  O  O13  1  0.881067  0.159553  0.250000  1
  O  O14  1  0.441446  0.181072  0.962957  1
  O  O15  1  0.557337  0.818992  0.468168  1
  O  O16  1  0.179977  0.436948  0.964903  1
  O  O17  1  0.818726  0.560879  0.465591  1
  O  O18  1  0.441446  0.181072  0.537043  1
  O  O19  1  0.557337  0.818992  0.031832  1
  O  O20  1  0.818726  0.560879  0.034409  1
  O  O21  1  0.179977  0.436948  0.535097  1
