# generated using pymatgen
data_Tb2YbTh5(Pt2Pb)4
_symmetry_space_group_name_H-M   'P 1'
_cell_length_a   8.09315228
_cell_length_b   8.09315227
_cell_length_c   7.38559900
_cell_angle_alpha   90.00000000
_cell_angle_beta   90.00000000
_cell_angle_gamma   89.98417710
_symmetry_Int_Tables_number   1
_chemical_formula_structural   Tb2YbTh5(Pt2Pb)4
_chemical_formula_sum   'Tb2 Yb1 Th5 Pt8 Pb4'
_cell_volume   483.75017038
_cell_formula_units_Z   1
loop_
 _symmetry_equiv_pos_site_id
 _symmetry_equiv_pos_as_xyz
  1  'x, y, z'
loop_
 _atom_site_type_symbol
 _atom_site_label
 _atom_site_symmetry_multiplicity
 _atom_site_fract_x
 _atom_site_fract_y
 _atom_site_fract_z
 _atom_site_occupancy
  Tb  Tb0  1  0.839009  0.159376  0.000000  1
  Tb  Tb1  1  0.159376  0.839009  0.000000  1
  Yb  Yb2  1  0.663530  0.663530  0.500000  1
  Th  Th3  1  0.676486  0.676486  0.000000  1
  Th  Th4  1  0.340734  0.340734  0.500000  1
  Th  Th5  1  0.824205  0.174214  0.500000  1
  Th  Th6  1  0.325948  0.325948  0.000000  1
  Th  Th7  1  0.174214  0.824205  0.500000  1
  Pt  Pt8  1  0.874271  0.874271  0.737008  1
  Pt  Pt9  1  0.130601  0.130601  0.737049  1
  Pt  Pt10  1  0.627423  0.369449  0.766523  1
  Pt  Pt11  1  0.627423  0.369449  0.233477  1
  Pt  Pt12  1  0.369449  0.627423  0.233477  1
  Pt  Pt13  1  0.130601  0.130601  0.262951  1
  Pt  Pt14  1  0.874271  0.874271  0.262992  1
  Pt  Pt15  1  0.369449  0.627423  0.766523  1
  Pb  Pb16  1  0.502219  0.994286  0.751879  1
  Pb  Pb17  1  0.502219  0.994286  0.248121  1
  Pb  Pb18  1  0.994286  0.502219  0.751879  1
  Pb  Pb19  1  0.994286  0.502219  0.248121  1
