# generated using pymatgen
data_Dy4Ga18(PtRh)3
_symmetry_space_group_name_H-M   'P 1'
_cell_length_a   7.62318516
_cell_length_b   7.62318502
_cell_length_c   9.51168728
_cell_angle_alpha   89.98625083
_cell_angle_beta   89.98625048
_cell_angle_gamma   119.76343730
_symmetry_Int_Tables_number   1
_chemical_formula_structural   Dy4Ga18(PtRh)3
_chemical_formula_sum   'Dy4 Ga18 Pt3 Rh3'
_cell_volume   479.83442415
_cell_formula_units_Z   1
loop_
 _symmetry_equiv_pos_site_id
 _symmetry_equiv_pos_as_xyz
  1  'x, y, z'
loop_
 _atom_site_type_symbol
 _atom_site_label
 _atom_site_symmetry_multiplicity
 _atom_site_fract_x
 _atom_site_fract_y
 _atom_site_fract_z
 _atom_site_occupancy
  Dy  Dy0  1  0.996992  0.668641  0.250113  1
  Dy  Dy1  1  0.003410  0.331819  0.750088  1
  Dy  Dy2  1  0.668181  0.996590  0.249912  1
  Dy  Dy3  1  0.331359  0.003008  0.749887  1
  Ga  Ga4  1  0.124181  0.125044  0.250449  1
  Ga  Ga5  1  0.874956  0.875819  0.749551  1
  Ga  Ga6  1  0.999161  0.330422  0.080241  1
  Ga  Ga7  1  0.000675  0.669766  0.919335  1
  Ga  Ga8  1  0.997183  0.665645  0.579191  1
  Ga  Ga9  1  0.334355  0.002817  0.420809  1
  Ga  Ga10  1  0.994807  0.330311  0.421160  1
  Ga  Ga11  1  0.669689  0.005193  0.578840  1
  Ga  Ga12  1  0.669578  0.000839  0.919759  1
  Ga  Ga13  1  0.330234  0.999325  0.080665  1
  Ga  Ga14  1  0.331433  0.327986  0.564981  1
  Ga  Ga15  1  0.672014  0.668567  0.435019  1
  Ga  Ga16  1  0.671719  0.671649  0.066782  1
  Ga  Ga17  1  0.328351  0.328281  0.933218  1
  Ga  Ga18  1  0.339265  0.542423  0.250334  1
  Ga  Ga19  1  0.660430  0.454412  0.746887  1
  Ga  Ga20  1  0.545588  0.339570  0.253113  1
  Ga  Ga21  1  0.457577  0.660735  0.749666  1
  Pt  Pt22  1  0.671359  0.328641  0.000000  1
  Pt  Pt23  1  0.328137  0.671863  0.000000  1
  Pt  Pt24  1  0.327855  0.672145  0.500000  1
  Rh  Rh25  1  0.671370  0.328630  0.500000  1
  Rh  Rh26  1  0.000031  0.999969  0.000000  1
  Rh  Rh27  1  0.000107  0.999893  0.500000  1
