# generated using pymatgen
data_YEr2Zn3CuSi2
_symmetry_space_group_name_H-M   'P 1'
_cell_length_a   6.75807504
_cell_length_b   6.74314351
_cell_length_c   4.22656700
_cell_angle_alpha   90.00000000
_cell_angle_beta   90.00000000
_cell_angle_gamma   119.92693319
_symmetry_Int_Tables_number   1
_chemical_formula_structural   YEr2Zn3CuSi2
_chemical_formula_sum   'Y1 Er2 Zn3 Cu1 Si2'
_cell_volume   166.92565505
_cell_formula_units_Z   1
loop_
 _symmetry_equiv_pos_site_id
 _symmetry_equiv_pos_as_xyz
  1  'x, y, z'
loop_
 _atom_site_type_symbol
 _atom_site_label
 _atom_site_symmetry_multiplicity
 _atom_site_fract_x
 _atom_site_fract_y
 _atom_site_fract_z
 _atom_site_occupancy
  Y  Y0  1  0.000000  0.415676  0.000000  1
  Er  Er1  1  0.584896  0.585224  0.000000  1
  Er  Er2  1  0.415104  0.000329  0.000000  1
  Zn  Zn3  1  0.240628  0.240528  0.500000  1
  Zn  Zn4  1  0.759372  0.999900  0.500000  1
  Zn  Zn5  1  0.000000  0.760816  0.500000  1
  Cu  Cu6  1  0.000000  0.996655  0.000000  1
  Si  Si7  1  0.335654  0.668263  0.500000  1
  Si  Si8  1  0.664346  0.332608  0.500000  1
