# generated using pymatgen
data_Er4ScBi2Te
_symmetry_space_group_name_H-M   'P 1'
_cell_length_a   12.06314600
_cell_length_b   9.27568300
_cell_length_c   8.09298300
_cell_angle_alpha   90.00000000
_cell_angle_beta   90.00000000
_cell_angle_gamma   90.00000000
_symmetry_Int_Tables_number   1
_chemical_formula_structural   Er4ScBi2Te
_chemical_formula_sum   'Er16 Sc4 Bi8 Te4'
_cell_volume   905.55557843
_cell_formula_units_Z   4
loop_
 _symmetry_equiv_pos_site_id
 _symmetry_equiv_pos_as_xyz
  1  'x, y, z'
loop_
 _atom_site_type_symbol
 _atom_site_label
 _atom_site_symmetry_multiplicity
 _atom_site_fract_x
 _atom_site_fract_y
 _atom_site_fract_z
 _atom_site_occupancy
  Er  Er0  1  0.063763  0.563336  0.809586  1
  Er  Er1  1  0.563763  0.936664  0.690414  1
  Er  Er2  1  0.936237  0.063336  0.190414  1
  Er  Er3  1  0.436237  0.436664  0.309586  1
  Er  Er4  1  0.936237  0.436664  0.190414  1
  Er  Er5  1  0.436237  0.063336  0.309586  1
  Er  Er6  1  0.063763  0.936664  0.809586  1
  Er  Er7  1  0.563763  0.563336  0.690414  1
  Er  Er8  1  0.220622  0.750000  0.163828  1
  Er  Er9  1  0.720622  0.750000  0.336172  1
  Er  Er10  1  0.779378  0.250000  0.836172  1
  Er  Er11  1  0.279378  0.250000  0.663828  1
  Er  Er12  1  0.288032  0.750000  0.648934  1
  Er  Er13  1  0.788032  0.750000  0.851066  1
  Er  Er14  1  0.711968  0.250000  0.351066  1
  Er  Er15  1  0.211968  0.250000  0.148934  1
  Sc  Sc16  1  0.003181  0.750000  0.474568  1
  Sc  Sc17  1  0.503181  0.750000  0.025432  1
  Sc  Sc18  1  0.996819  0.250000  0.525432  1
  Sc  Sc19  1  0.496819  0.250000  0.974568  1
  Bi  Bi20  1  0.331626  0.509044  0.930379  1
  Bi  Bi21  1  0.831626  0.990956  0.569621  1
  Bi  Bi22  1  0.668374  0.009044  0.069621  1
  Bi  Bi23  1  0.168374  0.490956  0.430379  1
  Bi  Bi24  1  0.668374  0.490956  0.069621  1
  Bi  Bi25  1  0.168374  0.009044  0.430379  1
  Bi  Bi26  1  0.331626  0.990956  0.930379  1
  Bi  Bi27  1  0.831626  0.509044  0.569621  1
  Te  Te28  1  0.473574  0.750000  0.396754  1
  Te  Te29  1  0.973574  0.750000  0.103246  1
  Te  Te30  1  0.526426  0.250000  0.603246  1
  Te  Te31  1  0.026426  0.250000  0.896754  1
