# generated using pymatgen
data_Ac2MnSi3
_symmetry_space_group_name_H-M   'P 1'
_cell_length_a   8.45268000
_cell_length_b   8.45268034
_cell_length_c   4.56982600
_cell_angle_alpha   90.00000000
_cell_angle_beta   90.00000000
_cell_angle_gamma   119.99999868
_symmetry_Int_Tables_number   1
_chemical_formula_structural   Ac2MnSi3
_chemical_formula_sum   'Ac4 Mn2 Si6'
_cell_volume   282.76078246
_cell_formula_units_Z   2
loop_
 _symmetry_equiv_pos_site_id
 _symmetry_equiv_pos_as_xyz
  1  'x, y, z'
loop_
 _atom_site_type_symbol
 _atom_site_label
 _atom_site_symmetry_multiplicity
 _atom_site_fract_x
 _atom_site_fract_y
 _atom_site_fract_z
 _atom_site_occupancy
  Ac  Ac0  1  0.500000  0.500000  0.000000  1
  Ac  Ac1  1  0.000000  0.500000  0.000000  1
  Ac  Ac2  1  0.500000  0.000000  0.000000  1
  Ac  Ac3  1  0.000000  0.000000  0.000000  1
  Mn  Mn4  1  0.333333  0.666667  0.500000  1
  Mn  Mn5  1  0.666667  0.333333  0.500000  1
  Si  Si6  1  0.832284  0.664568  0.500000  1
  Si  Si7  1  0.167716  0.832284  0.500000  1
  Si  Si8  1  0.664568  0.832284  0.500000  1
  Si  Si9  1  0.167716  0.335432  0.500000  1
  Si  Si10  1  0.832284  0.167716  0.500000  1
  Si  Si11  1  0.335432  0.167716  0.500000  1
