# generated using pymatgen
data_Tb3ErTm4(CdIr)2
_symmetry_space_group_name_H-M   'P 1'
_cell_length_a   9.57113368
_cell_length_b   9.57113444
_cell_length_c   9.57475200
_cell_angle_alpha   59.98749622
_cell_angle_beta   59.98749357
_cell_angle_gamma   59.97545380
_symmetry_Int_Tables_number   1
_chemical_formula_structural   Tb3ErTm4(CdIr)2
_chemical_formula_sum   'Tb6 Er2 Tm8 Cd4 Ir4'
_cell_volume   619.97848918
_cell_formula_units_Z   2
loop_
 _symmetry_equiv_pos_site_id
 _symmetry_equiv_pos_as_xyz
  1  'x, y, z'
loop_
 _atom_site_type_symbol
 _atom_site_label
 _atom_site_symmetry_multiplicity
 _atom_site_fract_x
 _atom_site_fract_y
 _atom_site_fract_z
 _atom_site_occupancy
  Tb  Tb0  1  0.189425  0.810805  0.810713  1
  Tb  Tb1  1  0.810805  0.189425  0.189057  1
  Tb  Tb2  1  0.810805  0.189425  0.810713  1
  Tb  Tb3  1  0.189425  0.810805  0.189057  1
  Tb  Tb4  1  0.810928  0.810928  0.189072  1
  Tb  Tb5  1  0.189395  0.189395  0.810605  1
  Er  Er6  1  0.598758  0.598758  0.598175  1
  Er  Er7  1  0.598758  0.598758  0.204309  1
  Tm  Tm8  1  0.599060  0.204079  0.598430  1
  Tm  Tm9  1  0.204079  0.599060  0.598430  1
  Tm  Tm10  1  0.061259  0.437779  0.438846  1
  Tm  Tm11  1  0.437779  0.061259  0.062116  1
  Tm  Tm12  1  0.437779  0.061259  0.438846  1
  Tm  Tm13  1  0.061259  0.437779  0.062116  1
  Tm  Tm14  1  0.438311  0.438311  0.061689  1
  Tm  Tm15  1  0.061657  0.061657  0.438343  1
  Cd  Cd16  1  0.830428  0.830428  0.830358  1
  Cd  Cd17  1  0.830428  0.830428  0.508785  1
  Cd  Cd18  1  0.830685  0.508085  0.830615  1
  Cd  Cd19  1  0.508085  0.830685  0.830615  1
  Ir  Ir20  1  0.391751  0.391751  0.391403  1
  Ir  Ir21  1  0.391751  0.391751  0.825096  1
  Ir  Ir22  1  0.391654  0.825734  0.391306  1
  Ir  Ir23  1  0.825734  0.391654  0.391306  1
