# generated using pymatgen
data_NbV(RhSe4)2
_symmetry_space_group_name_H-M   'P 1'
_cell_length_a   3.56028700
_cell_length_b   11.93780100
_cell_length_c   12.86055500
_cell_angle_alpha   90.00000000
_cell_angle_beta   90.00000000
_cell_angle_gamma   90.00000000
_symmetry_Int_Tables_number   1
_chemical_formula_structural   NbV(RhSe4)2
_chemical_formula_sum   'Nb2 V2 Rh4 Se16'
_cell_volume   546.59927915
_cell_formula_units_Z   2
loop_
 _symmetry_equiv_pos_site_id
 _symmetry_equiv_pos_as_xyz
  1  'x, y, z'
loop_
 _atom_site_type_symbol
 _atom_site_label
 _atom_site_symmetry_multiplicity
 _atom_site_fract_x
 _atom_site_fract_y
 _atom_site_fract_z
 _atom_site_occupancy
  Nb  Nb0  1  0.500000  0.735232  0.994915  1
  Nb  Nb1  1  0.000000  0.264768  0.494915  1
  V  V2  1  0.500000  0.948746  0.499793  1
  V  V3  1  0.000000  0.051254  0.999793  1
  Rh  Rh4  1  0.500000  0.469338  0.498665  1
  Rh  Rh5  1  0.000000  0.530662  0.998665  1
  Rh  Rh6  1  0.500000  0.250315  0.994298  1
  Rh  Rh7  1  0.000000  0.749685  0.494298  1
  Se  Se8  1  0.500000  0.941285  0.900644  1
  Se  Se9  1  0.000000  0.058715  0.400644  1
  Se  Se10  1  0.500000  0.814853  0.366623  1
  Se  Se11  1  0.000000  0.185147  0.866623  1
  Se  Se12  1  0.500000  0.652656  0.595596  1
  Se  Se13  1  0.000000  0.347344  0.095596  1
  Se  Se14  1  0.500000  0.589267  0.131107  1
  Se  Se15  1  0.000000  0.410733  0.631107  1
  Se  Se16  1  0.500000  0.434293  0.896549  1
  Se  Se17  1  0.000000  0.565707  0.396549  1
  Se  Se18  1  0.500000  0.319361  0.358114  1
  Se  Se19  1  0.000000  0.680639  0.858114  1
  Se  Se20  1  0.500000  0.145054  0.598814  1
  Se  Se21  1  0.000000  0.854946  0.098814  1
  Se  Se22  1  0.500000  0.099671  0.128880  1
  Se  Se23  1  0.000000  0.900329  0.628880  1
