# generated using pymatgen
data_Rb4TmPaI12
_symmetry_space_group_name_H-M   'P 1'
_cell_length_a   8.39001100
_cell_length_b   8.39001100
_cell_length_c   12.69219200
_cell_angle_alpha   90.00000000
_cell_angle_beta   90.00000000
_cell_angle_gamma   90.00000000
_symmetry_Int_Tables_number   1
_chemical_formula_structural   Rb4TmPaI12
_chemical_formula_sum   'Rb4 Tm1 Pa1 I12'
_cell_volume   893.43239121
_cell_formula_units_Z   1
loop_
 _symmetry_equiv_pos_site_id
 _symmetry_equiv_pos_as_xyz
  1  'x, y, z'
loop_
 _atom_site_type_symbol
 _atom_site_label
 _atom_site_symmetry_multiplicity
 _atom_site_fract_x
 _atom_site_fract_y
 _atom_site_fract_z
 _atom_site_occupancy
  Rb  Rb0  1  0.000000  0.500000  0.193398  1
  Rb  Rb1  1  0.500000  0.000000  0.193398  1
  Rb  Rb2  1  0.000000  0.500000  0.806602  1
  Rb  Rb3  1  0.500000  0.000000  0.806602  1
  Tm  Tm4  1  0.000000  0.000000  0.000000  1
  Pa  Pa5  1  0.500000  0.500000  0.500000  1
  I  I6  1  0.000000  0.000000  0.236964  1
  I  I7  1  0.500000  0.500000  0.265294  1
  I  I8  1  0.000000  0.000000  0.763035  1
  I  I9  1  0.500000  0.500000  0.734706  1
  I  I10  1  0.253170  0.253454  0.000000  1
  I  I11  1  0.746546  0.253170  0.000000  1
  I  I12  1  0.253454  0.746830  0.000000  1
  I  I13  1  0.668932  0.191557  0.500000  1
  I  I14  1  0.331068  0.808443  0.500000  1
  I  I15  1  0.746830  0.746546  0.000000  1
  I  I16  1  0.808443  0.668932  0.500000  1
  I  I17  1  0.191557  0.331068  0.500000  1
