# generated using pymatgen
data_Lu5Ag4Au
_symmetry_space_group_name_H-M   'P 1'
_cell_length_a   3.55400800
_cell_length_b   3.55400800
_cell_length_c   17.87411400
_cell_angle_alpha   90.00000000
_cell_angle_beta   90.00000000
_cell_angle_gamma   90.00000000
_symmetry_Int_Tables_number   1
_chemical_formula_structural   Lu5Ag4Au
_chemical_formula_sum   'Lu5 Ag4 Au1'
_cell_volume   225.76744890
_cell_formula_units_Z   1
loop_
 _symmetry_equiv_pos_site_id
 _symmetry_equiv_pos_as_xyz
  1  'x, y, z'
loop_
 _atom_site_type_symbol
 _atom_site_label
 _atom_site_symmetry_multiplicity
 _atom_site_fract_x
 _atom_site_fract_y
 _atom_site_fract_z
 _atom_site_occupancy
  Lu  Lu0  1  0.500000  0.500000  0.098116  1
  Lu  Lu1  1  0.500000  0.500000  0.300869  1
  Lu  Lu2  1  0.500000  0.500000  0.500000  1
  Lu  Lu3  1  0.500000  0.500000  0.699131  1
  Lu  Lu4  1  0.500000  0.500000  0.901884  1
  Ag  Ag5  1  0.000000  0.000000  0.202148  1
  Ag  Ag6  1  0.000000  0.000000  0.401570  1
  Ag  Ag7  1  0.000000  0.000000  0.598430  1
  Ag  Ag8  1  0.000000  0.000000  0.797852  1
  Au  Au9  1  0.000000  0.000000  0.000000  1
