# generated using pymatgen
data_EuDyEr2(B6Os)2
_symmetry_space_group_name_H-M   'P 1'
_cell_length_a   3.65108600
_cell_length_b   9.16160646
_cell_length_c   11.56854610
_cell_angle_alpha   89.91606931
_cell_angle_beta   90.00000000
_cell_angle_gamma   90.00000000
_symmetry_Int_Tables_number   1
_chemical_formula_structural   EuDyEr2(B6Os)2
_chemical_formula_sum   'Eu2 Dy2 Er4 B24 Os4'
_cell_volume   386.96528950
_cell_formula_units_Z   2
loop_
 _symmetry_equiv_pos_site_id
 _symmetry_equiv_pos_as_xyz
  1  'x, y, z'
loop_
 _atom_site_type_symbol
 _atom_site_label
 _atom_site_symmetry_multiplicity
 _atom_site_fract_x
 _atom_site_fract_y
 _atom_site_fract_z
 _atom_site_occupancy
  Eu  Eu0  1  0.000000  0.323106  0.413816  1
  Eu  Eu1  1  0.000000  0.676894  0.586184  1
  Dy  Dy2  1  0.000000  0.821975  0.085879  1
  Dy  Dy3  1  0.000000  0.178025  0.914121  1
  Er  Er4  1  0.000000  0.943419  0.370921  1
  Er  Er5  1  0.000000  0.056581  0.629079  1
  Er  Er6  1  0.000000  0.443461  0.127898  1
  Er  Er7  1  0.000000  0.556539  0.872102  1
  B  B8  1  0.500000  0.555307  0.430707  1
  B  B9  1  0.500000  0.444693  0.569293  1
  B  B10  1  0.500000  0.053722  0.066861  1
  B  B11  1  0.500000  0.946278  0.933139  1
  B  B12  1  0.500000  0.749268  0.416998  1
  B  B13  1  0.500000  0.250732  0.583002  1
  B  B14  1  0.500000  0.248187  0.080563  1
  B  B15  1  0.500000  0.751813  0.919437  1
  B  B16  1  0.500000  0.791790  0.264530  1
  B  B17  1  0.500000  0.208210  0.735470  1
  B  B18  1  0.500000  0.289926  0.232305  1
  B  B19  1  0.500000  0.710074  0.767695  1
  B  B20  1  0.500000  0.631850  0.184257  1
  B  B21  1  0.500000  0.368150  0.815743  1
  B  B22  1  0.500000  0.130212  0.313300  1
  B  B23  1  0.500000  0.869788  0.686700  1
  B  B24  1  0.500000  0.982963  0.211883  1
  B  B25  1  0.500000  0.017037  0.788117  1
  B  B26  1  0.500000  0.484922  0.285777  1
  B  B27  1  0.500000  0.515078  0.714223  1
  B  B28  1  0.500000  0.605816  0.028963  1
  B  B29  1  0.500000  0.394184  0.971037  1
  B  B30  1  0.500000  0.100357  0.472356  1
  B  B31  1  0.500000  0.899643  0.527644  1
  Os  Os32  1  0.000000  0.640906  0.317725  1
  Os  Os33  1  0.000000  0.359094  0.682275  1
  Os  Os34  1  0.000000  0.136756  0.177701  1
  Os  Os35  1  0.000000  0.863244  0.822299  1
