# generated using pymatgen
data_Pu2InAu2
_symmetry_space_group_name_H-M   'P 1'
_cell_length_a   8.00783500
_cell_length_b   8.00783500
_cell_length_c   3.90300900
_cell_angle_alpha   90.00000000
_cell_angle_beta   90.00000000
_cell_angle_gamma   90.00000000
_symmetry_Int_Tables_number   1
_chemical_formula_structural   Pu2InAu2
_chemical_formula_sum   'Pu4 In2 Au4'
_cell_volume   250.28209680
_cell_formula_units_Z   2
loop_
 _symmetry_equiv_pos_site_id
 _symmetry_equiv_pos_as_xyz
  1  'x, y, z'
loop_
 _atom_site_type_symbol
 _atom_site_label
 _atom_site_symmetry_multiplicity
 _atom_site_fract_x
 _atom_site_fract_y
 _atom_site_fract_z
 _atom_site_occupancy
  Pu  Pu0  1  0.326933  0.173066  0.500000  1
  Pu  Pu1  1  0.826934  0.326933  0.500000  1
  Pu  Pu2  1  0.173066  0.673067  0.500000  1
  Pu  Pu3  1  0.673067  0.826934  0.500000  1
  In  In4  1  0.000000  0.000000  0.000000  1
  In  In5  1  0.500001  0.500001  0.000000  1
  Au  Au6  1  0.627297  0.127296  0.000000  1
  Au  Au7  1  0.127296  0.372703  0.000000  1
  Au  Au8  1  0.872704  0.627297  0.000000  1
  Au  Au9  1  0.372703  0.872704  0.000000  1
