# generated using pymatgen
data_Y5Lu5(InSn2)2
_symmetry_space_group_name_H-M   'P 1'
_cell_length_a   6.50349648
_cell_length_b   8.91752069
_cell_length_c   8.91666068
_cell_angle_alpha   120.05146297
_cell_angle_beta   89.99379613
_cell_angle_gamma   90.00877248
_symmetry_Int_Tables_number   1
_chemical_formula_structural   Y5Lu5(InSn2)2
_chemical_formula_sum   'Y5 Lu5 In2 Sn4'
_cell_volume   447.60863254
_cell_formula_units_Z   1
loop_
 _symmetry_equiv_pos_site_id
 _symmetry_equiv_pos_as_xyz
  1  'x, y, z'
loop_
 _atom_site_type_symbol
 _atom_site_label
 _atom_site_symmetry_multiplicity
 _atom_site_fract_x
 _atom_site_fract_y
 _atom_site_fract_z
 _atom_site_occupancy
  Y  Y0  1  0.750127  0.238049  0.998704  1
  Y  Y1  1  0.750025  0.763073  0.761721  1
  Y  Y2  1  0.750094  0.000178  0.241256  1
  Y  Y3  1  0.249981  0.761494  0.000635  1
  Y  Y4  1  0.250077  0.237018  0.237858  1
  Lu  Lu5  1  0.499946  0.333418  0.666310  1
  Lu  Lu6  1  0.499929  0.666705  0.333829  1
  Lu  Lu7  1  0.000067  0.666321  0.333158  1
  Lu  Lu8  1  0.000090  0.333904  0.666893  1
  Lu  Lu9  1  0.250053  0.999816  0.760760  1
  In  In10  1  0.750415  0.999723  0.598108  1
  In  In11  1  0.249799  0.000292  0.402275  1
  Sn  Sn12  1  0.749422  0.601644  0.998844  1
  Sn  Sn13  1  0.750109  0.398680  0.397553  1
  Sn  Sn14  1  0.250156  0.395769  0.999262  1
  Sn  Sn15  1  0.249713  0.603923  0.602833  1
