# generated using pymatgen
data_Ho9Tm7Cd4(OsPt)2
_symmetry_space_group_name_H-M   'P 1'
_cell_length_a   9.60274141
_cell_length_b   9.60430974
_cell_length_c   9.65433515
_cell_angle_alpha   59.46037690
_cell_angle_beta   59.47048297
_cell_angle_gamma   59.42527479
_symmetry_Int_Tables_number   1
_chemical_formula_structural   Ho9Tm7Cd4(OsPt)2
_chemical_formula_sum   'Ho9 Tm7 Cd4 Os2 Pt2'
_cell_volume   621.75724052
_cell_formula_units_Z   1
loop_
 _symmetry_equiv_pos_site_id
 _symmetry_equiv_pos_as_xyz
  1  'x, y, z'
loop_
 _atom_site_type_symbol
 _atom_site_label
 _atom_site_symmetry_multiplicity
 _atom_site_fract_x
 _atom_site_fract_y
 _atom_site_fract_z
 _atom_site_occupancy
  Ho  Ho0  1  0.065042  0.436769  0.056661  1
  Ho  Ho1  1  0.438188  0.437811  0.061116  1
  Ho  Ho2  1  0.058433  0.058395  0.441414  1
  Ho  Ho3  1  0.189409  0.806489  0.816212  1
  Ho  Ho4  1  0.806020  0.187936  0.189380  1
  Ho  Ho5  1  0.806186  0.189318  0.816450  1
  Ho  Ho6  1  0.188105  0.806182  0.189070  1
  Ho  Ho7  1  0.814002  0.814178  0.187398  1
  Ho  Ho8  1  0.190808  0.190248  0.809583  1
  Tm  Tm9  1  0.599659  0.599831  0.601379  1
  Tm  Tm10  1  0.600587  0.601413  0.198033  1
  Tm  Tm11  1  0.596040  0.204620  0.600332  1
  Tm  Tm12  1  0.205096  0.596103  0.599495  1
  Tm  Tm13  1  0.064011  0.438248  0.440370  1
  Tm  Tm14  1  0.437059  0.064861  0.056796  1
  Tm  Tm15  1  0.438063  0.064090  0.440135  1
  Cd  Cd16  1  0.829041  0.829435  0.831126  1
  Cd  Cd17  1  0.829823  0.829788  0.507864  1
  Cd  Cd18  1  0.830896  0.505350  0.831217  1
  Cd  Cd19  1  0.505469  0.830865  0.831315  1
  Os  Os20  1  0.394259  0.394373  0.388975  1
  Os  Os21  1  0.395434  0.394593  0.822561  1
  Pt  Pt22  1  0.395177  0.823978  0.391035  1
  Pt  Pt23  1  0.823189  0.395125  0.392083  1
