# generated using pymatgen
data_CeNd6LuAlPd24
_symmetry_space_group_name_H-M   'P 1'
_cell_length_a   8.45639193
_cell_length_b   8.46632982
_cell_length_c   8.46632948
_cell_angle_alpha   89.69023990
_cell_angle_beta   90.05175624
_cell_angle_gamma   90.05176703
_symmetry_Int_Tables_number   1
_chemical_formula_structural   CeNd6LuAlPd24
_chemical_formula_sum   'Ce1 Nd6 Lu1 Al1 Pd24'
_cell_volume   606.13414919
_cell_formula_units_Z   1
loop_
 _symmetry_equiv_pos_site_id
 _symmetry_equiv_pos_as_xyz
  1  'x, y, z'
loop_
 _atom_site_type_symbol
 _atom_site_label
 _atom_site_symmetry_multiplicity
 _atom_site_fract_x
 _atom_site_fract_y
 _atom_site_fract_z
 _atom_site_occupancy
  Ce  Ce0  1  0.745629  0.255058  0.255058  1
  Nd  Nd1  1  0.748165  0.747618  0.747618  1
  Nd  Nd2  1  0.747865  0.749888  0.252058  1
  Nd  Nd3  1  0.747865  0.252058  0.749888  1
  Nd  Nd4  1  0.252375  0.251969  0.748258  1
  Nd  Nd5  1  0.252375  0.748258  0.251969  1
  Nd  Nd6  1  0.252520  0.747287  0.747287  1
  Lu  Lu7  1  0.250963  0.252831  0.252831  1
  Al  Al8  1  0.001236  0.996427  0.996427  1
  Pd  Pd9  1  0.259677  0.496053  0.004118  1
  Pd  Pd10  1  0.740411  0.496530  0.005622  1
  Pd  Pd11  1  0.998755  0.259809  0.495122  1
  Pd  Pd12  1  0.500036  0.259978  0.009044  1
  Pd  Pd13  1  0.000321  0.740507  0.498121  1
  Pd  Pd14  1  0.500370  0.740399  0.999996  1
  Pd  Pd15  1  0.500036  0.009044  0.259978  1
  Pd  Pd16  1  0.259677  0.004118  0.496053  1
  Pd  Pd17  1  0.500370  0.999996  0.740399  1
  Pd  Pd18  1  0.740411  0.005622  0.496530  1
  Pd  Pd19  1  0.998755  0.495122  0.259809  1
  Pd  Pd20  1  0.000321  0.498121  0.740507  1
  Pd  Pd21  1  0.252512  0.495936  0.495936  1
  Pd  Pd22  1  0.746702  0.496644  0.496644  1
  Pd  Pd23  1  0.499717  0.253438  0.494245  1
  Pd  Pd24  1  0.500229  0.747594  0.499066  1
  Pd  Pd25  1  0.499717  0.494245  0.253438  1
  Pd  Pd26  1  0.500229  0.499066  0.747594  1
  Pd  Pd27  1  0.290091  0.003299  0.003299  1
  Pd  Pd28  1  0.711040  0.003115  0.003115  1
  Pd  Pd29  1  0.000479  0.286085  0.006791  1
  Pd  Pd30  1  0.000333  0.707277  0.999815  1
  Pd  Pd31  1  0.000479  0.006791  0.286085  1
  Pd  Pd32  1  0.000333  0.999815  0.707277  1
