# generated using pymatgen
data_Er3Al10(SiOs2)2
_symmetry_space_group_name_H-M   'P 1'
_cell_length_a   8.68097800
_cell_length_b   8.68097845
_cell_length_c   9.61861400
_cell_angle_alpha   90.00000000
_cell_angle_beta   90.00000000
_cell_angle_gamma   119.99999828
_symmetry_Int_Tables_number   1
_chemical_formula_structural   Er3Al10(SiOs2)2
_chemical_formula_sum   'Er6 Al20 Si4 Os8'
_cell_volume   627.74096356
_cell_formula_units_Z   2
loop_
 _symmetry_equiv_pos_site_id
 _symmetry_equiv_pos_as_xyz
  1  'x, y, z'
loop_
 _atom_site_type_symbol
 _atom_site_label
 _atom_site_symmetry_multiplicity
 _atom_site_fract_x
 _atom_site_fract_y
 _atom_site_fract_z
 _atom_site_occupancy
  Er  Er0  1  0.195874  0.391746  0.250000  1
  Er  Er1  1  0.804126  0.608254  0.750000  1
  Er  Er2  1  0.608254  0.804126  0.250000  1
  Er  Er3  1  0.391746  0.195874  0.750000  1
  Er  Er4  1  0.195874  0.804126  0.250000  1
  Er  Er5  1  0.804126  0.195874  0.750000  1
  Al  Al6  1  0.164981  0.329962  0.577111  1
  Al  Al7  1  0.835019  0.670038  0.422889  1
  Al  Al8  1  0.670038  0.835019  0.577111  1
  Al  Al9  1  0.835019  0.670038  0.077111  1
  Al  Al10  1  0.329962  0.164981  0.422889  1
  Al  Al11  1  0.164981  0.329962  0.922889  1
  Al  Al12  1  0.164981  0.835019  0.577111  1
  Al  Al13  1  0.329962  0.164981  0.077111  1
  Al  Al14  1  0.835019  0.164981  0.422889  1
  Al  Al15  1  0.670038  0.835019  0.922889  1
  Al  Al16  1  0.835019  0.164981  0.077111  1
  Al  Al17  1  0.164981  0.835019  0.922889  1
  Al  Al18  1  0.563457  0.126915  0.250000  1
  Al  Al19  1  0.436543  0.873085  0.750000  1
  Al  Al20  1  0.873085  0.436543  0.250000  1
  Al  Al21  1  0.126915  0.563457  0.750000  1
  Al  Al22  1  0.563457  0.436543  0.250000  1
  Al  Al23  1  0.436543  0.563457  0.750000  1
  Al  Al24  1  0.000000  0.000000  0.250000  1
  Al  Al25  1  0.000000  0.000000  0.750000  1
  Si  Si26  1  0.333333  0.666667  0.038274  1
  Si  Si27  1  0.666667  0.333333  0.961726  1
  Si  Si28  1  0.666667  0.333333  0.538274  1
  Si  Si29  1  0.333333  0.666667  0.461726  1
  Os  Os30  1  0.500000  0.000000  0.000000  1
  Os  Os31  1  0.000000  0.500000  0.000000  1
  Os  Os32  1  0.500000  0.000000  0.500000  1
  Os  Os33  1  0.500000  0.500000  0.000000  1
  Os  Os34  1  0.000000  0.500000  0.500000  1
  Os  Os35  1  0.500000  0.500000  0.500000  1
  Os  Os36  1  0.000000  0.000000  0.000000  1
  Os  Os37  1  0.000000  0.000000  0.500000  1
