# generated using pymatgen
data_Tb20Bi8Os3Pt
_symmetry_space_group_name_H-M   'P 1'
_cell_length_a   8.02750089
_cell_length_b   9.07031300
_cell_length_c   12.54123139
_cell_angle_alpha   90.00000000
_cell_angle_beta   89.94596157
_cell_angle_gamma   90.00000000
_symmetry_Int_Tables_number   1
_chemical_formula_structural   Tb20Bi8Os3Pt
_chemical_formula_sum   'Tb20 Bi8 Os3 Pt1'
_cell_volume   913.15105321
_cell_formula_units_Z   1
loop_
 _symmetry_equiv_pos_site_id
 _symmetry_equiv_pos_as_xyz
  1  'x, y, z'
loop_
 _atom_site_type_symbol
 _atom_site_label
 _atom_site_symmetry_multiplicity
 _atom_site_fract_x
 _atom_site_fract_y
 _atom_site_fract_z
 _atom_site_occupancy
  Tb  Tb0  1  0.843087  0.750000  0.794176  1
  Tb  Tb1  1  0.158627  0.250000  0.207850  1
  Tb  Tb2  1  0.340230  0.250000  0.707129  1
  Tb  Tb3  1  0.663815  0.750000  0.289323  1
  Tb  Tb4  1  0.371908  0.750000  0.696941  1
  Tb  Tb5  1  0.623522  0.250000  0.306247  1
  Tb  Tb6  1  0.878820  0.250000  0.805076  1
  Tb  Tb7  1  0.123583  0.750000  0.195394  1
  Tb  Tb8  1  0.949587  0.750000  0.502244  1
  Tb  Tb9  1  0.051810  0.250000  0.497548  1
  Tb  Tb10  1  0.440486  0.250000  0.996153  1
  Tb  Tb11  1  0.556494  0.750000  0.002338  1
  Tb  Tb12  1  0.678455  0.049372  0.566003  1
  Tb  Tb13  1  0.322975  0.963451  0.434071  1
  Tb  Tb14  1  0.175099  0.957038  0.936546  1
  Tb  Tb15  1  0.322975  0.536549  0.434071  1
  Tb  Tb16  1  0.824930  0.041059  0.063647  1
  Tb  Tb17  1  0.678455  0.450628  0.566003  1
  Tb  Tb18  1  0.824930  0.458941  0.063647  1
  Tb  Tb19  1  0.175099  0.542962  0.936546  1
  Bi  Bi20  1  0.569322  0.491264  0.826605  1
  Bi  Bi21  1  0.431494  0.508678  0.172378  1
  Bi  Bi22  1  0.069069  0.508869  0.672280  1
  Bi  Bi23  1  0.431494  0.991322  0.172378  1
  Bi  Bi24  1  0.929707  0.491112  0.327565  1
  Bi  Bi25  1  0.569322  0.008736  0.826605  1
  Bi  Bi26  1  0.929707  0.008888  0.327565  1
  Bi  Bi27  1  0.069069  0.991131  0.672280  1
  Os  Os28  1  0.424557  0.250000  0.488693  1
  Os  Os29  1  0.075140  0.250000  0.989179  1
  Os  Os30  1  0.923591  0.750000  0.012943  1
  Pt  Pt31  1  0.572644  0.750000  0.510576  1
