# generated using pymatgen
data_Nd3FeCo7ReP6
_symmetry_space_group_name_H-M   'P 1'
_cell_length_a   3.76424300
_cell_length_b   10.62525300
_cell_length_c   12.32890500
_cell_angle_alpha   90.00000000
_cell_angle_beta   90.00000000
_cell_angle_gamma   90.00000000
_symmetry_Int_Tables_number   1
_chemical_formula_structural   Nd3FeCo7ReP6
_chemical_formula_sum   'Nd6 Fe2 Co14 Re2 P12'
_cell_volume   493.10730638
_cell_formula_units_Z   2
loop_
 _symmetry_equiv_pos_site_id
 _symmetry_equiv_pos_as_xyz
  1  'x, y, z'
loop_
 _atom_site_type_symbol
 _atom_site_label
 _atom_site_symmetry_multiplicity
 _atom_site_fract_x
 _atom_site_fract_y
 _atom_site_fract_z
 _atom_site_occupancy
  Nd  Nd0  1  0.000000  0.500000  0.523516  1
  Nd  Nd1  1  0.500000  0.000000  0.476484  1
  Nd  Nd2  1  0.500000  0.818745  0.204590  1
  Nd  Nd3  1  0.500000  0.181255  0.204590  1
  Nd  Nd4  1  0.000000  0.681255  0.795410  1
  Nd  Nd5  1  0.000000  0.318745  0.795410  1
  Fe  Fe6  1  0.000000  0.500000  0.988687  1
  Fe  Fe7  1  0.500000  0.000000  0.011313  1
  Co  Co8  1  0.500000  0.500000  0.701927  1
  Co  Co9  1  0.000000  0.000000  0.298073  1
  Co  Co10  1  0.500000  0.331278  0.992167  1
  Co  Co11  1  0.500000  0.668722  0.992167  1
  Co  Co12  1  0.000000  0.168722  0.007833  1
  Co  Co13  1  0.000000  0.831278  0.007833  1
  Co  Co14  1  0.500000  0.296443  0.430232  1
  Co  Co15  1  0.500000  0.703557  0.430232  1
  Co  Co16  1  0.000000  0.203557  0.569768  1
  Co  Co17  1  0.000000  0.796443  0.569768  1
  Co  Co18  1  0.500000  0.881139  0.710021  1
  Co  Co19  1  0.500000  0.118861  0.710021  1
  Co  Co20  1  0.000000  0.618861  0.289979  1
  Co  Co21  1  0.000000  0.381139  0.289979  1
  Re  Re22  1  0.500000  0.500000  0.154465  1
  Re  Re23  1  0.000000  0.000000  0.845535  1
  P  P24  1  0.500000  0.500000  0.885871  1
  P  P25  1  0.000000  0.000000  0.114129  1
  P  P26  1  0.500000  0.500000  0.343673  1
  P  P27  1  0.000000  0.000000  0.656327  1
  P  P28  1  0.500000  0.307338  0.614580  1
  P  P29  1  0.500000  0.692662  0.614580  1
  P  P30  1  0.000000  0.192662  0.385420  1
  P  P31  1  0.000000  0.807338  0.385420  1
  P  P32  1  0.500000  0.848176  0.895764  1
  P  P33  1  0.500000  0.151824  0.895764  1
  P  P34  1  0.000000  0.651824  0.104236  1
  P  P35  1  0.000000  0.348176  0.104236  1
