# generated using pymatgen
data_Tm5GaCo5
_symmetry_space_group_name_H-M   'P 1'
_cell_length_a   5.38982644
_cell_length_b   5.38982720
_cell_length_c   20.36045600
_cell_angle_alpha   90.00000000
_cell_angle_beta   90.00000000
_cell_angle_gamma   136.72210795
_symmetry_Int_Tables_number   1
_chemical_formula_structural   Tm5GaCo5
_chemical_formula_sum   'Tm10 Ga2 Co10'
_cell_volume   405.47896548
_cell_formula_units_Z   2
loop_
 _symmetry_equiv_pos_site_id
 _symmetry_equiv_pos_as_xyz
  1  'x, y, z'
loop_
 _atom_site_type_symbol
 _atom_site_label
 _atom_site_symmetry_multiplicity
 _atom_site_fract_x
 _atom_site_fract_y
 _atom_site_fract_z
 _atom_site_occupancy
  Tm  Tm0  1  0.288735  0.711265  0.250000  1
  Tm  Tm1  1  0.291190  0.708810  0.066014  1
  Tm  Tm2  1  0.998386  0.001614  0.842629  1
  Tm  Tm3  1  0.711265  0.288735  0.750000  1
  Tm  Tm4  1  0.708810  0.291190  0.566014  1
  Tm  Tm5  1  0.001614  0.998386  0.342629  1
  Tm  Tm6  1  0.998386  0.001614  0.657371  1
  Tm  Tm7  1  0.708810  0.291190  0.933986  1
  Tm  Tm8  1  0.001614  0.998386  0.157371  1
  Tm  Tm9  1  0.291190  0.708810  0.433986  1
  Ga  Ga10  1  0.000000  0.000000  0.500000  1
  Ga  Ga11  1  0.000000  0.000000  0.000000  1
  Co  Co12  1  0.293891  0.706109  0.654544  1
  Co  Co13  1  0.582501  0.417499  0.441364  1
  Co  Co14  1  0.415073  0.584927  0.750000  1
  Co  Co15  1  0.417499  0.582501  0.941364  1
  Co  Co16  1  0.584927  0.415073  0.250000  1
  Co  Co17  1  0.417499  0.582501  0.558636  1
  Co  Co18  1  0.706109  0.293891  0.345456  1
  Co  Co19  1  0.706109  0.293891  0.154544  1
  Co  Co20  1  0.582501  0.417499  0.058636  1
  Co  Co21  1  0.293891  0.706109  0.845456  1
