# generated using pymatgen
data_DyHf2Sc(Al3Rh)6
_symmetry_space_group_name_H-M   'P 1'
_cell_length_a   7.48755401
_cell_length_b   7.48212915
_cell_length_c   9.30635700
_cell_angle_alpha   90.00000000
_cell_angle_beta   90.00000000
_cell_angle_gamma   119.67844406
_symmetry_Int_Tables_number   1
_chemical_formula_structural   DyHf2Sc(Al3Rh)6
_chemical_formula_sum   'Dy1 Hf2 Sc1 Al18 Rh6'
_cell_volume   452.97435433
_cell_formula_units_Z   1
loop_
 _symmetry_equiv_pos_site_id
 _symmetry_equiv_pos_as_xyz
  1  'x, y, z'
loop_
 _atom_site_type_symbol
 _atom_site_label
 _atom_site_symmetry_multiplicity
 _atom_site_fract_x
 _atom_site_fract_y
 _atom_site_fract_z
 _atom_site_occupancy
  Dy  Dy0  1  0.327951  0.005729  0.250000  1
  Hf  Hf1  1  0.005798  0.329178  0.250000  1
  Hf  Hf2  1  0.671361  0.994505  0.750000  1
  Sc  Sc3  1  0.994580  0.672648  0.750000  1
  Al  Al4  1  0.120924  0.123168  0.750000  1
  Al  Al5  1  0.871998  0.875660  0.250000  1
  Al  Al6  1  0.996385  0.334619  0.579461  1
  Al  Al7  1  0.999761  0.662298  0.425983  1
  Al  Al8  1  0.999761  0.662298  0.074017  1
  Al  Al9  1  0.335290  0.996997  0.917299  1
  Al  Al10  1  0.996385  0.334619  0.920539  1
  Al  Al11  1  0.668055  0.002294  0.074079  1
  Al  Al12  1  0.668055  0.002294  0.425921  1
  Al  Al13  1  0.335290  0.996997  0.582701  1
  Al  Al14  1  0.331363  0.333971  0.053733  1
  Al  Al15  1  0.669204  0.669245  0.938400  1
  Al  Al16  1  0.669204  0.669245  0.561600  1
  Al  Al17  1  0.331363  0.333971  0.446267  1
  Al  Al18  1  0.339944  0.554886  0.750000  1
  Al  Al19  1  0.666354  0.451212  0.250000  1
  Al  Al20  1  0.555387  0.338240  0.750000  1
  Al  Al21  1  0.445700  0.656058  0.250000  1
  Rh  Rh22  1  0.672624  0.326826  0.500297  1
  Rh  Rh23  1  0.327984  0.672551  0.500402  1
  Rh  Rh24  1  0.327984  0.672551  0.999598  1
  Rh  Rh25  1  0.672624  0.326826  0.999703  1
  Rh  Rh26  1  0.999335  0.000556  0.500272  1
  Rh  Rh27  1  0.999335  0.000556  0.999728  1
