# generated using pymatgen
data_Yb2Pr3Ir2
_symmetry_space_group_name_H-M   'P 1'
_cell_length_a   8.77921274
_cell_length_b   8.77921268
_cell_length_c   7.46337457
_cell_angle_alpha   83.55336096
_cell_angle_beta   83.55336089
_cell_angle_gamma   45.06528652
_symmetry_Int_Tables_number   1
_chemical_formula_structural   Yb2Pr3Ir2
_chemical_formula_sum   'Yb4 Pr6 Ir4'
_cell_volume   404.19704357
_cell_formula_units_Z   2
loop_
 _symmetry_equiv_pos_site_id
 _symmetry_equiv_pos_as_xyz
  1  'x, y, z'
loop_
 _atom_site_type_symbol
 _atom_site_label
 _atom_site_symmetry_multiplicity
 _atom_site_fract_x
 _atom_site_fract_y
 _atom_site_fract_z
 _atom_site_occupancy
  Yb  Yb0  1  0.017045  0.801943  0.915450  1
  Yb  Yb1  1  0.198057  0.982955  0.584550  1
  Yb  Yb2  1  0.982955  0.198057  0.084550  1
  Yb  Yb3  1  0.801943  0.017045  0.415450  1
  Pr  Pr4  1  0.344383  0.215092  0.817034  1
  Pr  Pr5  1  0.784908  0.655617  0.682966  1
  Pr  Pr6  1  0.655617  0.784908  0.182966  1
  Pr  Pr7  1  0.215092  0.344383  0.317034  1
  Pr  Pr8  1  0.567168  0.432832  0.750000  1
  Pr  Pr9  1  0.432832  0.567168  0.250000  1
  Ir  Ir10  1  0.177792  0.596377  0.573745  1
  Ir  Ir11  1  0.403623  0.822208  0.926255  1
  Ir  Ir12  1  0.822208  0.403623  0.426255  1
  Ir  Ir13  1  0.596377  0.177792  0.073745  1
