# generated using pymatgen
data_CsYb(CO3)2
_symmetry_space_group_name_H-M   'P 1'
_cell_length_a   7.28388924
_cell_length_b   7.28383365
_cell_length_c   7.28387431
_cell_angle_alpha   44.08205461
_cell_angle_beta   44.08120904
_cell_angle_gamma   44.08171058
_symmetry_Int_Tables_number   1
_chemical_formula_structural   CsYb(CO3)2
_chemical_formula_sum   'Cs1 Yb1 C2 O6'
_cell_volume   169.90176466
_cell_formula_units_Z   1
loop_
 _symmetry_equiv_pos_site_id
 _symmetry_equiv_pos_as_xyz
  1  'x, y, z'
loop_
 _atom_site_type_symbol
 _atom_site_label
 _atom_site_symmetry_multiplicity
 _atom_site_fract_x
 _atom_site_fract_y
 _atom_site_fract_z
 _atom_site_occupancy
  Cs  Cs0  1  0.000000  0.000000  0.000000  1
  Yb  Yb1  1  0.500000  0.500000  0.500000  1
  C  C2  1  0.234721  0.234745  0.234732  1
  C  C3  1  0.765279  0.765255  0.765268  1
  O  O4  1  0.628396  0.628340  0.036637  1
  O  O5  1  0.963349  0.371655  0.371626  1
  O  O6  1  0.371611  0.963379  0.371638  1
  O  O7  1  0.628389  0.036621  0.628362  1
  O  O8  1  0.036651  0.628345  0.628374  1
  O  O9  1  0.371604  0.371660  0.963363  1
