# generated using pymatgen
data_Ca2TmGa8Ag3
_symmetry_space_group_name_H-M   'P 1'
_cell_length_a   4.39607966
_cell_length_b   8.37796798
_cell_length_c   8.37796827
_cell_angle_alpha   71.18050695
_cell_angle_beta   74.78988369
_cell_angle_gamma   74.78988890
_symmetry_Int_Tables_number   1
_chemical_formula_structural   Ca2TmGa8Ag3
_chemical_formula_sum   'Ca2 Tm1 Ga8 Ag3'
_cell_volume   276.44866576
_cell_formula_units_Z   1
loop_
 _symmetry_equiv_pos_site_id
 _symmetry_equiv_pos_as_xyz
  1  'x, y, z'
loop_
 _atom_site_type_symbol
 _atom_site_label
 _atom_site_symmetry_multiplicity
 _atom_site_fract_x
 _atom_site_fract_y
 _atom_site_fract_z
 _atom_site_occupancy
  Ca  Ca0  1  0.500068  0.499932  0.499932  1
  Ca  Ca1  1  0.201122  0.798878  0.798878  1
  Tm  Tm2  1  0.796386  0.203614  0.203614  1
  Ga  Ga3  1  0.357828  0.358619  0.925724  1
  Ga  Ga4  1  0.644427  0.634718  0.076428  1
  Ga  Ga5  1  0.357828  0.925724  0.358619  1
  Ga  Ga6  1  0.644427  0.076428  0.634718  1
  Ga  Ga7  1  0.160418  0.470639  0.208525  1
  Ga  Ga8  1  0.839256  0.526509  0.794978  1
  Ga  Ga9  1  0.160418  0.208525  0.470639  1
  Ga  Ga10  1  0.839256  0.794978  0.526509  1
  Ag  Ag11  1  0.498928  0.001072  0.001072  1
  Ag  Ag12  1  0.999818  0.809057  0.191306  1
  Ag  Ag13  1  0.999818  0.191306  0.809057  1
