# generated using pymatgen
data_Tb2Y2Al17GaRh6
_symmetry_space_group_name_H-M   'P 1'
_cell_length_a   7.54129822
_cell_length_b   7.54129317
_cell_length_c   9.51063600
_cell_angle_alpha   90.00000000
_cell_angle_beta   90.00000000
_cell_angle_gamma   119.34299610
_symmetry_Int_Tables_number   1
_chemical_formula_structural   Tb2Y2Al17GaRh6
_chemical_formula_sum   'Tb2 Y2 Al17 Ga1 Rh6'
_cell_volume   471.48668672
_cell_formula_units_Z   1
loop_
 _symmetry_equiv_pos_site_id
 _symmetry_equiv_pos_as_xyz
  1  'x, y, z'
loop_
 _atom_site_type_symbol
 _atom_site_label
 _atom_site_symmetry_multiplicity
 _atom_site_fract_x
 _atom_site_fract_y
 _atom_site_fract_z
 _atom_site_occupancy
  Tb  Tb0  1  0.993871  0.673820  0.250000  1
  Tb  Tb1  1  0.673820  0.993872  0.250000  1
  Y  Y2  1  0.005387  0.328602  0.750000  1
  Y  Y3  1  0.328603  0.005386  0.750000  1
  Al  Al4  1  0.870873  0.870872  0.750000  1
  Al  Al5  1  0.001469  0.335733  0.073275  1
  Al  Al6  1  0.998780  0.664617  0.926190  1
  Al  Al7  1  0.998780  0.664617  0.573810  1
  Al  Al8  1  0.335732  0.001469  0.426725  1
  Al  Al9  1  0.001469  0.335733  0.426725  1
  Al  Al10  1  0.664617  0.998779  0.573810  1
  Al  Al11  1  0.664617  0.998779  0.926190  1
  Al  Al12  1  0.335732  0.001469  0.073275  1
  Al  Al13  1  0.333389  0.333390  0.551917  1
  Al  Al14  1  0.665664  0.665664  0.450752  1
  Al  Al15  1  0.665664  0.665664  0.049248  1
  Al  Al16  1  0.333389  0.333390  0.948083  1
  Al  Al17  1  0.338265  0.549370  0.250000  1
  Al  Al18  1  0.661089  0.450849  0.750000  1
  Al  Al19  1  0.549368  0.338265  0.250000  1
  Al  Al20  1  0.450848  0.661089  0.750000  1
  Ga  Ga21  1  0.132152  0.132146  0.250000  1
  Rh  Rh22  1  0.671269  0.327549  0.000165  1
  Rh  Rh23  1  0.327548  0.671271  0.000166  1
  Rh  Rh24  1  0.327548  0.671271  0.499834  1
  Rh  Rh25  1  0.671269  0.327549  0.499835  1
  Rh  Rh26  1  0.999393  0.999393  0.997674  1
  Rh  Rh27  1  0.999393  0.999393  0.502326  1
