# generated using pymatgen
data_Tb7Lu3(In2Rh)4
_symmetry_space_group_name_H-M   'P 1'
_cell_length_a   3.64846100
_cell_length_b   8.01611341
_cell_length_c   18.21520943
_cell_angle_alpha   89.99559463
_cell_angle_beta   90.00000000
_cell_angle_gamma   90.00000000
_symmetry_Int_Tables_number   1
_chemical_formula_structural   Tb7Lu3(In2Rh)4
_chemical_formula_sum   'Tb7 Lu3 In8 Rh4'
_cell_volume   532.73070516
_cell_formula_units_Z   1
loop_
 _symmetry_equiv_pos_site_id
 _symmetry_equiv_pos_as_xyz
  1  'x, y, z'
loop_
 _atom_site_type_symbol
 _atom_site_label
 _atom_site_symmetry_multiplicity
 _atom_site_fract_x
 _atom_site_fract_y
 _atom_site_fract_z
 _atom_site_occupancy
  Tb  Tb0  1  0.000000  0.616768  0.088450  1
  Tb  Tb1  1  0.000000  0.244564  0.220690  1
  Tb  Tb2  1  0.000000  0.756745  0.779901  1
  Tb  Tb3  1  0.000000  0.256760  0.718832  1
  Tb  Tb4  1  0.000000  0.743554  0.281430  1
  Tb  Tb5  1  0.000000  0.999508  0.999279  1
  Tb  Tb6  1  0.000000  0.499708  0.500439  1
  Lu  Lu7  1  0.000000  0.115274  0.410624  1
  Lu  Lu8  1  0.000000  0.884459  0.589598  1
  Lu  Lu9  1  0.000000  0.384056  0.909482  1
  In  In10  1  0.500000  0.420775  0.350783  1
  In  In11  1  0.500000  0.579701  0.650574  1
  In  In12  1  0.500000  0.078624  0.848567  1
  In  In13  1  0.500000  0.925883  0.151324  1
  In  In14  1  0.500000  0.293885  0.065608  1
  In  In15  1  0.500000  0.702565  0.932703  1
  In  In16  1  0.500000  0.200591  0.564528  1
  In  In17  1  0.500000  0.798970  0.435739  1
  Rh  Rh18  1  0.500000  0.024697  0.306856  1
  Rh  Rh19  1  0.500000  0.975409  0.693162  1
  Rh  Rh20  1  0.500000  0.473975  0.805503  1
  Rh  Rh21  1  0.500000  0.523527  0.195926  1
