# generated using pymatgen
data_Pr5AsRhO12
_symmetry_space_group_name_H-M   'P 1'
_cell_length_a   7.11693770
_cell_length_b   7.11693623
_cell_length_c   7.63777300
_cell_angle_alpha   74.46783679
_cell_angle_beta   74.46783172
_cell_angle_gamma   50.30855126
_symmetry_Int_Tables_number   1
_chemical_formula_structural   Pr5AsRhO12
_chemical_formula_sum   'Pr5 As1 Rh1 O12'
_cell_volume   284.36156061
_cell_formula_units_Z   1
loop_
 _symmetry_equiv_pos_site_id
 _symmetry_equiv_pos_as_xyz
  1  'x, y, z'
loop_
 _atom_site_type_symbol
 _atom_site_label
 _atom_site_symmetry_multiplicity
 _atom_site_fract_x
 _atom_site_fract_y
 _atom_site_fract_z
 _atom_site_occupancy
  Pr  Pr0  1  0.309642  0.301814  0.357136  1
  Pr  Pr1  1  0.698186  0.690358  0.642864  1
  Pr  Pr2  1  0.697218  0.693016  0.163846  1
  Pr  Pr3  1  0.306984  0.302782  0.836154  1
  Pr  Pr4  1  0.007678  0.992322  0.500000  1
  As  As5  1  0.238941  0.761059  0.000000  1
  Rh  Rh6  1  0.750472  0.249528  0.000000  1
  O  O7  1  0.100249  0.593953  0.575594  1
  O  O8  1  0.012450  0.986526  0.168346  1
  O  O9  1  0.406047  0.899751  0.424406  1
  O  O10  1  0.480902  0.520353  0.167785  1
  O  O11  1  0.104913  0.592691  0.075747  1
  O  O12  1  0.908848  0.400352  0.420701  1
  O  O13  1  0.013474  0.987550  0.831654  1
  O  O14  1  0.599648  0.091151  0.579299  1
  O  O15  1  0.479647  0.519098  0.832215  1
  O  O16  1  0.576734  0.099340  0.078038  1
  O  O17  1  0.407309  0.895087  0.924253  1
  O  O18  1  0.900660  0.423266  0.921962  1
