# generated using pymatgen
data_YTm9Si5Bi
_symmetry_space_group_name_H-M   'P 1'
_cell_length_a   8.46718273
_cell_length_b   8.46718144
_cell_length_c   6.26870300
_cell_angle_alpha   90.00000000
_cell_angle_beta   90.00000000
_cell_angle_gamma   120.33460757
_symmetry_Int_Tables_number   1
_chemical_formula_structural   YTm9Si5Bi
_chemical_formula_sum   'Y1 Tm9 Si5 Bi1'
_cell_volume   387.89296654
_cell_formula_units_Z   1
loop_
 _symmetry_equiv_pos_site_id
 _symmetry_equiv_pos_as_xyz
  1  'x, y, z'
loop_
 _atom_site_type_symbol
 _atom_site_label
 _atom_site_symmetry_multiplicity
 _atom_site_fract_x
 _atom_site_fract_y
 _atom_site_fract_z
 _atom_site_occupancy
  Y  Y0  1  0.239453  0.239453  0.750000  1
  Tm  Tm1  1  0.677327  0.330674  0.504978  1
  Tm  Tm2  1  0.330674  0.677327  0.504978  1
  Tm  Tm3  1  0.330674  0.677327  0.995022  1
  Tm  Tm4  1  0.677327  0.330674  0.995022  1
  Tm  Tm5  1  0.768869  0.768869  0.250000  1
  Tm  Tm6  1  0.239204  0.983954  0.250000  1
  Tm  Tm7  1  0.983954  0.239204  0.250000  1
  Tm  Tm8  1  0.755035  0.998309  0.750000  1
  Tm  Tm9  1  0.998309  0.755035  0.750000  1
  Si  Si10  1  0.603742  0.998635  0.250000  1
  Si  Si11  1  0.998635  0.603742  0.250000  1
  Si  Si12  1  0.607603  0.607603  0.750000  1
  Si  Si13  1  0.393666  0.002185  0.750000  1
  Si  Si14  1  0.002185  0.393666  0.750000  1
  Bi  Bi15  1  0.393344  0.393344  0.250000  1
