# generated using pymatgen
data_Tm4GaCo4
_symmetry_space_group_name_H-M   'P 1'
_cell_length_a   5.37778411
_cell_length_b   5.37778332
_cell_length_c   8.79762816
_cell_angle_alpha   70.83785912
_cell_angle_beta   70.83786078
_cell_angle_gamma   43.51288371
_symmetry_Int_Tables_number   1
_chemical_formula_structural   Tm4GaCo4
_chemical_formula_sum   'Tm4 Ga1 Co4'
_cell_volume   163.87596922
_cell_formula_units_Z   1
loop_
 _symmetry_equiv_pos_site_id
 _symmetry_equiv_pos_as_xyz
  1  'x, y, z'
loop_
 _atom_site_type_symbol
 _atom_site_label
 _atom_site_symmetry_multiplicity
 _atom_site_fract_x
 _atom_site_fract_y
 _atom_site_fract_z
 _atom_site_occupancy
  Tm  Tm0  1  0.745932  0.745932  0.662176  1
  Tm  Tm1  1  0.254068  0.254068  0.337824  1
  Tm  Tm2  1  0.390882  0.390882  0.885902  1
  Tm  Tm3  1  0.609118  0.609118  0.114098  1
  Ga  Ga4  1  0.500000  0.500000  0.500000  1
  Co  Co5  1  0.038298  0.038298  0.645528  1
  Co  Co6  1  0.961702  0.961702  0.354472  1
  Co  Co7  1  0.095460  0.095460  0.880378  1
  Co  Co8  1  0.904540  0.904540  0.119622  1
