# generated using pymatgen
data_La3(GeIr)2
_symmetry_space_group_name_H-M   'P 1'
_cell_length_a   5.83906900
_cell_length_b   8.29725200
_cell_length_c   13.56555100
_cell_angle_alpha   90.00000000
_cell_angle_beta   90.00000000
_cell_angle_gamma   90.00000000
_symmetry_Int_Tables_number   1
_chemical_formula_structural   La3(GeIr)2
_chemical_formula_sum   'La12 Ge8 Ir8'
_cell_volume   657.22689339
_cell_formula_units_Z   4
loop_
 _symmetry_equiv_pos_site_id
 _symmetry_equiv_pos_as_xyz
  1  'x, y, z'
loop_
 _atom_site_type_symbol
 _atom_site_label
 _atom_site_symmetry_multiplicity
 _atom_site_fract_x
 _atom_site_fract_y
 _atom_site_fract_z
 _atom_site_occupancy
  La  La0  1  0.149635  0.894248  0.599470  1
  La  La1  1  0.850365  0.105752  0.099470  1
  La  La2  1  0.149635  0.605752  0.400530  1
  La  La3  1  0.850365  0.394248  0.900530  1
  La  La4  1  0.850365  0.105752  0.400530  1
  La  La5  1  0.149635  0.894248  0.900530  1
  La  La6  1  0.850365  0.394248  0.599470  1
  La  La7  1  0.149635  0.605752  0.099470  1
  La  La8  1  0.366310  0.250393  0.750000  1
  La  La9  1  0.633690  0.749607  0.250000  1
  La  La10  1  0.366310  0.249607  0.250000  1
  La  La11  1  0.633690  0.750393  0.750000  1
  Ge  Ge12  1  0.856153  0.102503  0.750000  1
  Ge  Ge13  1  0.143847  0.897497  0.250000  1
  Ge  Ge14  1  0.856153  0.397497  0.250000  1
  Ge  Ge15  1  0.143847  0.602503  0.750000  1
  Ge  Ge16  1  0.370765  0.250000  0.500000  1
  Ge  Ge17  1  0.629235  0.750000  0.000000  1
  Ge  Ge18  1  0.629235  0.750000  0.500000  1
  Ge  Ge19  1  0.370765  0.250000  0.000000  1
  Ir  Ir20  1  0.628866  0.035886  0.590877  1
  Ir  Ir21  1  0.371134  0.964114  0.090877  1
  Ir  Ir22  1  0.628866  0.464114  0.409123  1
  Ir  Ir23  1  0.371134  0.535886  0.909123  1
  Ir  Ir24  1  0.371134  0.964114  0.409123  1
  Ir  Ir25  1  0.628866  0.035886  0.909123  1
  Ir  Ir26  1  0.371134  0.535886  0.590877  1
  Ir  Ir27  1  0.628866  0.464114  0.090877  1
