# generated using pymatgen
data_Zr6Zn7AsAu16
_symmetry_space_group_name_H-M   'P 1'
_cell_length_a   9.13001258
_cell_length_b   9.13001250
_cell_length_c   9.13001400
_cell_angle_alpha   60.00000182
_cell_angle_beta   60.00000211
_cell_angle_gamma   59.99999903
_symmetry_Int_Tables_number   1
_chemical_formula_structural   Zr6Zn7AsAu16
_chemical_formula_sum   'Zr6 Zn7 As1 Au16'
_cell_volume   538.14486871
_cell_formula_units_Z   1
loop_
 _symmetry_equiv_pos_site_id
 _symmetry_equiv_pos_as_xyz
  1  'x, y, z'
loop_
 _atom_site_type_symbol
 _atom_site_label
 _atom_site_symmetry_multiplicity
 _atom_site_fract_x
 _atom_site_fract_y
 _atom_site_fract_z
 _atom_site_occupancy
  Zr  Zr0  1  0.714170  0.285830  0.285830  1
  Zr  Zr1  1  0.285830  0.714170  0.714170  1
  Zr  Zr2  1  0.285830  0.714170  0.285830  1
  Zr  Zr3  1  0.714170  0.285830  0.714170  1
  Zr  Zr4  1  0.285830  0.285830  0.714170  1
  Zr  Zr5  1  0.714170  0.714170  0.285830  1
  Zn  Zn6  1  0.500000  0.000000  0.000000  1
  Zn  Zn7  1  0.000000  0.500000  0.500000  1
  Zn  Zn8  1  0.000000  0.500000  0.000000  1
  Zn  Zn9  1  0.500000  0.000000  0.500000  1
  Zn  Zn10  1  0.000000  0.000000  0.500000  1
  Zn  Zn11  1  0.500000  0.500000  0.000000  1
  Zn  Zn12  1  0.000000  0.000000  0.000000  1
  As  As13  1  0.500000  0.500000  0.500000  1
  Au  Au14  1  0.118478  0.118478  0.118478  1
  Au  Au15  1  0.881522  0.881522  0.881522  1
  Au  Au16  1  0.118478  0.118478  0.644567  1
  Au  Au17  1  0.118478  0.644567  0.118478  1
  Au  Au18  1  0.881522  0.881522  0.355433  1
  Au  Au19  1  0.881522  0.355433  0.881522  1
  Au  Au20  1  0.644567  0.118478  0.118478  1
  Au  Au21  1  0.355433  0.881522  0.881522  1
  Au  Au22  1  0.342878  0.342878  0.342878  1
  Au  Au23  1  0.657122  0.657122  0.657122  1
  Au  Au24  1  0.342878  0.342878  0.971367  1
  Au  Au25  1  0.342878  0.971367  0.342878  1
  Au  Au26  1  0.657122  0.657122  0.028633  1
  Au  Au27  1  0.657122  0.028633  0.657122  1
  Au  Au28  1  0.971367  0.342878  0.342878  1
  Au  Au29  1  0.028633  0.657122  0.657122  1
