# generated using pymatgen
data_La3Tm2(Sn5Rh2)2
_symmetry_space_group_name_H-M   'P 1'
_cell_length_a   14.25046600
_cell_length_b   14.25046600
_cell_length_c   4.60728000
_cell_angle_alpha   90.00000000
_cell_angle_beta   90.00000000
_cell_angle_gamma   90.00000000
_symmetry_Int_Tables_number   1
_chemical_formula_structural   La3Tm2(Sn5Rh2)2
_chemical_formula_sum   'La6 Tm4 Sn20 Rh8'
_cell_volume   935.62698529
_cell_formula_units_Z   2
loop_
 _symmetry_equiv_pos_site_id
 _symmetry_equiv_pos_as_xyz
  1  'x, y, z'
loop_
 _atom_site_type_symbol
 _atom_site_label
 _atom_site_symmetry_multiplicity
 _atom_site_fract_x
 _atom_site_fract_y
 _atom_site_fract_z
 _atom_site_occupancy
  La  La0  1  0.500000  0.500000  0.000000  1
  La  La1  1  0.000000  0.000000  0.000000  1
  La  La2  1  0.888159  0.388159  0.500000  1
  La  La3  1  0.111841  0.611841  0.500000  1
  La  La4  1  0.388159  0.111841  0.500000  1
  La  La5  1  0.611841  0.888159  0.500000  1
  Tm  Tm6  1  0.676154  0.176154  0.500000  1
  Tm  Tm7  1  0.323846  0.823846  0.500000  1
  Tm  Tm8  1  0.176154  0.323846  0.500000  1
  Tm  Tm9  1  0.823846  0.676154  0.500000  1
  Sn  Sn10  1  0.570426  0.070426  0.000000  1
  Sn  Sn11  1  0.429574  0.929574  0.000000  1
  Sn  Sn12  1  0.070426  0.429574  0.000000  1
  Sn  Sn13  1  0.929574  0.570426  0.000000  1
  Sn  Sn14  1  0.654823  0.697828  0.000000  1
  Sn  Sn15  1  0.345177  0.302172  0.000000  1
  Sn  Sn16  1  0.154823  0.802172  0.000000  1
  Sn  Sn17  1  0.845177  0.197828  0.000000  1
  Sn  Sn18  1  0.302172  0.654823  0.000000  1
  Sn  Sn19  1  0.697828  0.345177  0.000000  1
  Sn  Sn20  1  0.197828  0.154823  0.000000  1
  Sn  Sn21  1  0.802172  0.845177  0.000000  1
  Sn  Sn22  1  0.664335  0.506744  0.500000  1
  Sn  Sn23  1  0.335665  0.493256  0.500000  1
  Sn  Sn24  1  0.164335  0.993256  0.500000  1
  Sn  Sn25  1  0.835665  0.006744  0.500000  1
  Sn  Sn26  1  0.493256  0.664335  0.500000  1
  Sn  Sn27  1  0.506744  0.335665  0.500000  1
  Sn  Sn28  1  0.006744  0.164335  0.500000  1
  Sn  Sn29  1  0.993256  0.835665  0.500000  1
  Rh  Rh30  1  0.747435  0.529767  0.000000  1
  Rh  Rh31  1  0.252565  0.470233  0.000000  1
  Rh  Rh32  1  0.247435  0.970233  0.000000  1
  Rh  Rh33  1  0.752565  0.029767  0.000000  1
  Rh  Rh34  1  0.470233  0.747435  0.000000  1
  Rh  Rh35  1  0.529767  0.252565  0.000000  1
  Rh  Rh36  1  0.029767  0.247435  0.000000  1
  Rh  Rh37  1  0.970233  0.752565  0.000000  1
