# generated using pymatgen
data_Ho2Th3Nb3(P3Ir4)4
_symmetry_space_group_name_H-M   'P 1'
_cell_length_a   12.83342200
_cell_length_b   12.83342246
_cell_length_c   4.04294500
_cell_angle_alpha   90.00000000
_cell_angle_beta   90.00000000
_cell_angle_gamma   119.99999882
_symmetry_Int_Tables_number   1
_chemical_formula_structural   Ho2Th3Nb3(P3Ir4)4
_chemical_formula_sum   'Ho2 Th3 Nb3 P12 Ir16'
_cell_volume   576.65151372
_cell_formula_units_Z   1
loop_
 _symmetry_equiv_pos_site_id
 _symmetry_equiv_pos_as_xyz
  1  'x, y, z'
loop_
 _atom_site_type_symbol
 _atom_site_label
 _atom_site_symmetry_multiplicity
 _atom_site_fract_x
 _atom_site_fract_y
 _atom_site_fract_z
 _atom_site_occupancy
  Ho  Ho0  1  0.333333  0.666667  0.000000  1
  Ho  Ho1  1  0.666667  0.333333  0.000000  1
  Th  Th2  1  0.813523  0.000000  0.500000  1
  Th  Th3  1  0.000000  0.813523  0.500000  1
  Th  Th4  1  0.186477  0.186477  0.500000  1
  Nb  Nb5  1  0.450953  0.000000  0.000000  1
  Nb  Nb6  1  0.000000  0.450953  0.000000  1
  Nb  Nb7  1  0.549047  0.549047  0.000000  1
  P  P8  1  0.179492  0.000000  0.000000  1
  P  P9  1  0.000000  0.179492  0.000000  1
  P  P10  1  0.820508  0.820508  0.000000  1
  P  P11  1  0.168287  0.484978  0.500000  1
  P  P12  1  0.515022  0.683308  0.500000  1
  P  P13  1  0.316692  0.831713  0.500000  1
  P  P14  1  0.683308  0.515022  0.500000  1
  P  P15  1  0.831713  0.316692  0.500000  1
  P  P16  1  0.484978  0.168287  0.500000  1
  P  P17  1  0.637076  0.000000  0.000000  1
  P  P18  1  0.000000  0.637076  0.000000  1
  P  P19  1  0.362924  0.362924  0.000000  1
  Ir  Ir20  1  0.355461  0.491412  0.500000  1
  Ir  Ir21  1  0.508588  0.864049  0.500000  1
  Ir  Ir22  1  0.135951  0.644539  0.500000  1
  Ir  Ir23  1  0.864049  0.508588  0.500000  1
  Ir  Ir24  1  0.644539  0.135951  0.500000  1
  Ir  Ir25  1  0.491412  0.355461  0.500000  1
  Ir  Ir26  1  0.178039  0.373264  0.000000  1
  Ir  Ir27  1  0.626736  0.804775  0.000000  1
  Ir  Ir28  1  0.195225  0.821961  0.000000  1
  Ir  Ir29  1  0.804775  0.626736  0.000000  1
  Ir  Ir30  1  0.821961  0.195225  0.000000  1
  Ir  Ir31  1  0.373264  0.178039  0.000000  1
  Ir  Ir32  1  0.286317  0.000000  0.500000  1
  Ir  Ir33  1  0.000000  0.286317  0.500000  1
  Ir  Ir34  1  0.713683  0.713683  0.500000  1
  Ir  Ir35  1  0.000000  0.000000  0.000000  1
