# generated using pymatgen
data_Th10In2BiPb5
_symmetry_space_group_name_H-M   'P 1'
_cell_length_a   9.80105335
_cell_length_b   9.80105305
_cell_length_c   6.65866500
_cell_angle_alpha   90.00000000
_cell_angle_beta   90.00000000
_cell_angle_gamma   120.06735447
_symmetry_Int_Tables_number   1
_chemical_formula_structural   Th10In2BiPb5
_chemical_formula_sum   'Th10 In2 Bi1 Pb5'
_cell_volume   553.56437251
_cell_formula_units_Z   1
loop_
 _symmetry_equiv_pos_site_id
 _symmetry_equiv_pos_as_xyz
  1  'x, y, z'
loop_
 _atom_site_type_symbol
 _atom_site_label
 _atom_site_symmetry_multiplicity
 _atom_site_fract_x
 _atom_site_fract_y
 _atom_site_fract_z
 _atom_site_occupancy
  Th  Th0  1  0.667694  0.333604  0.500598  1
  Th  Th1  1  0.333604  0.667694  0.500598  1
  Th  Th2  1  0.333604  0.667694  0.999402  1
  Th  Th3  1  0.667694  0.333604  0.999402  1
  Th  Th4  1  0.721613  0.721613  0.250000  1
  Th  Th5  1  0.277568  0.998879  0.250000  1
  Th  Th6  1  0.998879  0.277568  0.250000  1
  Th  Th7  1  0.278331  0.278331  0.750000  1
  Th  Th8  1  0.721299  0.000089  0.750000  1
  Th  Th9  1  0.000089  0.721299  0.750000  1
  In  In10  1  0.999401  0.999401  0.500627  1
  In  In11  1  0.999401  0.999401  0.999373  1
  Bi  Bi12  1  0.378770  0.378770  0.250000  1
  Pb  Pb13  1  0.622492  0.999638  0.250000  1
  Pb  Pb14  1  0.999638  0.622492  0.250000  1
  Pb  Pb15  1  0.622753  0.622753  0.750000  1
  Pb  Pb16  1  0.377303  0.999866  0.750000  1
  Pb  Pb17  1  0.999866  0.377303  0.750000  1
