# generated using pymatgen
data_Pr2Dy3(Sn5Rh2)2
_symmetry_space_group_name_H-M   'P 1'
_cell_length_a   14.15969400
_cell_length_b   14.15969400
_cell_length_c   4.57145100
_cell_angle_alpha   90.00000000
_cell_angle_beta   90.00000000
_cell_angle_gamma   90.00000000
_symmetry_Int_Tables_number   1
_chemical_formula_structural   Pr2Dy3(Sn5Rh2)2
_chemical_formula_sum   'Pr4 Dy6 Sn20 Rh8'
_cell_volume   916.56191023
_cell_formula_units_Z   2
loop_
 _symmetry_equiv_pos_site_id
 _symmetry_equiv_pos_as_xyz
  1  'x, y, z'
loop_
 _atom_site_type_symbol
 _atom_site_label
 _atom_site_symmetry_multiplicity
 _atom_site_fract_x
 _atom_site_fract_y
 _atom_site_fract_z
 _atom_site_occupancy
  Pr  Pr0  1  0.888017  0.388017  0.500000  1
  Pr  Pr1  1  0.111983  0.611983  0.500000  1
  Pr  Pr2  1  0.388017  0.111983  0.500000  1
  Pr  Pr3  1  0.611983  0.888017  0.500000  1
  Dy  Dy4  1  0.500000  0.500000  0.000000  1
  Dy  Dy5  1  0.000000  0.000000  0.000000  1
  Dy  Dy6  1  0.677410  0.177410  0.500000  1
  Dy  Dy7  1  0.322590  0.822590  0.500000  1
  Dy  Dy8  1  0.177410  0.322590  0.500000  1
  Dy  Dy9  1  0.822590  0.677410  0.500000  1
  Sn  Sn10  1  0.570340  0.070340  0.000000  1
  Sn  Sn11  1  0.429660  0.929660  0.000000  1
  Sn  Sn12  1  0.070340  0.429660  0.000000  1
  Sn  Sn13  1  0.929660  0.570340  0.000000  1
  Sn  Sn14  1  0.654542  0.697913  0.000000  1
  Sn  Sn15  1  0.345458  0.302087  0.000000  1
  Sn  Sn16  1  0.154542  0.802087  0.000000  1
  Sn  Sn17  1  0.845458  0.197913  0.000000  1
  Sn  Sn18  1  0.302087  0.654542  0.000000  1
  Sn  Sn19  1  0.697913  0.345458  0.000000  1
  Sn  Sn20  1  0.197913  0.154542  0.000000  1
  Sn  Sn21  1  0.802087  0.845458  0.000000  1
  Sn  Sn22  1  0.661724  0.505403  0.500000  1
  Sn  Sn23  1  0.338276  0.494597  0.500000  1
  Sn  Sn24  1  0.161724  0.994597  0.500000  1
  Sn  Sn25  1  0.838276  0.005403  0.500000  1
  Sn  Sn26  1  0.494597  0.661724  0.500000  1
  Sn  Sn27  1  0.505403  0.338276  0.500000  1
  Sn  Sn28  1  0.005403  0.161724  0.500000  1
  Sn  Sn29  1  0.994597  0.838276  0.500000  1
  Rh  Rh30  1  0.746218  0.529132  0.000000  1
  Rh  Rh31  1  0.253782  0.470868  0.000000  1
  Rh  Rh32  1  0.246218  0.970868  0.000000  1
  Rh  Rh33  1  0.753782  0.029132  0.000000  1
  Rh  Rh34  1  0.470868  0.746218  0.000000  1
  Rh  Rh35  1  0.529132  0.253782  0.000000  1
  Rh  Rh36  1  0.029132  0.246218  0.000000  1
  Rh  Rh37  1  0.970868  0.753782  0.000000  1
