# generated using pymatgen
data_Tb7Ce(Zr3Ge4)4
_symmetry_space_group_name_H-M   'P 1'
_cell_length_a   7.47099859
_cell_length_b   7.47251569
_cell_length_c   13.70878424
_cell_angle_alpha   90.04830903
_cell_angle_beta   89.95558949
_cell_angle_gamma   89.99014794
_symmetry_Int_Tables_number   1
_chemical_formula_structural   Tb7Ce(Zr3Ge4)4
_chemical_formula_sum   'Tb7 Ce1 Zr12 Ge16'
_cell_volume   765.32189860
_cell_formula_units_Z   1
loop_
 _symmetry_equiv_pos_site_id
 _symmetry_equiv_pos_as_xyz
  1  'x, y, z'
loop_
 _atom_site_type_symbol
 _atom_site_label
 _atom_site_symmetry_multiplicity
 _atom_site_fract_x
 _atom_site_fract_y
 _atom_site_fract_z
 _atom_site_occupancy
  Tb  Tb0  1  0.999035  0.657293  0.033092  1
  Tb  Tb1  1  0.842363  0.499401  0.282542  1
  Tb  Tb2  1  0.156355  0.500732  0.782948  1
  Tb  Tb3  1  0.656839  0.999075  0.966630  1
  Tb  Tb4  1  0.342752  0.001550  0.466912  1
  Tb  Tb5  1  0.499358  0.843142  0.717186  1
  Tb  Tb6  1  0.500211  0.156733  0.216649  1
  Ce  Ce7  1  0.002014  0.342946  0.534216  1
  Zr  Zr8  1  0.827451  0.173250  0.749414  1
  Zr  Zr9  1  0.173116  0.827669  0.249822  1
  Zr  Zr10  1  0.674055  0.671121  0.500010  1
  Zr  Zr11  1  0.327153  0.327090  0.999783  1
  Zr  Zr12  1  0.504629  0.344182  0.624220  1
  Zr  Zr13  1  0.496092  0.656056  0.123269  1
  Zr  Zr14  1  0.843486  0.996613  0.373910  1
  Zr  Zr15  1  0.156354  0.003473  0.873882  1
  Zr  Zr16  1  0.655537  0.496523  0.877223  1
  Zr  Zr17  1  0.342808  0.504250  0.376400  1
  Zr  Zr18  1  0.995911  0.843213  0.626277  1
  Zr  Zr19  1  0.004381  0.155293  0.125770  1
  Ge  Ge20  1  0.633564  0.299639  0.427037  1
  Ge  Ge21  1  0.366162  0.701174  0.926908  1
  Ge  Ge22  1  0.798752  0.866237  0.177210  1
  Ge  Ge23  1  0.201833  0.132093  0.677992  1
  Ge  Ge24  1  0.700955  0.366008  0.073173  1
  Ge  Ge25  1  0.299831  0.634081  0.572897  1
  Ge  Ge26  1  0.866550  0.799005  0.822887  1
  Ge  Ge27  1  0.133540  0.200735  0.321828  1
  Ge  Ge28  1  0.703672  0.038606  0.566718  1
  Ge  Ge29  1  0.296696  0.961500  0.066764  1
  Ge  Ge30  1  0.538795  0.796141  0.317156  1
  Ge  Ge31  1  0.461672  0.203689  0.817299  1
  Ge  Ge32  1  0.960844  0.295988  0.932863  1
  Ge  Ge33  1  0.038298  0.704596  0.431838  1
  Ge  Ge34  1  0.794859  0.540052  0.684483  1
  Ge  Ge35  1  0.204077  0.460854  0.182789  1
