# generated using pymatgen
data_Ti6ZnMo2Ir3
_symmetry_space_group_name_H-M   'P 1'
_cell_length_a   4.42922301
_cell_length_b   6.29260200
_cell_length_c   13.18153902
_cell_angle_alpha   90.00000000
_cell_angle_beta   89.99446269
_cell_angle_gamma   90.00000000
_symmetry_Int_Tables_number   1
_chemical_formula_structural   Ti6ZnMo2Ir3
_chemical_formula_sum   'Ti12 Zn2 Mo4 Ir6'
_cell_volume   367.38712149
_cell_formula_units_Z   2
loop_
 _symmetry_equiv_pos_site_id
 _symmetry_equiv_pos_as_xyz
  1  'x, y, z'
loop_
 _atom_site_type_symbol
 _atom_site_label
 _atom_site_symmetry_multiplicity
 _atom_site_fract_x
 _atom_site_fract_y
 _atom_site_fract_z
 _atom_site_occupancy
  Ti  Ti0  1  0.499973  0.254807  0.996304  1
  Ti  Ti1  1  0.499973  0.745194  0.996304  1
  Ti  Ti2  1  0.000072  0.245211  0.170358  1
  Ti  Ti3  1  0.000072  0.754789  0.170358  1
  Ti  Ti4  1  0.500116  0.248289  0.336639  1
  Ti  Ti5  1  0.500116  0.751709  0.336639  1
  Ti  Ti6  1  0.000014  0.248655  0.500897  1
  Ti  Ti7  1  0.000014  0.751344  0.500897  1
  Ti  Ti8  1  0.499916  0.251352  0.665798  1
  Ti  Ti9  1  0.499916  0.748646  0.665798  1
  Ti  Ti10  1  0.999903  0.251702  0.830020  1
  Ti  Ti11  1  0.999903  0.748298  0.830020  1
  Zn  Zn12  1  0.999987  0.000000  0.999379  1
  Zn  Zn13  1  0.500059  0.499999  0.167278  1
  Mo  Mo14  1  0.000101  0.000000  0.330716  1
  Mo  Mo15  1  0.500033  0.499999  0.497390  1
  Mo  Mo16  1  0.999919  0.000000  0.669293  1
  Mo  Mo17  1  0.499911  0.499999  0.835933  1
  Ir  Ir18  1  0.999945  0.499999  0.005052  1
  Ir  Ir19  1  0.500104  0.000000  0.161591  1
  Ir  Ir20  1  0.000121  0.499999  0.328506  1
  Ir  Ir21  1  0.500010  0.000000  0.500084  1
  Ir  Ir22  1  0.999940  0.499999  0.666599  1
  Ir  Ir23  1  0.499881  0.000000  0.838145  1
