# generated using pymatgen
data_CaEr3Mg4(B6Os)4
_symmetry_space_group_name_H-M   'P 1'
_cell_length_a   3.55729600
_cell_length_b   8.89885878
_cell_length_c   11.25237691
_cell_angle_alpha   89.95227999
_cell_angle_beta   90.00000000
_cell_angle_gamma   90.00000000
_symmetry_Int_Tables_number   1
_chemical_formula_structural   CaEr3Mg4(B6Os)4
_chemical_formula_sum   'Ca1 Er3 Mg4 B24 Os4'
_cell_volume   356.20371052
_cell_formula_units_Z   1
loop_
 _symmetry_equiv_pos_site_id
 _symmetry_equiv_pos_as_xyz
  1  'x, y, z'
loop_
 _atom_site_type_symbol
 _atom_site_label
 _atom_site_symmetry_multiplicity
 _atom_site_fract_x
 _atom_site_fract_y
 _atom_site_fract_z
 _atom_site_occupancy
  Ca  Ca0  1  0.000000  0.321880  0.413757  1
  Er  Er1  1  0.000000  0.675668  0.585507  1
  Er  Er2  1  0.000000  0.823479  0.087050  1
  Er  Er3  1  0.000000  0.176345  0.913506  1
  Mg  Mg4  1  0.000000  0.944295  0.372369  1
  Mg  Mg5  1  0.000000  0.056733  0.626762  1
  Mg  Mg6  1  0.000000  0.443392  0.129359  1
  Mg  Mg7  1  0.000000  0.555685  0.872883  1
  B  B8  1  0.500000  0.555467  0.432391  1
  B  B9  1  0.500000  0.445445  0.567875  1
  B  B10  1  0.500000  0.055117  0.066333  1
  B  B11  1  0.500000  0.944442  0.932571  1
  B  B12  1  0.500000  0.755354  0.418123  1
  B  B13  1  0.500000  0.244915  0.582457  1
  B  B14  1  0.500000  0.255408  0.081594  1
  B  B15  1  0.500000  0.744484  0.918406  1
  B  B16  1  0.500000  0.794593  0.262780  1
  B  B17  1  0.500000  0.206457  0.737588  1
  B  B18  1  0.500000  0.293822  0.236138  1
  B  B19  1  0.500000  0.706059  0.763317  1
  B  B20  1  0.500000  0.628491  0.182316  1
  B  B21  1  0.500000  0.372136  0.818712  1
  B  B22  1  0.500000  0.127982  0.317089  1
  B  B23  1  0.500000  0.871725  0.682109  1
  B  B24  1  0.500000  0.980054  0.212381  1
  B  B25  1  0.500000  0.019682  0.786680  1
  B  B26  1  0.500000  0.480226  0.286928  1
  B  B27  1  0.500000  0.519809  0.713360  1
  B  B28  1  0.500000  0.593053  0.025718  1
  B  B29  1  0.500000  0.407417  0.974847  1
  B  B30  1  0.500000  0.092155  0.474806  1
  B  B31  1  0.500000  0.907241  0.525261  1
  Os  Os32  1  0.000000  0.642586  0.317710  1
  Os  Os33  1  0.000000  0.360196  0.683038  1
  Os  Os34  1  0.000000  0.138093  0.179916  1
  Os  Os35  1  0.000000  0.860112  0.818364  1
