# generated using pymatgen
data_Tm4InPt10Rh
_symmetry_space_group_name_H-M   'P 1'
_cell_length_a   4.16450700
_cell_length_b   5.78364036
_cell_length_c   11.61861768
_cell_angle_alpha   87.36278934
_cell_angle_beta   90.00000000
_cell_angle_gamma   90.00000000
_symmetry_Int_Tables_number   1
_chemical_formula_structural   Tm4InPt10Rh
_chemical_formula_sum   'Tm4 In1 Pt10 Rh1'
_cell_volume   279.54976490
_cell_formula_units_Z   1
loop_
 _symmetry_equiv_pos_site_id
 _symmetry_equiv_pos_as_xyz
  1  'x, y, z'
loop_
 _atom_site_type_symbol
 _atom_site_label
 _atom_site_symmetry_multiplicity
 _atom_site_fract_x
 _atom_site_fract_y
 _atom_site_fract_z
 _atom_site_occupancy
  Tm  Tm0  1  0.500000  0.754103  0.374839  1
  Tm  Tm1  1  0.500000  0.716538  0.865446  1
  Tm  Tm2  1  0.500000  0.283462  0.134554  1
  Tm  Tm3  1  0.500000  0.245897  0.625161  1
  In  In4  1  0.000000  0.000000  0.000000  1
  Pt  Pt5  1  0.000000  0.014329  0.249945  1
  Pt  Pt6  1  0.000000  0.985671  0.750055  1
  Pt  Pt7  1  0.000000  0.500000  0.500000  1
  Pt  Pt8  1  0.000000  0.515554  0.250241  1
  Pt  Pt9  1  0.000000  0.484446  0.749759  1
  Pt  Pt10  1  0.500000  0.252144  0.377850  1
  Pt  Pt11  1  0.500000  0.231874  0.879948  1
  Pt  Pt12  1  0.500000  0.768126  0.120052  1
  Pt  Pt13  1  0.500000  0.747856  0.622150  1
  Pt  Pt14  1  0.000000  0.000000  0.500000  1
  Rh  Rh15  1  0.000000  0.500000  0.000000  1
