# generated using pymatgen
data_Ho11Tm9FeCo3Bi8
_symmetry_space_group_name_H-M   'P 1'
_cell_length_a   7.89131052
_cell_length_b   8.86919200
_cell_length_c   12.34424242
_cell_angle_alpha   90.00000000
_cell_angle_beta   90.02061605
_cell_angle_gamma   90.00000000
_symmetry_Int_Tables_number   1
_chemical_formula_structural   Ho11Tm9FeCo3Bi8
_chemical_formula_sum   'Ho11 Tm9 Fe1 Co3 Bi8'
_cell_volume   863.96789359
_cell_formula_units_Z   1
loop_
 _symmetry_equiv_pos_site_id
 _symmetry_equiv_pos_as_xyz
  1  'x, y, z'
loop_
 _atom_site_type_symbol
 _atom_site_label
 _atom_site_symmetry_multiplicity
 _atom_site_fract_x
 _atom_site_fract_y
 _atom_site_fract_z
 _atom_site_occupancy
  Ho  Ho0  1  0.651111  0.250000  0.300578  1
  Ho  Ho1  1  0.848671  0.250000  0.799770  1
  Ho  Ho2  1  0.150244  0.750000  0.199396  1
  Ho  Ho3  1  0.887418  0.750000  0.813510  1
  Ho  Ho4  1  0.114697  0.250000  0.187518  1
  Ho  Ho5  1  0.385379  0.250000  0.686734  1
  Ho  Ho6  1  0.614492  0.750000  0.313714  1
  Ho  Ho7  1  0.055502  0.750000  0.496750  1
  Ho  Ho8  1  0.945761  0.250000  0.503385  1
  Ho  Ho9  1  0.555632  0.250000  0.003054  1
  Ho  Ho10  1  0.443558  0.750000  0.995708  1
  Tm  Tm11  1  0.348026  0.750000  0.700136  1
  Tm  Tm12  1  0.673904  0.537722  0.563889  1
  Tm  Tm13  1  0.325804  0.462025  0.436678  1
  Tm  Tm14  1  0.172698  0.465790  0.937351  1
  Tm  Tm15  1  0.325804  0.037975  0.436678  1
  Tm  Tm16  1  0.825494  0.538852  0.062891  1
  Tm  Tm17  1  0.673904  0.962278  0.563889  1
  Tm  Tm18  1  0.825494  0.961148  0.062891  1
  Tm  Tm19  1  0.172698  0.034210  0.937351  1
  Fe  Fe20  1  0.068093  0.750000  0.991874  1
  Co  Co21  1  0.934272  0.250000  0.007306  1
  Co  Co22  1  0.564504  0.250000  0.507493  1
  Co  Co23  1  0.435390  0.750000  0.493503  1
  Bi  Bi24  1  0.570643  0.508713  0.826204  1
  Bi  Bi25  1  0.429721  0.491799  0.172780  1
  Bi  Bi26  1  0.071531  0.492251  0.673010  1
  Bi  Bi27  1  0.429721  0.008201  0.172780  1
  Bi  Bi28  1  0.928832  0.508314  0.326983  1
  Bi  Bi29  1  0.570643  0.991287  0.826204  1
  Bi  Bi30  1  0.928832  0.991686  0.326983  1
  Bi  Bi31  1  0.071531  0.007749  0.673010  1
