# generated using pymatgen
data_Li3TmAs6Rh7
_symmetry_space_group_name_H-M   'P 1'
_cell_length_a   7.05692934
_cell_length_b   6.93154425
_cell_length_c   7.05692837
_cell_angle_alpha   109.11169976
_cell_angle_beta   109.82833474
_cell_angle_gamma   109.11169540
_symmetry_Int_Tables_number   1
_chemical_formula_structural   Li3TmAs6Rh7
_chemical_formula_sum   'Li3 Tm1 As6 Rh7'
_cell_volume   266.89925469
_cell_formula_units_Z   1
loop_
 _symmetry_equiv_pos_site_id
 _symmetry_equiv_pos_as_xyz
  1  'x, y, z'
loop_
 _atom_site_type_symbol
 _atom_site_label
 _atom_site_symmetry_multiplicity
 _atom_site_fract_x
 _atom_site_fract_y
 _atom_site_fract_z
 _atom_site_occupancy
  Li  Li0  1  0.500000  0.500000  0.500000  1
  Li  Li1  1  0.500000  0.000000  0.000000  1
  Li  Li2  1  0.000000  0.000000  0.500000  1
  Tm  Tm3  1  0.000000  0.500000  0.000000  1
  As  As4  1  0.680002  0.986375  0.680002  1
  As  As5  1  0.680002  0.693627  0.000000  1
  As  As6  1  0.319998  0.306373  0.000000  1
  As  As7  1  0.000000  0.693627  0.680002  1
  As  As8  1  0.000000  0.306373  0.319998  1
  As  As9  1  0.319998  0.013625  0.319998  1
  Rh  Rh10  1  0.502536  0.751268  0.251268  1
  Rh  Rh11  1  0.748732  0.248732  0.497464  1
  Rh  Rh12  1  0.251268  0.751268  0.502536  1
  Rh  Rh13  1  0.251268  0.500000  0.748732  1
  Rh  Rh14  1  0.000000  0.000000  0.000000  1
  Rh  Rh15  1  0.497464  0.248732  0.748732  1
  Rh  Rh16  1  0.748732  0.500000  0.251268  1
