# generated using pymatgen
data_Ho2Si6Ir
_symmetry_space_group_name_H-M   'P 1'
_cell_length_a   5.56947803
_cell_length_b   5.56947848
_cell_length_c   21.01666200
_cell_angle_alpha   90.00000000
_cell_angle_beta   90.00000000
_cell_angle_gamma   90.95457549
_symmetry_Int_Tables_number   1
_chemical_formula_structural   Ho2Si6Ir
_chemical_formula_sum   'Ho8 Si24 Ir4'
_cell_volume   651.82721379
_cell_formula_units_Z   4
loop_
 _symmetry_equiv_pos_site_id
 _symmetry_equiv_pos_as_xyz
  1  'x, y, z'
loop_
 _atom_site_type_symbol
 _atom_site_label
 _atom_site_symmetry_multiplicity
 _atom_site_fract_x
 _atom_site_fract_y
 _atom_site_fract_z
 _atom_site_occupancy
  Ho  Ho0  1  0.373543  0.874172  0.581511  1
  Ho  Ho1  1  0.125828  0.626457  0.418489  1
  Ho  Ho2  1  0.625828  0.126457  0.081511  1
  Ho  Ho3  1  0.873543  0.374172  0.918489  1
  Ho  Ho4  1  0.626457  0.125828  0.418489  1
  Ho  Ho5  1  0.874172  0.373543  0.581511  1
  Ho  Ho6  1  0.374172  0.873543  0.918489  1
  Ho  Ho7  1  0.126457  0.625828  0.081511  1
  Si  Si8  1  0.652188  0.095422  0.693458  1
  Si  Si9  1  0.904578  0.347812  0.306542  1
  Si  Si10  1  0.404578  0.847812  0.193458  1
  Si  Si11  1  0.152188  0.595422  0.806542  1
  Si  Si12  1  0.347812  0.904578  0.306542  1
  Si  Si13  1  0.095422  0.652188  0.693458  1
  Si  Si14  1  0.595422  0.152188  0.806542  1
  Si  Si15  1  0.847812  0.404578  0.193458  1
  Si  Si16  1  0.375955  0.375955  0.964549  1
  Si  Si17  1  0.624045  0.624045  0.035451  1
  Si  Si18  1  0.124045  0.124045  0.464549  1
  Si  Si19  1  0.875955  0.875955  0.535451  1
  Si  Si20  1  0.374505  0.374505  0.531107  1
  Si  Si21  1  0.625495  0.625495  0.468893  1
  Si  Si22  1  0.125495  0.125495  0.031107  1
  Si  Si23  1  0.874505  0.874505  0.968893  1
  Si  Si24  1  0.154252  0.154252  0.806540  1
  Si  Si25  1  0.845748  0.845748  0.193460  1
  Si  Si26  1  0.345748  0.345748  0.306540  1
  Si  Si27  1  0.654252  0.654252  0.693460  1
  Si  Si28  1  0.093756  0.093756  0.693366  1
  Si  Si29  1  0.906244  0.906244  0.306634  1
  Si  Si30  1  0.406244  0.406244  0.193366  1
  Si  Si31  1  0.593756  0.593756  0.806634  1
  Ir  Ir32  1  0.374491  0.374491  0.643087  1
  Ir  Ir33  1  0.625509  0.625509  0.356913  1
  Ir  Ir34  1  0.125509  0.125509  0.143087  1
  Ir  Ir35  1  0.874491  0.874491  0.856913  1
